MODEL 1
REMARK VINA RESULT:      -9.5      0.000      0.000
REMARK SMILES C[C@@H]1CCC[C@](C#N)([C@H](O)C(=O)OCCOC(=O)c2ccc(-c3c4nc(c(-c5c(F)cc(S(=O)(=O)[O-])cc5F)c5ccc([nH]5)c(-c5c(F)cc(S(=O)(=O)[O-])cc5F)c5nc(c(-c6c(F)cc(S(=O)(=O)[O-])cc6F)c6ccc3[nH]6)C=C5)C=C4)cc2)C1
REMARK SMILES IDX 15 1 14 2 13 3 11 4 12 5 9 6 6 7 1 8 2 9 3 10 85 11 4 12
REMARK SMILES IDX 5 13 7 14 8 15 10 16 16 18 17 19 18 20 19 21 20 22 84 23
REMARK SMILES IDX 21 24 83 25 22 26 23 27 24 28 77 29 25 30 82 31 76 32 78 33
REMARK SMILES IDX 26 34 81 35 75 36 74 37 27 39 61 40 40 41 60 42 41 43 44 44
REMARK SMILES IDX 59 45 79 46 42 47 43 48 58 50 80 51 45 52 28 53 29 54 38 55
REMARK SMILES IDX 30 56 31 57 37 58 39 59 32 60 33 61 34 62 35 63 36 64 62 65
REMARK SMILES IDX 63 66 72 67 64 68 65 69 71 70 73 71 66 72 67 73 68 74 69 75
REMARK SMILES IDX 70 76 46 77 47 78 56 79 48 80 49 81 55 82 57 83 50 84 51 85
REMARK SMILES IDX 52 86 53 87 54 88
REMARK H PARENT 10 17 78 38 44 49
REMARK Flexibility Score: inf
ROOT
ATOM      1  C   UNL A   1      33.952  32.195  28.673  1.00  0.00     0.275 C 
ENDROOT
BRANCH   1   2
ATOM      2  C   UNL A   1      34.756  33.501  28.620  1.00  0.00     0.274 C 
BRANCH   2   3
ATOM      3  O   UNL A   1      35.110  33.938  29.948  1.00  0.00    -0.460 OA
BRANCH   3   4
ATOM      4  C   UNL A   1      36.270  33.453  30.466  1.00  0.00     0.336 C 
ATOM      5  O   UNL A   1      37.090  32.796  29.842  1.00  0.00    -0.249 OA
BRANCH   4   6
ATOM      6  C   UNL A   1      36.501  33.957  31.906  1.00  0.00     0.244 C 
BRANCH   6   7
ATOM      7  C   UNL A   1      35.974  33.038  33.033  1.00  0.00     0.094 C 
ATOM      8  C   UNL A   1      38.914  34.244  34.421  1.00  0.00     0.008 C 
ATOM      9  C   UNL A   1      37.990  33.055  34.714  1.00  0.00    -0.013 C 
ATOM     10  C   UNL A   1      38.483  31.723  34.115  1.00  0.00     0.003 C 
ATOM     11  C   UNL A   1      36.508  33.362  34.443  1.00  0.00     0.029 C 
ATOM     12  C   UNL A   1      37.817  31.232  32.830  1.00  0.00     0.002 C 
ATOM     13  C   UNL A   1      36.330  31.557  32.730  1.00  0.00     0.026 C 
BRANCH   7  14
ATOM     14  C   UNL A   1      34.490  33.144  33.063  1.00  0.00     0.072 C 
ATOM     15  N   UNL A   1      33.336  33.205  33.106  1.00  0.00    -0.198 NA
ENDBRANCH   7  14
ENDBRANCH   6   7
BRANCH   6  16
ATOM     16  O   UNL A   1      36.082  35.305  32.092  1.00  0.00    -0.380 OA
ATOM     17  H   UNL A   1      36.806  35.905  31.853  1.00  0.00     0.211 HD
ENDBRANCH   6  16
ENDBRANCH   4   6
ENDBRANCH   3   4
ENDBRANCH   2   3
ENDBRANCH   1   2
BRANCH   1  18
ATOM     18  O   UNL A   1      34.236  31.335  27.550  1.00  0.00    -0.458 OA
BRANCH  18  19
ATOM     19  C   UNL A   1      34.455  30.038  27.872  1.00  0.00     0.338 C 
ATOM     20  O   UNL A   1      33.687  29.105  27.696  1.00  0.00    -0.246 OA
BRANCH  19  21
ATOM     21  C   UNL A   1      35.857  29.822  28.257  1.00  0.00     0.060 A 
ATOM     22  C   UNL A   1      36.816  30.003  27.258  1.00  0.00     0.016 A 
ATOM     23  C   UNL A   1      36.235  29.376  29.520  1.00  0.00     0.016 A 
ATOM     24  C   UNL A   1      38.156  29.762  27.502  1.00  0.00     0.010 A 
ATOM     25  C   UNL A   1      37.591  29.129  29.770  1.00  0.00     0.010 A 
ATOM     26  C   UNL A   1      38.555  29.322  28.763  1.00  0.00    -0.014 A 
BRANCH  26  27
ATOM     27  C   UNL A   1      39.981  29.003  28.982  1.00  0.00     0.031 A 
ATOM     28  C   UNL A   1      40.891  30.055  29.541  1.00  0.00     0.074 A 
ATOM     29  C   UNL A   1      40.432  27.762  28.724  1.00  0.00     0.049 A 
ATOM     30  N   UNL A   1      42.186  30.023  29.705  1.00  0.00    -0.248 NA
ATOM     31  C   UNL A   1      40.258  31.313  29.970  1.00  0.00     0.031 C 
ATOM     32  C   UNL A   1      39.607  26.643  28.258  1.00  0.00     0.029 A 
ATOM     33  N   UNL A   1      41.691  27.230  28.816  1.00  0.00    -0.354 N 
ATOM     34  C   UNL A   1      42.530  31.264  30.225  1.00  0.00     0.074 A 
ATOM     35  C   UNL A   1      41.310  32.035  30.330  1.00  0.00     0.031 C 
ATOM     36  C   UNL A   1      40.385  25.560  28.103  1.00  0.00     0.029 A 
ATOM     37  C   UNL A   1      41.766  25.925  28.392  1.00  0.00     0.049 A 
ATOM     38  H   UNL A   1      42.467  27.734  29.153  1.00  0.00     0.167 HD
ATOM     39  C   UNL A   1      43.756  31.712  30.580  1.00  0.00     0.037 A 
ATOM     40  C   UNL A   1      42.838  25.129  28.215  1.00  0.00     0.037 A 
ATOM     41  C   UNL A   1      44.955  30.919  30.473  1.00  0.00     0.049 A 
ATOM     42  C   UNL A   1      44.202  25.681  28.534  1.00  0.00     0.074 A 
ATOM     43  C   UNL A   1      46.252  31.270  30.801  1.00  0.00     0.029 A 
ATOM     44  N   UNL A   1      45.000  29.614  30.000  1.00  0.00    -0.354 N 
ATOM     45  N   UNL A   1      44.524  26.864  29.001  1.00  0.00    -0.248 NA
ATOM     46  C   UNL A   1      45.348  24.795  28.296  1.00  0.00     0.031 C 
ATOM     47  C   UNL A   1      47.089  30.200  30.468  1.00  0.00     0.029 A 
ATOM     48  C   UNL A   1      46.308  29.155  30.000  1.00  0.00     0.049 A 
ATOM     49  H   UNL A   1      44.220  29.091  29.707  1.00  0.00     0.167 HD
ATOM     50  C   UNL A   1      45.907  26.854  29.145  1.00  0.00     0.074 A 
ATOM     51  C   UNL A   1      46.356  25.542  28.725  1.00  0.00     0.031 C 
ATOM     52  C   UNL A   1      46.730  27.838  29.585  1.00  0.00     0.037 A 
BRANCH  39  53
ATOM     53  C   UNL A   1      43.869  33.131  31.069  1.00  0.00     0.058 A 
ATOM     54  C   UNL A   1      43.794  33.461  32.431  1.00  0.00     0.135 A 
ATOM     55  C   UNL A   1      44.072  34.178  30.155  1.00  0.00     0.135 A 
ATOM     56  F   UNL A   1      43.578  32.505  33.349  1.00  0.00    -0.206 F 
ATOM     57  C   UNL A   1      43.888  34.780  32.867  1.00  0.00     0.059 A 
ATOM     58  C   UNL A   1      44.202  35.500  30.570  1.00  0.00     0.059 A 
ATOM     59  F   UNL A   1      44.144  33.923  28.839  1.00  0.00    -0.206 F 
ATOM     60  C   UNL A   1      44.094  35.793  31.929  1.00  0.00     0.060 A 
BRANCH  60  61
ATOM     61  S   UNL A   1      44.217  37.496  32.512  1.00  0.00     0.124 S 
ATOM     62  O   UNL A   1      45.588  37.536  33.011  1.00  0.00    -0.237 OA
ATOM     63  O   UNL A   1      43.964  38.259  31.294  1.00  0.00    -0.237 OA
ATOM     64  O   UNL A   1      43.176  37.584  33.531  1.00  0.00    -0.744 OA
ENDBRANCH  60  61
ENDBRANCH  39  53
BRANCH  40  65
ATOM     65  C   UNL A   1      42.666  23.749  27.686  1.00  0.00     0.058 A 
ATOM     66  C   UNL A   1      42.617  23.502  26.307  1.00  0.00     0.135 A 
ATOM     67  C   UNL A   1      42.552  22.647  28.550  1.00  0.00     0.135 A 
ATOM     68  F   UNL A   1      42.711  24.521  25.439  1.00  0.00    -0.206 F 
ATOM     69  C   UNL A   1      42.442  22.217  25.802  1.00  0.00     0.059 A 
ATOM     70  C   UNL A   1      42.410  21.349  28.069  1.00  0.00     0.059 A 
ATOM     71  F   UNL A   1      42.603  22.824  29.879  1.00  0.00    -0.206 F 
ATOM     72  C   UNL A   1      42.344  21.146  26.691  1.00  0.00     0.060 A 
BRANCH  72  73
ATOM     73  S   UNL A   1      42.151  19.481  26.021  1.00  0.00     0.124 S 
ATOM     74  O   UNL A   1      40.717  19.432  25.763  1.00  0.00    -0.237 OA
ATOM     75  O   UNL A   1      43.012  19.525  24.844  1.00  0.00    -0.237 OA
ATOM     76  O   UNL A   1      42.625  18.625  27.105  1.00  0.00    -0.744 OA
ENDBRANCH  72  73
ENDBRANCH  40  65
BRANCH  52  77
ATOM     77  C   UNL A   1      48.196  27.517  29.684  1.00  0.00     0.058 A 
ATOM     78  C   UNL A   1      49.106  27.875  28.677  1.00  0.00     0.135 A 
ATOM     79  C   UNL A   1      48.705  26.889  30.833  1.00  0.00     0.135 A 
ATOM     80  F   UNL A   1      48.671  28.470  27.554  1.00  0.00    -0.206 F 
ATOM     81  C   UNL A   1      50.463  27.598  28.793  1.00  0.00     0.059 A 
ATOM     82  C   UNL A   1      50.063  26.634  30.986  1.00  0.00     0.059 A 
ATOM     83  F   UNL A   1      47.881  26.534  31.832  1.00  0.00    -0.206 F 
ATOM     84  C   UNL A   1      50.933  26.981  29.955  1.00  0.00     0.060 A 
BRANCH  84  85
ATOM     85  S   UNL A   1      52.703  26.663  30.108  1.00  0.00     0.124 S 
ATOM     86  O   UNL A   1      53.018  26.111  28.795  1.00  0.00    -0.237 OA
ATOM     87  O   UNL A   1      53.235  27.996  30.380  1.00  0.00    -0.237 OA
ATOM     88  O   UNL A   1      52.786  25.723  31.221  1.00  0.00    -0.744 OA
ENDBRANCH  84  85
ENDBRANCH  52  77
ENDBRANCH  26  27
ENDBRANCH  19  21
ENDBRANCH  18  19
ENDBRANCH   1  18
TORSDOF 17
ENDMDL
MODEL 2
REMARK VINA RESULT:      -9.3      3.504      5.856
REMARK SMILES C[C@@H]1CCC[C@](C#N)([C@H](O)C(=O)OCCOC(=O)c2ccc(-c3c4nc(c(-c5c(F)cc(S(=O)(=O)[O-])cc5F)c5ccc([nH]5)c(-c5c(F)cc(S(=O)(=O)[O-])cc5F)c5nc(c(-c6c(F)cc(S(=O)(=O)[O-])cc6F)c6ccc3[nH]6)C=C5)C=C4)cc2)C1
REMARK SMILES IDX 15 1 14 2 13 3 11 4 12 5 9 6 6 7 1 8 2 9 3 10 85 11 4 12
REMARK SMILES IDX 5 13 7 14 8 15 10 16 16 18 17 19 18 20 19 21 20 22 84 23
REMARK SMILES IDX 21 24 83 25 22 26 23 27 24 28 77 29 25 30 82 31 76 32 78 33
REMARK SMILES IDX 26 34 81 35 75 36 74 37 27 39 61 40 40 41 60 42 41 43 44 44
REMARK SMILES IDX 59 45 79 46 42 47 43 48 58 50 80 51 45 52 28 53 29 54 38 55
REMARK SMILES IDX 30 56 31 57 37 58 39 59 32 60 33 61 34 62 35 63 36 64 62 65
REMARK SMILES IDX 63 66 72 67 64 68 65 69 71 70 73 71 66 72 67 73 68 74 69 75
REMARK SMILES IDX 70 76 46 77 47 78 56 79 48 80 49 81 55 82 57 83 50 84 51 85
REMARK SMILES IDX 52 86 53 87 54 88
REMARK H PARENT 10 17 78 38 44 49
REMARK Flexibility Score: inf
ROOT
ATOM      1  C   UNL A   1      34.324  29.980  27.330  1.00  0.00     0.275 C 
ENDROOT
BRANCH   1   2
ATOM      2  C   UNL A   1      33.076  29.087  27.347  1.00  0.00     0.274 C 
BRANCH   2   3
ATOM      3  O   UNL A   1      32.903  28.423  26.079  1.00  0.00    -0.460 OA
BRANCH   3   4
ATOM      4  C   UNL A   1      31.643  28.024  25.760  1.00  0.00     0.336 C 
ATOM      5  O   UNL A   1      31.072  27.061  26.252  1.00  0.00    -0.249 OA
BRANCH   4   6
ATOM      6  C   UNL A   1      30.957  29.023  24.805  1.00  0.00     0.244 C 
BRANCH   6   7
ATOM      7  C   UNL A   1      30.818  28.561  23.336  1.00  0.00     0.094 C 
ATOM      8  C   UNL A   1      28.371  31.008  23.541  1.00  0.00     0.008 C 
ATOM      9  C   UNL A   1      28.661  29.850  22.578  1.00  0.00    -0.013 C 
ATOM     10  C   UNL A   1      27.823  28.587  22.858  1.00  0.00     0.003 C 
ATOM     11  C   UNL A   1      30.164  29.586  22.387  1.00  0.00     0.029 C 
ATOM     12  C   UNL A   1      28.503  27.433  23.596  1.00  0.00     0.002 C 
ATOM     13  C   UNL A   1      29.980  27.255  23.259  1.00  0.00     0.026 C 
BRANCH   7  14
ATOM     14  C   UNL A   1      32.178  28.250  22.816  1.00  0.00     0.072 C 
ATOM     15  N   UNL A   1      33.226  28.021  22.387  1.00  0.00    -0.198 NA
ENDBRANCH   7  14
ENDBRANCH   6   7
BRANCH   6  16
ATOM     16  O   UNL A   1      31.507  30.334  24.891  1.00  0.00    -0.380 OA
ATOM     17  H   UNL A   1      32.072  30.396  25.676  1.00  0.00     0.211 HD
ENDBRANCH   6  16
ENDBRANCH   4   6
ENDBRANCH   3   4
ENDBRANCH   2   3
ENDBRANCH   1   2
BRANCH   1  18
ATOM     18  O   UNL A   1      35.449  29.356  27.982  1.00  0.00    -0.458 OA
BRANCH  18  19
ATOM     19  C   UNL A   1      36.141  30.167  28.817  1.00  0.00     0.338 C 
ATOM     20  O   UNL A   1      35.671  30.911  29.664  1.00  0.00    -0.246 OA
BRANCH  19  21
ATOM     21  C   UNL A   1      37.580  29.878  28.757  1.00  0.00     0.060 A 
ATOM     22  C   UNL A   1      38.132  29.707  27.485  1.00  0.00     0.016 A 
ATOM     23  C   UNL A   1      38.363  29.691  29.892  1.00  0.00     0.016 A 
ATOM     24  C   UNL A   1      39.465  29.369  27.324  1.00  0.00     0.010 A 
ATOM     25  C   UNL A   1      39.712  29.347  29.733  1.00  0.00     0.010 A 
ATOM     26  C   UNL A   1      40.266  29.186  28.450  1.00  0.00    -0.014 A 
BRANCH  26  27
ATOM     27  C   UNL A   1      41.667  28.756  28.257  1.00  0.00     0.031 A 
ATOM     28  C   UNL A   1      42.766  29.771  28.356  1.00  0.00     0.074 A 
ATOM     29  C   UNL A   1      41.940  27.456  28.045  1.00  0.00     0.049 A 
ATOM     30  N   UNL A   1      44.041  29.632  28.113  1.00  0.00    -0.248 NA
ATOM     31  C   UNL A   1      42.376  31.124  28.783  1.00  0.00     0.031 C 
ATOM     32  C   UNL A   1      40.948  26.378  28.016  1.00  0.00     0.029 A 
ATOM     33  N   UNL A   1      43.131  26.818  27.814  1.00  0.00    -0.354 N 
ATOM     34  C   UNL A   1      44.603  30.884  28.325  1.00  0.00     0.074 A 
ATOM     35  C   UNL A   1      43.526  31.777  28.696  1.00  0.00     0.031 C 
ATOM     36  C   UNL A   1      41.572  25.213  27.778  1.00  0.00     0.029 A 
ATOM     37  C   UNL A   1      42.992  25.472  27.571  1.00  0.00     0.049 A 
ATOM     38  H   UNL A   1      44.001  27.279  27.822  1.00  0.00     0.167 HD
ATOM     39  C   UNL A   1      45.902  31.248  28.217  1.00  0.00     0.037 A 
ATOM     40  C   UNL A   1      43.904  24.561  27.182  1.00  0.00     0.037 A 
ATOM     41  C   UNL A   1      46.956  30.335  27.854  1.00  0.00     0.049 A 
ATOM     42  C   UNL A   1      45.327  25.010  26.983  1.00  0.00     0.074 A 
ATOM     43  C   UNL A   1      48.308  30.592  27.713  1.00  0.00     0.029 A 
ATOM     44  N   UNL A   1      46.774  28.986  27.574  1.00  0.00    -0.354 N 
ATOM     45  N   UNL A   1      45.848  26.202  27.160  1.00  0.00    -0.248 NA
ATOM     46  C   UNL A   1      46.284  23.996  26.526  1.00  0.00     0.031 C 
ATOM     47  C   UNL A   1      48.932  29.416  27.287  1.00  0.00     0.029 A 
ATOM     48  C   UNL A   1      47.984  28.406  27.232  1.00  0.00     0.049 A 
ATOM     49  H   UNL A   1      45.912  28.513  27.613  1.00  0.00     0.167 HD
ATOM     50  C   UNL A   1      47.201  26.073  26.868  1.00  0.00     0.074 A 
ATOM     51  C   UNL A   1      47.418  24.684  26.514  1.00  0.00     0.031 C 
ATOM     52  C   UNL A   1      48.176  27.016  26.892  1.00  0.00     0.037 A 
BRANCH  39  53
ATOM     53  C   UNL A   1      46.245  32.695  28.447  1.00  0.00     0.058 A 
ATOM     54  C   UNL A   1      46.571  33.194  29.718  1.00  0.00     0.135 A 
ATOM     55  C   UNL A   1      46.263  33.596  27.369  1.00  0.00     0.135 A 
ATOM     56  F   UNL A   1      46.548  32.384  30.790  1.00  0.00    -0.206 F 
ATOM     57  C   UNL A   1      46.875  34.538  29.917  1.00  0.00     0.059 A 
ATOM     58  C   UNL A   1      46.597  34.936  27.539  1.00  0.00     0.059 A 
ATOM     59  F   UNL A   1      45.953  33.176  26.132  1.00  0.00    -0.206 F 
ATOM     60  C   UNL A   1      46.887  35.401  28.820  1.00  0.00     0.060 A 
BRANCH  60  61
ATOM     61  S   UNL A   1      47.286  37.139  29.096  1.00  0.00     0.124 S 
ATOM     62  O   UNL A   1      48.070  37.451  27.905  1.00  0.00    -0.237 OA
ATOM     63  O   UNL A   1      45.964  37.754  29.163  1.00  0.00    -0.237 OA
ATOM     64  O   UNL A   1      48.032  37.124  30.350  1.00  0.00    -0.744 OA
ENDBRANCH  60  61
ENDBRANCH  39  53
BRANCH  40  65
ATOM     65  C   UNL A   1      43.493  23.154  26.928  1.00  0.00     0.058 A 
ATOM     66  C   UNL A   1      43.206  22.281  27.987  1.00  0.00     0.135 A 
ATOM     67  C   UNL A   1      43.374  22.654  25.621  1.00  0.00     0.135 A 
ATOM     68  F   UNL A   1      43.313  22.705  29.255  1.00  0.00    -0.206 F 
ATOM     69  C   UNL A   1      42.833  20.959  27.761  1.00  0.00     0.059 A 
ATOM     70  C   UNL A   1      42.973  21.346  25.368  1.00  0.00     0.059 A 
ATOM     71  F   UNL A   1      43.628  23.449  24.570  1.00  0.00    -0.206 F 
ATOM     72  C   UNL A   1      42.716  20.501  26.447  1.00  0.00     0.060 A 
BRANCH  72  73
ATOM     73  S   UNL A   1      42.201  18.794  26.169  1.00  0.00     0.124 S 
ATOM     74  O   UNL A   1      40.811  18.968  25.765  1.00  0.00    -0.237 OA
ATOM     75  O   UNL A   1      43.122  18.365  25.121  1.00  0.00    -0.237 OA
ATOM     76  O   UNL A   1      42.406  18.164  27.470  1.00  0.00    -0.744 OA
ENDBRANCH  72  73
ENDBRANCH  40  65
BRANCH  52  77
ATOM     77  C   UNL A   1      49.577  26.567  26.574  1.00  0.00     0.058 A 
ATOM     78  C   UNL A   1      50.436  26.056  27.558  1.00  0.00     0.135 A 
ATOM     79  C   UNL A   1      50.044  26.600  25.249  1.00  0.00     0.135 A 
ATOM     80  F   UNL A   1      50.042  26.010  28.842  1.00  0.00    -0.206 F 
ATOM     81  C   UNL A   1      51.718  25.619  27.247  1.00  0.00     0.059 A 
ATOM     82  C   UNL A   1      51.309  26.134  24.909  1.00  0.00     0.059 A 
ATOM     83  F   UNL A   1      49.259  27.069  24.266  1.00  0.00    -0.206 F 
ATOM     84  C   UNL A   1      52.144  25.657  25.917  1.00  0.00     0.060 A 
BRANCH  84  85
ATOM     85  S   UNL A   1      53.796  25.049  25.521  1.00  0.00     0.124 S 
ATOM     86  O   UNL A   1      53.535  23.639  25.249  1.00  0.00    -0.237 OA
ATOM     87  O   UNL A   1      54.157  25.862  24.363  1.00  0.00    -0.237 OA
ATOM     88  O   UNL A   1      54.560  25.322  26.734  1.00  0.00    -0.744 OA
ENDBRANCH  84  85
ENDBRANCH  52  77
ENDBRANCH  26  27
ENDBRANCH  19  21
ENDBRANCH  18  19
ENDBRANCH   1  18
TORSDOF 17
ENDMDL
MODEL 3
REMARK VINA RESULT:      -9.2      3.167     11.088
REMARK SMILES C[C@@H]1CCC[C@](C#N)([C@H](O)C(=O)OCCOC(=O)c2ccc(-c3c4nc(c(-c5c(F)cc(S(=O)(=O)[O-])cc5F)c5ccc([nH]5)c(-c5c(F)cc(S(=O)(=O)[O-])cc5F)c5nc(c(-c6c(F)cc(S(=O)(=O)[O-])cc6F)c6ccc3[nH]6)C=C5)C=C4)cc2)C1
REMARK SMILES IDX 15 1 14 2 13 3 11 4 12 5 9 6 6 7 1 8 2 9 3 10 85 11 4 12
REMARK SMILES IDX 5 13 7 14 8 15 10 16 16 18 17 19 18 20 19 21 20 22 84 23
REMARK SMILES IDX 21 24 83 25 22 26 23 27 24 28 77 29 25 30 82 31 76 32 78 33
REMARK SMILES IDX 26 34 81 35 75 36 74 37 27 39 61 40 40 41 60 42 41 43 44 44
REMARK SMILES IDX 59 45 79 46 42 47 43 48 58 50 80 51 45 52 28 53 29 54 38 55
REMARK SMILES IDX 30 56 31 57 37 58 39 59 32 60 33 61 34 62 35 63 36 64 62 65
REMARK SMILES IDX 63 66 72 67 64 68 65 69 71 70 73 71 66 72 67 73 68 74 69 75
REMARK SMILES IDX 70 76 46 77 47 78 56 79 48 80 49 81 55 82 57 83 50 84 51 85
REMARK SMILES IDX 52 86 53 87 54 88
REMARK H PARENT 10 17 78 38 44 49
REMARK Flexibility Score: inf
ROOT
ATOM      1  C   UNL A   1      39.936  21.448  25.784  1.00  0.00     0.275 C 
ENDROOT
BRANCH   1   2
ATOM      2  C   UNL A   1      41.248  21.191  26.536  1.00  0.00     0.274 C 
BRANCH   2   3
ATOM      3  O   UNL A   1      42.317  21.990  25.989  1.00  0.00    -0.460 OA
BRANCH   3   4
ATOM      4  C   UNL A   1      42.928  22.861  26.836  1.00  0.00     0.336 C 
ATOM      5  O   UNL A   1      42.390  23.391  27.798  1.00  0.00    -0.249 OA
BRANCH   4   6
ATOM      6  C   UNL A   1      44.433  22.993  26.523  1.00  0.00     0.244 C 
BRANCH   6   7
ATOM      7  C   UNL A   1      44.788  23.789  25.246  1.00  0.00     0.094 C 
ATOM      8  C   UNL A   1      47.212  24.897  27.464  1.00  0.00     0.008 C 
ATOM      9  C   UNL A   1      46.647  25.415  26.135  1.00  0.00    -0.013 C 
ATOM     10  C   UNL A   1      45.584  26.518  26.301  1.00  0.00     0.003 C 
ATOM     11  C   UNL A   1      46.246  24.287  25.170  1.00  0.00     0.029 C 
ATOM     12  C   UNL A   1      44.116  26.119  26.150  1.00  0.00     0.002 C 
ATOM     13  C   UNL A   1      43.865  25.031  25.112  1.00  0.00     0.026 C 
BRANCH   7  14
ATOM     14  C   UNL A   1      44.534  22.914  24.068  1.00  0.00     0.072 C 
ATOM     15  N   UNL A   1      44.353  22.253  23.137  1.00  0.00    -0.198 NA
ENDBRANCH   7  14
ENDBRANCH   6   7
BRANCH   6  16
ATOM     16  O   UNL A   1      45.116  21.744  26.569  1.00  0.00    -0.380 OA
ATOM     17  H   UNL A   1      44.691  21.121  25.960  1.00  0.00     0.211 HD
ENDBRANCH   6  16
ENDBRANCH   4   6
ENDBRANCH   3   4
ENDBRANCH   2   3
ENDBRANCH   1   2
BRANCH   1  18
ATOM     18  O   UNL A   1      38.984  22.182  26.583  1.00  0.00    -0.458 OA
BRANCH  18  19
ATOM     19  C   UNL A   1      38.596  23.366  26.056  1.00  0.00     0.338 C 
ATOM     20  O   UNL A   1      37.719  23.540  25.224  1.00  0.00    -0.246 OA
BRANCH  19  21
ATOM     21  C   UNL A   1      39.202  24.489  26.785  1.00  0.00     0.060 A 
ATOM     22  C   UNL A   1      38.838  24.636  28.125  1.00  0.00     0.016 A 
ATOM     23  C   UNL A   1      40.032  25.427  26.178  1.00  0.00     0.016 A 
ATOM     24  C   UNL A   1      39.303  25.698  28.881  1.00  0.00     0.010 A 
ATOM     25  C   UNL A   1      40.503  26.505  26.938  1.00  0.00     0.010 A 
ATOM     26  C   UNL A   1      40.141  26.642  28.291  1.00  0.00    -0.014 A 
BRANCH  26  27
ATOM     27  C   UNL A   1      40.569  27.807  29.095  1.00  0.00     0.031 A 
ATOM     28  C   UNL A   1      41.916  27.788  29.753  1.00  0.00     0.074 A 
ATOM     29  C   UNL A   1      39.768  28.884  29.184  1.00  0.00     0.049 A 
ATOM     30  N   UNL A   1      42.438  28.647  30.586  1.00  0.00    -0.248 NA
ATOM     31  C   UNL A   1      42.789  26.648  29.433  1.00  0.00     0.031 C 
ATOM     32  C   UNL A   1      38.475  29.033  28.510  1.00  0.00     0.029 A 
ATOM     33  N   UNL A   1      39.920  30.057  29.875  1.00  0.00    -0.354 N 
ATOM     34  C   UNL A   1      43.688  28.138  30.917  1.00  0.00     0.074 A 
ATOM     35  C   UNL A   1      43.837  26.884  30.211  1.00  0.00     0.031 C 
ATOM     36  C   UNL A   1      37.952  30.229  28.824  1.00  0.00     0.029 A 
ATOM     37  C   UNL A   1      38.837  30.897  29.771  1.00  0.00     0.049 A 
ATOM     38  H   UNL A   1      40.726  30.277  30.396  1.00  0.00     0.167 HD
ATOM     39  C   UNL A   1      44.620  28.676  31.737  1.00  0.00     0.037 A 
ATOM     40  C   UNL A   1      38.572  32.056  30.405  1.00  0.00     0.037 A 
ATOM     41  C   UNL A   1      44.448  29.932  32.421  1.00  0.00     0.049 A 
ATOM     42  C   UNL A   1      39.587  32.588  31.380  1.00  0.00     0.074 A 
ATOM     43  C   UNL A   1      45.324  30.573  33.278  1.00  0.00     0.029 A 
ATOM     44  N   UNL A   1      43.320  30.738  32.326  1.00  0.00    -0.354 N 
ATOM     45  N   UNL A   1      40.756  32.089  31.709  1.00  0.00    -0.248 NA
ATOM     46  C   UNL A   1      39.247  33.835  32.077  1.00  0.00     0.031 C 
ATOM     47  C   UNL A   1      44.702  31.734  33.749  1.00  0.00     0.029 A 
ATOM     48  C   UNL A   1      43.467  31.856  33.131  1.00  0.00     0.049 A 
ATOM     49  H   UNL A   1      42.533  30.544  31.768  1.00  0.00     0.167 HD
ATOM     50  C   UNL A   1      41.306  32.979  32.625  1.00  0.00     0.074 A 
ATOM     51  C   UNL A   1      40.345  34.051  32.788  1.00  0.00     0.031 C 
ATOM     52  C   UNL A   1      42.498  32.916  33.270  1.00  0.00     0.037 A 
BRANCH  39  53
ATOM     53  C   UNL A   1      45.880  27.889  31.975  1.00  0.00     0.058 A 
ATOM     54  C   UNL A   1      45.993  26.953  33.015  1.00  0.00     0.135 A 
ATOM     55  C   UNL A   1      46.991  28.063  31.132  1.00  0.00     0.135 A 
ATOM     56  F   UNL A   1      44.972  26.761  33.866  1.00  0.00    -0.206 F 
ATOM     57  C   UNL A   1      47.170  26.241  33.230  1.00  0.00     0.059 A 
ATOM     58  C   UNL A   1      48.166  27.338  31.307  1.00  0.00     0.059 A 
ATOM     59  F   UNL A   1      46.943  28.949  30.125  1.00  0.00    -0.206 F 
ATOM     60  C   UNL A   1      48.251  26.439  32.369  1.00  0.00     0.060 A 
BRANCH  60  61
ATOM     61  S   UNL A   1      49.767  25.505  32.660  1.00  0.00     0.124 S 
ATOM     62  O   UNL A   1      49.954  24.843  31.373  1.00  0.00    -0.237 OA
ATOM     63  O   UNL A   1      50.725  26.560  32.974  1.00  0.00    -0.237 OA
ATOM     64  O   UNL A   1      49.419  24.626  33.771  1.00  0.00    -0.744 OA
ENDBRANCH  60  61
ENDBRANCH  39  53
BRANCH  40  65
ATOM     65  C   UNL A   1      37.287  32.765  30.160  1.00  0.00     0.058 A 
ATOM     66  C   UNL A   1      37.165  33.708  29.130  1.00  0.00     0.135 A 
ATOM     67  C   UNL A   1      36.152  32.509  30.948  1.00  0.00     0.135 A 
ATOM     68  F   UNL A   1      38.222  33.996  28.355  1.00  0.00    -0.206 F 
ATOM     69  C   UNL A   1      35.972  34.387  28.901  1.00  0.00     0.059 A 
ATOM     70  C   UNL A   1      34.939  33.151  30.717  1.00  0.00     0.059 A 
ATOM     71  F   UNL A   1      36.210  31.608  31.941  1.00  0.00    -0.206 F 
ATOM     72  C   UNL A   1      34.863  34.099  29.698  1.00  0.00     0.060 A 
BRANCH  72  73
ATOM     73  S   UNL A   1      33.313  34.963  29.368  1.00  0.00     0.124 S 
ATOM     74  O   UNL A   1      33.792  36.253  28.886  1.00  0.00    -0.237 OA
ATOM     75  O   UNL A   1      32.689  34.099  28.371  1.00  0.00    -0.237 OA
ATOM     76  O   UNL A   1      32.654  34.982  30.671  1.00  0.00    -0.744 OA
ENDBRANCH  72  73
ENDBRANCH  40  65
BRANCH  52  77
ATOM     77  C   UNL A   1      42.852  34.065  34.176  1.00  0.00     0.058 A 
ATOM     78  C   UNL A   1      42.541  34.057  35.544  1.00  0.00     0.135 A 
ATOM     79  C   UNL A   1      43.563  35.167  33.672  1.00  0.00     0.135 A 
ATOM     80  F   UNL A   1      41.856  33.031  36.076  1.00  0.00    -0.206 F 
ATOM     81  C   UNL A   1      42.899  35.112  36.376  1.00  0.00     0.059 A 
ATOM     82  C   UNL A   1      43.962  36.216  34.492  1.00  0.00     0.059 A 
ATOM     83  F   UNL A   1      43.895  35.221  32.372  1.00  0.00    -0.206 F 
ATOM     84  C   UNL A   1      43.615  36.185  35.841  1.00  0.00     0.060 A 
BRANCH  84  85
ATOM     85  S   UNL A   1      44.107  37.529  36.941  1.00  0.00     0.124 S 
ATOM     86  O   UNL A   1      43.035  37.507  37.931  1.00  0.00    -0.237 OA
ATOM     87  O   UNL A   1      45.414  37.080  37.412  1.00  0.00    -0.237 OA
ATOM     88  O   UNL A   1      44.128  38.696  36.065  1.00  0.00    -0.744 OA
ENDBRANCH  84  85
ENDBRANCH  52  77
ENDBRANCH  26  27
ENDBRANCH  19  21
ENDBRANCH  18  19
ENDBRANCH   1  18
TORSDOF 17
ENDMDL
