MODEL 1
REMARK VINA RESULT:     -12.3      0.000      0.000
REMARK SMILES O=C(OCCOC(=O)c1ccc(-c2c3nc(c(-c4c(F)cc(S(=O)(=O)[O-])cc4F)c4ccc([nH]4)c(-c4c(F)cc(S(=O)(=O)[O-])cc4F)c4nc(c(-c5c(F)cc(S(=O)(=O)[O-])cc5F)c5ccc2[nH]5)C=C4)C=C3)cc1)C1=Cc2cc(S(F)(F)(F)(F)F)cc(Br)c2O[C@@H]1C(F)(F)F
REMARK SMILES IDX 5 1 4 2 3 3 2 4 1 5 75 6 76 7 91 8 77 9 90 10 78 11 89 12
REMARK SMILES IDX 79 13 87 14 86 15 88 16 92 17 93 18 94 19 95 20 80 21 81 22
REMARK SMILES IDX 82 23 83 24 84 25 85 26 6 27 7 28 8 29 9 30 10 31 74 32
REMARK SMILES IDX 11 33 73 34 12 35 13 36 14 37 67 38 15 39 72 40 66 41 68 42
REMARK SMILES IDX 16 43 71 44 65 45 64 46 17 48 51 49 30 50 50 51 31 52 34 53
REMARK SMILES IDX 49 54 69 55 32 56 33 57 48 59 70 60 35 61 18 62 19 63 28 64
REMARK SMILES IDX 20 65 21 66 27 67 29 68 22 69 23 70 24 71 25 72 26 73 52 74
REMARK SMILES IDX 53 75 62 76 54 77 55 78 61 79 63 80 56 81 57 82 58 83 59 84
REMARK SMILES IDX 60 85 36 86 37 87 46 88 38 89 39 90 45 91 47 92 40 93 41 94
REMARK SMILES IDX 42 95 43 96 44 97
REMARK H PARENT 68 47 34 58
REMARK Flexibility Score: inf
ROOT
ATOM      1  C   UNL A   1      38.572  23.156  25.805  1.00  0.00     0.275 C 
ENDROOT
BRANCH   1   2
ATOM      2  C   UNL A   1      37.173  23.722  25.990  1.00  0.00     0.275 C 
BRANCH   2   3
ATOM      3  O   UNL A   1      36.612  24.023  24.721  1.00  0.00    -0.459 OA
BRANCH   3   4
ATOM      4  C   UNL A   1      35.760  23.084  24.081  1.00  0.00     0.338 C 
ATOM      5  O   UNL A   1      35.863  22.882  22.830  1.00  0.00    -0.246 OA
BRANCH   4   6
ATOM      6  C   UNL A   1      34.724  22.322  24.891  1.00  0.00     0.087 C 
ATOM      7  C   UNL A   1      33.649  22.975  25.407  1.00  0.00     0.027 C 
ATOM      8  C   UNL A   1      34.890  20.829  25.125  1.00  0.00     0.316 C 
ATOM      9  C   UNL A   1      33.483  24.469  25.173  1.00  0.00     0.020 A 
ATOM     10  O   UNL A   1      34.206  24.133  22.934  1.00  0.00    -0.474 OA
ATOM     11  C   UNL A   1      33.124  25.284  26.234  1.00  0.00     0.036 A 
ATOM     12  C   UNL A   1      33.684  24.967  23.960  1.00  0.00     0.142 A 
ATOM     13  C   UNL A   1      32.718  26.583  25.847  1.00  0.00     0.109 A 
ATOM     14  C   UNL A   1      33.394  26.281  23.685  1.00  0.00     0.062 A 
ATOM     15  C   UNL A   1      32.977  27.130  24.673  1.00  0.00     0.044 A 
ATOM     16  Br  UNL A   1      33.577  26.949  21.852  1.00  0.00    -0.047 Br
BRANCH   8  17
ATOM     17  C   UNL A   1      33.697  20.090  24.543  1.00  0.00     0.430 C 
ATOM     18  F   UNL A   1      34.072  18.871  24.165  1.00  0.00    -0.167 F 
ATOM     19  F   UNL A   1      32.743  19.993  25.465  1.00  0.00    -0.167 F 
ATOM     20  F   UNL A   1      33.232  20.757  23.491  1.00  0.00    -0.167 F 
ENDBRANCH   8  17
BRANCH  13  21
ATOM     21  S   UNL A   1      31.778  27.563  27.043  1.00  0.00     0.310 S 
ATOM     22  F   UNL A   1      31.338  28.611  25.935  1.00  0.00    -0.094 F 
ATOM     23  F   UNL A   1      33.057  28.452  27.278  1.00  0.00    -0.094 F 
ATOM     24  F   UNL A   1      30.970  28.404  28.072  1.00  0.00    -0.094 F 
ATOM     25  F   UNL A   1      30.468  26.751  26.691  1.00  0.00    -0.094 F 
ATOM     26  F   UNL A   1      32.553  26.774  25.914  1.00  0.00    -0.094 F 
ENDBRANCH  13  21
ENDBRANCH   4   6
ENDBRANCH   3   4
ENDBRANCH   2   3
ENDBRANCH   1   2
BRANCH   1  27
ATOM     27  O   UNL A   1      39.409  23.612  26.858  1.00  0.00    -0.458 OA
BRANCH  27  28
ATOM     28  C   UNL A   1      40.141  24.821  26.712  1.00  0.00     0.338 C 
ATOM     29  O   UNL A   1      40.801  25.039  25.648  1.00  0.00    -0.246 OA
BRANCH  28  30
ATOM     30  C   UNL A   1      40.132  25.853  27.826  1.00  0.00     0.060 A 
ATOM     31  C   UNL A   1      41.069  26.874  27.812  1.00  0.00     0.016 A 
ATOM     32  C   UNL A   1      39.230  25.761  28.796  1.00  0.00     0.016 A 
ATOM     33  C   UNL A   1      41.156  27.591  29.029  1.00  0.00     0.010 A 
ATOM     34  C   UNL A   1      39.296  26.584  29.893  1.00  0.00     0.010 A 
ATOM     35  C   UNL A   1      40.233  27.577  29.973  1.00  0.00    -0.014 A 
BRANCH  35  36
ATOM     36  C   UNL A   1      40.213  28.610  31.088  1.00  0.00     0.031 A 
ATOM     37  C   UNL A   1      39.314  29.671  30.960  1.00  0.00     0.074 A 
ATOM     38  C   UNL A   1      41.079  28.455  32.156  1.00  0.00     0.049 A 
ATOM     39  N   UNL A   1      39.105  30.668  31.819  1.00  0.00    -0.248 NA
ATOM     40  C   UNL A   1      38.418  29.857  29.809  1.00  0.00     0.031 C 
ATOM     41  C   UNL A   1      41.983  27.383  32.296  1.00  0.00     0.029 A 
ATOM     42  N   UNL A   1      41.228  29.278  33.251  1.00  0.00    -0.354 N 
ATOM     43  C   UNL A   1      38.152  31.482  31.360  1.00  0.00     0.074 A 
ATOM     44  C   UNL A   1      37.701  30.974  30.057  1.00  0.00     0.031 C 
ATOM     45  C   UNL A   1      42.674  27.565  33.453  1.00  0.00     0.029 A 
ATOM     46  C   UNL A   1      42.214  28.750  34.055  1.00  0.00     0.049 A 
ATOM     47  H   UNL A   1      40.717  30.101  33.428  1.00  0.00     0.167 HD
ATOM     48  C   UNL A   1      37.639  32.624  31.977  1.00  0.00     0.037 A 
ATOM     49  C   UNL A   1      42.699  29.262  35.247  1.00  0.00     0.037 A 
ATOM     50  C   UNL A   1      38.096  33.111  33.191  1.00  0.00     0.049 A 
ATOM     51  C   UNL A   1      42.227  30.437  35.837  1.00  0.00     0.074 A 
ATOM     52  C   UNL A   1      37.585  34.257  33.830  1.00  0.00     0.029 A 
ATOM     53  N   UNL A   1      39.099  32.598  33.983  1.00  0.00    -0.354 N 
ATOM     54  N   UNL A   1      41.248  31.228  35.396  1.00  0.00    -0.248 NA
ATOM     55  C   UNL A   1      42.756  31.006  37.084  1.00  0.00     0.031 C 
ATOM     56  C   UNL A   1      38.277  34.438  34.987  1.00  0.00     0.029 A 
ATOM     57  C   UNL A   1      39.231  33.408  35.089  1.00  0.00     0.049 A 
ATOM     58  H   UNL A   1      39.629  31.790  33.792  1.00  0.00     0.167 HD
ATOM     59  C   UNL A   1      41.067  32.249  36.237  1.00  0.00     0.074 A 
ATOM     60  C   UNL A   1      42.041  32.124  37.331  1.00  0.00     0.031 C 
ATOM     61  C   UNL A   1      40.129  33.276  36.138  1.00  0.00     0.037 A 
BRANCH  48  62
ATOM     62  C   UNL A   1      36.520  33.376  31.277  1.00  0.00     0.058 A 
ATOM     63  C   UNL A   1      35.215  33.211  31.711  1.00  0.00     0.135 A 
ATOM     64  C   UNL A   1      36.810  34.176  30.257  1.00  0.00     0.135 A 
ATOM     65  F   UNL A   1      34.903  32.632  32.867  1.00  0.00    -0.206 F 
ATOM     66  C   UNL A   1      34.244  33.715  30.814  1.00  0.00     0.059 A 
ATOM     67  C   UNL A   1      35.809  34.744  29.507  1.00  0.00     0.059 A 
ATOM     68  F   UNL A   1      38.082  34.430  29.961  1.00  0.00    -0.206 F 
ATOM     69  C   UNL A   1      34.495  34.574  29.843  1.00  0.00     0.060 A 
BRANCH  69  70
ATOM     70  S   UNL A   1      33.171  35.478  29.004  1.00  0.00     0.124 S 
ATOM     71  O   UNL A   1      32.227  36.083  30.046  1.00  0.00    -0.237 OA
ATOM     72  O   UNL A   1      33.777  36.597  28.154  1.00  0.00    -0.237 OA
ATOM     73  O   UNL A   1      32.298  34.407  27.998  1.00  0.00    -0.744 OA
ENDBRANCH  69  70
ENDBRANCH  48  62
BRANCH  49  74
ATOM     74  C   UNL A   1      43.808  28.501  35.956  1.00  0.00     0.058 A 
ATOM     75  C   UNL A   1      45.127  28.875  35.754  1.00  0.00     0.135 A 
ATOM     76  C   UNL A   1      43.494  27.494  36.764  1.00  0.00     0.135 A 
ATOM     77  F   UNL A   1      45.475  30.016  35.167  1.00  0.00    -0.206 F 
ATOM     78  C   UNL A   1      46.069  27.932  36.228  1.00  0.00     0.059 A 
ATOM     79  C   UNL A   1      44.475  26.696  37.300  1.00  0.00     0.059 A 
ATOM     80  F   UNL A   1      42.218  27.257  37.055  1.00  0.00    -0.206 F 
ATOM     81  C   UNL A   1      45.798  26.971  37.093  1.00  0.00     0.060 A 
BRANCH  81  82
ATOM     82  S   UNL A   1      47.107  26.069  37.957  1.00  0.00     0.124 S 
ATOM     83  O   UNL A   1      46.607  25.645  39.340  1.00  0.00    -0.237 OA
ATOM     84  O   UNL A   1      47.488  24.825  37.150  1.00  0.00    -0.237 OA
ATOM     85  O   UNL A   1      48.477  27.077  38.130  1.00  0.00    -0.744 OA
ENDBRANCH  81  82
ENDBRANCH  49  74
BRANCH  61  86
ATOM     86  C   UNL A   1      40.085  34.314  37.248  1.00  0.00     0.058 A 
ATOM     87  C   UNL A   1      39.326  34.060  38.379  1.00  0.00     0.135 A 
ATOM     88  C   UNL A   1      40.772  35.443  37.119  1.00  0.00     0.135 A 
ATOM     89  F   UNL A   1      38.833  32.859  38.666  1.00  0.00    -0.206 F 
ATOM     90  C   UNL A   1      39.123  35.194  39.199  1.00  0.00     0.059 A 
ATOM     91  C   UNL A   1      40.626  36.458  38.033  1.00  0.00     0.059 A 
ATOM     92  F   UNL A   1      41.608  35.593  36.096  1.00  0.00    -0.206 F 
ATOM     93  C   UNL A   1      39.845  36.298  39.145  1.00  0.00     0.060 A 
BRANCH  93  94
ATOM     94  S   UNL A   1      39.804  37.532  40.467  1.00  0.00     0.124 S 
ATOM     95  O   UNL A   1      41.230  37.988  40.784  1.00  0.00    -0.237 OA
ATOM     96  O   UNL A   1      38.973  38.736  40.015  1.00  0.00    -0.237 OA
ATOM     97  O   UNL A   1      39.101  36.847  41.867  1.00  0.00    -0.744 OA
ENDBRANCH  93  94
ENDBRANCH  61  86
ENDBRANCH  35  36
ENDBRANCH  28  30
ENDBRANCH  27  28
ENDBRANCH   1  27
TORSDOF 16
ENDMDL
MODEL 2
REMARK VINA RESULT:     -12.0      0.306      8.085
REMARK SMILES O=C(OCCOC(=O)c1ccc(-c2c3nc(c(-c4c(F)cc(S(=O)(=O)[O-])cc4F)c4ccc([nH]4)c(-c4c(F)cc(S(=O)(=O)[O-])cc4F)c4nc(c(-c5c(F)cc(S(=O)(=O)[O-])cc5F)c5ccc2[nH]5)C=C4)C=C3)cc1)C1=Cc2cc(S(F)(F)(F)(F)F)cc(Br)c2O[C@@H]1C(F)(F)F
REMARK SMILES IDX 5 1 4 2 3 3 2 4 1 5 75 6 76 7 91 8 77 9 90 10 78 11 89 12
REMARK SMILES IDX 79 13 87 14 86 15 88 16 92 17 93 18 94 19 95 20 80 21 81 22
REMARK SMILES IDX 82 23 83 24 84 25 85 26 6 27 7 28 8 29 9 30 10 31 74 32
REMARK SMILES IDX 11 33 73 34 12 35 13 36 14 37 67 38 15 39 72 40 66 41 68 42
REMARK SMILES IDX 16 43 71 44 65 45 64 46 17 48 51 49 30 50 50 51 31 52 34 53
REMARK SMILES IDX 49 54 69 55 32 56 33 57 48 59 70 60 35 61 18 62 19 63 28 64
REMARK SMILES IDX 20 65 21 66 27 67 29 68 22 69 23 70 24 71 25 72 26 73 52 74
REMARK SMILES IDX 53 75 62 76 54 77 55 78 61 79 63 80 56 81 57 82 58 83 59 84
REMARK SMILES IDX 60 85 36 86 37 87 46 88 38 89 39 90 45 91 47 92 40 93 41 94
REMARK SMILES IDX 42 95 43 96 44 97
REMARK H PARENT 68 47 34 58
REMARK Flexibility Score: inf
ROOT
ATOM      1  C   UNL A   1      38.693  23.086  25.856  1.00  0.00     0.275 C 
ENDROOT
BRANCH   1   2
ATOM      2  C   UNL A   1      37.340  23.757  26.027  1.00  0.00     0.275 C 
BRANCH   2   3
ATOM      3  O   UNL A   1      36.776  24.018  24.750  1.00  0.00    -0.459 OA
BRANCH   3   4
ATOM      4  C   UNL A   1      35.925  23.059  24.140  1.00  0.00     0.338 C 
ATOM      5  O   UNL A   1      36.003  22.844  22.890  1.00  0.00    -0.246 OA
BRANCH   4   6
ATOM      6  C   UNL A   1      34.920  22.289  24.983  1.00  0.00     0.087 C 
ATOM      7  C   UNL A   1      33.836  22.927  25.500  1.00  0.00     0.027 C 
ATOM      8  C   UNL A   1      35.127  20.807  25.247  1.00  0.00     0.316 C 
ATOM      9  C   UNL A   1      33.629  24.410  25.235  1.00  0.00     0.020 A 
ATOM     10  O   UNL A   1      34.328  24.042  22.993  1.00  0.00    -0.474 OA
ATOM     11  C   UNL A   1      33.264  25.240  26.281  1.00  0.00     0.036 A 
ATOM     12  C   UNL A   1      33.800  24.885  24.007  1.00  0.00     0.142 A 
ATOM     13  C   UNL A   1      32.820  26.519  25.872  1.00  0.00     0.109 A 
ATOM     14  C   UNL A   1      33.473  26.186  23.707  1.00  0.00     0.062 A 
ATOM     15  C   UNL A   1      33.049  27.045  24.682  1.00  0.00     0.044 A 
ATOM     16  Br  UNL A   1      33.613  26.816  21.857  1.00  0.00    -0.047 Br
BRANCH   8  17
ATOM     17  C   UNL A   1      33.946  20.025  24.700  1.00  0.00     0.430 C 
ATOM     18  F   UNL A   1      34.358  18.830  24.285  1.00  0.00    -0.167 F 
ATOM     19  F   UNL A   1      33.034  19.871  25.656  1.00  0.00    -0.167 F 
ATOM     20  F   UNL A   1      33.409  20.688  23.679  1.00  0.00    -0.167 F 
ENDBRANCH   8  17
BRANCH  13  21
ATOM     21  S   UNL A   1      31.872  27.503  27.059  1.00  0.00     0.310 S 
ATOM     22  F   UNL A   1      31.600  28.646  25.993  1.00  0.00    -0.094 F 
ATOM     23  F   UNL A   1      33.195  28.267  27.440  1.00  0.00    -0.094 F 
ATOM     24  F   UNL A   1      31.057  28.346  28.080  1.00  0.00    -0.094 F 
ATOM     25  F   UNL A   1      30.533  26.824  26.564  1.00  0.00    -0.094 F 
ATOM     26  F   UNL A   1      32.666  26.719  25.939  1.00  0.00    -0.094 F 
ENDBRANCH  13  21
ENDBRANCH   4   6
ENDBRANCH   3   4
ENDBRANCH   2   3
ENDBRANCH   1   2
BRANCH   1  27
ATOM     27  O   UNL A   1      39.565  23.510  26.894  1.00  0.00    -0.458 OA
BRANCH  27  28
ATOM     28  C   UNL A   1      40.304  24.714  26.752  1.00  0.00     0.338 C 
ATOM     29  O   UNL A   1      40.996  24.917  25.705  1.00  0.00    -0.246 OA
BRANCH  28  30
ATOM     30  C   UNL A   1      40.267  25.762  27.852  1.00  0.00     0.060 A 
ATOM     31  C   UNL A   1      41.253  26.735  27.895  1.00  0.00     0.016 A 
ATOM     32  C   UNL A   1      39.294  25.728  28.755  1.00  0.00     0.016 A 
ATOM     33  C   UNL A   1      41.288  27.463  29.108  1.00  0.00     0.010 A 
ATOM     34  C   UNL A   1      39.321  26.563  29.845  1.00  0.00     0.010 A 
ATOM     35  C   UNL A   1      40.299  27.509  29.983  1.00  0.00    -0.014 A 
BRANCH  35  36
ATOM     36  C   UNL A   1      40.251  28.557  31.082  1.00  0.00     0.031 A 
ATOM     37  C   UNL A   1      41.129  28.398  32.155  1.00  0.00     0.074 A 
ATOM     38  C   UNL A   1      39.348  29.600  30.969  1.00  0.00     0.049 A 
ATOM     39  N   UNL A   1      41.281  29.202  33.209  1.00  0.00    -0.248 NA
ATOM     40  C   UNL A   1      42.065  27.273  32.294  1.00  0.00     0.031 C 
ATOM     41  C   UNL A   1      38.465  29.772  29.885  1.00  0.00     0.029 A 
ATOM     42  N   UNL A   1      39.137  30.635  31.853  1.00  0.00    -0.354 N 
ATOM     43  C   UNL A   1      42.232  28.729  34.017  1.00  0.00     0.074 A 
ATOM     44  C   UNL A   1      42.746  27.478  33.442  1.00  0.00     0.031 C 
ATOM     45  C   UNL A   1      37.725  30.889  30.119  1.00  0.00     0.029 A 
ATOM     46  C   UNL A   1      38.133  31.433  31.350  1.00  0.00     0.049 A 
ATOM     47  H   UNL A   1      39.621  30.781  32.698  1.00  0.00     0.167 HD
ATOM     48  C   UNL A   1      42.693  29.293  35.207  1.00  0.00     0.037 A 
ATOM     49  C   UNL A   1      37.589  32.572  31.921  1.00  0.00     0.037 A 
ATOM     50  C   UNL A   1      42.178  30.457  35.756  1.00  0.00     0.049 A 
ATOM     51  C   UNL A   1      38.010  33.105  33.142  1.00  0.00     0.074 A 
ATOM     52  C   UNL A   1      42.635  31.043  36.951  1.00  0.00     0.029 A 
ATOM     53  N   UNL A   1      41.156  31.241  35.266  1.00  0.00    -0.354 N 
ATOM     54  N   UNL A   1      38.987  32.654  33.930  1.00  0.00    -0.248 NA
ATOM     55  C   UNL A   1      37.419  34.294  33.771  1.00  0.00     0.031 C 
ATOM     56  C   UNL A   1      41.895  32.159  37.185  1.00  0.00     0.029 A 
ATOM     57  C   UNL A   1      40.962  32.288  36.138  1.00  0.00     0.049 A 
ATOM     58  H   UNL A   1      40.653  31.080  34.434  1.00  0.00     0.167 HD
ATOM     59  C   UNL A   1      39.110  33.436  35.003  1.00  0.00     0.074 A 
ATOM     60  C   UNL A   1      38.098  34.498  34.921  1.00  0.00     0.031 C 
ATOM     61  C   UNL A   1      40.027  33.309  36.047  1.00  0.00     0.037 A 
BRANCH  48  62
ATOM     62  C   UNL A   1      43.821  28.591  35.944  1.00  0.00     0.058 A 
ATOM     63  C   UNL A   1      45.127  29.004  35.741  1.00  0.00     0.135 A 
ATOM     64  C   UNL A   1      43.537  27.588  36.768  1.00  0.00     0.135 A 
ATOM     65  F   UNL A   1      45.440  30.146  35.135  1.00  0.00    -0.206 F 
ATOM     66  C   UNL A   1      46.098  28.103  36.236  1.00  0.00     0.059 A 
ATOM     67  C   UNL A   1      44.542  26.834  37.324  1.00  0.00     0.059 A 
ATOM     68  F   UNL A   1      42.268  27.314  37.058  1.00  0.00    -0.206 F 
ATOM     69  C   UNL A   1      45.855  27.150  37.117  1.00  0.00     0.060 A 
BRANCH  69  70
ATOM     70  S   UNL A   1      47.190  26.308  38.004  1.00  0.00     0.124 S 
ATOM     71  O   UNL A   1      46.680  24.967  38.537  1.00  0.00    -0.237 OA
ATOM     72  O   UNL A   1      48.362  26.066  37.051  1.00  0.00    -0.237 OA
ATOM     73  O   UNL A   1      47.708  27.280  39.311  1.00  0.00    -0.744 OA
ENDBRANCH  69  70
ENDBRANCH  48  62
BRANCH  49  74
ATOM     74  C   UNL A   1      36.471  33.284  31.175  1.00  0.00     0.058 A 
ATOM     75  C   UNL A   1      36.773  34.028  30.047  1.00  0.00     0.135 A 
ATOM     76  C   UNL A   1      35.223  33.175  31.615  1.00  0.00     0.135 A 
ATOM     77  F   UNL A   1      37.947  33.963  29.427  1.00  0.00    -0.206 F 
ATOM     78  C   UNL A   1      35.716  34.864  29.612  1.00  0.00     0.059 A 
ATOM     79  C   UNL A   1      34.216  33.922  31.055  1.00  0.00     0.059 A 
ATOM     80  F   UNL A   1      34.945  32.335  32.609  1.00  0.00    -0.206 F 
ATOM     81  C   UNL A   1      34.454  34.725  29.974  1.00  0.00     0.060 A 
BRANCH  81  82
ATOM     82  S   UNL A   1      33.111  35.552  29.086  1.00  0.00     0.124 S 
ATOM     83  O   UNL A   1      33.689  36.667  28.211  1.00  0.00    -0.237 OA
ATOM     84  O   UNL A   1      32.382  34.536  28.202  1.00  0.00    -0.237 OA
ATOM     85  O   UNL A   1      32.011  36.221  30.210  1.00  0.00    -0.744 OA
ENDBRANCH  81  82
ENDBRANCH  49  74
BRANCH  61  86
ATOM     86  C   UNL A   1      40.003  34.353  37.152  1.00  0.00     0.058 A 
ATOM     87  C   UNL A   1      39.235  34.120  38.282  1.00  0.00     0.135 A 
ATOM     88  C   UNL A   1      40.712  35.468  37.018  1.00  0.00     0.135 A 
ATOM     89  F   UNL A   1      38.717  32.931  38.574  1.00  0.00    -0.206 F 
ATOM     90  C   UNL A   1      39.053  35.263  39.096  1.00  0.00     0.059 A 
ATOM     91  C   UNL A   1      40.585  36.490  37.927  1.00  0.00     0.059 A 
ATOM     92  F   UNL A   1      41.553  35.594  35.997  1.00  0.00    -0.206 F 
ATOM     93  C   UNL A   1      39.797  36.351  39.037  1.00  0.00     0.060 A 
BRANCH  93  94
ATOM     94  S   UNL A   1      39.778  37.593  40.353  1.00  0.00     0.124 S 
ATOM     95  O   UNL A   1      38.906  38.776  39.925  1.00  0.00    -0.237 OA
ATOM     96  O   UNL A   1      39.205  36.974  41.631  1.00  0.00    -0.237 OA
ATOM     97  O   UNL A   1      41.372  38.137  40.649  1.00  0.00    -0.744 OA
ENDBRANCH  93  94
ENDBRANCH  61  86
ENDBRANCH  35  36
ENDBRANCH  28  30
ENDBRANCH  27  28
ENDBRANCH   1  27
TORSDOF 16
ENDMDL
MODEL 3
REMARK VINA RESULT:     -12.0      4.940     10.338
REMARK SMILES O=C(OCCOC(=O)c1ccc(-c2c3nc(c(-c4c(F)cc(S(=O)(=O)[O-])cc4F)c4ccc([nH]4)c(-c4c(F)cc(S(=O)(=O)[O-])cc4F)c4nc(c(-c5c(F)cc(S(=O)(=O)[O-])cc5F)c5ccc2[nH]5)C=C4)C=C3)cc1)C1=Cc2cc(S(F)(F)(F)(F)F)cc(Br)c2O[C@@H]1C(F)(F)F
REMARK SMILES IDX 5 1 4 2 3 3 2 4 1 5 75 6 76 7 91 8 77 9 90 10 78 11 89 12
REMARK SMILES IDX 79 13 87 14 86 15 88 16 92 17 93 18 94 19 95 20 80 21 81 22
REMARK SMILES IDX 82 23 83 24 84 25 85 26 6 27 7 28 8 29 9 30 10 31 74 32
REMARK SMILES IDX 11 33 73 34 12 35 13 36 14 37 67 38 15 39 72 40 66 41 68 42
REMARK SMILES IDX 16 43 71 44 65 45 64 46 17 48 51 49 30 50 50 51 31 52 34 53
REMARK SMILES IDX 49 54 69 55 32 56 33 57 48 59 70 60 35 61 18 62 19 63 28 64
REMARK SMILES IDX 20 65 21 66 27 67 29 68 22 69 23 70 24 71 25 72 26 73 52 74
REMARK SMILES IDX 53 75 62 76 54 77 55 78 61 79 63 80 56 81 57 82 58 83 59 84
REMARK SMILES IDX 60 85 36 86 37 87 46 88 38 89 39 90 45 91 47 92 40 93 41 94
REMARK SMILES IDX 42 95 43 96 44 97
REMARK H PARENT 68 47 34 58
REMARK Flexibility Score: inf
ROOT
ATOM      1  C   UNL A   1      33.300  28.195  27.457  1.00  0.00     0.275 C 
ENDROOT
BRANCH   1   2
ATOM      2  C   UNL A   1      31.784  28.170  27.563  1.00  0.00     0.275 C 
BRANCH   2   3
ATOM      3  O   UNL A   1      31.293  26.939  27.053  1.00  0.00    -0.459 OA
BRANCH   3   4
ATOM      4  C   UNL A   1      30.826  26.861  25.714  1.00  0.00     0.338 C 
ATOM      5  O   UNL A   1      29.744  26.247  25.454  1.00  0.00    -0.246 OA
BRANCH   4   6
ATOM      6  C   UNL A   1      31.620  27.512  24.593  1.00  0.00     0.087 C 
ATOM      7  C   UNL A   1      32.756  26.922  24.134  1.00  0.00     0.027 C 
ATOM      8  C   UNL A   1      31.144  28.820  23.985  1.00  0.00     0.316 C 
ATOM      9  C   UNL A   1      33.233  25.613  24.742  1.00  0.00     0.020 A 
ATOM     10  O   UNL A   1      30.972  24.880  24.774  1.00  0.00    -0.474 OA
ATOM     11  C   UNL A   1      34.572  25.461  25.059  1.00  0.00     0.036 A 
ATOM     12  C   UNL A   1      32.359  24.637  24.960  1.00  0.00     0.142 A 
ATOM     13  C   UNL A   1      34.949  24.127  25.339  1.00  0.00     0.109 A 
ATOM     14  C   UNL A   1      32.784  23.394  25.364  1.00  0.00     0.062 A 
ATOM     15  C   UNL A   1      34.102  23.157  25.638  1.00  0.00     0.044 A 
ATOM     16  Br  UNL A   1      31.483  21.940  25.548  1.00  0.00    -0.047 Br
BRANCH   8  17
ATOM     17  C   UNL A   1      30.881  28.624  22.501  1.00  0.00     0.430 C 
ATOM     18  F   UNL A   1      30.281  27.453  22.308  1.00  0.00    -0.167 F 
ATOM     19  F   UNL A   1      30.098  29.602  22.055  1.00  0.00    -0.167 F 
ATOM     20  F   UNL A   1      32.036  28.645  21.840  1.00  0.00    -0.167 F 
ENDBRANCH   8  17
BRANCH  13  21
ATOM     21  S   UNL A   1      36.711  23.718  25.283  1.00  0.00     0.310 S 
ATOM     22  F   UNL A   1      36.421  22.165  25.426  1.00  0.00    -0.094 F 
ATOM     23  F   UNL A   1      36.748  23.786  26.857  1.00  0.00    -0.094 F 
ATOM     24  F   UNL A   1      38.226  23.369  25.235  1.00  0.00    -0.094 F 
ATOM     25  F   UNL A   1      36.623  23.517  23.718  1.00  0.00    -0.094 F 
ATOM     26  F   UNL A   1      35.149  23.960  25.325  1.00  0.00    -0.094 F 
ENDBRANCH  13  21
ENDBRANCH   4   6
ENDBRANCH   3   4
ENDBRANCH   2   3
ENDBRANCH   1   2
BRANCH   1  27
ATOM     27  O   UNL A   1      33.719  29.464  26.974  1.00  0.00    -0.458 OA
BRANCH  27  28
ATOM     28  C   UNL A   1      34.456  30.337  27.817  1.00  0.00     0.338 C 
ATOM     29  O   UNL A   1      33.903  31.376  28.295  1.00  0.00    -0.246 OA
BRANCH  28  30
ATOM     30  C   UNL A   1      35.907  30.027  28.148  1.00  0.00     0.060 A 
ATOM     31  C   UNL A   1      36.881  30.236  27.186  1.00  0.00     0.016 A 
ATOM     32  C   UNL A   1      36.217  29.562  29.353  1.00  0.00     0.016 A 
ATOM     33  C   UNL A   1      38.130  29.647  27.496  1.00  0.00     0.010 A 
ATOM     34  C   UNL A   1      37.491  29.129  29.628  1.00  0.00     0.010 A 
ATOM     35  C   UNL A   1      38.492  29.250  28.702  1.00  0.00    -0.014 A 
BRANCH  35  36
ATOM     36  C   UNL A   1      39.941  28.946  29.044  1.00  0.00     0.031 A 
ATOM     37  C   UNL A   1      40.419  27.674  28.722  1.00  0.00     0.074 A 
ATOM     38  C   UNL A   1      40.702  29.927  29.654  1.00  0.00     0.049 A 
ATOM     39  N   UNL A   1      41.652  27.199  28.901  1.00  0.00    -0.248 NA
ATOM     40  C   UNL A   1      39.602  26.618  28.106  1.00  0.00     0.031 C 
ATOM     41  C   UNL A   1      40.229  31.215  29.974  1.00  0.00     0.029 A 
ATOM     42  N   UNL A   1      42.018  29.850  30.055  1.00  0.00    -0.354 N 
ATOM     43  C   UNL A   1      41.734  25.946  28.451  1.00  0.00     0.074 A 
ATOM     44  C   UNL A   1      40.415  25.552  27.938  1.00  0.00     0.031 C 
ATOM     45  C   UNL A   1      41.242  31.899  30.569  1.00  0.00     0.029 A 
ATOM     46  C   UNL A   1      42.364  31.053  30.631  1.00  0.00     0.049 A 
ATOM     47  H   UNL A   1      42.609  29.070  29.947  1.00  0.00     0.167 HD
ATOM     48  C   UNL A   1      42.857  25.117  28.445  1.00  0.00     0.037 A 
ATOM     49  C   UNL A   1      43.582  31.407  31.186  1.00  0.00     0.037 A 
ATOM     50  C   UNL A   1      44.088  25.488  28.961  1.00  0.00     0.049 A 
ATOM     51  C   UNL A   1      44.690  30.557  31.233  1.00  0.00     0.074 A 
ATOM     52  C   UNL A   1      45.232  24.668  28.957  1.00  0.00     0.029 A 
ATOM     53  N   UNL A   1      44.427  26.682  29.560  1.00  0.00    -0.354 N 
ATOM     54  N   UNL A   1      44.783  29.318  30.748  1.00  0.00    -0.248 NA
ATOM     55  C   UNL A   1      45.977  30.911  31.847  1.00  0.00     0.031 C 
ATOM     56  C   UNL A   1      46.245  25.352  29.553  1.00  0.00     0.029 A 
ATOM     57  C   UNL A   1      45.750  26.612  29.939  1.00  0.00     0.049 A 
ATOM     58  H   UNL A   1      43.828  27.452  29.693  1.00  0.00     0.167 HD
ATOM     59  C   UNL A   1      46.006  28.830  30.964  1.00  0.00     0.074 A 
ATOM     60  C   UNL A   1      46.789  29.845  31.682  1.00  0.00     0.031 C 
ATOM     61  C   UNL A   1      46.500  27.580  30.590  1.00  0.00     0.037 A 
BRANCH  48  62
ATOM     62  C   UNL A   1      42.721  23.730  27.840  1.00  0.00     0.058 A 
ATOM     63  C   UNL A   1      42.881  23.565  26.474  1.00  0.00     0.135 A 
ATOM     64  C   UNL A   1      42.448  22.698  28.630  1.00  0.00     0.135 A 
ATOM     65  F   UNL A   1      43.398  24.504  25.686  1.00  0.00    -0.206 F 
ATOM     66  C   UNL A   1      42.445  22.308  25.993  1.00  0.00     0.059 A 
ATOM     67  C   UNL A   1      42.163  21.464  28.096  1.00  0.00     0.059 A 
ATOM     68  F   UNL A   1      42.449  22.861  29.951  1.00  0.00    -0.206 F 
ATOM     69  C   UNL A   1      42.243  21.245  26.750  1.00  0.00     0.060 A 
BRANCH  69  70
ATOM     70  S   UNL A   1      42.083  19.587  26.042  1.00  0.00     0.124 S 
ATOM     71  O   UNL A   1      42.932  19.491  24.772  1.00  0.00    -0.237 OA
ATOM     72  O   UNL A   1      42.566  18.550  27.058  1.00  0.00    -0.237 OA
ATOM     73  O   UNL A   1      40.445  19.287  25.656  1.00  0.00    -0.744 OA
ENDBRANCH  69  70
ENDBRANCH  48  62
BRANCH  49  74
ATOM     74  C   UNL A   1      43.723  32.801  31.776  1.00  0.00     0.058 A 
ATOM     75  C   UNL A   1      43.464  32.998  33.123  1.00  0.00     0.135 A 
ATOM     76  C   UNL A   1      44.100  33.805  30.993  1.00  0.00     0.135 A 
ATOM     77  F   UNL A   1      43.334  31.999  33.991  1.00  0.00    -0.206 F 
ATOM     78  C   UNL A   1      43.350  34.360  33.491  1.00  0.00     0.059 A 
ATOM     79  C   UNL A   1      44.094  35.097  31.460  1.00  0.00     0.059 A 
ATOM     80  F   UNL A   1      44.487  33.558  29.744  1.00  0.00    -0.206 F 
ATOM     81  C   UNL A   1      43.790  35.372  32.765  1.00  0.00     0.060 A 
BRANCH  81  82
ATOM     82  S   UNL A   1      43.979  37.032  33.459  1.00  0.00     0.124 S 
ATOM     83  O   UNL A   1      45.070  37.015  34.532  1.00  0.00    -0.237 OA
ATOM     84  O   UNL A   1      44.374  38.008  32.347  1.00  0.00    -0.237 OA
ATOM     85  O   UNL A   1      42.500  37.532  34.156  1.00  0.00    -0.744 OA
ENDBRANCH  81  82
ENDBRANCH  49  74
BRANCH  61  86
ATOM     86  C   UNL A   1      47.951  27.259  30.913  1.00  0.00     0.058 A 
ATOM     87  C   UNL A   1      48.936  27.602  30.001  1.00  0.00     0.135 A 
ATOM     88  C   UNL A   1      48.251  26.659  32.058  1.00  0.00     0.135 A 
ATOM     89  F   UNL A   1      48.720  28.418  28.973  1.00  0.00    -0.206 F 
ATOM     90  C   UNL A   1      50.191  27.004  30.262  1.00  0.00     0.059 A 
ATOM     91  C   UNL A   1      49.530  26.221  32.303  1.00  0.00     0.059 A 
ATOM     92  F   UNL A   1      47.306  26.480  32.976  1.00  0.00    -0.206 F 
ATOM     93  C   UNL A   1      50.542  26.473  31.418  1.00  0.00     0.060 A 
BRANCH  93  94
ATOM     94  S   UNL A   1      52.268  26.098  31.811  1.00  0.00     0.124 S 
ATOM     95  O   UNL A   1      52.757  27.041  32.913  1.00  0.00    -0.237 OA
ATOM     96  O   UNL A   1      52.378  24.650  32.295  1.00  0.00    -0.237 OA
ATOM     97  O   UNL A   1      53.231  26.306  30.414  1.00  0.00    -0.744 OA
ENDBRANCH  93  94
ENDBRANCH  61  86
ENDBRANCH  35  36
ENDBRANCH  28  30
ENDBRANCH  27  28
ENDBRANCH   1  27
TORSDOF 16
ENDMDL
