MODEL 1
REMARK VINA RESULT:     -12.6      0.000      0.000
REMARK SMILES Cc1ccc2[nH]cc([C@@H](C(=O)OCCOC(=O)c3ccc(-c4c5nc(c(-c6c(F)cc(S(=O)(=O)[O-])cc6F)c6ccc([nH]6)c(-c6c(F)cc(S(=O)(=O)[O-])cc6F)c6nc(c(-c7c(F)cc(S(=O)(=O)[O-])cc7F)c7ccc4[nH]7)C=C6)C=C5)cc3)[NH+]3CCN(c4ccc(F)cc4)CC3)c2c1
REMARK SMILES IDX 14 1 13 2 12 3 10 4 11 5 9 6 8 7 1 8 2 9 3 10 98 11 4 12
REMARK SMILES IDX 97 13 5 14 6 15 7 16 84 18 85 19 96 20 86 22 95 23 87 24
REMARK SMILES IDX 88 25 89 26 94 27 90 28 93 29 91 30 92 31 15 32 16 33 17 34
REMARK SMILES IDX 18 35 19 36 83 37 20 38 82 39 21 40 22 41 23 42 76 43 24 44
REMARK SMILES IDX 81 45 75 46 77 47 25 48 80 49 74 50 73 51 26 53 60 54 39 55
REMARK SMILES IDX 59 56 40 57 43 58 58 59 78 60 41 61 42 62 57 64 79 65 44 66
REMARK SMILES IDX 27 67 28 68 37 69 29 70 30 71 36 72 38 73 31 74 32 75 33 76
REMARK SMILES IDX 34 77 35 78 61 79 62 80 71 81 63 82 64 83 70 84 72 85 65 86
REMARK SMILES IDX 66 87 67 88 68 89 69 90 45 91 46 92 55 93 47 94 48 95 54 96
REMARK SMILES IDX 56 97 49 98 50 99 51 100 52 101 53 102
REMARK H PARENT 6 17 84 21 77 52 43 63
REMARK Flexibility Score: inf
ROOT
ATOM      1  C   UNL A   1      32.949  29.959  26.349  1.00  0.00     0.275 C 
ENDROOT
BRANCH   1   2
ATOM      2  C   UNL A   1      33.259  28.930  25.265  1.00  0.00     0.274 C 
BRANCH   2   3
ATOM      3  O   UNL A   1      33.139  27.593  25.790  1.00  0.00    -0.457 OA
BRANCH   3   4
ATOM      4  C   UNL A   1      31.889  27.046  25.783  1.00  0.00     0.370 C 
ATOM      5  O   UNL A   1      31.274  26.767  26.811  1.00  0.00    -0.245 OA
BRANCH   4   6
ATOM      6  C   UNL A   1      31.360  26.727  24.363  1.00  0.00     0.328 C 
BRANCH   6   7
ATOM      7  C   UNL A   1      29.884  26.913  24.140  1.00  0.00     0.046 A 
ATOM      8  C   UNL A   1      29.387  31.857  22.919  1.00  0.00     0.044 C 
ATOM      9  C   UNL A   1      28.873  30.455  23.066  1.00  0.00    -0.050 A 
ATOM     10  C   UNL A   1      27.544  30.136  22.779  1.00  0.00     0.005 A 
ATOM     11  C   UNL A   1      29.743  29.453  23.523  1.00  0.00     0.014 A 
ATOM     12  C   UNL A   1      27.043  28.842  22.976  1.00  0.00     0.027 A 
ATOM     13  C   UNL A   1      29.265  28.142  23.731  1.00  0.00     0.009 A 
ATOM     14  C   UNL A   1      27.921  27.877  23.479  1.00  0.00     0.046 A 
ATOM     15  N   UNL A   1      27.701  26.562  23.810  1.00  0.00    -0.361 N 
ATOM     16  C   UNL A   1      28.858  25.992  24.269  1.00  0.00     0.094 A 
ATOM     17  H   UNL A   1      26.837  26.097  23.730  1.00  0.00     0.166 HD
ENDBRANCH   6   7
BRANCH   6  18
ATOM     18  N   UNL A   1      31.840  25.409  23.895  1.00  0.00    -0.316 N 
ATOM     19  C   UNL A   1      32.966  25.386  22.956  1.00  0.00     0.284 C 
ATOM     20  C   UNL A   1      31.953  24.346  24.904  1.00  0.00     0.284 C 
ATOM     21  H   UNL A   1      31.026  25.172  23.327  1.00  0.00     0.349 HD
ATOM     22  C   UNL A   1      34.381  25.122  23.505  1.00  0.00     0.178 C 
ATOM     23  C   UNL A   1      33.357  24.101  25.514  1.00  0.00     0.178 C 
ATOM     24  N   UNL A   1      34.374  24.014  24.458  1.00  0.00    -0.360 N 
BRANCH  24  25
ATOM     25  C   UNL A   1      35.608  23.475  24.802  1.00  0.00     0.037 A 
ATOM     26  C   UNL A   1      36.082  22.273  24.258  1.00  0.00     0.029 A 
ATOM     27  C   UNL A   1      36.393  24.125  25.766  1.00  0.00     0.029 A 
ATOM     28  C   UNL A   1      37.291  21.719  24.683  1.00  0.00     0.041 A 
ATOM     29  C   UNL A   1      37.599  23.571  26.200  1.00  0.00     0.041 A 
ATOM     30  C   UNL A   1      38.036  22.371  25.655  1.00  0.00     0.123 A 
ATOM     31  F   UNL A   1      39.192  21.838  26.067  1.00  0.00    -0.207 F 
ENDBRANCH  24  25
ENDBRANCH   6  18
ENDBRANCH   4   6
ENDBRANCH   3   4
ENDBRANCH   2   3
ENDBRANCH   1   2
BRANCH   1  32
ATOM     32  O   UNL A   1      33.627  29.590  27.562  1.00  0.00    -0.458 OA
BRANCH  32  33
ATOM     33  C   UNL A   1      34.455  30.516  28.095  1.00  0.00     0.338 C 
ATOM     34  O   UNL A   1      34.150  31.655  28.427  1.00  0.00    -0.246 OA
BRANCH  33  35
ATOM     35  C   UNL A   1      35.814  29.955  28.280  1.00  0.00     0.060 A 
ATOM     36  C   UNL A   1      36.238  29.481  29.522  1.00  0.00     0.016 A 
ATOM     37  C   UNL A   1      36.727  30.021  27.225  1.00  0.00     0.016 A 
ATOM     38  C   UNL A   1      37.587  29.190  29.737  1.00  0.00     0.010 A 
ATOM     39  C   UNL A   1      38.054  29.616  27.418  1.00  0.00     0.010 A 
ATOM     40  C   UNL A   1      38.514  29.225  28.686  1.00  0.00    -0.014 A 
BRANCH  40  41
ATOM     41  C   UNL A   1      39.949  28.866  28.895  1.00  0.00     0.031 A 
ATOM     42  C   UNL A   1      40.934  29.902  29.382  1.00  0.00     0.074 A 
ATOM     43  C   UNL A   1      40.400  27.623  28.621  1.00  0.00     0.049 A 
ATOM     44  N   UNL A   1      42.240  29.906  29.301  1.00  0.00    -0.248 NA
ATOM     45  C   UNL A   1      40.372  31.101  30.027  1.00  0.00     0.031 C 
ATOM     46  C   UNL A   1      39.576  26.486  28.207  1.00  0.00     0.029 A 
ATOM     47  N   UNL A   1      41.675  27.109  28.642  1.00  0.00    -0.354 N 
ATOM     48  C   UNL A   1      42.652  31.135  29.807  1.00  0.00     0.074 A 
ATOM     49  C   UNL A   1      41.456  31.843  30.215  1.00  0.00     0.031 C 
ATOM     50  C   UNL A   1      40.353  25.407  28.048  1.00  0.00     0.029 A 
ATOM     51  C   UNL A   1      41.745  25.799  28.229  1.00  0.00     0.049 A 
ATOM     52  H   UNL A   1      42.462  27.628  28.927  1.00  0.00     0.167 HD
ATOM     53  C   UNL A   1      43.911  31.627  29.907  1.00  0.00     0.037 A 
ATOM     54  C   UNL A   1      42.801  25.013  27.946  1.00  0.00     0.037 A 
ATOM     55  C   UNL A   1      45.101  30.882  29.574  1.00  0.00     0.049 A 
ATOM     56  C   UNL A   1      44.186  25.578  28.042  1.00  0.00     0.074 A 
ATOM     57  C   UNL A   1      46.422  31.290  29.641  1.00  0.00     0.029 A 
ATOM     58  N   UNL A   1      45.113  29.564  29.144  1.00  0.00    -0.354 N 
ATOM     59  N   UNL A   1      44.557  26.786  28.394  1.00  0.00    -0.248 NA
ATOM     60  C   UNL A   1      45.293  24.688  27.669  1.00  0.00     0.031 C 
ATOM     61  C   UNL A   1      47.234  30.225  29.232  1.00  0.00     0.029 A 
ATOM     62  C   UNL A   1      46.418  29.143  28.941  1.00  0.00     0.049 A 
ATOM     63  H   UNL A   1      44.313  29.008  29.002  1.00  0.00     0.167 HD
ATOM     64  C   UNL A   1      45.941  26.802  28.283  1.00  0.00     0.074 A 
ATOM     65  C   UNL A   1      46.343  25.477  27.850  1.00  0.00     0.031 C 
ATOM     66  C   UNL A   1      46.801  27.824  28.510  1.00  0.00     0.037 A 
BRANCH  53  67
ATOM     67  C   UNL A   1      44.080  33.054  30.355  1.00  0.00     0.058 A 
ATOM     68  C   UNL A   1      44.367  33.394  31.684  1.00  0.00     0.135 A 
ATOM     69  C   UNL A   1      44.011  34.095  29.413  1.00  0.00     0.135 A 
ATOM     70  F   UNL A   1      44.431  32.440  32.627  1.00  0.00    -0.206 F 
ATOM     71  C   UNL A   1      44.564  34.718  32.070  1.00  0.00     0.059 A 
ATOM     72  C   UNL A   1      44.227  35.423  29.771  1.00  0.00     0.059 A 
ATOM     73  F   UNL A   1      43.742  33.826  28.126  1.00  0.00    -0.206 F 
ATOM     74  C   UNL A   1      44.491  35.726  31.106  1.00  0.00     0.060 A 
BRANCH  74  75
ATOM     75  S   UNL A   1      44.769  37.439  31.608  1.00  0.00     0.124 S 
ATOM     76  O   UNL A   1      43.601  37.690  32.447  1.00  0.00    -0.237 OA
ATOM     77  O   UNL A   1      46.048  37.362  32.308  1.00  0.00    -0.237 OA
ATOM     78  O   UNL A   1      44.798  38.164  30.341  1.00  0.00    -0.744 OA
ENDBRANCH  74  75
ENDBRANCH  53  67
BRANCH  54  79
ATOM     79  C   UNL A   1      42.570  23.624  27.471  1.00  0.00     0.058 A 
ATOM     80  C   UNL A   1      42.531  23.327  26.102  1.00  0.00     0.135 A 
ATOM     81  C   UNL A   1      42.444  22.559  28.378  1.00  0.00     0.135 A 
ATOM     82  F   UNL A   1      42.633  24.314  25.198  1.00  0.00    -0.206 F 
ATOM     83  C   UNL A   1      42.383  22.021  25.646  1.00  0.00     0.059 A 
ATOM     84  C   UNL A   1      42.322  21.243  27.946  1.00  0.00     0.059 A 
ATOM     85  F   UNL A   1      42.488  22.792  29.699  1.00  0.00    -0.206 F 
ATOM     86  C   UNL A   1      42.288  20.985  26.577  1.00  0.00     0.060 A 
BRANCH  86  87
ATOM     87  S   UNL A   1      42.191  19.281  25.985  1.00  0.00     0.124 S 
ATOM     88  O   UNL A   1      42.662  18.540  27.150  1.00  0.00    -0.237 OA
ATOM     89  O   UNL A   1      40.773  19.139  25.670  1.00  0.00    -0.237 OA
ATOM     90  O   UNL A   1      43.083  19.280  24.830  1.00  0.00    -0.744 OA
ENDBRANCH  86  87
ENDBRANCH  54  79
BRANCH  66  91
ATOM     91  C   UNL A   1      48.262  27.541  28.320  1.00  0.00     0.058 A 
ATOM     92  C   UNL A   1      48.908  27.818  27.106  1.00  0.00     0.135 A 
ATOM     93  C   UNL A   1      49.029  27.015  29.372  1.00  0.00     0.135 A 
ATOM     94  F   UNL A   1      48.215  28.311  26.068  1.00  0.00    -0.206 F 
ATOM     95  C   UNL A   1      50.265  27.564  26.935  1.00  0.00     0.059 A 
ATOM     96  C   UNL A   1      50.390  26.772  29.229  1.00  0.00     0.059 A 
ATOM     97  F   UNL A   1      48.455  26.740  30.553  1.00  0.00    -0.206 F 
ATOM     98  C   UNL A   1      50.998  27.039  28.002  1.00  0.00     0.060 A 
BRANCH  98  99
ATOM     99  S   UNL A   1      52.763  26.735  27.778  1.00  0.00     0.124 S 
ATOM    100  O   UNL A   1      52.752  25.495  27.009  1.00  0.00    -0.237 OA
ATOM    101  O   UNL A   1      53.200  27.925  27.054  1.00  0.00    -0.237 OA
ATOM    102  O   UNL A   1      53.263  26.624  29.145  1.00  0.00    -0.744 OA
ENDBRANCH  98  99
ENDBRANCH  66  91
ENDBRANCH  40  41
ENDBRANCH  33  35
ENDBRANCH  32  33
ENDBRANCH   1  32
TORSDOF 17
ENDMDL
MODEL 2
REMARK VINA RESULT:     -12.2      4.283     10.147
REMARK SMILES Cc1ccc2[nH]cc([C@@H](C(=O)OCCOC(=O)c3ccc(-c4c5nc(c(-c6c(F)cc(S(=O)(=O)[O-])cc6F)c6ccc([nH]6)c(-c6c(F)cc(S(=O)(=O)[O-])cc6F)c6nc(c(-c7c(F)cc(S(=O)(=O)[O-])cc7F)c7ccc4[nH]7)C=C6)C=C5)cc3)[NH+]3CCN(c4ccc(F)cc4)CC3)c2c1
REMARK SMILES IDX 14 1 13 2 12 3 10 4 11 5 9 6 8 7 1 8 2 9 3 10 98 11 4 12
REMARK SMILES IDX 97 13 5 14 6 15 7 16 84 18 85 19 96 20 86 22 95 23 87 24
REMARK SMILES IDX 88 25 89 26 94 27 90 28 93 29 91 30 92 31 15 32 16 33 17 34
REMARK SMILES IDX 18 35 19 36 83 37 20 38 82 39 21 40 22 41 23 42 76 43 24 44
REMARK SMILES IDX 81 45 75 46 77 47 25 48 80 49 74 50 73 51 26 53 60 54 39 55
REMARK SMILES IDX 59 56 40 57 43 58 58 59 78 60 41 61 42 62 57 64 79 65 44 66
REMARK SMILES IDX 27 67 28 68 37 69 29 70 30 71 36 72 38 73 31 74 32 75 33 76
REMARK SMILES IDX 34 77 35 78 61 79 62 80 71 81 63 82 64 83 70 84 72 85 65 86
REMARK SMILES IDX 66 87 67 88 68 89 69 90 45 91 46 92 55 93 47 94 48 95 54 96
REMARK SMILES IDX 56 97 49 98 50 99 51 100 52 101 53 102
REMARK H PARENT 6 17 84 21 77 52 43 63
REMARK Flexibility Score: inf
ROOT
ATOM      1  C   UNL A   1      37.314  22.610  24.488  1.00  0.00     0.275 C 
ENDROOT
BRANCH   1   2
ATOM      2  C   UNL A   1      36.087  23.493  24.277  1.00  0.00     0.274 C 
BRANCH   2   3
ATOM      3  O   UNL A   1      34.896  22.686  24.181  1.00  0.00    -0.457 OA
BRANCH   3   4
ATOM      4  C   UNL A   1      33.990  22.817  25.193  1.00  0.00     0.370 C 
ATOM      5  O   UNL A   1      34.310  23.083  26.350  1.00  0.00    -0.245 OA
BRANCH   4   6
ATOM      6  C   UNL A   1      32.534  22.507  24.763  1.00  0.00     0.328 C 
BRANCH   6   7
ATOM      7  C   UNL A   1      32.364  21.562  23.605  1.00  0.00     0.046 A 
ATOM      8  C   UNL A   1      33.908  17.032  25.414  1.00  0.00     0.044 C 
ATOM      9  C   UNL A   1      33.266  17.916  24.385  1.00  0.00    -0.050 A 
ATOM     10  C   UNL A   1      32.784  17.395  23.181  1.00  0.00     0.005 A 
ATOM     11  C   UNL A   1      33.172  19.294  24.631  1.00  0.00     0.014 A 
ATOM     12  C   UNL A   1      32.243  18.226  22.192  1.00  0.00     0.027 A 
ATOM     13  C   UNL A   1      32.632  20.153  23.651  1.00  0.00     0.009 A 
ATOM     14  C   UNL A   1      32.207  19.600  22.445  1.00  0.00     0.046 A 
ATOM     15  N   UNL A   1      31.784  20.639  21.654  1.00  0.00    -0.361 N 
ATOM     16  C   UNL A   1      31.934  21.828  22.316  1.00  0.00     0.094 A 
ATOM     17  H   UNL A   1      31.424  20.544  20.741  1.00  0.00     0.166 HD
ENDBRANCH   6   7
BRANCH   6  18
ATOM     18  N   UNL A   1      31.747  23.748  24.599  1.00  0.00    -0.316 N 
ATOM     19  C   UNL A   1      31.060  24.282  25.779  1.00  0.00     0.284 C 
ATOM     20  C   UNL A   1      32.354  24.818  23.792  1.00  0.00     0.284 C 
ATOM     21  H   UNL A   1      31.003  23.352  24.025  1.00  0.00     0.349 HD
ATOM     22  C   UNL A   1      31.725  25.429  26.565  1.00  0.00     0.178 C 
ATOM     23  C   UNL A   1      33.078  25.953  24.560  1.00  0.00     0.178 C 
ATOM     24  N   UNL A   1      32.243  26.452  25.661  1.00  0.00    -0.360 N 
BRANCH  24  25
ATOM     25  C   UNL A   1      32.596  27.671  26.228  1.00  0.00     0.037 A 
ATOM     26  C   UNL A   1      31.664  28.697  26.446  1.00  0.00     0.029 A 
ATOM     27  C   UNL A   1      33.939  27.911  26.551  1.00  0.00     0.029 A 
ATOM     28  C   UNL A   1      32.066  29.937  26.946  1.00  0.00     0.041 A 
ATOM     29  C   UNL A   1      34.347  29.152  27.044  1.00  0.00     0.041 A 
ATOM     30  C   UNL A   1      33.406  30.155  27.236  1.00  0.00     0.123 A 
ATOM     31  F   UNL A   1      33.792  31.345  27.710  1.00  0.00    -0.207 F 
ENDBRANCH  24  25
ENDBRANCH   6  18
ENDBRANCH   4   6
ENDBRANCH   3   4
ENDBRANCH   2   3
ENDBRANCH   1   2
BRANCH   1  32
ATOM     32  O   UNL A   1      37.725  22.687  25.864  1.00  0.00    -0.458 OA
BRANCH  32  33
ATOM     33  C   UNL A   1      39.043  22.877  26.089  1.00  0.00     0.338 C 
ATOM     34  O   UNL A   1      39.952  22.126  25.752  1.00  0.00    -0.246 OA
BRANCH  33  35
ATOM     35  C   UNL A   1      39.274  24.169  26.777  1.00  0.00     0.060 A 
ATOM     36  C   UNL A   1      40.088  25.153  26.215  1.00  0.00     0.016 A 
ATOM     37  C   UNL A   1      38.772  24.352  28.068  1.00  0.00     0.016 A 
ATOM     38  C   UNL A   1      40.490  26.250  26.980  1.00  0.00     0.010 A 
ATOM     39  C   UNL A   1      39.087  25.512  28.787  1.00  0.00     0.010 A 
ATOM     40  C   UNL A   1      39.979  26.465  28.267  1.00  0.00    -0.014 A 
BRANCH  40  41
ATOM     41  C   UNL A   1      40.364  27.662  29.074  1.00  0.00     0.031 A 
ATOM     42  C   UNL A   1      41.650  27.669  29.866  1.00  0.00     0.074 A 
ATOM     43  C   UNL A   1      39.559  28.744  29.137  1.00  0.00     0.049 A 
ATOM     44  N   UNL A   1      41.998  28.429  30.873  1.00  0.00    -0.248 NA
ATOM     45  C   UNL A   1      42.668  26.675  29.489  1.00  0.00     0.031 C 
ATOM     46  C   UNL A   1      38.317  28.931  28.385  1.00  0.00     0.029 A 
ATOM     47  N   UNL A   1      39.663  29.894  29.883  1.00  0.00    -0.354 N 
ATOM     48  C   UNL A   1      43.234  27.956  31.301  1.00  0.00     0.074 A 
ATOM     49  C   UNL A   1      43.587  26.855  30.428  1.00  0.00     0.031 C 
ATOM     50  C   UNL A   1      37.796  30.130  28.677  1.00  0.00     0.029 A 
ATOM     51  C   UNL A   1      38.596  30.748  29.726  1.00  0.00     0.049 A 
ATOM     52  H   UNL A   1      40.428  30.089  30.472  1.00  0.00     0.167 HD
ATOM     53  C   UNL A   1      43.993  28.394  32.335  1.00  0.00     0.037 A 
ATOM     54  C   UNL A   1      38.245  31.862  30.396  1.00  0.00     0.037 A 
ATOM     55  C   UNL A   1      43.671  29.543  33.147  1.00  0.00     0.049 A 
ATOM     56  C   UNL A   1      39.084  32.322  31.550  1.00  0.00     0.074 A 
ATOM     57  C   UNL A   1      44.375  30.069  34.217  1.00  0.00     0.029 A 
ATOM     58  N   UNL A   1      42.569  30.362  32.955  1.00  0.00    -0.354 N 
ATOM     59  N   UNL A   1      40.181  31.789  32.032  1.00  0.00    -0.248 NA
ATOM     60  C   UNL A   1      38.620  33.513  32.274  1.00  0.00     0.031 C 
ATOM     61  C   UNL A   1      43.688  31.194  34.686  1.00  0.00     0.029 A 
ATOM     62  C   UNL A   1      42.573  31.388  33.886  1.00  0.00     0.049 A 
ATOM     63  H   UNL A   1      41.883  30.233  32.260  1.00  0.00     0.167 HD
ATOM     64  C   UNL A   1      40.539  32.578  33.117  1.00  0.00     0.074 A 
ATOM     65  C   UNL A   1      39.552  33.636  33.210  1.00  0.00     0.031 C 
ATOM     66  C   UNL A   1      41.585  32.433  33.966  1.00  0.00     0.037 A 
BRANCH  53  67
ATOM     67  C   UNL A   1      45.229  27.611  32.687  1.00  0.00     0.058 A 
ATOM     68  C   UNL A   1      46.504  27.979  32.234  1.00  0.00     0.135 A 
ATOM     69  C   UNL A   1      45.135  26.504  33.548  1.00  0.00     0.135 A 
ATOM     70  F   UNL A   1      46.650  29.019  31.399  1.00  0.00    -0.206 F 
ATOM     71  C   UNL A   1      47.642  27.267  32.608  1.00  0.00     0.059 A 
ATOM     72  C   UNL A   1      46.260  25.793  33.954  1.00  0.00     0.059 A 
ATOM     73  F   UNL A   1      43.939  26.111  34.015  1.00  0.00    -0.206 F 
ATOM     74  C   UNL A   1      47.510  26.174  33.468  1.00  0.00     0.060 A 
BRANCH  74  75
ATOM     75  S   UNL A   1      48.991  25.269  33.967  1.00  0.00     0.124 S 
ATOM     76  O   UNL A   1      48.448  24.346  34.960  1.00  0.00    -0.237 OA
ATOM     77  O   UNL A   1      49.431  24.662  32.714  1.00  0.00    -0.237 OA
ATOM     78  O   UNL A   1      49.866  26.312  34.493  1.00  0.00    -0.744 OA
ENDBRANCH  74  75
ENDBRANCH  53  67
BRANCH  54  79
ATOM     79  C   UNL A   1      36.992  32.570  30.028  1.00  0.00     0.058 A 
ATOM     80  C   UNL A   1      35.793  32.316  30.706  1.00  0.00     0.135 A 
ATOM     81  C   UNL A   1      36.984  33.559  29.030  1.00  0.00     0.135 A 
ATOM     82  F   UNL A   1      35.749  31.371  31.658  1.00  0.00    -0.206 F 
ATOM     83  C   UNL A   1      34.630  33.021  30.415  1.00  0.00     0.059 A 
ATOM     84  C   UNL A   1      35.841  34.295  28.740  1.00  0.00     0.059 A 
ATOM     85  F   UNL A   1      38.112  33.848  28.360  1.00  0.00    -0.206 F 
ATOM     86  C   UNL A   1      34.667  34.016  29.436  1.00  0.00     0.060 A 
BRANCH  86  87
ATOM     87  S   UNL A   1      33.182  34.996  29.125  1.00  0.00     0.124 S 
ATOM     88  O   UNL A   1      33.755  36.264  28.690  1.00  0.00    -0.237 OA
ATOM     89  O   UNL A   1      32.503  34.216  28.094  1.00  0.00    -0.237 OA
ATOM     90  O   UNL A   1      32.518  35.012  30.424  1.00  0.00    -0.744 OA
ENDBRANCH  86  87
ENDBRANCH  54  79
BRANCH  66  91
ATOM     91  C   UNL A   1      41.729  33.458  35.051  1.00  0.00     0.058 A 
ATOM     92  C   UNL A   1      42.445  34.647  34.844  1.00  0.00     0.135 A 
ATOM     93  C   UNL A   1      41.122  33.261  36.302  1.00  0.00     0.135 A 
ATOM     94  F   UNL A   1      43.051  34.874  33.669  1.00  0.00    -0.206 F 
ATOM     95  C   UNL A   1      42.568  35.601  35.849  1.00  0.00     0.059 A 
ATOM     96  C   UNL A   1      41.218  34.210  37.314  1.00  0.00     0.059 A 
ATOM     97  F   UNL A   1      40.424  32.141  36.545  1.00  0.00    -0.206 F 
ATOM     98  C   UNL A   1      41.953  35.372  37.082  1.00  0.00     0.060 A 
BRANCH  98  99
ATOM     99  S   UNL A   1      42.099  36.626  38.371  1.00  0.00     0.124 S 
ATOM    100  O   UNL A   1      40.735  37.139  38.439  1.00  0.00    -0.237 OA
ATOM    101  O   UNL A   1      42.540  35.846  39.524  1.00  0.00    -0.237 OA
ATOM    102  O   UNL A   1      43.093  37.551  37.833  1.00  0.00    -0.744 OA
ENDBRANCH  98  99
ENDBRANCH  66  91
ENDBRANCH  40  41
ENDBRANCH  33  35
ENDBRANCH  32  33
ENDBRANCH   1  32
TORSDOF 17
ENDMDL
MODEL 3
REMARK VINA RESULT:     -11.9      4.689     10.509
REMARK SMILES Cc1ccc2[nH]cc([C@@H](C(=O)OCCOC(=O)c3ccc(-c4c5nc(c(-c6c(F)cc(S(=O)(=O)[O-])cc6F)c6ccc([nH]6)c(-c6c(F)cc(S(=O)(=O)[O-])cc6F)c6nc(c(-c7c(F)cc(S(=O)(=O)[O-])cc7F)c7ccc4[nH]7)C=C6)C=C5)cc3)[NH+]3CCN(c4ccc(F)cc4)CC3)c2c1
REMARK SMILES IDX 14 1 13 2 12 3 10 4 11 5 9 6 8 7 1 8 2 9 3 10 98 11 4 12
REMARK SMILES IDX 97 13 5 14 6 15 7 16 84 18 85 19 96 20 86 22 95 23 87 24
REMARK SMILES IDX 88 25 89 26 94 27 90 28 93 29 91 30 92 31 15 32 16 33 17 34
REMARK SMILES IDX 18 35 19 36 83 37 20 38 82 39 21 40 22 41 23 42 76 43 24 44
REMARK SMILES IDX 81 45 75 46 77 47 25 48 80 49 74 50 73 51 26 53 60 54 39 55
REMARK SMILES IDX 59 56 40 57 43 58 58 59 78 60 41 61 42 62 57 64 79 65 44 66
REMARK SMILES IDX 27 67 28 68 37 69 29 70 30 71 36 72 38 73 31 74 32 75 33 76
REMARK SMILES IDX 34 77 35 78 61 79 62 80 71 81 63 82 64 83 70 84 72 85 65 86
REMARK SMILES IDX 66 87 67 88 68 89 69 90 45 91 46 92 55 93 47 94 48 95 54 96
REMARK SMILES IDX 56 97 49 98 50 99 51 100 52 101 53 102
REMARK H PARENT 6 17 84 21 77 52 43 63
REMARK Flexibility Score: inf
ROOT
ATOM      1  C   UNL A   1      37.922  21.763  25.415  1.00  0.00     0.275 C 
ENDROOT
BRANCH   1   2
ATOM      2  C   UNL A   1      37.013  21.912  24.198  1.00  0.00     0.274 C 
BRANCH   2   3
ATOM      3  O   UNL A   1      36.167  23.071  24.339  1.00  0.00    -0.457 OA
BRANCH   3   4
ATOM      4  C   UNL A   1      35.012  23.073  23.612  1.00  0.00     0.370 C 
ATOM      5  O   UNL A   1      34.993  23.113  22.383  1.00  0.00    -0.245 OA
BRANCH   4   6
ATOM      6  C   UNL A   1      33.732  23.116  24.484  1.00  0.00     0.328 C 
BRANCH   6   7
ATOM      7  C   UNL A   1      33.444  21.892  25.311  1.00  0.00     0.046 A 
ATOM      8  C   UNL A   1      32.116  18.324  21.894  1.00  0.00     0.044 C 
ATOM      9  C   UNL A   1      32.487  18.787  23.272  1.00  0.00    -0.050 A 
ATOM     10  C   UNL A   1      32.521  17.900  24.351  1.00  0.00     0.005 A 
ATOM     11  C   UNL A   1      32.784  20.142  23.480  1.00  0.00     0.014 A 
ATOM     12  C   UNL A   1      32.804  18.340  25.650  1.00  0.00     0.027 A 
ATOM     13  C   UNL A   1      33.072  20.612  24.778  1.00  0.00     0.009 A 
ATOM     14  C   UNL A   1      33.047  19.705  25.834  1.00  0.00     0.046 A 
ATOM     15  N   UNL A   1      33.301  20.415  26.982  1.00  0.00    -0.361 N 
ATOM     16  C   UNL A   1      33.477  21.740  26.687  1.00  0.00     0.094 A 
ATOM     17  H   UNL A   1      33.349  20.028  27.887  1.00  0.00     0.166 HD
ENDBRANCH   6   7
BRANCH   6  18
ATOM     18  N   UNL A   1      32.560  23.553  23.696  1.00  0.00    -0.316 N 
ATOM     19  C   UNL A   1      31.318  23.837  24.421  1.00  0.00     0.284 C 
ATOM     20  C   UNL A   1      32.805  24.537  22.631  1.00  0.00     0.284 C 
ATOM     21  H   UNL A   1      32.385  22.666  23.224  1.00  0.00     0.349 HD
ATOM     22  C   UNL A   1      30.979  25.302  24.762  1.00  0.00     0.178 C 
ATOM     23  C   UNL A   1      32.525  26.024  22.969  1.00  0.00     0.178 C 
ATOM     24  N   UNL A   1      31.214  26.174  23.613  1.00  0.00    -0.360 N 
BRANCH  24  25
ATOM     25  C   UNL A   1      30.676  27.454  23.676  1.00  0.00     0.037 A 
ATOM     26  C   UNL A   1      29.550  27.834  22.931  1.00  0.00     0.029 A 
ATOM     27  C   UNL A   1      31.304  28.421  24.473  1.00  0.00     0.029 A 
ATOM     28  C   UNL A   1      29.082  29.149  22.958  1.00  0.00     0.041 A 
ATOM     29  C   UNL A   1      30.844  29.739  24.498  1.00  0.00     0.041 A 
ATOM     30  C   UNL A   1      29.737  30.091  23.738  1.00  0.00     0.123 A 
ATOM     31  F   UNL A   1      29.291  31.353  23.760  1.00  0.00    -0.207 F 
ENDBRANCH  24  25
ENDBRANCH   6  18
ENDBRANCH   4   6
ENDBRANCH   3   4
ENDBRANCH   2   3
ENDBRANCH   1   2
BRANCH   1  32
ATOM     32  O   UNL A   1      38.242  23.066  25.931  1.00  0.00    -0.458 OA
BRANCH  32  33
ATOM     33  C   UNL A   1      39.526  23.268  26.302  1.00  0.00     0.338 C 
ATOM     34  O   UNL A   1      40.477  22.536  26.051  1.00  0.00    -0.246 OA
BRANCH  33  35
ATOM     35  C   UNL A   1      39.661  24.548  27.035  1.00  0.00     0.060 A 
ATOM     36  C   UNL A   1      40.451  25.586  26.540  1.00  0.00     0.016 A 
ATOM     37  C   UNL A   1      39.092  24.668  28.306  1.00  0.00     0.016 A 
ATOM     38  C   UNL A   1      40.764  26.677  27.353  1.00  0.00     0.010 A 
ATOM     39  C   UNL A   1      39.317  25.820  29.070  1.00  0.00     0.010 A 
ATOM     40  C   UNL A   1      40.185  26.830  28.620  1.00  0.00    -0.014 A 
BRANCH  40  41
ATOM     41  C   UNL A   1      40.474  28.019  29.477  1.00  0.00     0.031 A 
ATOM     42  C   UNL A   1      41.693  28.041  30.368  1.00  0.00     0.074 A 
ATOM     43  C   UNL A   1      39.637  29.078  29.497  1.00  0.00     0.049 A 
ATOM     44  N   UNL A   1      41.940  28.789  31.413  1.00  0.00    -0.248 NA
ATOM     45  C   UNL A   1      42.763  27.081  30.053  1.00  0.00     0.031 C 
ATOM     46  C   UNL A   1      38.453  29.250  28.653  1.00  0.00     0.029 A 
ATOM     47  N   UNL A   1      39.652  30.215  30.270  1.00  0.00    -0.354 N 
ATOM     48  C   UNL A   1      43.152  28.338  31.928  1.00  0.00     0.074 A 
ATOM     49  C   UNL A   1      43.601  27.265  31.065  1.00  0.00     0.031 C 
ATOM     50  C   UNL A   1      37.880  30.429  28.926  1.00  0.00     0.029 A 
ATOM     51  C   UNL A   1      38.578  31.045  30.046  1.00  0.00     0.049 A 
ATOM     52  H   UNL A   1      40.363  30.417  30.921  1.00  0.00     0.167 HD
ATOM     53  C   UNL A   1      43.816  28.773  33.027  1.00  0.00     0.037 A 
ATOM     54  C   UNL A   1      38.146  32.136  30.707  1.00  0.00     0.037 A 
ATOM     55  C   UNL A   1      43.401  29.896  33.832  1.00  0.00     0.049 A 
ATOM     56  C   UNL A   1      38.881  32.593  31.932  1.00  0.00     0.074 A 
ATOM     57  C   UNL A   1      44.005  30.417  34.964  1.00  0.00     0.029 A 
ATOM     58  N   UNL A   1      42.296  30.692  33.569  1.00  0.00    -0.354 N 
ATOM     59  N   UNL A   1      39.950  32.077  32.488  1.00  0.00    -0.248 NA
ATOM     60  C   UNL A   1      38.330  33.756  32.640  1.00  0.00     0.031 C 
ATOM     61  C   UNL A   1      43.254  31.516  35.398  1.00  0.00     0.029 A 
ATOM     62  C   UNL A   1      42.200  31.698  34.517  1.00  0.00     0.049 A 
ATOM     63  H   UNL A   1      41.670  30.560  32.821  1.00  0.00     0.167 HD
ATOM     64  C   UNL A   1      40.201  32.852  33.613  1.00  0.00     0.074 A 
ATOM     65  C   UNL A   1      39.182  33.883  33.648  1.00  0.00     0.031 C 
ATOM     66  C   UNL A   1      41.181  32.715  34.539  1.00  0.00     0.037 A 
BRANCH  53  67
ATOM     67  C   UNL A   1      45.041  28.015  33.460  1.00  0.00     0.058 A 
ATOM     68  C   UNL A   1      46.333  28.387  33.063  1.00  0.00     0.135 A 
ATOM     69  C   UNL A   1      44.916  26.928  34.343  1.00  0.00     0.135 A 
ATOM     70  F   UNL A   1      46.510  29.409  32.210  1.00  0.00    -0.206 F 
ATOM     71  C   UNL A   1      47.459  27.698  33.511  1.00  0.00     0.059 A 
ATOM     72  C   UNL A   1      46.027  26.241  34.822  1.00  0.00     0.059 A 
ATOM     73  F   UNL A   1      43.702  26.531  34.758  1.00  0.00    -0.206 F 
ATOM     74  C   UNL A   1      47.295  26.625  34.390  1.00  0.00     0.060 A 
BRANCH  74  75
ATOM     75  S   UNL A   1      48.759  25.751  34.985  1.00  0.00     0.124 S 
ATOM     76  O   UNL A   1      48.970  24.776  33.919  1.00  0.00    -0.237 OA
ATOM     77  O   UNL A   1      49.753  26.816  35.075  1.00  0.00    -0.237 OA
ATOM     78  O   UNL A   1      48.326  25.196  36.264  1.00  0.00    -0.744 OA
ENDBRANCH  74  75
ENDBRANCH  53  67
BRANCH  54  79
ATOM     79  C   UNL A   1      36.908  32.820  30.256  1.00  0.00     0.058 A 
ATOM     80  C   UNL A   1      35.664  32.510  30.821  1.00  0.00     0.135 A 
ATOM     81  C   UNL A   1      36.953  33.840  29.290  1.00  0.00     0.135 A 
ATOM     82  F   UNL A   1      35.569  31.533  31.737  1.00  0.00    -0.206 F 
ATOM     83  C   UNL A   1      34.508  33.191  30.453  1.00  0.00     0.059 A 
ATOM     84  C   UNL A   1      35.817  34.552  28.926  1.00  0.00     0.059 A 
ATOM     85  F   UNL A   1      38.123  34.182  28.728  1.00  0.00    -0.206 F 
ATOM     86  C   UNL A   1      34.597  34.217  29.511  1.00  0.00     0.060 A 
BRANCH  86  87
ATOM     87  S   UNL A   1      33.114  35.164  29.104  1.00  0.00     0.124 S 
ATOM     88  O   UNL A   1      32.470  34.294  28.127  1.00  0.00    -0.237 OA
ATOM     89  O   UNL A   1      32.447  35.273  30.399  1.00  0.00    -0.237 OA
ATOM     90  O   UNL A   1      33.653  36.416  28.582  1.00  0.00    -0.744 OA
ENDBRANCH  86  87
ENDBRANCH  54  79
BRANCH  66  91
ATOM     91  C   UNL A   1      41.213  33.721  35.651  1.00  0.00     0.058 A 
ATOM     92  C   UNL A   1      41.892  34.941  35.515  1.00  0.00     0.135 A 
ATOM     93  C   UNL A   1      40.533  33.473  36.855  1.00  0.00     0.135 A 
ATOM     94  F   UNL A   1      42.565  35.218  34.388  1.00  0.00    -0.206 F 
ATOM     95  C   UNL A   1      41.911  35.877  36.544  1.00  0.00     0.059 A 
ATOM     96  C   UNL A   1      40.524  34.402  37.890  1.00  0.00     0.059 A 
ATOM     97  F   UNL A   1      39.867  32.322  37.029  1.00  0.00    -0.206 F 
ATOM     98  C   UNL A   1      41.226  35.597  37.729  1.00  0.00     0.060 A 
BRANCH  98  99
ATOM     99  S   UNL A   1      41.237  36.827  39.050  1.00  0.00     0.124 S 
ATOM    100  O   UNL A   1      42.445  37.583  38.736  1.00  0.00    -0.237 OA
ATOM    101  O   UNL A   1      39.976  37.531  38.839  1.00  0.00    -0.237 OA
ATOM    102  O   UNL A   1      41.299  36.018  40.264  1.00  0.00    -0.744 OA
ENDBRANCH  98  99
ENDBRANCH  66  91
ENDBRANCH  40  41
ENDBRANCH  33  35
ENDBRANCH  32  33
ENDBRANCH   1  32
TORSDOF 17
ENDMDL
