MODEL 1
REMARK VINA RESULT:     -11.7      0.000      0.000
REMARK SMILES C[C@H]1C[NH+](CC[C@@H]2CCC[C@]2([NH3+])C(=O)OCCOC(=O)c2ccc(-c3c4nc(c(-c5c(F)cc(S(=O)(=O)[O-])cc5F)c5ccc([nH]5)c(-c5c(F)cc(S(=O)(=O)[O-])cc5F)c5nc(c(-c6c(F)cc(S(=O)(=O)[O-])cc6F)c6ccc3[nH]6)C=C5)C=C4)cc2)C[C@H](C)O1
REMARK SMILES IDX 16 1 15 2 13 3 14 4 11 5 7 6 8 7 9 8 10 9 6 10 5 11 4 12
REMARK SMILES IDX 1 13 2 14 3 15 90 16 88 17 87 18 89 20 12 21 17 25 18 26
REMARK SMILES IDX 19 27 20 28 21 29 22 30 86 31 23 32 85 33 24 34 25 35 26 36
REMARK SMILES IDX 79 37 27 38 84 39 78 40 80 41 28 42 83 43 77 44 76 45 29 47
REMARK SMILES IDX 63 48 42 49 62 50 43 51 46 52 61 53 81 54 44 55 45 56 60 58
REMARK SMILES IDX 82 59 47 60 30 61 31 62 40 63 32 64 33 65 39 66 41 67 34 68
REMARK SMILES IDX 35 69 36 70 37 71 38 72 64 73 65 74 74 75 66 76 67 77 73 78
REMARK SMILES IDX 75 79 68 80 69 81 70 82 71 83 72 84 48 85 49 86 58 87 50 88
REMARK SMILES IDX 51 89 57 90 59 91 52 92 53 93 54 94 55 95 56 96
REMARK H PARENT 4 19 12 22 12 23 12 24 80 46 46 57
REMARK Flexibility Score: inf
ROOT
ATOM      1  C   UNL A   1      34.013  26.992  25.828  1.00  0.00     0.274 C 
ENDROOT
BRANCH   1   2
ATOM      2  O   UNL A   1      33.599  25.130  26.306  1.00  0.00    -0.457 OA
BRANCH   2   3
ATOM      3  C   UNL A   1      33.295  23.790  26.593  1.00  0.00     0.368 C 
ATOM      4  O   UNL A   1      32.253  23.553  27.234  1.00  0.00    -0.245 OA
BRANCH   3   5
ATOM      5  C   UNL A   1      34.064  22.463  26.070  1.00  0.00     0.195 C 
ATOM      6  C   UNL A   1      34.296  21.959  24.626  1.00  0.00     0.068 C 
ATOM      7  C   UNL A   1      33.410  20.734  24.400  1.00  0.00     0.011 C 
ATOM      8  C   UNL A   1      33.225  20.129  25.777  1.00  0.00     0.008 C 
ATOM      9  C   UNL A   1      33.515  21.213  26.810  1.00  0.00     0.081 C 
BRANCH   6  10
ATOM     10  C   UNL A   1      34.331  22.978  23.505  1.00  0.00     0.072 C 
BRANCH  10  11
ATOM     11  C   UNL A   1      32.989  23.428  22.972  1.00  0.00     0.262 C 
BRANCH  11  12
ATOM     12  N   UNL A   1      32.538  24.723  23.416  1.00  0.00    -0.331 N 
ATOM     13  C   UNL A   1      28.440  26.283  24.033  1.00  0.00     0.045 C 
ATOM     14  C   UNL A   1      29.934  26.409  24.281  1.00  0.00     0.170 C 
ATOM     15  C   UNL A   1      30.864  24.733  24.097  1.00  0.00     0.294 C 
ATOM     16  O   UNL A   1      30.491  27.848  23.382  1.00  0.00    -0.364 OA
ATOM     17  C   UNL A   1      32.051  27.855  22.458  1.00  0.00     0.170 C 
ATOM     18  C   UNL A   1      33.073  26.161  22.398  1.00  0.00     0.294 C 
ATOM     19  H   UNL A   1      33.095  24.916  24.249  1.00  0.00     0.348 HD
ATOM     20  C   UNL A   1      32.627  29.233  22.770  1.00  0.00     0.045 C 
ENDBRANCH  11  12
ENDBRANCH  10  11
ENDBRANCH   6  10
BRANCH   5  21
ATOM     21  N   UNL A   1      35.475  22.681  26.567  1.00  0.00    -0.343 N 
ATOM     22  H   UNL A   1      35.456  22.892  27.564  1.00  0.00     0.345 HD
ATOM     23  H   UNL A   1      35.896  23.460  26.062  1.00  0.00     0.345 HD
ATOM     24  H   UNL A   1      36.026  21.836  26.409  1.00  0.00     0.345 HD
ENDBRANCH   5  21
ENDBRANCH   3   5
ENDBRANCH   2   3
ENDBRANCH   1   2
BRANCH   1  25
ATOM     25  C   UNL A   1      33.289  28.412  26.317  1.00  0.00     0.275 C 
BRANCH  25  26
ATOM     26  O   UNL A   1      33.690  28.875  27.643  1.00  0.00    -0.458 OA
BRANCH  26  27
ATOM     27  C   UNL A   1      34.374  30.045  27.766  1.00  0.00     0.338 C 
ATOM     28  O   UNL A   1      33.884  31.160  27.741  1.00  0.00    -0.246 OA
BRANCH  27  29
ATOM     29  C   UNL A   1      35.815  29.755  28.061  1.00  0.00     0.060 A 
ATOM     30  C   UNL A   1      36.785  29.811  27.051  1.00  0.00     0.016 A 
ATOM     31  C   UNL A   1      36.220  29.357  29.331  1.00  0.00     0.016 A 
ATOM     32  C   UNL A   1      38.120  29.522  27.280  1.00  0.00     0.010 A 
ATOM     33  C   UNL A   1      37.578  29.087  29.578  1.00  0.00     0.010 A 
ATOM     34  C   UNL A   1      38.537  29.177  28.555  1.00  0.00    -0.014 A 
BRANCH  34  35
ATOM     35  C   UNL A   1      39.956  28.819  28.771  1.00  0.00     0.031 A 
ATOM     36  C   UNL A   1      40.884  29.861  29.311  1.00  0.00     0.074 A 
ATOM     37  C   UNL A   1      40.407  27.566  28.567  1.00  0.00     0.049 A 
ATOM     38  N   UNL A   1      42.188  29.892  29.305  1.00  0.00    -0.248 NA
ATOM     39  C   UNL A   1      40.253  31.025  29.951  1.00  0.00     0.031 C 
ATOM     40  C   UNL A   1      39.584  26.409  28.210  1.00  0.00     0.029 A 
ATOM     41  N   UNL A   1      41.680  27.055  28.629  1.00  0.00    -0.354 N 
ATOM     42  C   UNL A   1      42.535  31.116  29.859  1.00  0.00     0.074 A 
ATOM     43  C   UNL A   1      41.305  31.775  30.241  1.00  0.00     0.031 C 
ATOM     44  C   UNL A   1      40.373  25.330  28.075  1.00  0.00     0.029 A 
ATOM     45  C   UNL A   1      41.762  25.737  28.243  1.00  0.00     0.049 A 
ATOM     46  H   UNL A   1      42.459  27.581  28.922  1.00  0.00     0.167 HD
ATOM     47  C   UNL A   1      43.772  31.646  29.998  1.00  0.00     0.037 A 
ATOM     48  C   UNL A   1      42.840  24.971  27.977  1.00  0.00     0.037 A 
ATOM     49  C   UNL A   1      44.978  30.948  29.643  1.00  0.00     0.049 A 
ATOM     50  C   UNL A   1      44.208  25.595  28.070  1.00  0.00     0.074 A 
ATOM     51  C   UNL A   1      46.284  31.403  29.670  1.00  0.00     0.029 A 
ATOM     52  N   UNL A   1      45.022  29.629  29.213  1.00  0.00    -0.354 N 
ATOM     53  N   UNL A   1      44.537  26.812  28.432  1.00  0.00    -0.248 NA
ATOM     54  C   UNL A   1      45.349  24.757  27.680  1.00  0.00     0.031 C 
ATOM     55  C   UNL A   1      47.116  30.361  29.240  1.00  0.00     0.029 A 
ATOM     56  C   UNL A   1      46.330  29.250  28.974  1.00  0.00     0.049 A 
ATOM     57  H   UNL A   1      44.236  29.048  29.097  1.00  0.00     0.167 HD
ATOM     58  C   UNL A   1      45.920  26.889  28.308  1.00  0.00     0.074 A 
ATOM     59  C   UNL A   1      46.369  25.587  27.860  1.00  0.00     0.031 C 
ATOM     60  C   UNL A   1      46.744  27.942  28.531  1.00  0.00     0.037 A 
BRANCH  47  61
ATOM     61  C   UNL A   1      43.857  33.067  30.463  1.00  0.00     0.058 A 
ATOM     62  C   UNL A   1      43.770  34.151  29.580  1.00  0.00     0.135 A 
ATOM     63  C   UNL A   1      44.055  33.343  31.824  1.00  0.00     0.135 A 
ATOM     64  F   UNL A   1      43.613  33.939  28.265  1.00  0.00    -0.206 F 
ATOM     65  C   UNL A   1      43.899  35.461  30.029  1.00  0.00     0.059 A 
ATOM     66  C   UNL A   1      44.169  34.644  32.297  1.00  0.00     0.059 A 
ATOM     67  F   UNL A   1      44.160  32.337  32.707  1.00  0.00    -0.206 F 
ATOM     68  C   UNL A   1      44.106  35.698  31.388  1.00  0.00     0.060 A 
BRANCH  68  69
ATOM     69  S   UNL A   1      44.293  37.398  31.960  1.00  0.00     0.124 S 
ATOM     70  O   UNL A   1      45.746  37.537  31.985  1.00  0.00    -0.237 OA
ATOM     71  O   UNL A   1      43.602  38.158  30.924  1.00  0.00    -0.237 OA
ATOM     72  O   UNL A   1      43.641  37.390  33.267  1.00  0.00    -0.744 OA
ENDBRANCH  68  69
ENDBRANCH  47  61
BRANCH  48  73
ATOM     73  C   UNL A   1      42.668  23.576  27.493  1.00  0.00     0.058 A 
ATOM     74  C   UNL A   1      42.697  23.270  26.127  1.00  0.00     0.135 A 
ATOM     75  C   UNL A   1      42.469  22.518  28.392  1.00  0.00     0.135 A 
ATOM     76  F   UNL A   1      42.866  24.249  25.226  1.00  0.00    -0.206 F 
ATOM     77  C   UNL A   1      42.536  21.966  25.669  1.00  0.00     0.059 A 
ATOM     78  C   UNL A   1      42.329  21.204  27.959  1.00  0.00     0.059 A 
ATOM     79  F   UNL A   1      42.434  22.756  29.711  1.00  0.00    -0.206 F 
ATOM     80  C   UNL A   1      42.356  20.938  26.593  1.00  0.00     0.060 A 
BRANCH  80  81
ATOM     81  S   UNL A   1      42.207  19.238  26.001  1.00  0.00     0.124 S 
ATOM     82  O   UNL A   1      42.716  18.485  27.140  1.00  0.00    -0.237 OA
ATOM     83  O   UNL A   1      40.774  19.122  25.748  1.00  0.00    -0.237 OA
ATOM     84  O   UNL A   1      43.048  19.228  24.808  1.00  0.00    -0.744 OA
ENDBRANCH  80  81
ENDBRANCH  48  73
BRANCH  60  85
ATOM     85  C   UNL A   1      48.211  27.720  28.313  1.00  0.00     0.058 A 
ATOM     86  C   UNL A   1      49.030  27.214  29.331  1.00  0.00     0.135 A 
ATOM     87  C   UNL A   1      48.787  27.966  27.060  1.00  0.00     0.135 A 
ATOM     88  F   UNL A   1      48.521  26.971  30.549  1.00  0.00    -0.206 F 
ATOM     89  C   UNL A   1      50.380  26.968  29.116  1.00  0.00     0.059 A 
ATOM     90  C   UNL A   1      50.131  27.710  26.818  1.00  0.00     0.059 A 
ATOM     91  F   UNL A   1      48.039  28.443  26.055  1.00  0.00    -0.206 F 
ATOM     92  C   UNL A   1      50.923  27.220  27.855  1.00  0.00     0.060 A 
BRANCH  92  93
ATOM     93  S   UNL A   1      52.667  26.859  27.570  1.00  0.00     0.124 S 
ATOM     94  O   UNL A   1      53.194  26.861  28.931  1.00  0.00    -0.237 OA
ATOM     95  O   UNL A   1      52.620  25.558  26.910  1.00  0.00    -0.237 OA
ATOM     96  O   UNL A   1      53.106  27.966  26.725  1.00  0.00    -0.744 OA
ENDBRANCH  92  93
ENDBRANCH  60  85
ENDBRANCH  34  35
ENDBRANCH  27  29
ENDBRANCH  26  27
ENDBRANCH  25  26
ENDBRANCH   1  25
TORSDOF 18
ENDMDL
MODEL 2
REMARK VINA RESULT:     -11.2      1.965      3.872
REMARK SMILES C[C@H]1C[NH+](CC[C@@H]2CCC[C@]2([NH3+])C(=O)OCCOC(=O)c2ccc(-c3c4nc(c(-c5c(F)cc(S(=O)(=O)[O-])cc5F)c5ccc([nH]5)c(-c5c(F)cc(S(=O)(=O)[O-])cc5F)c5nc(c(-c6c(F)cc(S(=O)(=O)[O-])cc6F)c6ccc3[nH]6)C=C5)C=C4)cc2)C[C@H](C)O1
REMARK SMILES IDX 16 1 15 2 13 3 14 4 11 5 7 6 8 7 9 8 10 9 6 10 5 11 4 12
REMARK SMILES IDX 1 13 2 14 3 15 90 16 88 17 87 18 89 20 12 21 17 25 18 26
REMARK SMILES IDX 19 27 20 28 21 29 22 30 86 31 23 32 85 33 24 34 25 35 26 36
REMARK SMILES IDX 79 37 27 38 84 39 78 40 80 41 28 42 83 43 77 44 76 45 29 47
REMARK SMILES IDX 63 48 42 49 62 50 43 51 46 52 61 53 81 54 44 55 45 56 60 58
REMARK SMILES IDX 82 59 47 60 30 61 31 62 40 63 32 64 33 65 39 66 41 67 34 68
REMARK SMILES IDX 35 69 36 70 37 71 38 72 64 73 65 74 74 75 66 76 67 77 73 78
REMARK SMILES IDX 75 79 68 80 69 81 70 82 71 83 72 84 48 85 49 86 58 87 50 88
REMARK SMILES IDX 51 89 57 90 59 91 52 92 53 93 54 94 55 95 56 96
REMARK H PARENT 4 19 12 22 12 23 12 24 80 46 46 57
REMARK Flexibility Score: inf
ROOT
ATOM      1  C   UNL A   1      34.288  28.212  26.449  1.00  0.00     0.274 C 
ENDROOT
BRANCH   1   2
ATOM      2  O   UNL A   1      32.823  26.931  26.170  1.00  0.00    -0.457 OA
BRANCH   2   3
ATOM      3  C   UNL A   1      31.795  26.009  25.917  1.00  0.00     0.368 C 
ATOM      4  O   UNL A   1      31.371  25.333  26.873  1.00  0.00    -0.245 OA
BRANCH   3   5
ATOM      5  C   UNL A   1      30.967  25.796  24.540  1.00  0.00     0.195 C 
ATOM      6  C   UNL A   1      31.460  25.838  23.074  1.00  0.00     0.068 C 
ATOM      7  C   UNL A   1      30.926  27.115  22.427  1.00  0.00     0.011 C 
ATOM      8  C   UNL A   1      29.653  27.431  23.185  1.00  0.00     0.008 C 
ATOM      9  C   UNL A   1      29.717  26.717  24.531  1.00  0.00     0.081 C 
BRANCH   6  10
ATOM     10  C   UNL A   1      32.910  25.499  22.792  1.00  0.00     0.072 C 
BRANCH  10  11
ATOM     11  C   UNL A   1      33.190  24.079  22.356  1.00  0.00     0.262 C 
BRANCH  11  12
ATOM     12  N   UNL A   1      33.519  23.150  23.408  1.00  0.00    -0.331 N 
ATOM     13  C   UNL A   1      37.390  21.299  24.501  1.00  0.00     0.045 C 
ATOM     14  C   UNL A   1      35.961  21.651  24.879  1.00  0.00     0.170 C 
ATOM     15  C   UNL A   1      35.267  23.136  23.866  1.00  0.00     0.294 C 
ATOM     16  O   UNL A   1      35.051  20.118  24.963  1.00  0.00    -0.364 OA
ATOM     17  C   UNL A   1      33.368  19.966  24.305  1.00  0.00     0.170 C 
ATOM     18  C   UNL A   1      32.609  21.550  23.391  1.00  0.00     0.294 C 
ATOM     19  H   UNL A   1      33.096  23.552  24.246  1.00  0.00     0.348 HD
ATOM     20  C   UNL A   1      32.661  19.124  25.364  1.00  0.00     0.045 C 
ENDBRANCH  11  12
ENDBRANCH  10  11
ENDBRANCH   6  10
BRANCH   5  21
ATOM     21  N   UNL A   1      30.464  24.377  24.671  1.00  0.00    -0.343 N 
ATOM     22  H   UNL A   1      31.191  23.729  24.368  1.00  0.00     0.345 HD
ATOM     23  H   UNL A   1      29.636  24.255  24.090  1.00  0.00     0.345 HD
ATOM     24  H   UNL A   1      30.227  24.188  25.646  1.00  0.00     0.345 HD
ENDBRANCH   5  21
ENDBRANCH   3   5
ENDBRANCH   2   3
ENDBRANCH   1   2
BRANCH   1  25
ATOM     25  C   UNL A   1      34.342  29.595  27.380  1.00  0.00     0.275 C 
BRANCH  25  26
ATOM     26  O   UNL A   1      35.257  29.528  28.517  1.00  0.00    -0.458 OA
BRANCH  26  27
ATOM     27  C   UNL A   1      36.044  30.599  28.806  1.00  0.00     0.338 C 
ATOM     28  O   UNL A   1      35.652  31.690  29.180  1.00  0.00    -0.246 OA
BRANCH  27  29
ATOM     29  C   UNL A   1      37.487  30.200  28.715  1.00  0.00     0.060 A 
ATOM     30  C   UNL A   1      38.029  29.721  27.514  1.00  0.00     0.016 A 
ATOM     31  C   UNL A   1      38.311  30.229  29.836  1.00  0.00     0.016 A 
ATOM     32  C   UNL A   1      39.349  29.316  27.399  1.00  0.00     0.010 A 
ATOM     33  C   UNL A   1      39.658  29.844  29.721  1.00  0.00     0.010 A 
ATOM     34  C   UNL A   1      40.187  29.393  28.499  1.00  0.00    -0.014 A 
BRANCH  34  35
ATOM     35  C   UNL A   1      41.579  28.907  28.374  1.00  0.00     0.031 A 
ATOM     36  C   UNL A   1      42.698  29.882  28.557  1.00  0.00     0.074 A 
ATOM     37  C   UNL A   1      41.855  27.602  28.178  1.00  0.00     0.049 A 
ATOM     38  N   UNL A   1      43.952  29.778  28.212  1.00  0.00    -0.248 NA
ATOM     39  C   UNL A   1      42.357  31.145  29.228  1.00  0.00     0.031 C 
ATOM     40  C   UNL A   1      40.875  26.516  28.154  1.00  0.00     0.029 A 
ATOM     41  N   UNL A   1      43.053  26.968  27.956  1.00  0.00    -0.354 N 
ATOM     42  C   UNL A   1      44.533  30.994  28.542  1.00  0.00     0.074 A 
ATOM     43  C   UNL A   1      43.506  31.801  29.165  1.00  0.00     0.031 C 
ATOM     44  C   UNL A   1      41.509  25.354  27.920  1.00  0.00     0.029 A 
ATOM     45  C   UNL A   1      42.922  25.626  27.685  1.00  0.00     0.049 A 
ATOM     46  H   UNL A   1      43.922  27.430  27.988  1.00  0.00     0.167 HD
ATOM     47  C   UNL A   1      45.801  31.402  28.307  1.00  0.00     0.037 A 
ATOM     48  C   UNL A   1      43.824  24.737  27.223  1.00  0.00     0.037 A 
ATOM     49  C   UNL A   1      46.808  30.561  27.719  1.00  0.00     0.049 A 
ATOM     50  C   UNL A   1      45.213  25.221  26.901  1.00  0.00     0.074 A 
ATOM     51  C   UNL A   1      48.107  30.879  27.366  1.00  0.00     0.029 A 
ATOM     52  N   UNL A   1      46.628  29.217  27.417  1.00  0.00    -0.354 N 
ATOM     53  N   UNL A   1      45.725  26.419  27.052  1.00  0.00    -0.248 NA
ATOM     54  C   UNL A   1      46.138  24.245  26.309  1.00  0.00     0.031 C 
ATOM     55  C   UNL A   1      48.706  29.730  26.834  1.00  0.00     0.029 A 
ATOM     56  C   UNL A   1      47.791  28.690  26.884  1.00  0.00     0.049 A 
ATOM     57  H   UNL A   1      45.795  28.714  27.561  1.00  0.00     0.167 HD
ATOM     58  C   UNL A   1      47.027  26.345  26.568  1.00  0.00     0.074 A 
ATOM     59  C   UNL A   1      47.233  24.976  26.142  1.00  0.00     0.031 C 
ATOM     60  C   UNL A   1      47.964  27.320  26.472  1.00  0.00     0.037 A 
BRANCH  47  61
ATOM     61  C   UNL A   1      46.123  32.835  28.600  1.00  0.00     0.058 A 
ATOM     62  C   UNL A   1      46.611  33.254  29.844  1.00  0.00     0.135 A 
ATOM     63  C   UNL A   1      45.913  33.810  27.613  1.00  0.00     0.135 A 
ATOM     64  F   UNL A   1      46.799  32.364  30.829  1.00  0.00    -0.206 F 
ATOM     65  C   UNL A   1      46.859  34.597  30.108  1.00  0.00     0.059 A 
ATOM     66  C   UNL A   1      46.171  35.155  27.850  1.00  0.00     0.059 A 
ATOM     67  F   UNL A   1      45.432  33.460  26.411  1.00  0.00    -0.206 F 
ATOM     68  C   UNL A   1      46.629  35.541  29.107  1.00  0.00     0.060 A 
BRANCH  68  69
ATOM     69  S   UNL A   1      46.934  37.283  29.463  1.00  0.00     0.124 S 
ATOM     70  O   UNL A   1      46.585  37.354  30.879  1.00  0.00    -0.237 OA
ATOM     71  O   UNL A   1      48.352  37.426  29.153  1.00  0.00    -0.237 OA
ATOM     72  O   UNL A   1      46.023  37.978  28.558  1.00  0.00    -0.744 OA
ENDBRANCH  68  69
ENDBRANCH  47  61
BRANCH  48  73
ATOM     73  C   UNL A   1      43.416  23.337  26.931  1.00  0.00     0.058 A 
ATOM     74  C   UNL A   1      43.173  22.907  25.621  1.00  0.00     0.135 A 
ATOM     75  C   UNL A   1      43.259  22.399  27.962  1.00  0.00     0.135 A 
ATOM     76  F   UNL A   1      43.291  23.770  24.601  1.00  0.00    -0.206 F 
ATOM     77  C   UNL A   1      42.790  21.598  25.342  1.00  0.00     0.059 A 
ATOM     78  C   UNL A   1      42.901  21.080  27.706  1.00  0.00     0.059 A 
ATOM     79  F   UNL A   1      43.481  22.759  29.235  1.00  0.00    -0.206 F 
ATOM     80  C   UNL A   1      42.661  20.690  26.392  1.00  0.00     0.060 A 
BRANCH  80  81
ATOM     81  S   UNL A   1      42.223  18.977  26.024  1.00  0.00     0.124 S 
ATOM     82  O   UNL A   1      40.792  19.089  25.767  1.00  0.00    -0.237 OA
ATOM     83  O   UNL A   1      43.059  18.685  24.864  1.00  0.00    -0.237 OA
ATOM     84  O   UNL A   1      42.593  18.271  27.247  1.00  0.00    -0.744 OA
ENDBRANCH  80  81
ENDBRANCH  48  73
BRANCH  60  85
ATOM     85  C   UNL A   1      49.297  26.934  25.905  1.00  0.00     0.058 A 
ATOM     86  C   UNL A   1      49.617  27.183  24.564  1.00  0.00     0.135 A 
ATOM     87  C   UNL A   1      50.278  26.360  26.725  1.00  0.00     0.135 A 
ATOM     88  F   UNL A   1      48.705  27.724  23.742  1.00  0.00    -0.206 F 
ATOM     89  C   UNL A   1      50.867  26.864  24.049  1.00  0.00     0.059 A 
ATOM     90  C   UNL A   1      51.541  26.050  26.235  1.00  0.00     0.059 A 
ATOM     91  F   UNL A   1      50.017  26.112  28.016  1.00  0.00    -0.206 F 
ATOM     92  C   UNL A   1      51.823  26.297  24.892  1.00  0.00     0.060 A 
BRANCH  92  93
ATOM     93  S   UNL A   1      53.459  25.923  24.229  1.00  0.00     0.124 S 
ATOM     94  O   UNL A   1      53.201  25.930  22.793  1.00  0.00    -0.237 OA
ATOM     95  O   UNL A   1      54.268  27.029  24.733  1.00  0.00    -0.237 OA
ATOM     96  O   UNL A   1      53.767  24.618  24.806  1.00  0.00    -0.744 OA
ENDBRANCH  92  93
ENDBRANCH  60  85
ENDBRANCH  34  35
ENDBRANCH  27  29
ENDBRANCH  26  27
ENDBRANCH  25  26
ENDBRANCH   1  25
TORSDOF 18
ENDMDL
MODEL 3
REMARK VINA RESULT:     -11.2      1.197      3.285
REMARK SMILES C[C@H]1C[NH+](CC[C@@H]2CCC[C@]2([NH3+])C(=O)OCCOC(=O)c2ccc(-c3c4nc(c(-c5c(F)cc(S(=O)(=O)[O-])cc5F)c5ccc([nH]5)c(-c5c(F)cc(S(=O)(=O)[O-])cc5F)c5nc(c(-c6c(F)cc(S(=O)(=O)[O-])cc6F)c6ccc3[nH]6)C=C5)C=C4)cc2)C[C@H](C)O1
REMARK SMILES IDX 16 1 15 2 13 3 14 4 11 5 7 6 8 7 9 8 10 9 6 10 5 11 4 12
REMARK SMILES IDX 1 13 2 14 3 15 90 16 88 17 87 18 89 20 12 21 17 25 18 26
REMARK SMILES IDX 19 27 20 28 21 29 22 30 86 31 23 32 85 33 24 34 25 35 26 36
REMARK SMILES IDX 79 37 27 38 84 39 78 40 80 41 28 42 83 43 77 44 76 45 29 47
REMARK SMILES IDX 63 48 42 49 62 50 43 51 46 52 61 53 81 54 44 55 45 56 60 58
REMARK SMILES IDX 82 59 47 60 30 61 31 62 40 63 32 64 33 65 39 66 41 67 34 68
REMARK SMILES IDX 35 69 36 70 37 71 38 72 64 73 65 74 74 75 66 76 67 77 73 78
REMARK SMILES IDX 75 79 68 80 69 81 70 82 71 83 72 84 48 85 49 86 58 87 50 88
REMARK SMILES IDX 51 89 57 90 59 91 52 92 53 93 54 94 55 95 56 96
REMARK H PARENT 4 19 12 22 12 23 12 24 80 46 46 57
REMARK Flexibility Score: inf
ROOT
ATOM      1  C   UNL A   1      31.961  31.691  26.526  1.00  0.00     0.274 C 
ENDROOT
BRANCH   1   2
ATOM      2  O   UNL A   1      31.912  30.086  25.391  1.00  0.00    -0.457 OA
BRANCH   2   3
ATOM      3  C   UNL A   1      31.931  28.950  24.566  1.00  0.00     0.368 C 
ATOM      4  O   UNL A   1      32.482  29.048  23.454  1.00  0.00    -0.245 OA
BRANCH   3   5
ATOM      5  C   UNL A   1      31.441  27.448  24.930  1.00  0.00     0.195 C 
ATOM      6  C   UNL A   1      32.095  26.087  24.595  1.00  0.00     0.068 C 
ATOM      7  C   UNL A   1      31.244  25.399  23.529  1.00  0.00     0.011 C 
ATOM      8  C   UNL A   1      29.846  25.944  23.735  1.00  0.00     0.008 C 
ATOM      9  C   UNL A   1      29.962  27.260  24.498  1.00  0.00     0.081 C 
BRANCH   6  10
ATOM     10  C   UNL A   1      33.596  26.040  24.390  1.00  0.00     0.072 C 
BRANCH  10  11
ATOM     11  C   UNL A   1      34.126  24.852  23.618  1.00  0.00     0.262 C 
BRANCH  11  12
ATOM     12  N   UNL A   1      34.261  23.627  24.365  1.00  0.00    -0.331 N 
ATOM     13  C   UNL A   1      37.740  20.932  24.859  1.00  0.00     0.045 C 
ATOM     14  C   UNL A   1      36.374  21.396  25.334  1.00  0.00     0.170 C 
ATOM     15  C   UNL A   1      35.966  23.197  24.784  1.00  0.00     0.294 C 
ATOM     16  O   UNL A   1      35.226  20.072  24.992  1.00  0.00    -0.364 OA
ATOM     17  C   UNL A   1      33.567  20.389  24.333  1.00  0.00     0.170 C 
ATOM     18  C   UNL A   1      33.107  22.267  23.907  1.00  0.00     0.294 C 
ATOM     19  H   UNL A   1      33.877  23.844  25.285  1.00  0.00     0.348 HD
ATOM     20  C   UNL A   1      32.694  19.414  25.119  1.00  0.00     0.045 C 
ENDBRANCH  11  12
ENDBRANCH  10  11
ENDBRANCH   6  10
BRANCH   5  21
ATOM     21  N   UNL A   1      31.459  27.451  26.442  1.00  0.00    -0.343 N 
ATOM     22  H   UNL A   1      30.580  27.071  26.793  1.00  0.00     0.345 HD
ATOM     23  H   UNL A   1      31.574  28.407  26.778  1.00  0.00     0.345 HD
ATOM     24  H   UNL A   1      32.234  26.878  26.775  1.00  0.00     0.345 HD
ENDBRANCH   5  21
ENDBRANCH   3   5
ENDBRANCH   2   3
ENDBRANCH   1   2
BRANCH   1  25
ATOM     25  C   UNL A   1      33.046  32.132  27.713  1.00  0.00     0.275 C 
BRANCH  25  26
ATOM     26  O   UNL A   1      34.356  31.495  27.610  1.00  0.00    -0.458 OA
BRANCH  26  27
ATOM     27  C   UNL A   1      34.487  30.179  27.929  1.00  0.00     0.338 C 
ATOM     28  O   UNL A   1      33.596  29.350  27.906  1.00  0.00    -0.246 OA
BRANCH  27  29
ATOM     29  C   UNL A   1      35.930  29.871  28.199  1.00  0.00     0.060 A 
ATOM     30  C   UNL A   1      36.892  29.971  27.185  1.00  0.00     0.016 A 
ATOM     31  C   UNL A   1      36.343  29.410  29.445  1.00  0.00     0.016 A 
ATOM     32  C   UNL A   1      38.228  29.666  27.389  1.00  0.00     0.010 A 
ATOM     33  C   UNL A   1      37.701  29.124  29.668  1.00  0.00     0.010 A 
ATOM     34  C   UNL A   1      38.653  29.259  28.642  1.00  0.00    -0.014 A 
BRANCH  34  35
ATOM     35  C   UNL A   1      40.073  28.886  28.830  1.00  0.00     0.031 A 
ATOM     36  C   UNL A   1      41.022  29.918  29.353  1.00  0.00     0.074 A 
ATOM     37  C   UNL A   1      40.506  27.628  28.616  1.00  0.00     0.049 A 
ATOM     38  N   UNL A   1      42.326  29.935  29.320  1.00  0.00    -0.248 NA
ATOM     39  C   UNL A   1      40.416  31.088  30.006  1.00  0.00     0.031 C 
ATOM     40  C   UNL A   1      39.664  26.481  28.274  1.00  0.00     0.029 A 
ATOM     41  N   UNL A   1      41.775  27.104  28.653  1.00  0.00    -0.354 N 
ATOM     42  C   UNL A   1      42.697  31.155  29.869  1.00  0.00     0.074 A 
ATOM     43  C   UNL A   1      41.482  31.827  30.276  1.00  0.00     0.031 C 
ATOM     44  C   UNL A   1      40.438  25.393  28.123  1.00  0.00     0.029 A 
ATOM     45  C   UNL A   1      41.835  25.786  28.264  1.00  0.00     0.049 A 
ATOM     46  H   UNL A   1      42.565  27.622  28.931  1.00  0.00     0.167 HD
ATOM     47  C   UNL A   1      43.941  31.672  29.984  1.00  0.00     0.037 A 
ATOM     48  C   UNL A   1      42.899  25.009  27.976  1.00  0.00     0.037 A 
ATOM     49  C   UNL A   1      45.133  30.961  29.604  1.00  0.00     0.049 A 
ATOM     50  C   UNL A   1      44.275  25.618  28.043  1.00  0.00     0.074 A 
ATOM     51  C   UNL A   1      46.444  31.402  29.606  1.00  0.00     0.029 A 
ATOM     52  N   UNL A   1      45.154  29.642  29.173  1.00  0.00    -0.354 N 
ATOM     53  N   UNL A   1      44.625  26.831  28.399  1.00  0.00    -0.248 NA
ATOM     54  C   UNL A   1      45.400  24.768  27.629  1.00  0.00     0.031 C 
ATOM     55  C   UNL A   1      47.256  30.352  29.158  1.00  0.00     0.029 A 
ATOM     56  C   UNL A   1      46.454  29.249  28.907  1.00  0.00     0.049 A 
ATOM     57  H   UNL A   1      44.360  29.069  29.071  1.00  0.00     0.167 HD
ATOM     58  C   UNL A   1      46.006  26.894  28.248  1.00  0.00     0.074 A 
ATOM     59  C   UNL A   1      46.431  25.587  27.790  1.00  0.00     0.031 C 
ATOM     60  C   UNL A   1      46.845  27.938  28.455  1.00  0.00     0.037 A 
BRANCH  47  61
ATOM     61  C   UNL A   1      44.051  33.091  30.448  1.00  0.00     0.058 A 
ATOM     62  C   UNL A   1      44.294  33.426  31.786  1.00  0.00     0.135 A 
ATOM     63  C   UNL A   1      43.887  34.138  29.528  1.00  0.00     0.135 A 
ATOM     64  F   UNL A   1      44.428  32.461  32.708  1.00  0.00    -0.206 F 
ATOM     65  C   UNL A   1      44.346  34.752  32.202  1.00  0.00     0.059 A 
ATOM     66  C   UNL A   1      43.952  35.470  29.918  1.00  0.00     0.059 A 
ATOM     67  F   UNL A   1      43.637  33.868  28.237  1.00  0.00    -0.206 F 
ATOM     68  C   UNL A   1      44.167  35.767  31.262  1.00  0.00     0.060 A 
BRANCH  68  69
ATOM     69  S   UNL A   1      44.215  37.484  31.812  1.00  0.00     0.124 S 
ATOM     70  O   UNL A   1      45.628  37.642  32.145  1.00  0.00    -0.237 OA
ATOM     71  O   UNL A   1      43.760  38.208  30.630  1.00  0.00    -0.237 OA
ATOM     72  O   UNL A   1      43.298  37.503  32.947  1.00  0.00    -0.744 OA
ENDBRANCH  68  69
ENDBRANCH  47  61
BRANCH  48  73
ATOM     73  C   UNL A   1      42.703  23.616  27.495  1.00  0.00     0.058 A 
ATOM     74  C   UNL A   1      42.608  23.324  26.129  1.00  0.00     0.135 A 
ATOM     75  C   UNL A   1      42.604  22.546  28.396  1.00  0.00     0.135 A 
ATOM     76  F   UNL A   1      42.677  24.315  25.227  1.00  0.00    -0.206 F 
ATOM     77  C   UNL A   1      42.423  22.023  25.672  1.00  0.00     0.059 A 
ATOM     78  C   UNL A   1      42.444  21.234  27.963  1.00  0.00     0.059 A 
ATOM     79  F   UNL A   1      42.691  22.770  29.715  1.00  0.00    -0.206 F 
ATOM     80  C   UNL A   1      42.347  20.983  26.598  1.00  0.00     0.060 A 
BRANCH  80  81
ATOM     81  S   UNL A   1      42.167  19.287  26.003  1.00  0.00     0.124 S 
ATOM     82  O   UNL A   1      40.732  19.212  25.757  1.00  0.00    -0.237 OA
ATOM     83  O   UNL A   1      43.019  19.282  24.817  1.00  0.00    -0.237 OA
ATOM     84  O   UNL A   1      42.660  18.490  27.121  1.00  0.00    -0.744 OA
ENDBRANCH  80  81
ENDBRANCH  48  73
BRANCH  60  85
ATOM     85  C   UNL A   1      48.305  27.701  28.208  1.00  0.00     0.058 A 
ATOM     86  C   UNL A   1      49.126  27.129  29.189  1.00  0.00     0.135 A 
ATOM     87  C   UNL A   1      48.870  27.998  26.961  1.00  0.00     0.135 A 
ATOM     88  F   UNL A   1      48.627  26.835  30.399  1.00  0.00    -0.206 F 
ATOM     89  C   UNL A   1      50.468  26.870  28.945  1.00  0.00     0.059 A 
ATOM     90  C   UNL A   1      50.207  27.731  26.689  1.00  0.00     0.059 A 
ATOM     91  F   UNL A   1      48.120  28.539  25.990  1.00  0.00    -0.206 F 
ATOM     92  C   UNL A   1      51.001  27.175  27.691  1.00  0.00     0.060 A 
BRANCH  92  93
ATOM     93  S   UNL A   1      52.735  26.798  27.366  1.00  0.00     0.124 S 
ATOM     94  O   UNL A   1      53.338  27.043  28.672  1.00  0.00    -0.237 OA
ATOM     95  O   UNL A   1      52.684  25.401  26.943  1.00  0.00    -0.237 OA
ATOM     96  O   UNL A   1      53.096  27.749  26.319  1.00  0.00    -0.744 OA
ENDBRANCH  92  93
ENDBRANCH  60  85
ENDBRANCH  34  35
ENDBRANCH  27  29
ENDBRANCH  26  27
ENDBRANCH  25  26
ENDBRANCH   1  25
TORSDOF 18
ENDMDL
