MODEL 1
REMARK VINA RESULT:     -14.9      0.000      0.000
REMARK SMILES Cc1cccc(CC(=O)N2CCC3(CCC(=O)N([C@H](C)C(=O)OCCOC(=O)c4ccc(-c5c6nc(c(-c7c(F)cc(S(=O)(=O)[O-])cc7F)c7ccc([nH]7)c(-c7c(F)cc(S(=O)(=O)[O-])cc7F)c7nc(c(-c8c(F)cc(S(=O)(=O)[O-])cc8F)c8ccc5[nH]8)C=C7)C=C6)cc4)C3)CC2)c1
REMARK SMILES IDX 24 1 23 2 21 3 22 4 19 5 20 6 18 7 8 8 9 9 10 10 11 11 97 12
REMARK SMILES IDX 12 13 96 14 13 15 14 16 95 17 15 18 16 19 17 20 7 21 6 22
REMARK SMILES IDX 1 23 2 24 3 25 98 26 4 27 5 28 25 29 26 30 27 31 28 32 29 33
REMARK SMILES IDX 30 34 94 35 31 36 93 37 32 38 33 39 34 40 87 41 35 42 92 43
REMARK SMILES IDX 86 44 88 45 36 46 91 47 85 48 84 49 37 51 71 52 50 53 70 54
REMARK SMILES IDX 51 55 54 56 69 57 89 58 52 59 53 60 68 62 90 63 55 64 38 65
REMARK SMILES IDX 39 66 48 67 40 68 41 69 47 70 49 71 42 72 43 73 44 74 45 75
REMARK SMILES IDX 46 76 72 77 73 78 82 79 74 80 75 81 81 82 83 83 76 84 77 85
REMARK SMILES IDX 78 86 79 87 80 88 56 89 57 90 66 91 58 92 59 93 65 94 67 95
REMARK SMILES IDX 60 96 61 97 62 98 63 99 64 100
REMARK H PARENT 88 50 54 61
REMARK Flexibility Score: inf
ROOT
ATOM      1  C   UNL A   1      39.174  32.284  34.458  1.00  0.00     0.274 C 
ENDROOT
BRANCH   1   2
ATOM      2  O   UNL A   1      39.910  32.798  33.048  1.00  0.00    -0.461 OA
BRANCH   2   3
ATOM      3  C   UNL A   1      39.916  34.135  32.526  1.00  0.00     0.328 C 
ATOM      4  O   UNL A   1      40.668  34.981  33.005  1.00  0.00    -0.250 OA
BRANCH   3   5
ATOM      5  C   UNL A   1      38.813  34.489  31.232  1.00  0.00     0.192 C 
ATOM      6  C   UNL A   1      39.448  34.100  29.874  1.00  0.00     0.044 C 
BRANCH   5   7
ATOM      7  N   UNL A   1      37.267  34.213  31.036  1.00  0.00    -0.329 N 
ATOM      8  C   UNL A   1      33.700  29.808  27.072  1.00  0.00     0.226 C 
ATOM      9  O   UNL A   1      33.644  28.662  27.536  1.00  0.00    -0.275 OA
ATOM     10  N   UNL A   1      34.184  30.876  27.832  1.00  0.00    -0.342 N 
ATOM     11  C   UNL A   1      34.800  30.570  29.120  1.00  0.00     0.120 C 
ATOM     12  C   UNL A   1      33.764  32.267  27.657  1.00  0.00     0.120 C 
ATOM     13  C   UNL A   1      35.924  31.546  29.474  1.00  0.00     0.030 C 
ATOM     14  C   UNL A   1      34.838  33.285  28.071  1.00  0.00     0.030 C 
ATOM     15  C   UNL A   1      35.478  33.022  29.478  1.00  0.00    -0.008 C 
ATOM     16  C   UNL A   1      34.479  33.401  30.576  1.00  0.00     0.019 C 
ATOM     17  C   UNL A   1      36.708  33.948  29.680  1.00  0.00     0.127 C 
ATOM     18  C   UNL A   1      35.113  33.351  31.956  1.00  0.00     0.101 C 
ATOM     19  C   UNL A   1      36.448  34.092  32.157  1.00  0.00     0.223 C 
ATOM     20  O   UNL A   1      36.796  34.424  33.254  1.00  0.00    -0.275 OA
BRANCH   8  21
ATOM     21  C   UNL A   1      33.389  30.010  25.591  1.00  0.00     0.135 C 
BRANCH  21  22
ATOM     22  C   UNL A   1      32.998  28.794  24.791  1.00  0.00    -0.038 A 
ATOM     23  C   UNL A   1      29.853  26.694  24.284  1.00  0.00     0.044 C 
ATOM     24  C   UNL A   1      31.261  27.200  24.154  1.00  0.00    -0.051 A 
ATOM     25  C   UNL A   1      32.211  26.476  23.429  1.00  0.00     0.003 A 
ATOM     26  C   UNL A   1      31.657  28.372  24.805  1.00  0.00     0.007 A 
ATOM     27  C   UNL A   1      33.533  26.921  23.354  1.00  0.00     0.001 A 
ATOM     28  C   UNL A   1      33.928  28.075  24.031  1.00  0.00     0.004 A 
ENDBRANCH  21  22
ENDBRANCH   8  21
ENDBRANCH   5   7
ENDBRANCH   3   5
ENDBRANCH   2   3
ENDBRANCH   1   2
BRANCH   1  29
ATOM     29  C   UNL A   1      38.152  30.661  34.660  1.00  0.00     0.275 C 
BRANCH  29  30
ATOM     30  O   UNL A   1      37.875  29.321  33.363  1.00  0.00    -0.458 OA
BRANCH  30  31
ATOM     31  C   UNL A   1      38.172  28.806  31.759  1.00  0.00     0.338 C 
ATOM     32  O   UNL A   1      38.145  27.568  31.663  1.00  0.00    -0.246 OA
BRANCH  31  33
ATOM     33  C   UNL A   1      38.828  29.674  30.214  1.00  0.00     0.060 A 
ATOM     34  C   UNL A   1      38.417  29.292  28.914  1.00  0.00     0.016 A 
ATOM     35  C   UNL A   1      40.147  30.221  30.024  1.00  0.00     0.016 A 
ATOM     36  C   UNL A   1      39.428  28.996  27.795  1.00  0.00     0.010 A 
ATOM     37  C   UNL A   1      41.122  29.843  29.057  1.00  0.00     0.010 A 
ATOM     38  C   UNL A   1      40.844  29.101  27.954  1.00  0.00    -0.014 A 
BRANCH  38  39
ATOM     39  C   UNL A   1      42.045  28.233  27.526  1.00  0.00     0.031 A 
ATOM     40  C   UNL A   1      41.955  26.791  27.168  1.00  0.00     0.074 A 
ATOM     41  C   UNL A   1      43.174  28.673  26.888  1.00  0.00     0.049 A 
ATOM     42  N   UNL A   1      42.229  25.808  27.964  1.00  0.00    -0.248 NA
ATOM     43  C   UNL A   1      41.812  26.389  25.748  1.00  0.00     0.031 C 
ATOM     44  C   UNL A   1      44.457  27.989  26.653  1.00  0.00     0.029 A 
ATOM     45  N   UNL A   1      43.511  29.939  26.489  1.00  0.00    -0.354 N 
ATOM     46  C   UNL A   1      42.619  24.763  27.130  1.00  0.00     0.074 A 
ATOM     47  C   UNL A   1      42.150  25.096  25.792  1.00  0.00     0.031 C 
ATOM     48  C   UNL A   1      45.447  28.909  26.720  1.00  0.00     0.029 A 
ATOM     49  C   UNL A   1      44.832  30.212  26.887  1.00  0.00     0.049 A 
ATOM     50  H   UNL A   1      42.922  30.559  26.001  1.00  0.00     0.167 HD
ATOM     51  C   UNL A   1      43.756  24.024  27.348  1.00  0.00     0.037 A 
ATOM     52  C   UNL A   1      44.938  31.131  27.897  1.00  0.00     0.037 A 
ATOM     53  C   UNL A   1      44.732  24.746  28.174  1.00  0.00     0.049 A 
ATOM     54  C   UNL A   1      44.974  30.342  29.256  1.00  0.00     0.074 A 
ATOM     55  C   UNL A   1      46.017  25.211  27.924  1.00  0.00     0.029 A 
ATOM     56  N   UNL A   1      44.336  25.381  29.350  1.00  0.00    -0.354 N 
ATOM     57  N   UNL A   1      45.211  29.053  29.323  1.00  0.00    -0.248 NA
ATOM     58  C   UNL A   1      44.728  30.871  30.607  1.00  0.00     0.031 C 
ATOM     59  C   UNL A   1      46.342  26.198  28.886  1.00  0.00     0.029 A 
ATOM     60  C   UNL A   1      45.254  26.348  29.721  1.00  0.00     0.049 A 
ATOM     61  H   UNL A   1      43.515  25.169  29.848  1.00  0.00     0.167 HD
ATOM     62  C   UNL A   1      44.987  28.564  30.590  1.00  0.00     0.074 A 
ATOM     63  C   UNL A   1      44.765  29.760  31.376  1.00  0.00     0.031 C 
ATOM     64  C   UNL A   1      44.985  27.217  30.860  1.00  0.00     0.037 A 
BRANCH  51  65
ATOM     65  C   UNL A   1      44.069  22.787  26.509  1.00  0.00     0.058 A 
ATOM     66  C   UNL A   1      43.309  21.600  26.558  1.00  0.00     0.135 A 
ATOM     67  C   UNL A   1      45.081  22.796  25.517  1.00  0.00     0.135 A 
ATOM     68  F   UNL A   1      42.265  21.456  27.381  1.00  0.00    -0.206 F 
ATOM     69  C   UNL A   1      43.561  20.497  25.738  1.00  0.00     0.059 A 
ATOM     70  C   UNL A   1      45.358  21.700  24.691  1.00  0.00     0.059 A 
ATOM     71  F   UNL A   1      45.824  23.896  25.306  1.00  0.00    -0.206 F 
ATOM     72  C   UNL A   1      44.586  20.553  24.805  1.00  0.00     0.060 A 
BRANCH  72  73
ATOM     73  S   UNL A   1      44.846  19.129  23.730  1.00  0.00     0.124 S 
ATOM     74  O   UNL A   1      46.285  18.908  23.855  1.00  0.00    -0.237 OA
ATOM     75  O   UNL A   1      43.996  18.118  24.353  1.00  0.00    -0.237 OA
ATOM     76  O   UNL A   1      44.401  19.600  22.422  1.00  0.00    -0.744 OA
ENDBRANCH  72  73
ENDBRANCH  51  65
BRANCH  52  77
ATOM     77  C   UNL A   1      44.017  32.330  27.494  1.00  0.00     0.058 A 
ATOM     78  C   UNL A   1      43.416  33.093  28.501  1.00  0.00     0.135 A 
ATOM     79  C   UNL A   1      44.510  33.188  26.574  1.00  0.00     0.135 A 
ATOM     80  F   UNL A   1      42.609  32.474  29.379  1.00  0.00    -0.206 F 
ATOM     81  C   UNL A   1      43.742  34.542  28.771  1.00  0.00     0.059 A 
ATOM     82  C   UNL A   1      44.959  34.520  27.049  1.00  0.00     0.059 A 
ATOM     83  F   UNL A   1      45.095  32.667  25.485  1.00  0.00    -0.206 F 
ATOM     84  C   UNL A   1      44.701  35.455  28.065  1.00  0.00     0.060 A 
BRANCH  84  85
ATOM     85  S   UNL A   1      44.887  37.821  27.794  1.00  0.00     0.124 S 
ATOM     86  O   UNL A   1      44.447  38.604  28.959  1.00  0.00    -0.237 OA
ATOM     87  O   UNL A   1      46.277  38.147  27.538  1.00  0.00    -0.237 OA
ATOM     88  O   UNL A   1      44.019  38.328  26.739  1.00  0.00    -0.744 OA
ENDBRANCH  84  85
ENDBRANCH  52  77
BRANCH  64  89
ATOM     89  C   UNL A   1      44.812  26.526  32.198  1.00  0.00     0.058 A 
ATOM     90  C   UNL A   1      43.672  26.586  33.008  1.00  0.00     0.135 A 
ATOM     91  C   UNL A   1      45.836  25.645  32.645  1.00  0.00     0.135 A 
ATOM     92  F   UNL A   1      42.608  27.317  32.645  1.00  0.00    -0.206 F 
ATOM     93  C   UNL A   1      43.578  25.868  34.211  1.00  0.00     0.059 A 
ATOM     94  C   UNL A   1      45.745  24.890  33.809  1.00  0.00     0.059 A 
ATOM     95  F   UNL A   1      46.978  25.495  31.957  1.00  0.00    -0.206 F 
ATOM     96  C   UNL A   1      44.625  25.034  34.609  1.00  0.00     0.060 A 
BRANCH  96  97
ATOM     97  S   UNL A   1      44.539  24.128  36.167  1.00  0.00     0.124 S 
ATOM     98  O   UNL A   1      43.339  24.701  36.766  1.00  0.00    -0.237 OA
ATOM     99  O   UNL A   1      44.428  22.740  35.729  1.00  0.00    -0.237 OA
ATOM    100  O   UNL A   1      45.797  24.471  36.827  1.00  0.00    -0.744 OA
ENDBRANCH  96  97
ENDBRANCH  64  89
ENDBRANCH  38  39
ENDBRANCH  31  33
ENDBRANCH  30  31
ENDBRANCH  29  30
ENDBRANCH   1  29
TORSDOF 17
ENDMDL
MODEL 2
REMARK VINA RESULT:     -14.8      3.974     12.213
REMARK SMILES Cc1cccc(CC(=O)N2CCC3(CCC(=O)N([C@H](C)C(=O)OCCOC(=O)c4ccc(-c5c6nc(c(-c7c(F)cc(S(=O)(=O)[O-])cc7F)c7ccc([nH]7)c(-c7c(F)cc(S(=O)(=O)[O-])cc7F)c7nc(c(-c8c(F)cc(S(=O)(=O)[O-])cc8F)c8ccc5[nH]8)C=C7)C=C6)cc4)C3)CC2)c1
REMARK SMILES IDX 24 1 23 2 21 3 22 4 19 5 20 6 18 7 8 8 9 9 10 10 11 11 97 12
REMARK SMILES IDX 12 13 96 14 13 15 14 16 95 17 15 18 16 19 17 20 7 21 6 22
REMARK SMILES IDX 1 23 2 24 3 25 98 26 4 27 5 28 25 29 26 30 27 31 28 32 29 33
REMARK SMILES IDX 30 34 94 35 31 36 93 37 32 38 33 39 34 40 87 41 35 42 92 43
REMARK SMILES IDX 86 44 88 45 36 46 91 47 85 48 84 49 37 51 71 52 50 53 70 54
REMARK SMILES IDX 51 55 54 56 69 57 89 58 52 59 53 60 68 62 90 63 55 64 38 65
REMARK SMILES IDX 39 66 48 67 40 68 41 69 47 70 49 71 42 72 43 73 44 74 45 75
REMARK SMILES IDX 46 76 72 77 73 78 82 79 74 80 75 81 81 82 83 83 76 84 77 85
REMARK SMILES IDX 78 86 79 87 80 88 56 89 57 90 66 91 58 92 59 93 65 94 67 95
REMARK SMILES IDX 60 96 61 97 62 98 63 99 64 100
REMARK H PARENT 88 50 54 61
REMARK Flexibility Score: inf
ROOT
ATOM      1  C   UNL A   1      45.265  29.005  38.104  1.00  0.00     0.274 C 
ENDROOT
BRANCH   1   2
ATOM      2  O   UNL A   1      43.734  29.203  37.463  1.00  0.00    -0.461 OA
BRANCH   2   3
ATOM      3  C   UNL A   1      43.415  29.639  36.133  1.00  0.00     0.328 C 
ATOM      4  O   UNL A   1      43.364  30.839  35.872  1.00  0.00    -0.250 OA
BRANCH   3   5
ATOM      5  C   UNL A   1      43.087  28.410  34.951  1.00  0.00     0.192 C 
ATOM      6  C   UNL A   1      44.137  28.477  33.814  1.00  0.00     0.044 C 
BRANCH   5   7
ATOM      7  N   UNL A   1      42.738  26.871  35.072  1.00  0.00    -0.329 N 
ATOM      8  C   UNL A   1      46.599  21.164  35.672  1.00  0.00     0.226 C 
ATOM      9  O   UNL A   1      47.002  20.960  36.824  1.00  0.00    -0.275 OA
ATOM     10  N   UNL A   1      45.632  22.137  35.402  1.00  0.00    -0.342 N 
ATOM     11  C   UNL A   1      45.252  23.036  36.487  1.00  0.00     0.120 C 
ATOM     12  C   UNL A   1      44.685  22.069  34.288  1.00  0.00     0.120 C 
ATOM     13  C   UNL A   1      44.876  24.431  35.982  1.00  0.00     0.030 C 
ATOM     14  C   UNL A   1      44.223  23.448  33.796  1.00  0.00     0.030 C 
ATOM     15  C   UNL A   1      43.749  24.421  34.931  1.00  0.00    -0.008 C 
ATOM     16  C   UNL A   1      42.377  23.977  35.447  1.00  0.00     0.019 C 
ATOM     17  C   UNL A   1      43.548  25.849  34.353  1.00  0.00     0.127 C 
ATOM     18  C   UNL A   1      41.782  24.992  36.408  1.00  0.00     0.101 C 
ATOM     19  C   UNL A   1      41.744  26.465  35.961  1.00  0.00     0.223 C 
ATOM     20  O   UNL A   1      40.969  27.230  36.461  1.00  0.00    -0.275 OA
BRANCH   8  21
ATOM     21  C   UNL A   1      47.298  20.448  34.518  1.00  0.00     0.135 C 
BRANCH  21  22
ATOM     22  C   UNL A   1      48.763  20.733  34.311  1.00  0.00    -0.038 A 
ATOM     23  C   UNL A   1      50.917  23.779  33.511  1.00  0.00     0.044 C 
ATOM     24  C   UNL A   1      50.512  22.370  33.836  1.00  0.00    -0.051 A 
ATOM     25  C   UNL A   1      51.451  21.336  33.801  1.00  0.00     0.003 A 
ATOM     26  C   UNL A   1      49.178  22.062  34.122  1.00  0.00     0.007 A 
ATOM     27  C   UNL A   1      51.062  20.019  34.052  1.00  0.00     0.001 A 
ATOM     28  C   UNL A   1      49.723  19.715  34.306  1.00  0.00     0.004 A 
ENDBRANCH  21  22
ENDBRANCH   8  21
ENDBRANCH   5   7
ENDBRANCH   3   5
ENDBRANCH   2   3
ENDBRANCH   1   2
BRANCH   1  29
ATOM     29  C   UNL A   1      46.829  28.460  37.116  1.00  0.00     0.275 C 
BRANCH  29  30
ATOM     30  O   UNL A   1      46.911  27.202  35.715  1.00  0.00    -0.458 OA
BRANCH  30  31
ATOM     31  C   UNL A   1      47.837  26.556  34.430  1.00  0.00     0.338 C 
ATOM     32  O   UNL A   1      49.031  26.892  34.513  1.00  0.00    -0.246 OA
BRANCH  31  33
ATOM     33  C   UNL A   1      47.392  25.733  32.789  1.00  0.00     0.060 A 
ATOM     34  C   UNL A   1      48.355  25.530  31.772  1.00  0.00     0.016 A 
ATOM     35  C   UNL A   1      46.142  25.838  32.080  1.00  0.00     0.016 A 
ATOM     36  C   UNL A   1      48.108  25.967  30.319  1.00  0.00     0.010 A 
ATOM     37  C   UNL A   1      45.914  26.366  30.777  1.00  0.00     0.010 A 
ATOM     38  C   UNL A   1      46.899  26.582  29.867  1.00  0.00    -0.014 A 
BRANCH  38  39
ATOM     39  C   UNL A   1      46.575  27.768  28.936  1.00  0.00     0.031 A 
ATOM     40  C   UNL A   1      46.751  29.199  29.305  1.00  0.00     0.074 A 
ATOM     41  C   UNL A   1      46.627  27.759  27.568  1.00  0.00     0.049 A 
ATOM     42  N   UNL A   1      45.810  29.981  29.725  1.00  0.00    -0.248 NA
ATOM     43  C   UNL A   1      47.998  29.910  28.934  1.00  0.00     0.031 C 
ATOM     44  C   UNL A   1      46.118  28.741  26.595  1.00  0.00     0.029 A 
ATOM     45  N   UNL A   1      46.962  26.741  26.715  1.00  0.00    -0.354 N 
ATOM     46  C   UNL A   1      46.210  31.263  29.359  1.00  0.00     0.074 A 
ATOM     47  C   UNL A   1      47.637  31.190  29.070  1.00  0.00     0.031 C 
ATOM     48  C   UNL A   1      45.689  28.069  25.500  1.00  0.00     0.029 A 
ATOM     49  C   UNL A   1      46.005  26.666  25.687  1.00  0.00     0.049 A 
ATOM     50  H   UNL A   1      47.747  26.154  26.808  1.00  0.00     0.167 HD
ATOM     51  C   UNL A   1      45.375  32.149  28.723  1.00  0.00     0.037 A 
ATOM     52  C   UNL A   1      45.193  25.564  25.751  1.00  0.00     0.037 A 
ATOM     53  C   UNL A   1      44.273  31.467  28.033  1.00  0.00     0.049 A 
ATOM     54  C   UNL A   1      43.906  25.968  26.557  1.00  0.00     0.074 A 
ATOM     55  C   UNL A   1      43.916  31.370  26.693  1.00  0.00     0.029 A 
ATOM     56  N   UNL A   1      43.529  30.482  28.681  1.00  0.00    -0.354 N 
ATOM     57  N   UNL A   1      43.574  27.217  26.787  1.00  0.00    -0.248 NA
ATOM     58  C   UNL A   1      42.925  25.071  27.188  1.00  0.00     0.031 C 
ATOM     59  C   UNL A   1      43.048  30.263  26.531  1.00  0.00     0.029 A 
ATOM     60  C   UNL A   1      42.878  29.673  27.765  1.00  0.00     0.049 A 
ATOM     61  H   UNL A   1      43.475  30.378  29.658  1.00  0.00     0.167 HD
ATOM     62  C   UNL A   1      42.531  27.306  27.680  1.00  0.00     0.074 A 
ATOM     63  C   UNL A   1      42.107  25.929  27.837  1.00  0.00     0.031 C 
ATOM     64  C   UNL A   1      42.133  28.506  28.218  1.00  0.00     0.037 A 
BRANCH  51  65
ATOM     65  C   UNL A   1      45.795  33.596  28.479  1.00  0.00     0.058 A 
ATOM     66  C   UNL A   1      46.305  34.061  27.249  1.00  0.00     0.135 A 
ATOM     67  C   UNL A   1      45.576  34.609  29.445  1.00  0.00     0.135 A 
ATOM     68  F   UNL A   1      46.495  33.249  26.204  1.00  0.00    -0.206 F 
ATOM     69  C   UNL A   1      46.623  35.401  27.012  1.00  0.00     0.059 A 
ATOM     70  C   UNL A   1      45.896  35.956  29.233  1.00  0.00     0.059 A 
ATOM     71  F   UNL A   1      45.015  34.317  30.630  1.00  0.00    -0.206 F 
ATOM     72  C   UNL A   1      46.415  36.345  28.006  1.00  0.00     0.060 A 
BRANCH  72  73
ATOM     73  S   UNL A   1      46.790  38.071  27.644  1.00  0.00     0.124 S 
ATOM     74  O   UNL A   1      48.250  38.061  27.577  1.00  0.00    -0.237 OA
ATOM     75  O   UNL A   1      46.101  38.271  26.372  1.00  0.00    -0.237 OA
ATOM     76  O   UNL A   1      46.224  38.791  28.782  1.00  0.00    -0.744 OA
ENDBRANCH  72  73
ENDBRANCH  51  65
BRANCH  52  77
ATOM     77  C   UNL A   1      46.140  24.339  25.981  1.00  0.00     0.058 A 
ATOM     78  C   UNL A   1      45.812  23.405  26.970  1.00  0.00     0.135 A 
ATOM     79  C   UNL A   1      46.515  23.651  24.881  1.00  0.00     0.135 A 
ATOM     80  F   UNL A   1      45.684  23.832  28.237  1.00  0.00    -0.206 F 
ATOM     81  C   UNL A   1      45.431  21.973  26.686  1.00  0.00     0.059 A 
ATOM     82  C   UNL A   1      45.895  22.321  24.658  1.00  0.00     0.059 A 
ATOM     83  F   UNL A   1      46.920  24.355  23.813  1.00  0.00    -0.206 F 
ATOM     84  C   UNL A   1      45.337  21.250  25.374  1.00  0.00     0.060 A 
BRANCH  84  85
ATOM     85  S   UNL A   1      45.475  18.964  24.695  1.00  0.00     0.124 S 
ATOM     86  O   UNL A   1      46.524  18.189  25.376  1.00  0.00    -0.237 OA
ATOM     87  O   UNL A   1      44.202  18.325  24.970  1.00  0.00    -0.237 OA
ATOM     88  O   UNL A   1      45.850  18.822  23.295  1.00  0.00    -0.744 OA
ENDBRANCH  84  85
ENDBRANCH  52  77
BRANCH  64  89
ATOM     89  C   UNL A   1      40.977  28.777  29.161  1.00  0.00     0.058 A 
ATOM     90  C   UNL A   1      39.703  29.220  28.786  1.00  0.00     0.135 A 
ATOM     91  C   UNL A   1      41.136  28.460  30.539  1.00  0.00     0.135 A 
ATOM     92  F   UNL A   1      39.412  29.469  27.502  1.00  0.00    -0.206 F 
ATOM     93  C   UNL A   1      38.673  29.395  29.724  1.00  0.00     0.059 A 
ATOM     94  C   UNL A   1      40.116  28.581  31.476  1.00  0.00     0.059 A 
ATOM     95  F   UNL A   1      42.307  28.022  31.025  1.00  0.00    -0.206 F 
ATOM     96  C   UNL A   1      38.894  29.085  31.068  1.00  0.00     0.060 A 
BRANCH  96  97
ATOM     97  S   UNL A   1      37.595  29.333  32.295  1.00  0.00     0.124 S 
ATOM     98  O   UNL A   1      37.651  28.074  33.031  1.00  0.00    -0.237 OA
ATOM     99  O   UNL A   1      38.056  30.512  33.022  1.00  0.00    -0.237 OA
ATOM    100  O   UNL A   1      36.398  29.535  31.483  1.00  0.00    -0.744 OA
ENDBRANCH  96  97
ENDBRANCH  64  89
ENDBRANCH  38  39
ENDBRANCH  31  33
ENDBRANCH  30  31
ENDBRANCH  29  30
ENDBRANCH   1  29
TORSDOF 17
ENDMDL
MODEL 3
REMARK VINA RESULT:     -14.7      4.993     11.070
REMARK SMILES Cc1cccc(CC(=O)N2CCC3(CCC(=O)N([C@H](C)C(=O)OCCOC(=O)c4ccc(-c5c6nc(c(-c7c(F)cc(S(=O)(=O)[O-])cc7F)c7ccc([nH]7)c(-c7c(F)cc(S(=O)(=O)[O-])cc7F)c7nc(c(-c8c(F)cc(S(=O)(=O)[O-])cc8F)c8ccc5[nH]8)C=C7)C=C6)cc4)C3)CC2)c1
REMARK SMILES IDX 24 1 23 2 21 3 22 4 19 5 20 6 18 7 8 8 9 9 10 10 11 11 97 12
REMARK SMILES IDX 12 13 96 14 13 15 14 16 95 17 15 18 16 19 17 20 7 21 6 22
REMARK SMILES IDX 1 23 2 24 3 25 98 26 4 27 5 28 25 29 26 30 27 31 28 32 29 33
REMARK SMILES IDX 30 34 94 35 31 36 93 37 32 38 33 39 34 40 87 41 35 42 92 43
REMARK SMILES IDX 86 44 88 45 36 46 91 47 85 48 84 49 37 51 71 52 50 53 70 54
REMARK SMILES IDX 51 55 54 56 69 57 89 58 52 59 53 60 68 62 90 63 55 64 38 65
REMARK SMILES IDX 39 66 48 67 40 68 41 69 47 70 49 71 42 72 43 73 44 74 45 75
REMARK SMILES IDX 46 76 72 77 73 78 82 79 74 80 75 81 81 82 83 83 76 84 77 85
REMARK SMILES IDX 78 86 79 87 80 88 56 89 57 90 66 91 58 92 59 93 65 94 67 95
REMARK SMILES IDX 60 96 61 97 62 98 63 99 64 100
REMARK H PARENT 88 50 54 61
REMARK Flexibility Score: inf
ROOT
ATOM      1  C   UNL A   1      47.512  35.037  28.588  1.00  0.00     0.274 C 
ENDROOT
BRANCH   1   2
ATOM      2  O   UNL A   1      47.725  33.431  28.997  1.00  0.00    -0.461 OA
BRANCH   2   3
ATOM      3  C   UNL A   1      47.133  32.298  28.344  1.00  0.00     0.328 C 
ATOM      4  O   UNL A   1      47.842  31.378  27.940  1.00  0.00    -0.250 OA
BRANCH   3   5
ATOM      5  C   UNL A   1      45.409  32.310  28.138  1.00  0.00     0.192 C 
ATOM      6  C   UNL A   1      44.712  32.063  29.499  1.00  0.00     0.044 C 
BRANCH   5   7
ATOM      7  N   UNL A   1      44.428  33.283  27.365  1.00  0.00    -0.329 N 
ATOM      8  C   UNL A   1      42.770  39.952  28.149  1.00  0.00     0.226 C 
ATOM      9  O   UNL A   1      43.603  40.727  27.664  1.00  0.00    -0.275 OA
ATOM     10  N   UNL A   1      42.822  38.578  27.897  1.00  0.00    -0.342 N 
ATOM     11  C   UNL A   1      43.997  38.059  27.202  1.00  0.00     0.120 C 
ATOM     12  C   UNL A   1      41.653  37.698  27.885  1.00  0.00     0.120 C 
ATOM     13  C   UNL A   1      44.356  36.640  27.647  1.00  0.00     0.030 C 
ATOM     14  C   UNL A   1      41.981  36.243  28.255  1.00  0.00     0.030 C 
ATOM     15  C   UNL A   1      43.200  35.633  27.482  1.00  0.00    -0.008 C 
ATOM     16  C   UNL A   1      42.794  35.334  26.036  1.00  0.00     0.019 C 
ATOM     17  C   UNL A   1      43.592  34.267  28.109  1.00  0.00     0.127 C 
ATOM     18  C   UNL A   1      43.874  34.562  25.296  1.00  0.00     0.101 C 
ATOM     19  C   UNL A   1      44.444  33.302  25.972  1.00  0.00     0.223 C 
ATOM     20  O   UNL A   1      44.982  32.454  25.318  1.00  0.00    -0.275 OA
BRANCH   8  21
ATOM     21  C   UNL A   1      41.776  40.497  29.171  1.00  0.00     0.135 C 
BRANCH  21  22
ATOM     22  C   UNL A   1      42.327  40.968  30.493  1.00  0.00    -0.038 A 
ATOM     23  C   UNL A   1      44.144  39.405  33.462  1.00  0.00     0.044 C 
ATOM     24  C   UNL A   1      43.495  40.421  32.567  1.00  0.00    -0.051 A 
ATOM     25  C   UNL A   1      43.281  41.728  33.015  1.00  0.00     0.003 A 
ATOM     26  C   UNL A   1      43.042  40.061  31.294  1.00  0.00     0.007 A 
ATOM     27  C   UNL A   1      42.629  42.656  32.201  1.00  0.00     0.001 A 
ATOM     28  C   UNL A   1      42.153  42.281  30.944  1.00  0.00     0.004 A 
ENDBRANCH  21  22
ENDBRANCH   8  21
ENDBRANCH   5   7
ENDBRANCH   3   5
ENDBRANCH   2   3
ENDBRANCH   1   2
BRANCH   1  29
ATOM     29  C   UNL A   1      47.645  36.528  29.805  1.00  0.00     0.275 C 
BRANCH  29  30
ATOM     30  O   UNL A   1      46.673  36.787  31.400  1.00  0.00    -0.458 OA
BRANCH  30  31
ATOM     31  C   UNL A   1      45.468  36.177  32.449  1.00  0.00     0.338 C 
ATOM     32  O   UNL A   1      45.963  35.684  33.477  1.00  0.00    -0.246 OA
BRANCH  31  33
ATOM     33  C   UNL A   1      43.625  35.816  32.245  1.00  0.00     0.060 A 
ATOM     34  C   UNL A   1      42.692  36.099  33.271  1.00  0.00     0.016 A 
ATOM     35  C   UNL A   1      43.034  34.721  31.519  1.00  0.00     0.016 A 
ATOM     36  C   UNL A   1      41.684  35.050  33.768  1.00  0.00     0.010 A 
ATOM     37  C   UNL A   1      42.202  33.680  32.024  1.00  0.00     0.010 A 
ATOM     38  C   UNL A   1      41.583  33.728  33.232  1.00  0.00    -0.014 A 
BRANCH  38  39
ATOM     39  C   UNL A   1      41.412  32.325  33.848  1.00  0.00     0.031 A 
ATOM     40  C   UNL A   1      42.540  31.450  34.273  1.00  0.00     0.074 A 
ATOM     41  C   UNL A   1      40.347  31.893  34.591  1.00  0.00     0.049 A 
ATOM     42  N   UNL A   1      43.035  30.482  33.571  1.00  0.00    -0.248 NA
ATOM     43  C   UNL A   1      42.989  31.456  35.685  1.00  0.00     0.031 C 
ATOM     44  C   UNL A   1      39.978  30.531  35.016  1.00  0.00     0.029 A 
ATOM     45  N   UNL A   1      39.210  32.564  34.957  1.00  0.00    -0.354 N 
ATOM     46  C   UNL A   1      43.565  29.593  34.502  1.00  0.00     0.074 A 
ATOM     47  C   UNL A   1      43.699  30.326  35.754  1.00  0.00     0.031 C 
ATOM     48  C   UNL A   1      38.627  30.438  35.017  1.00  0.00     0.029 A 
ATOM     49  C   UNL A   1      38.091  31.749  34.706  1.00  0.00     0.049 A 
ATOM     50  H   UNL A   1      39.181  33.472  35.335  1.00  0.00     0.167 HD
ATOM     51  C   UNL A   1      43.318  28.242  34.463  1.00  0.00     0.037 A 
ATOM     52  C   UNL A   1      37.307  32.174  33.666  1.00  0.00     0.037 A 
ATOM     53  C   UNL A   1      42.089  27.929  33.721  1.00  0.00     0.049 A 
ATOM     54  C   UNL A   1      37.801  31.439  32.367  1.00  0.00     0.074 A 
ATOM     55  C   UNL A   1      40.882  27.352  34.097  1.00  0.00     0.029 A 
ATOM     56  N   UNL A   1      41.848  28.500  32.473  1.00  0.00    -0.354 N 
ATOM     57  N   UNL A   1      38.575  30.380  32.401  1.00  0.00    -0.248 NA
ATOM     58  C   UNL A   1      37.527  31.809  30.969  1.00  0.00     0.031 C 
ATOM     59  C   UNL A   1      39.901  27.672  33.127  1.00  0.00     0.029 A 
ATOM     60  C   UNL A   1      40.500  28.453  32.162  1.00  0.00     0.049 A 
ATOM     61  H   UNL A   1      42.543  28.884  31.892  1.00  0.00     0.167 HD
ATOM     62  C   UNL A   1      39.032  30.049  31.145  1.00  0.00     0.074 A 
ATOM     63  C   UNL A   1      38.279  30.927  30.273  1.00  0.00     0.031 C 
ATOM     64  C   UNL A   1      40.004  29.097  30.952  1.00  0.00     0.037 A 
BRANCH  51  65
ATOM     65  C   UNL A   1      44.039  27.278  35.401  1.00  0.00     0.058 A 
ATOM     66  C   UNL A   1      45.344  26.796  35.168  1.00  0.00     0.135 A 
ATOM     67  C   UNL A   1      43.487  26.900  36.650  1.00  0.00     0.135 A 
ATOM     68  F   UNL A   1      46.040  27.125  34.075  1.00  0.00    -0.206 F 
ATOM     69  C   UNL A   1      46.024  25.967  36.066  1.00  0.00     0.059 A 
ATOM     70  C   UNL A   1      44.145  26.062  37.560  1.00  0.00     0.059 A 
ATOM     71  F   UNL A   1      42.285  27.359  37.036  1.00  0.00    -0.206 F 
ATOM     72  C   UNL A   1      45.421  25.605  37.260  1.00  0.00     0.060 A 
BRANCH  72  73
ATOM     73  S   UNL A   1      46.350  24.577  38.414  1.00  0.00     0.124 S 
ATOM     74  O   UNL A   1      46.837  23.506  37.547  1.00  0.00    -0.237 OA
ATOM     75  O   UNL A   1      47.365  25.507  38.900  1.00  0.00    -0.237 OA
ATOM     76  O   UNL A   1      45.349  24.174  39.397  1.00  0.00    -0.744 OA
ENDBRANCH  72  73
ENDBRANCH  51  65
BRANCH  52  77
ATOM     77  C   UNL A   1      37.080  33.706  33.889  1.00  0.00     0.058 A 
ATOM     78  C   UNL A   1      37.270  34.584  32.815  1.00  0.00     0.135 A 
ATOM     79  C   UNL A   1      35.933  34.063  34.507  1.00  0.00     0.135 A 
ATOM     80  F   UNL A   1      38.475  34.618  32.222  1.00  0.00    -0.206 F 
ATOM     81  C   UNL A   1      36.164  35.380  32.170  1.00  0.00     0.059 A 
ATOM     82  C   UNL A   1      34.866  34.674  33.675  1.00  0.00     0.059 A 
ATOM     83  F   UNL A   1      35.576  33.377  35.604  1.00  0.00    -0.206 F 
ATOM     84  C   UNL A   1      34.702  35.438  32.509  1.00  0.00     0.060 A 
BRANCH  84  85
ATOM     85  S   UNL A   1      32.959  37.038  32.185  1.00  0.00     0.124 S 
ATOM     86  O   UNL A   1      33.350  38.429  32.462  1.00  0.00    -0.237 OA
ATOM     87  O   UNL A   1      32.520  36.967  30.804  1.00  0.00    -0.237 OA
ATOM     88  O   UNL A   1      31.848  36.843  33.107  1.00  0.00    -0.744 OA
ENDBRANCH  84  85
ENDBRANCH  52  77
BRANCH  64  89
ATOM     89  C   UNL A   1      40.570  28.582  29.643  1.00  0.00     0.058 A 
ATOM     90  C   UNL A   1      40.242  27.365  29.034  1.00  0.00     0.135 A 
ATOM     91  C   UNL A   1      41.425  29.434  28.891  1.00  0.00     0.135 A 
ATOM     92  F   UNL A   1      39.378  26.518  29.611  1.00  0.00    -0.206 F 
ATOM     93  C   UNL A   1      40.776  26.991  27.790  1.00  0.00     0.059 A 
ATOM     94  C   UNL A   1      41.927  29.104  27.637  1.00  0.00     0.059 A 
ATOM     95  F   UNL A   1      41.811  30.630  29.362  1.00  0.00    -0.206 F 
ATOM     96  C   UNL A   1      41.628  27.862  27.107  1.00  0.00     0.060 A 
BRANCH  96  97
ATOM     97  S   UNL A   1      42.351  27.388  25.523  1.00  0.00     0.124 S 
ATOM     98  O   UNL A   1      41.490  26.275  25.136  1.00  0.00    -0.237 OA
ATOM     99  O   UNL A   1      42.210  28.603  24.727  1.00  0.00    -0.237 OA
ATOM    100  O   UNL A   1      43.723  27.030  25.872  1.00  0.00    -0.744 OA
ENDBRANCH  96  97
ENDBRANCH  64  89
ENDBRANCH  38  39
ENDBRANCH  31  33
ENDBRANCH  30  31
ENDBRANCH  29  30
ENDBRANCH   1  29
TORSDOF 17
ENDMDL
