MODEL 1
REMARK VINA RESULT:     -10.1      0.000      0.000
REMARK SMILES COC(=O)CCN(C)C(=O)NCc1ccc(C(=O)OCCOC(=O)c2ccc(-c3c4nc(c(-c5c(F)cc(S(=O)(=O)[O-])cc5F)c5ccc([nH]5)c(-c5c(F)cc(S(=O)(=O)[O-])cc5F)c5nc(c(-c6c(F)cc(S(=O)(=O)[O-])cc6F)c6ccc3[nH]6)C=C5)C=C4)cc2)o1
REMARK SMILES IDX 17 1 18 2 16 3 13 4 14 5 91 6 15 7 12 8 11 9 9 10 10 11 7 13
REMARK SMILES IDX 8 14 6 15 5 16 3 17 4 18 2 19 1 20 19 21 20 22 21 23 22 24
REMARK SMILES IDX 23 25 24 26 25 27 26 28 90 29 27 30 89 31 28 32 29 33 30 34
REMARK SMILES IDX 83 35 31 36 88 37 82 38 84 39 32 40 87 41 81 42 80 43 33 45
REMARK SMILES IDX 67 46 46 47 66 48 47 49 50 50 65 51 85 52 48 53 49 54 64 56
REMARK SMILES IDX 86 57 51 58 34 59 35 60 44 61 36 62 37 63 43 64 45 65 38 66
REMARK SMILES IDX 39 67 40 68 41 69 42 70 68 71 69 72 78 73 70 74 71 75 77 76
REMARK SMILES IDX 79 77 72 78 73 79 74 80 75 81 76 82 52 83 53 84 62 85 54 86
REMARK SMILES IDX 55 87 61 88 63 89 56 90 57 91 58 92 59 93 60 94
REMARK H PARENT 11 12 84 44 50 55
REMARK Flexibility Score: inf
ROOT
ATOM      1  C   UNL A   1      36.724  22.990  25.514  1.00  0.00     0.374 C 
ATOM      2  O   UNL A   1      36.802  24.055  26.099  1.00  0.00    -0.242 OA
ENDROOT
BRANCH   1   3
ATOM      3  C   UNL A   1      35.499  22.297  25.179  1.00  0.00     0.211 A 
ATOM      4  C   UNL A   1      33.758  21.929  23.875  1.00  0.00     0.124 A 
ATOM      5  C   UNL A   1      33.778  20.900  24.792  1.00  0.00     0.048 A 
ATOM      6  O   UNL A   1      34.761  22.806  24.145  1.00  0.00    -0.452 OA
ATOM      7  C   UNL A   1      34.899  21.136  25.628  1.00  0.00     0.058 A 
BRANCH   4   8
ATOM      8  C   UNL A   1      32.911  22.261  22.701  1.00  0.00     0.193 C 
BRANCH   8   9
ATOM      9  N   UNL A   1      33.339  23.547  22.210  1.00  0.00    -0.331 N 
ATOM     10  C   UNL A   1      33.098  24.833  22.489  1.00  0.00     0.317 C 
ATOM     11  O   UNL A   1      33.780  25.631  21.834  1.00  0.00    -0.249 OA
ATOM     12  H   UNL A   1      33.981  23.454  21.469  1.00  0.00     0.165 HD
BRANCH  10  13
ATOM     13  N   UNL A   1      32.213  25.254  23.440  1.00  0.00    -0.327 N 
ATOM     14  C   UNL A   1      30.765  25.306  23.331  1.00  0.00     0.148 C 
BRANCH  13  15
ATOM     15  C   UNL A   1      32.769  25.668  24.739  1.00  0.00     0.132 C 
BRANCH  15  16
ATOM     16  C   UNL A   1      31.753  25.565  25.870  1.00  0.00     0.144 C 
BRANCH  16  17
ATOM     17  C   UNL A   1      31.986  24.322  26.688  1.00  0.00     0.307 C 
ATOM     18  O   UNL A   1      33.095  23.880  26.964  1.00  0.00    -0.252 OA
BRANCH  17  19
ATOM     19  O   UNL A   1      30.801  23.765  27.062  1.00  0.00    -0.469 OA
ATOM     20  C   UNL A   1      30.414  22.637  26.280  1.00  0.00     0.282 C 
ENDBRANCH  17  19
ENDBRANCH  16  17
ENDBRANCH  15  16
ENDBRANCH  13  15
ENDBRANCH  10  13
ENDBRANCH   8   9
ENDBRANCH   4   8
ENDBRANCH   1   3
BRANCH   1  21
ATOM     21  O   UNL A   1      37.792  22.324  24.975  1.00  0.00    -0.456 OA
BRANCH  21  22
ATOM     22  C   UNL A   1      38.614  21.619  25.922  1.00  0.00     0.275 C 
BRANCH  22  23
ATOM     23  C   UNL A   1      39.954  22.334  26.135  1.00  0.00     0.275 C 
BRANCH  23  24
ATOM     24  O   UNL A   1      39.785  23.700  26.563  1.00  0.00    -0.458 OA
BRANCH  24  25
ATOM     25  C   UNL A   1      40.928  24.410  26.717  1.00  0.00     0.338 C 
ATOM     26  O   UNL A   1      41.961  24.276  26.081  1.00  0.00    -0.246 OA
BRANCH  25  27
ATOM     27  C   UNL A   1      40.725  25.486  27.707  1.00  0.00     0.060 A 
ATOM     28  C   UNL A   1      41.778  26.378  27.926  1.00  0.00     0.016 A 
ATOM     29  C   UNL A   1      39.553  25.585  28.459  1.00  0.00     0.016 A 
ATOM     30  C   UNL A   1      41.667  27.374  28.893  1.00  0.00     0.010 A 
ATOM     31  C   UNL A   1      39.443  26.584  29.434  1.00  0.00     0.010 A 
ATOM     32  C   UNL A   1      40.502  27.480  29.662  1.00  0.00    -0.014 A 
BRANCH  32  33
ATOM     33  C   UNL A   1      40.424  28.512  30.723  1.00  0.00     0.031 A 
ATOM     34  C   UNL A   1      41.363  28.456  31.895  1.00  0.00     0.074 A 
ATOM     35  C   UNL A   1      39.543  29.523  30.612  1.00  0.00     0.049 A 
ATOM     36  N   UNL A   1      41.434  29.247  32.934  1.00  0.00    -0.248 NA
ATOM     37  C   UNL A   1      42.356  27.371  31.893  1.00  0.00     0.031 C 
ATOM     38  C   UNL A   1      38.611  29.711  29.499  1.00  0.00     0.029 A 
ATOM     39  N   UNL A   1      39.290  30.585  31.445  1.00  0.00    -0.354 N 
ATOM     40  C   UNL A   1      42.470  28.753  33.717  1.00  0.00     0.074 A 
ATOM     41  C   UNL A   1      42.990  27.584  33.038  1.00  0.00     0.031 C 
ATOM     42  C   UNL A   1      37.888  30.822  29.717  1.00  0.00     0.029 A 
ATOM     43  C   UNL A   1      38.280  31.403  30.999  1.00  0.00     0.049 A 
ATOM     44  H   UNL A   1      39.785  30.745  32.280  1.00  0.00     0.167 HD
ATOM     45  C   UNL A   1      42.945  29.232  34.892  1.00  0.00     0.037 A 
ATOM     46  C   UNL A   1      37.719  32.487  31.570  1.00  0.00     0.037 A 
ATOM     47  C   UNL A   1      42.428  30.395  35.564  1.00  0.00     0.049 A 
ATOM     48  C   UNL A   1      38.224  32.965  32.903  1.00  0.00     0.074 A 
ATOM     49  C   UNL A   1      42.845  30.957  36.759  1.00  0.00     0.029 A 
ATOM     50  N   UNL A   1      41.378  31.175  35.103  1.00  0.00    -0.354 N 
ATOM     51  N   UNL A   1      39.199  32.481  33.636  1.00  0.00    -0.248 NA
ATOM     52  C   UNL A   1      37.548  34.129  33.493  1.00  0.00     0.031 C 
ATOM     53  C   UNL A   1      42.028  32.060  37.034  1.00  0.00     0.029 A 
ATOM     54  C   UNL A   1      41.123  32.203  35.995  1.00  0.00     0.049 A 
ATOM     55  H   UNL A   1      40.886  31.020  34.264  1.00  0.00     0.167 HD
ATOM     56  C   UNL A   1      39.263  33.290  34.764  1.00  0.00     0.074 A 
ATOM     57  C   UNL A   1      38.234  34.300  34.615  1.00  0.00     0.031 C 
ATOM     58  C   UNL A   1      40.097  33.201  35.831  1.00  0.00     0.037 A 
BRANCH  45  59
ATOM     59  C   UNL A   1      44.069  28.474  35.537  1.00  0.00     0.058 A 
ATOM     60  C   UNL A   1      45.411  28.743  35.226  1.00  0.00     0.135 A 
ATOM     61  C   UNL A   1      43.801  27.475  36.485  1.00  0.00     0.135 A 
ATOM     62  F   UNL A   1      45.718  29.678  34.312  1.00  0.00    -0.206 F 
ATOM     63  C   UNL A   1      46.449  28.027  35.812  1.00  0.00     0.059 A 
ATOM     64  C   UNL A   1      44.825  26.759  37.098  1.00  0.00     0.059 A 
ATOM     65  F   UNL A   1      42.535  27.178  36.815  1.00  0.00    -0.206 F 
ATOM     66  C   UNL A   1      46.145  27.030  36.742  1.00  0.00     0.060 A 
BRANCH  66  67
ATOM     67  S   UNL A   1      47.498  26.091  37.481  1.00  0.00     0.124 S 
ATOM     68  O   UNL A   1      48.106  27.096  38.348  1.00  0.00    -0.237 OA
ATOM     69  O   UNL A   1      46.798  25.008  38.162  1.00  0.00    -0.237 OA
ATOM     70  O   UNL A   1      48.299  25.689  36.329  1.00  0.00    -0.744 OA
ENDBRANCH  66  67
ENDBRANCH  45  59
BRANCH  46  71
ATOM     71  C   UNL A   1      36.600  33.185  30.886  1.00  0.00     0.058 A 
ATOM     72  C   UNL A   1      35.278  33.028  31.320  1.00  0.00     0.135 A 
ATOM     73  C   UNL A   1      36.839  34.036  29.796  1.00  0.00     0.135 A 
ATOM     74  F   UNL A   1      35.002  32.218  32.354  1.00  0.00    -0.206 F 
ATOM     75  C   UNL A   1      34.225  33.688  30.695  1.00  0.00     0.059 A 
ATOM     76  C   UNL A   1      35.806  34.721  29.167  1.00  0.00     0.059 A 
ATOM     77  F   UNL A   1      38.091  34.223  29.350  1.00  0.00    -0.206 F 
ATOM     78  C   UNL A   1      34.500  34.535  29.619  1.00  0.00     0.060 A 
BRANCH  78  79
ATOM     79  S   UNL A   1      33.139  35.437  28.848  1.00  0.00     0.124 S 
ATOM     80  O   UNL A   1      32.394  35.894  30.014  1.00  0.00    -0.237 OA
ATOM     81  O   UNL A   1      33.839  36.471  28.091  1.00  0.00    -0.237 OA
ATOM     82  O   UNL A   1      32.481  34.416  28.036  1.00  0.00    -0.744 OA
ENDBRANCH  78  79
ENDBRANCH  46  71
BRANCH  58  83
ATOM     83  C   UNL A   1      39.947  34.235  36.909  1.00  0.00     0.058 A 
ATOM     84  C   UNL A   1      40.623  35.463  36.843  1.00  0.00     0.135 A 
ATOM     85  C   UNL A   1      39.078  34.018  37.989  1.00  0.00     0.135 A 
ATOM     86  F   UNL A   1      41.469  35.714  35.833  1.00  0.00    -0.206 F 
ATOM     87  C   UNL A   1      40.454  36.437  37.822  1.00  0.00     0.059 A 
ATOM     88  C   UNL A   1      38.880  34.984  38.970  1.00  0.00     0.059 A 
ATOM     89  F   UNL A   1      38.403  32.862  38.091  1.00  0.00    -0.206 F 
ATOM     90  C   UNL A   1      39.580  36.188  38.883  1.00  0.00     0.060 A 
BRANCH  90  91
ATOM     91  S   UNL A   1      39.333  37.473  40.128  1.00  0.00     0.124 S 
ATOM     92  O   UNL A   1      40.677  38.027  40.246  1.00  0.00    -0.237 OA
ATOM     93  O   UNL A   1      38.343  38.339  39.498  1.00  0.00    -0.237 OA
ATOM     94  O   UNL A   1      38.855  36.728  41.290  1.00  0.00    -0.744 OA
ENDBRANCH  90  91
ENDBRANCH  58  83
ENDBRANCH  32  33
ENDBRANCH  25  27
ENDBRANCH  24  25
ENDBRANCH  23  24
ENDBRANCH  22  23
ENDBRANCH  21  22
ENDBRANCH   1  21
TORSDOF 21
ENDMDL
MODEL 2
REMARK VINA RESULT:     -10.0      3.551      9.266
REMARK SMILES COC(=O)CCN(C)C(=O)NCc1ccc(C(=O)OCCOC(=O)c2ccc(-c3c4nc(c(-c5c(F)cc(S(=O)(=O)[O-])cc5F)c5ccc([nH]5)c(-c5c(F)cc(S(=O)(=O)[O-])cc5F)c5nc(c(-c6c(F)cc(S(=O)(=O)[O-])cc6F)c6ccc3[nH]6)C=C5)C=C4)cc2)o1
REMARK SMILES IDX 17 1 18 2 16 3 13 4 14 5 91 6 15 7 12 8 11 9 9 10 10 11 7 13
REMARK SMILES IDX 8 14 6 15 5 16 3 17 4 18 2 19 1 20 19 21 20 22 21 23 22 24
REMARK SMILES IDX 23 25 24 26 25 27 26 28 90 29 27 30 89 31 28 32 29 33 30 34
REMARK SMILES IDX 83 35 31 36 88 37 82 38 84 39 32 40 87 41 81 42 80 43 33 45
REMARK SMILES IDX 67 46 46 47 66 48 47 49 50 50 65 51 85 52 48 53 49 54 64 56
REMARK SMILES IDX 86 57 51 58 34 59 35 60 44 61 36 62 37 63 43 64 45 65 38 66
REMARK SMILES IDX 39 67 40 68 41 69 42 70 68 71 69 72 78 73 70 74 71 75 77 76
REMARK SMILES IDX 79 77 72 78 73 79 74 80 75 81 76 82 52 83 53 84 62 85 54 86
REMARK SMILES IDX 55 87 61 88 63 89 56 90 57 91 58 92 59 93 60 94
REMARK H PARENT 11 12 84 44 50 55
REMARK Flexibility Score: inf
ROOT
ATOM      1  C   UNL A   1      35.370  33.293  28.339  1.00  0.00     0.374 C 
ATOM      2  O   UNL A   1      36.376  33.781  28.823  1.00  0.00    -0.242 OA
ENDROOT
BRANCH   1   3
ATOM      3  C   UNL A   1      35.155  31.888  28.070  1.00  0.00     0.211 A 
ATOM      4  C   UNL A   1      34.038  30.225  27.145  1.00  0.00     0.124 A 
ATOM      5  C   UNL A   1      35.212  29.684  27.623  1.00  0.00     0.048 A 
ATOM      6  O   UNL A   1      33.975  31.545  27.469  1.00  0.00    -0.452 OA
ATOM      7  C   UNL A   1      35.931  30.754  28.215  1.00  0.00     0.058 A 
BRANCH   4   8
ATOM      8  C   UNL A   1      32.882  29.695  26.379  1.00  0.00     0.193 C 
BRANCH   8   9
ATOM      9  N   UNL A   1      33.321  29.485  25.023  1.00  0.00    -0.331 N 
ATOM     10  C   UNL A   1      32.797  29.025  23.881  1.00  0.00     0.317 C 
ATOM     11  O   UNL A   1      33.553  29.106  22.906  1.00  0.00    -0.249 OA
ATOM     12  H   UNL A   1      34.262  29.753  24.904  1.00  0.00     0.165 HD
BRANCH  10  13
ATOM     13  N   UNL A   1      31.524  28.543  23.767  1.00  0.00    -0.327 N 
ATOM     14  C   UNL A   1      31.090  27.164  23.913  1.00  0.00     0.148 C 
BRANCH  13  15
ATOM     15  C   UNL A   1      30.456  29.522  23.506  1.00  0.00     0.132 C 
BRANCH  15  16
ATOM     16  C   UNL A   1      30.086  29.604  22.030  1.00  0.00     0.144 C 
BRANCH  16  17
ATOM     17  C   UNL A   1      28.810  30.382  21.840  1.00  0.00     0.307 C 
ATOM     18  O   UNL A   1      28.051  30.234  20.890  1.00  0.00    -0.252 OA
BRANCH  17  19
ATOM     19  O   UNL A   1      28.633  31.269  22.859  1.00  0.00    -0.469 OA
ATOM     20  C   UNL A   1      28.665  32.636  22.455  1.00  0.00     0.282 C 
ENDBRANCH  17  19
ENDBRANCH  16  17
ENDBRANCH  15  16
ENDBRANCH  13  15
ENDBRANCH  10  13
ENDBRANCH   8   9
ENDBRANCH   4   8
ENDBRANCH   1   3
BRANCH   1  21
ATOM     21  O   UNL A   1      34.224  33.993  28.072  1.00  0.00    -0.456 OA
BRANCH  21  22
ATOM     22  C   UNL A   1      34.309  35.412  28.291  1.00  0.00     0.275 C 
BRANCH  22  23
ATOM     23  C   UNL A   1      33.181  35.901  29.208  1.00  0.00     0.275 C 
BRANCH  23  24
ATOM     24  O   UNL A   1      32.758  34.890  30.145  1.00  0.00    -0.458 OA
BRANCH  24  25
ATOM     25  C   UNL A   1      32.884  35.215  31.454  1.00  0.00     0.338 C 
ATOM     26  O   UNL A   1      32.083  35.843  32.128  1.00  0.00    -0.246 OA
BRANCH  25  27
ATOM     27  C   UNL A   1      34.097  34.592  32.016  1.00  0.00     0.060 A 
ATOM     28  C   UNL A   1      35.249  35.375  32.110  1.00  0.00     0.016 A 
ATOM     29  C   UNL A   1      34.131  33.246  32.386  1.00  0.00     0.016 A 
ATOM     30  C   UNL A   1      36.441  34.824  32.575  1.00  0.00     0.010 A 
ATOM     31  C   UNL A   1      35.330  32.689  32.850  1.00  0.00     0.010 A 
ATOM     32  C   UNL A   1      36.493  33.473  32.939  1.00  0.00    -0.014 A 
BRANCH  32  33
ATOM     33  C   UNL A   1      37.784  32.890  33.379  1.00  0.00     0.031 A 
ATOM     34  C   UNL A   1      38.269  33.111  34.784  1.00  0.00     0.074 A 
ATOM     35  C   UNL A   1      38.496  32.124  32.531  1.00  0.00     0.049 A 
ATOM     36  N   UNL A   1      39.377  32.707  35.347  1.00  0.00    -0.248 NA
ATOM     37  C   UNL A   1      37.386  33.881  35.672  1.00  0.00     0.031 C 
ATOM     38  C   UNL A   1      38.107  31.799  31.158  1.00  0.00     0.029 A 
ATOM     39  N   UNL A   1      39.696  31.478  32.702  1.00  0.00    -0.354 N 
ATOM     40  C   UNL A   1      39.335  33.182  36.652  1.00  0.00     0.074 A 
ATOM     41  C   UNL A   1      38.094  33.916  36.793  1.00  0.00     0.031 C 
ATOM     42  C   UNL A   1      39.050  31.014  30.612  1.00  0.00     0.029 A 
ATOM     43  C   UNL A   1      40.124  30.810  31.580  1.00  0.00     0.049 A 
ATOM     44  H   UNL A   1      40.200  31.492  33.547  1.00  0.00     0.167 HD
ATOM     45  C   UNL A   1      40.245  33.018  37.642  1.00  0.00     0.037 A 
ATOM     46  C   UNL A   1      41.263  30.128  31.353  1.00  0.00     0.037 A 
ATOM     47  C   UNL A   1      41.476  32.286  37.501  1.00  0.00     0.049 A 
ATOM     48  C   UNL A   1      42.286  30.010  32.449  1.00  0.00     0.074 A 
ATOM     49  C   UNL A   1      42.462  32.066  38.449  1.00  0.00     0.029 A 
ATOM     50  N   UNL A   1      41.895  31.657  36.339  1.00  0.00    -0.354 N 
ATOM     51  N   UNL A   1      42.234  30.472  33.676  1.00  0.00    -0.248 NA
ATOM     52  C   UNL A   1      43.525  29.286  32.130  1.00  0.00     0.031 C 
ATOM     53  C   UNL A   1      43.489  31.328  37.850  1.00  0.00     0.029 A 
ATOM     54  C   UNL A   1      43.130  31.062  36.539  1.00  0.00     0.049 A 
ATOM     55  H   UNL A   1      41.388  31.637  35.494  1.00  0.00     0.167 HD
ATOM     56  C   UNL A   1      43.425  30.084  34.278  1.00  0.00     0.074 A 
ATOM     57  C   UNL A   1      44.174  29.341  33.285  1.00  0.00     0.031 C 
ATOM     58  C   UNL A   1      43.861  30.324  35.540  1.00  0.00     0.037 A 
BRANCH  45  59
ATOM     59  C   UNL A   1      39.948  33.670  38.962  1.00  0.00     0.058 A 
ATOM     60  C   UNL A   1      40.548  34.883  39.333  1.00  0.00     0.135 A 
ATOM     61  C   UNL A   1      39.046  33.080  39.860  1.00  0.00     0.135 A 
ATOM     62  F   UNL A   1      41.431  35.478  38.516  1.00  0.00    -0.206 F 
ATOM     63  C   UNL A   1      40.284  35.475  40.564  1.00  0.00     0.059 A 
ATOM     64  C   UNL A   1      38.752  33.664  41.088  1.00  0.00     0.059 A 
ATOM     65  F   UNL A   1      38.448  31.918  39.552  1.00  0.00    -0.206 F 
ATOM     66  C   UNL A   1      39.391  34.853  41.439  1.00  0.00     0.060 A 
BRANCH  66  67
ATOM     67  S   UNL A   1      39.072  35.618  43.042  1.00  0.00     0.124 S 
ATOM     68  O   UNL A   1      37.640  35.379  43.196  1.00  0.00    -0.237 OA
ATOM     69  O   UNL A   1      39.941  34.858  43.935  1.00  0.00    -0.237 OA
ATOM     70  O   UNL A   1      39.457  37.011  42.835  1.00  0.00    -0.744 OA
ENDBRANCH  66  67
ENDBRANCH  45  59
BRANCH  46  71
ATOM     71  C   UNL A   1      41.503  29.517  30.020  1.00  0.00     0.058 A 
ATOM     72  C   UNL A   1      41.019  28.240  29.714  1.00  0.00     0.135 A 
ATOM     73  C   UNL A   1      42.207  30.211  29.024  1.00  0.00     0.135 A 
ATOM     74  F   UNL A   1      40.348  27.536  30.638  1.00  0.00    -0.206 F 
ATOM     75  C   UNL A   1      41.226  27.665  28.464  1.00  0.00     0.059 A 
ATOM     76  C   UNL A   1      42.411  29.666  27.762  1.00  0.00     0.059 A 
ATOM     77  F   UNL A   1      42.683  31.442  29.270  1.00  0.00    -0.206 F 
ATOM     78  C   UNL A   1      41.923  28.388  27.493  1.00  0.00     0.060 A 
BRANCH  78  79
ATOM     79  S   UNL A   1      42.138  27.664  25.853  1.00  0.00     0.124 S 
ATOM     80  O   UNL A   1      43.400  26.952  26.011  1.00  0.00    -0.237 OA
ATOM     81  O   UNL A   1      40.947  26.831  25.721  1.00  0.00    -0.237 OA
ATOM     82  O   UNL A   1      42.176  28.832  24.976  1.00  0.00    -0.744 OA
ENDBRANCH  78  79
ENDBRANCH  46  71
BRANCH  58  83
ATOM     83  C   UNL A   1      45.198  29.760  35.925  1.00  0.00     0.058 A 
ATOM     84  C   UNL A   1      46.377  30.504  35.768  1.00  0.00     0.135 A 
ATOM     85  C   UNL A   1      45.294  28.487  36.506  1.00  0.00     0.135 A 
ATOM     86  F   UNL A   1      46.337  31.724  35.211  1.00  0.00    -0.206 F 
ATOM     87  C   UNL A   1      47.612  29.996  36.161  1.00  0.00     0.059 A 
ATOM     88  C   UNL A   1      46.515  27.966  36.923  1.00  0.00     0.059 A 
ATOM     89  F   UNL A   1      44.192  27.740  36.684  1.00  0.00    -0.206 F 
ATOM     90  C   UNL A   1      47.670  28.726  36.737  1.00  0.00     0.060 A 
BRANCH  90  91
ATOM     91  S   UNL A   1      49.271  28.091  37.284  1.00  0.00     0.124 S 
ATOM     92  O   UNL A   1      49.022  27.851  38.701  1.00  0.00    -0.237 OA
ATOM     93  O   UNL A   1      49.436  26.899  36.458  1.00  0.00    -0.237 OA
ATOM     94  O   UNL A   1      50.189  29.185  36.982  1.00  0.00    -0.744 OA
ENDBRANCH  90  91
ENDBRANCH  58  83
ENDBRANCH  32  33
ENDBRANCH  25  27
ENDBRANCH  24  25
ENDBRANCH  23  24
ENDBRANCH  22  23
ENDBRANCH  21  22
ENDBRANCH   1  21
TORSDOF 21
ENDMDL
MODEL 3
REMARK VINA RESULT:      -9.8      6.811      8.907
REMARK SMILES COC(=O)CCN(C)C(=O)NCc1ccc(C(=O)OCCOC(=O)c2ccc(-c3c4nc(c(-c5c(F)cc(S(=O)(=O)[O-])cc5F)c5ccc([nH]5)c(-c5c(F)cc(S(=O)(=O)[O-])cc5F)c5nc(c(-c6c(F)cc(S(=O)(=O)[O-])cc6F)c6ccc3[nH]6)C=C5)C=C4)cc2)o1
REMARK SMILES IDX 17 1 18 2 16 3 13 4 14 5 91 6 15 7 12 8 11 9 9 10 10 11 7 13
REMARK SMILES IDX 8 14 6 15 5 16 3 17 4 18 2 19 1 20 19 21 20 22 21 23 22 24
REMARK SMILES IDX 23 25 24 26 25 27 26 28 90 29 27 30 89 31 28 32 29 33 30 34
REMARK SMILES IDX 83 35 31 36 88 37 82 38 84 39 32 40 87 41 81 42 80 43 33 45
REMARK SMILES IDX 67 46 46 47 66 48 47 49 50 50 65 51 85 52 48 53 49 54 64 56
REMARK SMILES IDX 86 57 51 58 34 59 35 60 44 61 36 62 37 63 43 64 45 65 38 66
REMARK SMILES IDX 39 67 40 68 41 69 42 70 68 71 69 72 78 73 70 74 71 75 77 76
REMARK SMILES IDX 79 77 72 78 73 79 74 80 75 81 76 82 52 83 53 84 62 85 54 86
REMARK SMILES IDX 55 87 61 88 63 89 56 90 57 91 58 92 59 93 60 94
REMARK H PARENT 11 12 84 44 50 55
REMARK Flexibility Score: inf
ROOT
ATOM      1  C   UNL A   1      40.310  21.863  26.871  1.00  0.00     0.374 C 
ATOM      2  O   UNL A   1      40.985  21.896  27.884  1.00  0.00    -0.242 OA
ENDROOT
BRANCH   1   3
ATOM      3  C   UNL A   1      39.258  22.794  26.525  1.00  0.00     0.211 A 
ATOM      4  C   UNL A   1      37.346  23.305  25.550  1.00  0.00     0.124 A 
ATOM      5  C   UNL A   1      37.670  24.378  26.350  1.00  0.00     0.048 A 
ATOM      6  O   UNL A   1      38.335  22.372  25.607  1.00  0.00    -0.452 OA
ATOM      7  C   UNL A   1      38.898  24.048  26.979  1.00  0.00     0.058 A 
BRANCH   4   8
ATOM      8  C   UNL A   1      36.191  22.964  24.680  1.00  0.00     0.193 C 
BRANCH   8   9
ATOM      9  N   UNL A   1      35.074  23.768  25.111  1.00  0.00    -0.331 N 
ATOM     10  C   UNL A   1      33.958  23.594  25.827  1.00  0.00     0.317 C 
ATOM     11  O   UNL A   1      33.308  24.629  26.015  1.00  0.00    -0.249 OA
ATOM     12  H   UNL A   1      35.155  24.697  24.792  1.00  0.00     0.165 HD
BRANCH  10  13
ATOM     13  N   UNL A   1      33.570  22.394  26.353  1.00  0.00    -0.327 N 
ATOM     14  C   UNL A   1      34.085  21.753  27.551  1.00  0.00     0.148 C 
BRANCH  13  15
ATOM     15  C   UNL A   1      32.483  21.678  25.664  1.00  0.00     0.132 C 
BRANCH  15  16
ATOM     16  C   UNL A   1      32.964  20.946  24.418  1.00  0.00     0.144 C 
BRANCH  16  17
ATOM     17  C   UNL A   1      33.342  19.525  24.743  1.00  0.00     0.307 C 
ATOM     18  O   UNL A   1      34.463  19.058  24.577  1.00  0.00    -0.252 OA
BRANCH  17  19
ATOM     19  O   UNL A   1      32.270  18.843  25.233  1.00  0.00    -0.469 OA
ATOM     20  C   UNL A   1      32.541  17.479  25.549  1.00  0.00     0.282 C 
ENDBRANCH  17  19
ENDBRANCH  16  17
ENDBRANCH  15  16
ENDBRANCH  13  15
ENDBRANCH  10  13
ENDBRANCH   8   9
ENDBRANCH   4   8
ENDBRANCH   1   3
BRANCH   1  21
ATOM     21  O   UNL A   1      40.516  20.994  25.834  1.00  0.00    -0.456 OA
BRANCH  21  22
ATOM     22  C   UNL A   1      40.626  19.610  26.207  1.00  0.00     0.275 C 
BRANCH  22  23
ATOM     23  C   UNL A   1      42.085  19.139  26.175  1.00  0.00     0.275 C 
BRANCH  23  24
ATOM     24  O   UNL A   1      42.688  19.309  24.876  1.00  0.00    -0.458 OA
BRANCH  24  25
ATOM     25  C   UNL A   1      44.004  19.630  24.879  1.00  0.00     0.338 C 
ATOM     26  O   UNL A   1      44.924  18.930  24.490  1.00  0.00    -0.246 OA
BRANCH  25  27
ATOM     27  C   UNL A   1      44.183  21.027  25.318  1.00  0.00     0.060 A 
ATOM     28  C   UNL A   1      44.181  22.024  24.340  1.00  0.00     0.016 A 
ATOM     29  C   UNL A   1      44.416  21.355  26.655  1.00  0.00     0.016 A 
ATOM     30  C   UNL A   1      44.407  23.353  24.688  1.00  0.00     0.010 A 
ATOM     31  C   UNL A   1      44.649  22.692  27.005  1.00  0.00     0.010 A 
ATOM     32  C   UNL A   1      44.653  23.697  26.023  1.00  0.00    -0.014 A 
BRANCH  32  33
ATOM     33  C   UNL A   1      44.948  25.109  26.366  1.00  0.00     0.031 A 
ATOM     34  C   UNL A   1      46.341  25.647  26.202  1.00  0.00     0.074 A 
ATOM     35  C   UNL A   1      43.956  25.919  26.781  1.00  0.00     0.049 A 
ATOM     36  N   UNL A   1      46.802  26.841  26.471  1.00  0.00    -0.248 NA
ATOM     37  C   UNL A   1      47.345  24.722  25.655  1.00  0.00     0.031 C 
ATOM     38  C   UNL A   1      42.555  25.525  26.936  1.00  0.00     0.029 A 
ATOM     39  N   UNL A   1      43.975  27.243  27.144  1.00  0.00    -0.354 N 
ATOM     40  C   UNL A   1      48.150  26.811  26.140  1.00  0.00     0.074 A 
ATOM     41  C   UNL A   1      48.437  25.474  25.661  1.00  0.00     0.031 C 
ATOM     42  C   UNL A   1      41.848  26.585  27.362  1.00  0.00     0.029 A 
ATOM     43  C   UNL A   1      42.749  27.719  27.544  1.00  0.00     0.049 A 
ATOM     44  H   UNL A   1      44.788  27.797  27.121  1.00  0.00     0.167 HD
ATOM     45  C   UNL A   1      49.065  27.807  26.224  1.00  0.00     0.037 A 
ATOM     46  C   UNL A   1      42.398  28.929  28.023  1.00  0.00     0.037 A 
ATOM     47  C   UNL A   1      48.778  29.136  26.698  1.00  0.00     0.049 A 
ATOM     48  C   UNL A   1      43.443  30.001  28.163  1.00  0.00     0.074 A 
ATOM     49  C   UNL A   1      49.640  30.213  26.819  1.00  0.00     0.029 A 
ATOM     50  N   UNL A   1      47.535  29.570  27.132  1.00  0.00    -0.354 N 
ATOM     51  N   UNL A   1      44.717  29.954  27.853  1.00  0.00    -0.248 NA
ATOM     52  C   UNL A   1      43.007  31.287  28.727  1.00  0.00     0.031 C 
ATOM     53  C   UNL A   1      48.923  31.290  27.354  1.00  0.00     0.029 A 
ATOM     54  C   UNL A   1      47.609  30.893  27.536  1.00  0.00     0.049 A 
ATOM     55  H   UNL A   1      46.719  29.018  27.151  1.00  0.00     0.167 HD
ATOM     56  C   UNL A   1      45.230  31.206  28.171  1.00  0.00     0.074 A 
ATOM     57  C   UNL A   1      44.129  31.992  28.688  1.00  0.00     0.031 C 
ATOM     58  C   UNL A   1      46.502  31.662  28.047  1.00  0.00     0.037 A 
BRANCH  45  59
ATOM     59  C   UNL A   1      50.473  27.482  25.816  1.00  0.00     0.058 A 
ATOM     60  C   UNL A   1      50.895  27.591  24.482  1.00  0.00     0.135 A 
ATOM     61  C   UNL A   1      51.412  27.068  26.772  1.00  0.00     0.135 A 
ATOM     62  F   UNL A   1      50.029  27.967  23.527  1.00  0.00    -0.206 F 
ATOM     63  C   UNL A   1      52.195  27.272  24.105  1.00  0.00     0.059 A 
ATOM     64  C   UNL A   1      52.723  26.761  26.421  1.00  0.00     0.059 A 
ATOM     65  F   UNL A   1      51.057  26.945  28.060  1.00  0.00    -0.206 F 
ATOM     66  C   UNL A   1      53.101  26.850  25.082  1.00  0.00     0.060 A 
BRANCH  66  67
ATOM     67  S   UNL A   1      54.780  26.417  24.579  1.00  0.00     0.124 S 
ATOM     68  O   UNL A   1      54.820  24.995  24.903  1.00  0.00    -0.237 OA
ATOM     69  O   UNL A   1      54.779  26.743  23.156  1.00  0.00    -0.237 OA
ATOM     70  O   UNL A   1      55.614  27.275  25.414  1.00  0.00    -0.744 OA
ENDBRANCH  66  67
ENDBRANCH  45  59
BRANCH  46  71
ATOM     71  C   UNL A   1      40.990  29.182  28.422  1.00  0.00     0.058 A 
ATOM     72  C   UNL A   1      39.986  29.354  27.460  1.00  0.00     0.135 A 
ATOM     73  C   UNL A   1      40.621  29.239  29.774  1.00  0.00     0.135 A 
ATOM     74  F   UNL A   1      40.295  29.316  26.154  1.00  0.00    -0.206 F 
ATOM     75  C   UNL A   1      38.662  29.579  27.823  1.00  0.00     0.059 A 
ATOM     76  C   UNL A   1      39.302  29.443  30.162  1.00  0.00     0.059 A 
ATOM     77  F   UNL A   1      41.547  29.072  30.731  1.00  0.00    -0.206 F 
ATOM     78  C   UNL A   1      38.330  29.620  29.179  1.00  0.00     0.060 A 
BRANCH  78  79
ATOM     79  S   UNL A   1      36.601  29.851  29.647  1.00  0.00     0.124 S 
ATOM     80  O   UNL A   1      36.529  29.087  30.885  1.00  0.00    -0.237 OA
ATOM     81  O   UNL A   1      36.506  31.301  29.784  1.00  0.00    -0.237 OA
ATOM     82  O   UNL A   1      35.872  29.289  28.512  1.00  0.00    -0.744 OA
ENDBRANCH  78  79
ENDBRANCH  46  71
BRANCH  58  83
ATOM     83  C   UNL A   1      46.766  33.082  28.457  1.00  0.00     0.058 A 
ATOM     84  C   UNL A   1      46.620  34.144  27.552  1.00  0.00     0.135 A 
ATOM     85  C   UNL A   1      47.117  33.387  29.781  1.00  0.00     0.135 A 
ATOM     86  F   UNL A   1      46.292  33.900  26.274  1.00  0.00    -0.206 F 
ATOM     87  C   UNL A   1      46.827  35.463  27.943  1.00  0.00     0.059 A 
ATOM     88  C   UNL A   1      47.312  34.700  30.198  1.00  0.00     0.059 A 
ATOM     89  F   UNL A   1      47.262  32.406  30.686  1.00  0.00    -0.206 F 
ATOM     90  C   UNL A   1      47.173  35.731  29.268  1.00  0.00     0.060 A 
BRANCH  90  91
ATOM     91  S   UNL A   1      47.400  37.449  29.779  1.00  0.00     0.124 S 
ATOM     92  O   UNL A   1      48.805  37.668  29.452  1.00  0.00    -0.237 OA
ATOM     93  O   UNL A   1      46.437  38.158  28.943  1.00  0.00    -0.237 OA
ATOM     94  O   UNL A   1      47.081  37.422  31.203  1.00  0.00    -0.744 OA
ENDBRANCH  90  91
ENDBRANCH  58  83
ENDBRANCH  32  33
ENDBRANCH  25  27
ENDBRANCH  24  25
ENDBRANCH  23  24
ENDBRANCH  22  23
ENDBRANCH  21  22
ENDBRANCH   1  21
TORSDOF 21
ENDMDL
