MODEL 1
REMARK VINA RESULT:     -11.5      0.000      0.000
REMARK SMILES CN(C)c1cc(C(F)(F)F)cc(-c2cccc(/C=C/C(=O)OCCOC(=O)c3ccc(-c4c5nc(c(-c6c(F)cc(S(=O)(=O)[O-])cc6F)c6ccc([nH]6)c(-c6c(F)cc(S(=O)(=O)[O-])cc6F)c6nc(c(-c7c(F)cc(S(=O)(=O)[O-])cc7F)c7ccc4[nH]7)C=C6)C=C5)cc3)c2)n1
REMARK SMILES IDX 23 1 22 2 20 3 21 4 19 5 18 6 17 7 13 8 14 9 94 10 15 11
REMARK SMILES IDX 16 12 12 13 4 14 5 15 95 16 6 17 11 18 2 19 1 20 3 21 7 22
REMARK SMILES IDX 8 23 9 24 10 25 24 26 25 27 26 28 27 29 28 30 29 31 93 32
REMARK SMILES IDX 30 33 92 34 31 35 32 36 33 37 86 38 34 39 91 40 85 41 87 42
REMARK SMILES IDX 35 43 90 44 84 45 83 46 36 48 70 49 49 50 69 51 50 52 53 53
REMARK SMILES IDX 68 54 88 55 51 56 52 57 67 59 89 60 54 61 37 62 38 63 47 64
REMARK SMILES IDX 39 65 40 66 46 67 48 68 41 69 42 70 43 71 44 72 45 73 71 74
REMARK SMILES IDX 72 75 81 76 73 77 74 78 80 79 82 80 75 81 76 82 77 83 78 84
REMARK SMILES IDX 79 85 55 86 56 87 65 88 57 89 58 90 64 91 66 92 59 93 60 94
REMARK SMILES IDX 61 95 62 96 63 97
REMARK H PARENT 87 47 53 58
REMARK Flexibility Score: inf
ROOT
ATOM      1  C   UNL A   1      44.253  22.465  25.100  1.00  0.00     0.275 C 
ENDROOT
BRANCH   1   2
ATOM      2  O   UNL A   1      43.927  21.556  26.167  1.00  0.00    -0.459 OA
BRANCH   2   3
ATOM      3  C   UNL A   1      42.781  20.852  26.016  1.00  0.00     0.330 C 
ATOM      4  O   UNL A   1      42.694  19.645  25.841  1.00  0.00    -0.247 OA
BRANCH   3   5
ATOM      5  C   UNL A   1      41.573  21.696  26.135  1.00  0.00     0.094 C 
ATOM      6  C   UNL A   1      40.311  21.244  26.090  1.00  0.00     0.015 C 
BRANCH   6   7
ATOM      7  C   UNL A   1      39.138  22.127  26.123  1.00  0.00    -0.025 A 
ATOM      8  C   UNL A   1      36.765  22.469  25.606  1.00  0.00     0.001 A 
ATOM      9  C   UNL A   1      36.892  23.805  26.014  1.00  0.00     0.010 A 
ATOM     10  C   UNL A   1      37.906  21.645  25.658  1.00  0.00     0.018 A 
ATOM     11  C   UNL A   1      38.112  24.298  26.478  1.00  0.00     0.001 A 
ATOM     12  C   UNL A   1      39.229  23.465  26.530  1.00  0.00     0.008 A 
BRANCH   8  13
ATOM     13  C   UNL A   1      35.476  21.945  25.141  1.00  0.00     0.073 A 
ATOM     14  C   UNL A   1      33.333  22.470  24.358  1.00  0.00     0.129 A 
ATOM     15  C   UNL A   1      33.032  21.114  24.253  1.00  0.00     0.060 A 
ATOM     16  N   UNL A   1      34.548  22.868  24.795  1.00  0.00    -0.231 NA
ATOM     17  C   UNL A   1      33.985  20.149  24.599  1.00  0.00     0.061 A 
ATOM     18  C   UNL A   1      35.229  20.581  25.059  1.00  0.00     0.042 A 
BRANCH  14  19
ATOM     19  N   UNL A   1      32.400  23.432  23.976  1.00  0.00    -0.363 N 
ATOM     20  C   UNL A   1      32.457  23.903  22.602  1.00  0.00     0.144 C 
ATOM     21  C   UNL A   1      31.081  23.298  24.582  1.00  0.00     0.144 C 
ENDBRANCH  14  19
BRANCH  17  22
ATOM     22  C   UNL A   1      33.700  18.682  24.465  1.00  0.00     0.416 C 
ATOM     23  F   UNL A   1      34.829  17.924  24.540  1.00  0.00    -0.166 F 
ATOM     24  F   UNL A   1      32.873  18.218  25.441  1.00  0.00    -0.166 F 
ATOM     25  F   UNL A   1      33.106  18.346  23.285  1.00  0.00    -0.166 F 
ENDBRANCH  17  22
ENDBRANCH   8  13
ENDBRANCH   6   7
ENDBRANCH   3   5
ENDBRANCH   2   3
ENDBRANCH   1   2
BRANCH   1  26
ATOM     26  C   UNL A   1      44.604  23.854  25.639  1.00  0.00     0.275 C 
BRANCH  26  27
ATOM     27  O   UNL A   1      43.621  24.336  26.574  1.00  0.00    -0.458 OA
BRANCH  27  28
ATOM     28  C   UNL A   1      42.793  25.294  26.089  1.00  0.00     0.338 C 
ATOM     29  O   UNL A   1      42.376  25.394  24.948  1.00  0.00    -0.246 OA
BRANCH  28  30
ATOM     30  C   UNL A   1      42.350  26.175  27.186  1.00  0.00     0.060 A 
ATOM     31  C   UNL A   1      42.971  27.420  27.318  1.00  0.00     0.016 A 
ATOM     32  C   UNL A   1      41.387  25.762  28.111  1.00  0.00     0.016 A 
ATOM     33  C   UNL A   1      42.636  28.257  28.381  1.00  0.00     0.010 A 
ATOM     34  C   UNL A   1      41.054  26.602  29.178  1.00  0.00     0.010 A 
ATOM     35  C   UNL A   1      41.685  27.850  29.326  1.00  0.00    -0.014 A 
BRANCH  35  36
ATOM     36  C   UNL A   1      41.387  28.717  30.493  1.00  0.00     0.031 A 
ATOM     37  C   UNL A   1      42.253  28.650  31.719  1.00  0.00     0.074 A 
ATOM     38  C   UNL A   1      40.359  29.584  30.439  1.00  0.00     0.049 A 
ATOM     39  N   UNL A   1      42.156  29.320  32.839  1.00  0.00    -0.248 NA
ATOM     40  C   UNL A   1      43.377  27.704  31.677  1.00  0.00     0.031 C 
ATOM     41  C   UNL A   1      39.472  29.767  29.292  1.00  0.00     0.029 A 
ATOM     42  N   UNL A   1      39.894  30.477  31.370  1.00  0.00    -0.354 N 
ATOM     43  C   UNL A   1      43.202  28.876  33.639  1.00  0.00     0.074 A 
ATOM     44  C   UNL A   1      43.903  27.856  32.885  1.00  0.00     0.031 C 
ATOM     45  C   UNL A   1      38.579  30.729  29.579  1.00  0.00     0.029 A 
ATOM     46  C   UNL A   1      38.807  31.202  30.942  1.00  0.00     0.049 A 
ATOM     47  H   UNL A   1      40.300  30.590  32.260  1.00  0.00     0.167 HD
ATOM     48  C   UNL A   1      43.551  29.285  34.882  1.00  0.00     0.037 A 
ATOM     49  C   UNL A   1      38.073  32.134  31.582  1.00  0.00     0.037 A 
ATOM     50  C   UNL A   1      42.847  30.294  35.631  1.00  0.00     0.049 A 
ATOM     51  C   UNL A   1      38.431  32.516  32.992  1.00  0.00     0.074 A 
ATOM     52  C   UNL A   1      43.127  30.786  36.895  1.00  0.00     0.029 A 
ATOM     53  N   UNL A   1      41.713  30.962  35.188  1.00  0.00    -0.354 N 
ATOM     54  N   UNL A   1      39.428  32.094  33.733  1.00  0.00    -0.248 NA
ATOM     55  C   UNL A   1      37.558  33.494  33.656  1.00  0.00     0.031 C 
ATOM     56  C   UNL A   1      42.140  31.718  37.232  1.00  0.00     0.029 A 
ATOM     57  C   UNL A   1      41.267  31.841  36.163  1.00  0.00     0.049 A 
ATOM     58  H   UNL A   1      41.287  30.829  34.311  1.00  0.00     0.167 HD
ATOM     59  C   UNL A   1      39.319  32.775  34.940  1.00  0.00     0.074 A 
ATOM     60  C   UNL A   1      38.161  33.638  34.829  1.00  0.00     0.031 C 
ATOM     61  C   UNL A   1      40.110  32.694  36.039  1.00  0.00     0.037 A 
BRANCH  48  62
ATOM     62  C   UNL A   1      44.733  28.607  35.519  1.00  0.00     0.058 A 
ATOM     63  C   UNL A   1      46.040  29.096  35.358  1.00  0.00     0.135 A 
ATOM     64  C   UNL A   1      44.560  27.443  36.284  1.00  0.00     0.135 A 
ATOM     65  F   UNL A   1      46.263  30.200  34.626  1.00  0.00    -0.206 F 
ATOM     66  C   UNL A   1      47.138  28.429  35.893  1.00  0.00     0.059 A 
ATOM     67  C   UNL A   1      45.641  26.773  36.850  1.00  0.00     0.059 A 
ATOM     68  F   UNL A   1      43.333  26.934  36.473  1.00  0.00    -0.206 F 
ATOM     69  C   UNL A   1      46.929  27.259  36.626  1.00  0.00     0.060 A 
BRANCH  69  70
ATOM     70  S   UNL A   1      48.363  26.373  37.272  1.00  0.00     0.124 S 
ATOM     71  O   UNL A   1      48.240  26.630  38.704  1.00  0.00    -0.237 OA
ATOM     72  O   UNL A   1      48.103  25.000  36.851  1.00  0.00    -0.237 OA
ATOM     73  O   UNL A   1      49.490  27.025  36.612  1.00  0.00    -0.744 OA
ENDBRANCH  69  70
ENDBRANCH  48  62
BRANCH  49  74
ATOM     74  C   UNL A   1      36.934  32.781  30.881  1.00  0.00     0.058 A 
ATOM     75  C   UNL A   1      35.617  32.356  31.107  1.00  0.00     0.135 A 
ATOM     76  C   UNL A   1      37.135  33.854  29.998  1.00  0.00     0.135 A 
ATOM     77  F   UNL A   1      35.378  31.326  31.934  1.00  0.00    -0.206 F 
ATOM     78  C   UNL A   1      34.536  32.971  30.484  1.00  0.00     0.059 A 
ATOM     79  C   UNL A   1      36.068  34.500  29.379  1.00  0.00     0.059 A 
ATOM     80  F   UNL A   1      38.375  34.302  29.754  1.00  0.00    -0.206 F 
ATOM     81  C   UNL A   1      34.772  34.048  29.626  1.00  0.00     0.060 A 
BRANCH  81  82
ATOM     82  S   UNL A   1      33.358  34.885  28.880  1.00  0.00     0.124 S 
ATOM     83  O   UNL A   1      32.888  33.881  27.931  1.00  0.00    -0.237 OA
ATOM     84  O   UNL A   1      32.497  35.123  30.035  1.00  0.00    -0.237 OA
ATOM     85  O   UNL A   1      33.949  36.083  28.291  1.00  0.00    -0.744 OA
ENDBRANCH  81  82
ENDBRANCH  49  74
BRANCH  61  86
ATOM     86  C   UNL A   1      39.766  33.583  37.203  1.00  0.00     0.058 A 
ATOM     87  C   UNL A   1      38.894  33.163  38.220  1.00  0.00     0.135 A 
ATOM     88  C   UNL A   1      40.349  34.854  37.323  1.00  0.00     0.135 A 
ATOM     89  F   UNL A   1      38.303  31.960  38.148  1.00  0.00    -0.206 F 
ATOM     90  C   UNL A   1      38.598  33.980  39.306  1.00  0.00     0.059 A 
ATOM     91  C   UNL A   1      40.085  35.680  38.413  1.00  0.00     0.059 A 
ATOM     92  F   UNL A   1      41.197  35.301  36.383  1.00  0.00    -0.206 F 
ATOM     93  C   UNL A   1      39.198  35.237  39.394  1.00  0.00     0.060 A 
BRANCH  93  94
ATOM     94  S   UNL A   1      38.834  36.277  40.825  1.00  0.00     0.124 S 
ATOM     95  O   UNL A   1      40.120  36.288  41.515  1.00  0.00    -0.237 OA
ATOM     96  O   UNL A   1      38.437  37.538  40.206  1.00  0.00    -0.237 OA
ATOM     97  O   UNL A   1      37.763  35.556  41.506  1.00  0.00    -0.744 OA
ENDBRANCH  93  94
ENDBRANCH  61  86
ENDBRANCH  35  36
ENDBRANCH  28  30
ENDBRANCH  27  28
ENDBRANCH  26  27
ENDBRANCH   1  26
TORSDOF 18
ENDMDL
MODEL 2
REMARK VINA RESULT:     -11.5      6.518     12.638
REMARK SMILES CN(C)c1cc(C(F)(F)F)cc(-c2cccc(/C=C/C(=O)OCCOC(=O)c3ccc(-c4c5nc(c(-c6c(F)cc(S(=O)(=O)[O-])cc6F)c6ccc([nH]6)c(-c6c(F)cc(S(=O)(=O)[O-])cc6F)c6nc(c(-c7c(F)cc(S(=O)(=O)[O-])cc7F)c7ccc4[nH]7)C=C6)C=C5)cc3)c2)n1
REMARK SMILES IDX 23 1 22 2 20 3 21 4 19 5 18 6 17 7 13 8 14 9 94 10 15 11
REMARK SMILES IDX 16 12 12 13 4 14 5 15 95 16 6 17 11 18 2 19 1 20 3 21 7 22
REMARK SMILES IDX 8 23 9 24 10 25 24 26 25 27 26 28 27 29 28 30 29 31 93 32
REMARK SMILES IDX 30 33 92 34 31 35 32 36 33 37 86 38 34 39 91 40 85 41 87 42
REMARK SMILES IDX 35 43 90 44 84 45 83 46 36 48 70 49 49 50 69 51 50 52 53 53
REMARK SMILES IDX 68 54 88 55 51 56 52 57 67 59 89 60 54 61 37 62 38 63 47 64
REMARK SMILES IDX 39 65 40 66 46 67 48 68 41 69 42 70 43 71 44 72 45 73 71 74
REMARK SMILES IDX 72 75 81 76 73 77 74 78 80 79 82 80 75 81 76 82 77 83 78 84
REMARK SMILES IDX 79 85 55 86 56 87 65 88 57 89 58 90 64 91 66 92 59 93 60 94
REMARK SMILES IDX 61 95 62 96 63 97
REMARK H PARENT 87 47 53 58
REMARK Flexibility Score: inf
ROOT
ATOM      1  C   UNL A   1      34.992  33.983  31.066  1.00  0.00     0.275 C 
ENDROOT
BRANCH   1   2
ATOM      2  O   UNL A   1      33.806  34.220  30.287  1.00  0.00    -0.459 OA
BRANCH   2   3
ATOM      3  C   UNL A   1      33.999  34.421  28.962  1.00  0.00     0.330 C 
ATOM      4  O   UNL A   1      34.030  35.503  28.394  1.00  0.00    -0.247 OA
BRANCH   3   5
ATOM      5  C   UNL A   1      34.232  33.162  28.223  1.00  0.00     0.094 C 
ATOM      6  C   UNL A   1      33.282  32.267  27.911  1.00  0.00     0.015 C 
BRANCH   6   7
ATOM      7  C   UNL A   1      33.570  30.985  27.253  1.00  0.00    -0.025 A 
ATOM      8  C   UNL A   1      32.863  29.236  25.685  1.00  0.00     0.001 A 
ATOM      9  C   UNL A   1      33.975  28.474  26.069  1.00  0.00     0.010 A 
ATOM     10  C   UNL A   1      32.671  30.489  26.298  1.00  0.00     0.018 A 
ATOM     11  C   UNL A   1      34.878  28.953  27.019  1.00  0.00     0.001 A 
ATOM     12  C   UNL A   1      34.675  30.201  27.609  1.00  0.00     0.008 A 
BRANCH   8  13
ATOM     13  C   UNL A   1      31.927  28.741  24.669  1.00  0.00     0.073 A 
ATOM     14  C   UNL A   1      31.360  26.969  23.249  1.00  0.00     0.129 A 
ATOM     15  C   UNL A   1      30.265  27.689  22.777  1.00  0.00     0.060 A 
ATOM     16  N   UNL A   1      32.173  27.499  24.188  1.00  0.00    -0.231 NA
ATOM     17  C   UNL A   1      29.995  28.970  23.272  1.00  0.00     0.061 A 
ATOM     18  C   UNL A   1      30.852  29.504  24.233  1.00  0.00     0.042 A 
BRANCH  14  19
ATOM     19  N   UNL A   1      31.608  25.678  22.787  1.00  0.00    -0.363 N 
ATOM     20  C   UNL A   1      30.668  24.640  23.179  1.00  0.00     0.144 C 
ATOM     21  C   UNL A   1      32.176  25.592  21.448  1.00  0.00     0.144 C 
ENDBRANCH  14  19
BRANCH  17  22
ATOM     22  C   UNL A   1      28.803  29.755  22.805  1.00  0.00     0.416 C 
ATOM     23  F   UNL A   1      27.778  28.953  22.403  1.00  0.00    -0.166 F 
ATOM     24  F   UNL A   1      28.291  30.556  23.779  1.00  0.00    -0.166 F 
ATOM     25  F   UNL A   1      29.067  30.575  21.750  1.00  0.00    -0.166 F 
ENDBRANCH  17  22
ENDBRANCH   8  13
ENDBRANCH   6   7
ENDBRANCH   3   5
ENDBRANCH   2   3
ENDBRANCH   1   2
BRANCH   1  26
ATOM     26  C   UNL A   1      35.107  32.512  31.475  1.00  0.00     0.275 C 
BRANCH  26  27
ATOM     27  O   UNL A   1      36.161  31.835  30.765  1.00  0.00    -0.458 OA
BRANCH  27  28
ATOM     28  C   UNL A   1      36.544  30.651  31.304  1.00  0.00     0.338 C 
ATOM     29  O   UNL A   1      35.932  29.986  32.121  1.00  0.00    -0.246 OA
BRANCH  28  30
ATOM     30  C   UNL A   1      37.793  30.193  30.668  1.00  0.00     0.060 A 
ATOM     31  C   UNL A   1      38.782  29.644  31.489  1.00  0.00     0.016 A 
ATOM     32  C   UNL A   1      38.019  30.357  29.299  1.00  0.00     0.016 A 
ATOM     33  C   UNL A   1      40.007  29.261  30.944  1.00  0.00     0.010 A 
ATOM     34  C   UNL A   1      39.250  29.975  28.754  1.00  0.00     0.010 A 
ATOM     35  C   UNL A   1      40.256  29.436  29.575  1.00  0.00    -0.014 A 
BRANCH  35  36
ATOM     36  C   UNL A   1      41.587  29.093  29.018  1.00  0.00     0.031 A 
ATOM     37  C   UNL A   1      42.670  30.132  28.964  1.00  0.00     0.074 A 
ATOM     38  C   UNL A   1      41.832  27.840  28.589  1.00  0.00     0.049 A 
ATOM     39  N   UNL A   1      43.894  30.031  28.512  1.00  0.00    -0.248 NA
ATOM     40  C   UNL A   1      42.329  31.463  29.490  1.00  0.00     0.031 C 
ATOM     41  C   UNL A   1      40.874  26.736  28.625  1.00  0.00     0.029 A 
ATOM     42  N   UNL A   1      42.963  27.287  28.046  1.00  0.00    -0.354 N 
ATOM     43  C   UNL A   1      44.471  31.283  28.694  1.00  0.00     0.074 A 
ATOM     44  C   UNL A   1      43.450  32.135  29.270  1.00  0.00     0.031 C 
ATOM     45  C   UNL A   1      41.465  25.630  28.143  1.00  0.00     0.029 A 
ATOM     46  C   UNL A   1      42.827  25.957  27.729  1.00  0.00     0.049 A 
ATOM     47  H   UNL A   1      43.794  27.794  27.899  1.00  0.00     0.167 HD
ATOM     48  C   UNL A   1      45.735  31.682  28.414  1.00  0.00     0.037 A 
ATOM     49  C   UNL A   1      43.699  25.102  27.160  1.00  0.00     0.037 A 
ATOM     50  C   UNL A   1      46.744  30.833  27.835  1.00  0.00     0.049 A 
ATOM     51  C   UNL A   1      45.072  25.589  26.785  1.00  0.00     0.074 A 
ATOM     52  C   UNL A   1      48.057  31.141  27.522  1.00  0.00     0.029 A 
ATOM     53  N   UNL A   1      46.549  29.508  27.470  1.00  0.00    -0.354 N 
ATOM     54  N   UNL A   1      45.607  26.772  26.971  1.00  0.00    -0.248 NA
ATOM     55  C   UNL A   1      45.957  24.626  26.114  1.00  0.00     0.031 C 
ATOM     56  C   UNL A   1      48.642  30.016  26.930  1.00  0.00     0.029 A 
ATOM     57  C   UNL A   1      47.709  28.992  26.913  1.00  0.00     0.049 A 
ATOM     58  H   UNL A   1      45.710  29.008  27.589  1.00  0.00     0.167 HD
ATOM     59  C   UNL A   1      46.899  26.689  26.464  1.00  0.00     0.074 A 
ATOM     60  C   UNL A   1      47.067  25.338  25.968  1.00  0.00     0.031 C 
ATOM     61  C   UNL A   1      47.861  27.645  26.420  1.00  0.00     0.037 A 
BRANCH  48  62
ATOM     62  C   UNL A   1      46.078  33.117  28.705  1.00  0.00     0.058 A 
ATOM     63  C   UNL A   1      46.649  33.508  29.927  1.00  0.00     0.135 A 
ATOM     64  C   UNL A   1      45.817  34.119  27.756  1.00  0.00     0.135 A 
ATOM     65  F   UNL A   1      46.908  32.592  30.875  1.00  0.00    -0.206 F 
ATOM     66  C   UNL A   1      46.903  34.845  30.218  1.00  0.00     0.059 A 
ATOM     67  C   UNL A   1      46.086  35.459  28.015  1.00  0.00     0.059 A 
ATOM     68  F   UNL A   1      45.276  33.801  26.570  1.00  0.00    -0.206 F 
ATOM     69  C   UNL A   1      46.606  35.815  29.259  1.00  0.00     0.060 A 
BRANCH  69  70
ATOM     70  S   UNL A   1      46.892  37.551  29.665  1.00  0.00     0.124 S 
ATOM     71  O   UNL A   1      47.060  37.485  31.113  1.00  0.00    -0.237 OA
ATOM     72  O   UNL A   1      48.096  37.861  28.901  1.00  0.00    -0.237 OA
ATOM     73  O   UNL A   1      45.674  38.212  29.204  1.00  0.00    -0.744 OA
ENDBRANCH  69  70
ENDBRANCH  48  62
BRANCH  49  74
ATOM     74  C   UNL A   1      43.300  23.690  26.927  1.00  0.00     0.058 A 
ATOM     75  C   UNL A   1      42.997  23.233  25.636  1.00  0.00     0.135 A 
ATOM     76  C   UNL A   1      43.242  22.764  27.980  1.00  0.00     0.135 A 
ATOM     77  F   UNL A   1      43.027  24.086  24.600  1.00  0.00    -0.206 F 
ATOM     78  C   UNL A   1      42.652  21.908  25.395  1.00  0.00     0.059 A 
ATOM     79  C   UNL A   1      42.921  21.427  27.761  1.00  0.00     0.059 A 
ATOM     80  F   UNL A   1      43.531  23.150  29.232  1.00  0.00    -0.206 F 
ATOM     81  C   UNL A   1      42.624  21.010  26.464  1.00  0.00     0.060 A 
BRANCH  81  82
ATOM     82  S   UNL A   1      42.245  19.277  26.129  1.00  0.00     0.124 S 
ATOM     83  O   UNL A   1      42.624  18.644  27.387  1.00  0.00    -0.237 OA
ATOM     84  O   UNL A   1      40.814  19.325  25.845  1.00  0.00    -0.237 OA
ATOM     85  O   UNL A   1      43.093  18.964  24.982  1.00  0.00    -0.744 OA
ENDBRANCH  81  82
ENDBRANCH  49  74
BRANCH  61  86
ATOM     86  C   UNL A   1      49.193  27.256  25.837  1.00  0.00     0.058 A 
ATOM     87  C   UNL A   1      50.227  26.746  26.637  1.00  0.00     0.135 A 
ATOM     88  C   UNL A   1      49.420  27.355  24.456  1.00  0.00     0.135 A 
ATOM     89  F   UNL A   1      50.065  26.641  27.965  1.00  0.00    -0.206 F 
ATOM     90  C   UNL A   1      51.449  26.366  26.089  1.00  0.00     0.059 A 
ATOM     91  C   UNL A   1      50.625  26.959  23.883  1.00  0.00     0.059 A 
ATOM     92  F   UNL A   1      48.460  27.828  23.645  1.00  0.00    -0.206 F 
ATOM     93  C   UNL A   1      51.638  26.476  24.711  1.00  0.00     0.060 A 
BRANCH  93  94
ATOM     94  S   UNL A   1      53.214  25.947  24.005  1.00  0.00     0.124 S 
ATOM     95  O   UNL A   1      52.914  25.956  22.577  1.00  0.00    -0.237 OA
ATOM     96  O   UNL A   1      54.130  26.986  24.466  1.00  0.00    -0.237 OA
ATOM     97  O   UNL A   1      53.425  24.628  24.594  1.00  0.00    -0.744 OA
ENDBRANCH  93  94
ENDBRANCH  61  86
ENDBRANCH  35  36
ENDBRANCH  28  30
ENDBRANCH  27  28
ENDBRANCH  26  27
ENDBRANCH   1  26
TORSDOF 18
ENDMDL
MODEL 3
REMARK VINA RESULT:     -11.5      0.584      8.120
REMARK SMILES CN(C)c1cc(C(F)(F)F)cc(-c2cccc(/C=C/C(=O)OCCOC(=O)c3ccc(-c4c5nc(c(-c6c(F)cc(S(=O)(=O)[O-])cc6F)c6ccc([nH]6)c(-c6c(F)cc(S(=O)(=O)[O-])cc6F)c6nc(c(-c7c(F)cc(S(=O)(=O)[O-])cc7F)c7ccc4[nH]7)C=C6)C=C5)cc3)c2)n1
REMARK SMILES IDX 23 1 22 2 20 3 21 4 19 5 18 6 17 7 13 8 14 9 94 10 15 11
REMARK SMILES IDX 16 12 12 13 4 14 5 15 95 16 6 17 11 18 2 19 1 20 3 21 7 22
REMARK SMILES IDX 8 23 9 24 10 25 24 26 25 27 26 28 27 29 28 30 29 31 93 32
REMARK SMILES IDX 30 33 92 34 31 35 32 36 33 37 86 38 34 39 91 40 85 41 87 42
REMARK SMILES IDX 35 43 90 44 84 45 83 46 36 48 70 49 49 50 69 51 50 52 53 53
REMARK SMILES IDX 68 54 88 55 51 56 52 57 67 59 89 60 54 61 37 62 38 63 47 64
REMARK SMILES IDX 39 65 40 66 46 67 48 68 41 69 42 70 43 71 44 72 45 73 71 74
REMARK SMILES IDX 72 75 81 76 73 77 74 78 80 79 82 80 75 81 76 82 77 83 78 84
REMARK SMILES IDX 79 85 55 86 56 87 65 88 57 89 58 90 64 91 66 92 59 93 60 94
REMARK SMILES IDX 61 95 62 96 63 97
REMARK H PARENT 87 47 53 58
REMARK Flexibility Score: inf
ROOT
ATOM      1  C   UNL A   1      43.994  22.449  25.282  1.00  0.00     0.275 C 
ENDROOT
BRANCH   1   2
ATOM      2  O   UNL A   1      43.512  21.992  26.559  1.00  0.00    -0.459 OA
BRANCH   2   3
ATOM      3  C   UNL A   1      42.492  21.102  26.524  1.00  0.00     0.330 C 
ATOM      4  O   UNL A   1      42.599  19.886  26.461  1.00  0.00    -0.247 OA
BRANCH   3   5
ATOM      5  C   UNL A   1      41.168  21.750  26.625  1.00  0.00     0.094 C 
ATOM      6  C   UNL A   1      40.076  21.379  25.938  1.00  0.00     0.015 C 
BRANCH   6   7
ATOM      7  C   UNL A   1      38.801  22.106  26.000  1.00  0.00    -0.025 A 
ATOM      8  C   UNL A   1      36.385  22.125  25.580  1.00  0.00     0.001 A 
ATOM      9  C   UNL A   1      36.355  23.479  25.947  1.00  0.00     0.010 A 
ATOM     10  C   UNL A   1      37.624  21.456  25.603  1.00  0.00     0.018 A 
ATOM     11  C   UNL A   1      37.518  24.138  26.343  1.00  0.00     0.001 A 
ATOM     12  C   UNL A   1      38.735  23.457  26.367  1.00  0.00     0.008 A 
BRANCH   8  13
ATOM     13  C   UNL A   1      35.156  21.426  25.186  1.00  0.00     0.073 A 
ATOM     14  C   UNL A   1      32.871  21.626  24.720  1.00  0.00     0.129 A 
ATOM     15  C   UNL A   1      32.799  20.260  24.456  1.00  0.00     0.060 A 
ATOM     16  N   UNL A   1      34.045  22.192  25.077  1.00  0.00    -0.231 NA
ATOM     17  C   UNL A   1      33.942  19.459  24.557  1.00  0.00     0.061 A 
ATOM     18  C   UNL A   1      35.142  20.061  24.937  1.00  0.00     0.042 A 
BRANCH  14  19
ATOM     19  N   UNL A   1      31.743  22.432  24.581  1.00  0.00    -0.363 N 
ATOM     20  C   UNL A   1      30.958  22.686  25.778  1.00  0.00     0.144 C 
ATOM     21  C   UNL A   1      31.868  23.522  23.622  1.00  0.00     0.144 C 
ENDBRANCH  14  19
BRANCH  17  22
ATOM     22  C   UNL A   1      33.900  17.992  24.247  1.00  0.00     0.416 C 
ATOM     23  F   UNL A   1      35.136  17.479  23.991  1.00  0.00    -0.166 F 
ATOM     24  F   UNL A   1      33.396  17.254  25.273  1.00  0.00    -0.166 F 
ATOM     25  F   UNL A   1      33.140  17.683  23.159  1.00  0.00    -0.166 F 
ENDBRANCH  17  22
ENDBRANCH   8  13
ENDBRANCH   6   7
ENDBRANCH   3   5
ENDBRANCH   2   3
ENDBRANCH   1   2
BRANCH   1  26
ATOM     26  C   UNL A   1      43.634  23.918  25.044  1.00  0.00     0.275 C 
BRANCH  26  27
ATOM     27  O   UNL A   1      43.179  24.565  26.247  1.00  0.00    -0.458 OA
BRANCH  27  28
ATOM     28  C   UNL A   1      42.304  25.581  26.054  1.00  0.00     0.338 C 
ATOM     29  O   UNL A   1      41.631  25.790  25.059  1.00  0.00    -0.246 OA
BRANCH  28  30
ATOM     30  C   UNL A   1      42.177  26.375  27.291  1.00  0.00     0.060 A 
ATOM     31  C   UNL A   1      41.176  26.017  28.198  1.00  0.00     0.016 A 
ATOM     32  C   UNL A   1      42.982  27.492  27.528  1.00  0.00     0.016 A 
ATOM     33  C   UNL A   1      40.971  26.780  29.347  1.00  0.00     0.010 A 
ATOM     34  C   UNL A   1      42.774  28.258  28.680  1.00  0.00     0.010 A 
ATOM     35  C   UNL A   1      41.759  27.913  29.591  1.00  0.00    -0.014 A 
BRANCH  35  36
ATOM     36  C   UNL A   1      41.487  28.759  30.779  1.00  0.00     0.031 A 
ATOM     37  C   UNL A   1      40.345  29.736  30.760  1.00  0.00     0.074 A 
ATOM     38  C   UNL A   1      42.245  28.628  31.883  1.00  0.00     0.049 A 
ATOM     39  N   UNL A   1      39.948  30.564  31.692  1.00  0.00    -0.248 NA
ATOM     40  C   UNL A   1      39.545  29.786  29.527  1.00  0.00     0.031 C 
ATOM     41  C   UNL A   1      43.355  27.689  32.035  1.00  0.00     0.029 A 
ATOM     42  N   UNL A   1      42.189  29.282  33.088  1.00  0.00    -0.354 N 
ATOM     43  C   UNL A   1      38.855  31.237  31.161  1.00  0.00     0.074 A 
ATOM     44  C   UNL A   1      38.671  30.742  29.812  1.00  0.00     0.031 C 
ATOM     45  C   UNL A   1      43.866  27.814  33.271  1.00  0.00     0.029 A 
ATOM     46  C   UNL A   1      43.145  28.866  33.983  1.00  0.00     0.049 A 
ATOM     47  H   UNL A   1      41.528  29.982  33.291  1.00  0.00     0.167 HD
ATOM     48  C   UNL A   1      38.072  32.176  31.745  1.00  0.00     0.037 A 
ATOM     49  C   UNL A   1      43.414  29.292  35.233  1.00  0.00     0.037 A 
ATOM     50  C   UNL A   1      38.263  32.672  33.084  1.00  0.00     0.049 A 
ATOM     51  C   UNL A   1      42.581  30.392  35.833  1.00  0.00     0.074 A 
ATOM     52  C   UNL A   1      37.518  33.616  33.771  1.00  0.00     0.029 A 
ATOM     53  N   UNL A   1      39.280  32.271  33.940  1.00  0.00    -0.354 N 
ATOM     54  N   UNL A   1      41.544  31.014  35.323  1.00  0.00    -0.248 NA
ATOM     55  C   UNL A   1      42.960  30.854  37.176  1.00  0.00     0.031 C 
ATOM     56  C   UNL A   1      38.109  33.815  35.024  1.00  0.00     0.029 A 
ATOM     57  C   UNL A   1      39.197  32.965  35.137  1.00  0.00     0.049 A 
ATOM     58  H   UNL A   1      39.961  31.593  33.727  1.00  0.00     0.167 HD
ATOM     59  C   UNL A   1      41.131  31.921  36.292  1.00  0.00     0.074 A 
ATOM     60  C   UNL A   1      42.027  31.765  37.420  1.00  0.00     0.031 C 
ATOM     61  C   UNL A   1      40.098  32.801  36.251  1.00  0.00     0.037 A 
BRANCH  48  62
ATOM     62  C   UNL A   1      36.956  32.750  30.916  1.00  0.00     0.058 A 
ATOM     63  C   UNL A   1      37.168  33.822  30.033  1.00  0.00     0.135 A 
ATOM     64  C   UNL A   1      35.655  32.233  31.017  1.00  0.00     0.135 A 
ATOM     65  F   UNL A   1      38.391  34.361  29.906  1.00  0.00    -0.206 F 
ATOM     66  C   UNL A   1      36.119  34.393  29.317  1.00  0.00     0.059 A 
ATOM     67  C   UNL A   1      34.596  32.773  30.292  1.00  0.00     0.059 A 
ATOM     68  F   UNL A   1      35.397  31.207  31.843  1.00  0.00    -0.206 F 
ATOM     69  C   UNL A   1      34.834  33.869  29.464  1.00  0.00     0.060 A 
BRANCH  69  70
ATOM     70  S   UNL A   1      33.472  34.649  28.571  1.00  0.00     0.124 S 
ATOM     71  O   UNL A   1      34.139  35.809  27.986  1.00  0.00    -0.237 OA
ATOM     72  O   UNL A   1      33.073  33.608  27.631  1.00  0.00    -0.237 OA
ATOM     73  O   UNL A   1      32.503  34.946  29.622  1.00  0.00    -0.744 OA
ENDBRANCH  69  70
ENDBRANCH  48  62
BRANCH  49  74
ATOM     74  C   UNL A   1      44.515  28.661  36.005  1.00  0.00     0.058 A 
ATOM     75  C   UNL A   1      44.272  27.553  36.829  1.00  0.00     0.135 A 
ATOM     76  C   UNL A   1      45.835  29.132  35.912  1.00  0.00     0.135 A 
ATOM     77  F   UNL A   1      43.024  27.076  36.959  1.00  0.00    -0.206 F 
ATOM     78  C   UNL A   1      45.296  26.930  37.534  1.00  0.00     0.059 A 
ATOM     79  C   UNL A   1      46.881  28.512  36.590  1.00  0.00     0.059 A 
ATOM     80  F   UNL A   1      46.120  30.184  35.131  1.00  0.00    -0.206 F 
ATOM     81  C   UNL A   1      46.600  27.414  37.402  1.00  0.00     0.060 A 
BRANCH  81  82
ATOM     82  S   UNL A   1      47.932  26.554  38.264  1.00  0.00     0.124 S 
ATOM     83  O   UNL A   1      47.190  25.598  39.077  1.00  0.00    -0.237 OA
ATOM     84  O   UNL A   1      48.700  25.990  37.158  1.00  0.00    -0.237 OA
ATOM     85  O   UNL A   1      48.602  27.623  38.999  1.00  0.00    -0.744 OA
ENDBRANCH  81  82
ENDBRANCH  49  74
BRANCH  61  86
ATOM     86  C   UNL A   1      39.865  33.646  37.473  1.00  0.00     0.058 A 
ATOM     87  C   UNL A   1      40.560  34.847  37.684  1.00  0.00     0.135 A 
ATOM     88  C   UNL A   1      38.902  33.271  38.424  1.00  0.00     0.135 A 
ATOM     89  F   UNL A   1      41.498  35.247  36.810  1.00  0.00    -0.206 F 
ATOM     90  C   UNL A   1      40.323  35.637  38.805  1.00  0.00     0.059 A 
ATOM     91  C   UNL A   1      38.632  34.057  39.540  1.00  0.00     0.059 A 
ATOM     92  F   UNL A   1      38.203  32.136  38.266  1.00  0.00    -0.206 F 
ATOM     93  C   UNL A   1      39.357  35.233  39.727  1.00  0.00     0.060 A 
BRANCH  93  94
ATOM     94  S   UNL A   1      39.032  36.283  41.160  1.00  0.00     0.124 S 
ATOM     95  O   UNL A   1      37.930  35.572  41.801  1.00  0.00    -0.237 OA
ATOM     96  O   UNL A   1      40.306  36.249  41.872  1.00  0.00    -0.237 OA
ATOM     97  O   UNL A   1      38.687  37.572  40.568  1.00  0.00    -0.744 OA
ENDBRANCH  93  94
ENDBRANCH  61  86
ENDBRANCH  35  36
ENDBRANCH  28  30
ENDBRANCH  27  28
ENDBRANCH  26  27
ENDBRANCH   1  26
TORSDOF 18
ENDMDL
