MODEL 1
REMARK VINA RESULT:     -12.3      0.000      0.000
REMARK SMILES CN1C(=O)C[C@@H](C(=O)OCCOC(=O)c2ccc(-c3c4nc(c(-c5c(F)cc(S(=O)(=O)[O-])cc5F)c5ccc([nH]5)c(-c5c(F)cc(S(=O)(=O)[O-])cc5F)c5nc(c(-c6c(F)cc(S(=O)(=O)[O-])cc6F)c6ccc3[nH]6)C=C5)C=C4)cc2)C12CCN(c1ccc(Cl)cn1)CC2
REMARK SMILES IDX 11 1 10 2 9 3 7 4 8 5 6 6 1 7 2 8 3 9 81 10 4 11 5 12 82 13
REMARK SMILES IDX 93 14 83 15 92 16 84 17 85 18 86 19 91 20 87 21 90 22 88 23
REMARK SMILES IDX 89 24 12 25 13 26 14 27 15 28 16 29 80 30 17 31 79 32 18 33
REMARK SMILES IDX 19 34 20 35 73 36 21 37 78 38 72 39 74 40 22 41 77 42 71 43
REMARK SMILES IDX 70 44 23 46 57 47 36 48 56 49 37 50 40 51 55 52 75 53 38 54
REMARK SMILES IDX 39 55 54 57 76 58 41 59 24 60 25 61 34 62 26 63 27 64 33 65
REMARK SMILES IDX 35 66 28 67 29 68 30 69 31 70 32 71 58 72 59 73 68 74 60 75
REMARK SMILES IDX 61 76 67 77 69 78 62 79 63 80 64 81 65 82 66 83 42 84 43 85
REMARK SMILES IDX 52 86 44 87 45 88 51 89 53 90 46 91 47 92 48 93 49 94 50 95
REMARK H PARENT 74 45 40 56
REMARK Flexibility Score: inf
ROOT
ATOM      1  C   UNL A   1      38.832  22.459  26.192  1.00  0.00     0.275 C 
ENDROOT
BRANCH   1   2
ATOM      2  C   UNL A   1      37.623  22.200  25.289  1.00  0.00     0.274 C 
BRANCH   2   3
ATOM      3  O   UNL A   1      36.413  22.032  26.058  1.00  0.00    -0.462 OA
BRANCH   3   4
ATOM      4  C   UNL A   1      35.556  21.112  25.569  1.00  0.00     0.311 C 
ATOM      5  O   UNL A   1      35.916  20.093  24.980  1.00  0.00    -0.252 OA
BRANCH   4   6
ATOM      6  C   UNL A   1      34.078  21.402  25.752  1.00  0.00     0.134 C 
ATOM      7  C   UNL A   1      32.083  21.747  22.600  1.00  0.00     0.147 C 
ATOM      8  N   UNL A   1      32.726  21.362  23.843  1.00  0.00    -0.339 N 
ATOM      9  C   UNL A   1      32.793  20.047  24.265  1.00  0.00     0.223 C 
ATOM     10  C   UNL A   1      33.229  22.326  24.839  1.00  0.00     0.060 C 
ATOM     11  O   UNL A   1      32.408  19.063  23.653  1.00  0.00    -0.275 OA
ATOM     12  C   UNL A   1      33.386  20.028  25.644  1.00  0.00     0.118 C 
ATOM     13  C   UNL A   1      33.928  23.528  24.161  1.00  0.00     0.051 C 
ATOM     14  C   UNL A   1      32.003  22.853  25.671  1.00  0.00     0.051 C 
ATOM     15  C   UNL A   1      34.203  24.688  25.106  1.00  0.00     0.120 C 
ATOM     16  C   UNL A   1      32.309  24.079  26.545  1.00  0.00     0.120 C 
ATOM     17  N   UNL A   1      32.936  25.085  25.703  1.00  0.00    -0.356 N 
BRANCH  17  18
ATOM     18  C   UNL A   1      32.808  26.416  26.076  1.00  0.00     0.128 A 
ATOM     19  C   UNL A   1      33.778  27.339  25.667  1.00  0.00     0.048 A 
ATOM     20  N   UNL A   1      31.738  26.809  26.797  1.00  0.00    -0.238 NA
ATOM     21  C   UNL A   1      33.672  28.681  26.031  1.00  0.00     0.026 A 
ATOM     22  C   UNL A   1      31.654  28.123  27.143  1.00  0.00     0.134 A 
ATOM     23  C   UNL A   1      32.592  29.079  26.798  1.00  0.00     0.059 A 
ATOM     24  Cl  UNL A   1      32.432  30.708  27.301  1.00  0.00    -0.083 Cl
ENDBRANCH  17  18
ENDBRANCH   4   6
ENDBRANCH   3   4
ENDBRANCH   2   3
ENDBRANCH   1   2
BRANCH   1  25
ATOM     25  O   UNL A   1      38.941  23.857  26.514  1.00  0.00    -0.458 OA
BRANCH  25  26
ATOM     26  C   UNL A   1      40.200  24.317  26.701  1.00  0.00     0.338 C 
ATOM     27  O   UNL A   1      41.219  23.882  26.189  1.00  0.00    -0.246 OA
BRANCH  26  28
ATOM     28  C   UNL A   1      40.207  25.483  27.607  1.00  0.00     0.060 A 
ATOM     29  C   UNL A   1      41.160  26.496  27.472  1.00  0.00     0.016 A 
ATOM     30  C   UNL A   1      39.328  25.498  28.689  1.00  0.00     0.016 A 
ATOM     31  C   UNL A   1      41.277  27.485  28.450  1.00  0.00     0.010 A 
ATOM     32  C   UNL A   1      39.386  26.541  29.617  1.00  0.00     0.010 A 
ATOM     33  C   UNL A   1      40.373  27.536  29.521  1.00  0.00    -0.014 A 
BRANCH  33  34
ATOM     34  C   UNL A   1      40.424  28.638  30.520  1.00  0.00     0.031 A 
ATOM     35  C   UNL A   1      41.380  28.575  31.684  1.00  0.00     0.074 A 
ATOM     36  C   UNL A   1      39.567  29.673  30.419  1.00  0.00     0.049 A 
ATOM     37  N   UNL A   1      41.428  29.323  32.756  1.00  0.00    -0.248 NA
ATOM     38  C   UNL A   1      42.406  27.520  31.643  1.00  0.00     0.031 C 
ATOM     39  C   UNL A   1      38.601  29.870  29.336  1.00  0.00     0.029 A 
ATOM     40  N   UNL A   1      39.354  30.746  31.249  1.00  0.00    -0.354 N 
ATOM     41  C   UNL A   1      42.460  28.813  33.534  1.00  0.00     0.074 A 
ATOM     42  C   UNL A   1      43.003  27.678  32.817  1.00  0.00     0.031 C 
ATOM     43  C   UNL A   1      37.903  30.993  29.566  1.00  0.00     0.029 A 
ATOM     44  C   UNL A   1      38.318  31.554  30.846  1.00  0.00     0.049 A 
ATOM     45  H   UNL A   1      39.891  30.919  32.057  1.00  0.00     0.167 HD
ATOM     46  C   UNL A   1      42.914  29.251  34.733  1.00  0.00     0.037 A 
ATOM     47  C   UNL A   1      37.726  32.600  31.455  1.00  0.00     0.037 A 
ATOM     48  C   UNL A   1      42.388  30.398  35.431  1.00  0.00     0.049 A 
ATOM     49  C   UNL A   1      38.213  33.038  32.807  1.00  0.00     0.074 A 
ATOM     50  C   UNL A   1      42.803  30.937  36.637  1.00  0.00     0.029 A 
ATOM     51  N   UNL A   1      41.335  31.185  34.987  1.00  0.00    -0.354 N 
ATOM     52  N   UNL A   1      39.182  32.538  33.534  1.00  0.00    -0.248 NA
ATOM     53  C   UNL A   1      37.517  34.175  33.426  1.00  0.00     0.031 C 
ATOM     54  C   UNL A   1      41.976  32.025  36.941  1.00  0.00     0.029 A 
ATOM     55  C   UNL A   1      41.074  32.190  35.903  1.00  0.00     0.049 A 
ATOM     56  H   UNL A   1      40.846  31.048  34.144  1.00  0.00     0.167 HD
ATOM     57  C   UNL A   1      39.224  33.308  34.690  1.00  0.00     0.074 A 
ATOM     58  C   UNL A   1      38.192  34.316  34.559  1.00  0.00     0.031 C 
ATOM     59  C   UNL A   1      40.044  33.189  35.762  1.00  0.00     0.037 A 
BRANCH  46  60
ATOM     60  C   UNL A   1      44.029  28.481  35.389  1.00  0.00     0.058 A 
ATOM     61  C   UNL A   1      43.777  27.419  36.270  1.00  0.00     0.135 A 
ATOM     62  C   UNL A   1      45.367  28.772  35.079  1.00  0.00     0.135 A 
ATOM     63  F   UNL A   1      42.516  27.111  36.616  1.00  0.00    -0.206 F 
ATOM     64  C   UNL A   1      44.814  26.678  36.831  1.00  0.00     0.059 A 
ATOM     65  C   UNL A   1      46.419  28.031  35.611  1.00  0.00     0.059 A 
ATOM     66  F   UNL A   1      45.664  29.779  34.243  1.00  0.00    -0.206 F 
ATOM     67  C   UNL A   1      46.132  26.990  36.493  1.00  0.00     0.060 A 
BRANCH  67  68
ATOM     68  S   UNL A   1      47.466  26.001  37.203  1.00  0.00     0.124 S 
ATOM     69  O   UNL A   1      47.767  26.747  38.420  1.00  0.00    -0.237 OA
ATOM     70  O   UNL A   1      46.826  24.704  37.397  1.00  0.00    -0.237 OA
ATOM     71  O   UNL A   1      48.501  26.037  36.174  1.00  0.00    -0.744 OA
ENDBRANCH  67  68
ENDBRANCH  46  60
BRANCH  47  72
ATOM     72  C   UNL A   1      36.577  33.278  30.801  1.00  0.00     0.058 A 
ATOM     73  C   UNL A   1      35.271  33.107  31.280  1.00  0.00     0.135 A 
ATOM     74  C   UNL A   1      36.768  34.130  29.702  1.00  0.00     0.135 A 
ATOM     75  F   UNL A   1      35.041  32.295  32.323  1.00  0.00    -0.206 F 
ATOM     76  C   UNL A   1      34.190  33.750  30.687  1.00  0.00     0.059 A 
ATOM     77  C   UNL A   1      35.706  34.804  29.108  1.00  0.00     0.059 A 
ATOM     78  F   UNL A   1      38.001  34.338  29.216  1.00  0.00    -0.206 F 
ATOM     79  C   UNL A   1      34.418  34.601  29.604  1.00  0.00     0.060 A 
BRANCH  79  80
ATOM     80  S   UNL A   1      33.019  35.479  28.876  1.00  0.00     0.124 S 
ATOM     81  O   UNL A   1      32.402  34.431  28.072  1.00  0.00    -0.237 OA
ATOM     82  O   UNL A   1      32.272  35.902  30.057  1.00  0.00    -0.237 OA
ATOM     83  O   UNL A   1      33.656  36.559  28.128  1.00  0.00    -0.744 OA
ENDBRANCH  79  80
ENDBRANCH  47  72
BRANCH  59  84
ATOM     84  C   UNL A   1      39.878  34.194  36.867  1.00  0.00     0.058 A 
ATOM     85  C   UNL A   1      40.484  35.457  36.809  1.00  0.00     0.135 A 
ATOM     86  C   UNL A   1      39.076  33.900  37.981  1.00  0.00     0.135 A 
ATOM     87  F   UNL A   1      41.269  35.783  35.769  1.00  0.00    -0.206 F 
ATOM     88  C   UNL A   1      40.321  36.389  37.830  1.00  0.00     0.059 A 
ATOM     89  C   UNL A   1      38.880  34.824  39.002  1.00  0.00     0.059 A 
ATOM     90  F   UNL A   1      38.468  32.707  38.081  1.00  0.00    -0.206 F 
ATOM     91  C   UNL A   1      39.516  36.061  38.923  1.00  0.00     0.060 A 
BRANCH  91  92
ATOM     92  S   UNL A   1      39.290  37.285  40.231  1.00  0.00     0.124 S 
ATOM     93  O   UNL A   1      40.669  37.660  40.526  1.00  0.00    -0.237 OA
ATOM     94  O   UNL A   1      38.483  38.306  39.571  1.00  0.00    -0.237 OA
ATOM     95  O   UNL A   1      38.604  36.537  41.280  1.00  0.00    -0.744 OA
ENDBRANCH  91  92
ENDBRANCH  59  84
ENDBRANCH  33  34
ENDBRANCH  26  28
ENDBRANCH  25  26
ENDBRANCH   1  25
TORSDOF 15
ENDMDL
MODEL 2
REMARK VINA RESULT:     -12.2      6.797     12.109
REMARK SMILES CN1C(=O)C[C@@H](C(=O)OCCOC(=O)c2ccc(-c3c4nc(c(-c5c(F)cc(S(=O)(=O)[O-])cc5F)c5ccc([nH]5)c(-c5c(F)cc(S(=O)(=O)[O-])cc5F)c5nc(c(-c6c(F)cc(S(=O)(=O)[O-])cc6F)c6ccc3[nH]6)C=C5)C=C4)cc2)C12CCN(c1ccc(Cl)cn1)CC2
REMARK SMILES IDX 11 1 10 2 9 3 7 4 8 5 6 6 1 7 2 8 3 9 81 10 4 11 5 12 82 13
REMARK SMILES IDX 93 14 83 15 92 16 84 17 85 18 86 19 91 20 87 21 90 22 88 23
REMARK SMILES IDX 89 24 12 25 13 26 14 27 15 28 16 29 80 30 17 31 79 32 18 33
REMARK SMILES IDX 19 34 20 35 73 36 21 37 78 38 72 39 74 40 22 41 77 42 71 43
REMARK SMILES IDX 70 44 23 46 57 47 36 48 56 49 37 50 40 51 55 52 75 53 38 54
REMARK SMILES IDX 39 55 54 57 76 58 41 59 24 60 25 61 34 62 26 63 27 64 33 65
REMARK SMILES IDX 35 66 28 67 29 68 30 69 31 70 32 71 58 72 59 73 68 74 60 75
REMARK SMILES IDX 61 76 67 77 69 78 62 79 63 80 64 81 65 82 66 83 42 84 43 85
REMARK SMILES IDX 52 86 44 87 45 88 51 89 53 90 46 91 47 92 48 93 49 94 50 95
REMARK H PARENT 74 45 40 56
REMARK Flexibility Score: inf
ROOT
ATOM      1  C   UNL A   1      34.324  30.751  27.460  1.00  0.00     0.275 C 
ENDROOT
BRANCH   1   2
ATOM      2  C   UNL A   1      33.002  30.096  27.056  1.00  0.00     0.274 C 
BRANCH   2   3
ATOM      3  O   UNL A   1      33.080  29.509  25.739  1.00  0.00    -0.462 OA
BRANCH   3   4
ATOM      4  C   UNL A   1      31.947  29.596  25.013  1.00  0.00     0.311 C 
ATOM      5  O   UNL A   1      31.041  30.392  25.259  1.00  0.00    -0.252 OA
BRANCH   4   6
ATOM      6  C   UNL A   1      31.811  28.622  23.857  1.00  0.00     0.134 C 
ATOM      7  C   UNL A   1      28.848  26.334  23.997  1.00  0.00     0.147 C 
ATOM      8  N   UNL A   1      29.848  27.354  23.740  1.00  0.00    -0.339 N 
ATOM      9  C   UNL A   1      29.542  28.550  23.119  1.00  0.00     0.223 C 
ATOM     10  C   UNL A   1      31.291  27.164  23.974  1.00  0.00     0.060 C 
ATOM     11  O   UNL A   1      28.434  28.934  22.777  1.00  0.00    -0.275 OA
ATOM     12  C   UNL A   1      30.823  29.297  22.884  1.00  0.00     0.118 C 
ATOM     13  C   UNL A   1      31.556  26.395  25.290  1.00  0.00     0.051 C 
ATOM     14  C   UNL A   1      31.875  26.334  22.773  1.00  0.00     0.051 C 
ATOM     15  C   UNL A   1      32.991  25.913  25.438  1.00  0.00     0.120 C 
ATOM     16  C   UNL A   1      33.294  25.795  23.004  1.00  0.00     0.120 C 
ATOM     17  N   UNL A   1      33.306  25.093  24.277  1.00  0.00    -0.356 N 
BRANCH  17  18
ATOM     18  C   UNL A   1      34.247  24.087  24.456  1.00  0.00     0.128 A 
ATOM     19  C   UNL A   1      35.036  23.686  23.371  1.00  0.00     0.048 A 
ATOM     20  N   UNL A   1      34.412  23.533  25.675  1.00  0.00    -0.238 NA
ATOM     21  C   UNL A   1      35.985  22.677  23.525  1.00  0.00     0.026 A 
ATOM     22  C   UNL A   1      35.343  22.549  25.804  1.00  0.00     0.134 A 
ATOM     23  C   UNL A   1      36.133  22.086  24.767  1.00  0.00     0.059 A 
ATOM     24  Cl  UNL A   1      37.261  20.818  25.001  1.00  0.00    -0.083 Cl
ENDBRANCH  17  18
ENDBRANCH   4   6
ENDBRANCH   3   4
ENDBRANCH   2   3
ENDBRANCH   1   2
BRANCH   1  25
ATOM     25  O   UNL A   1      35.172  29.812  28.147  1.00  0.00    -0.458 OA
BRANCH  25  26
ATOM     26  C   UNL A   1      35.987  30.341  29.090  1.00  0.00     0.338 C 
ATOM     27  O   UNL A   1      35.669  31.124  29.971  1.00  0.00    -0.246 OA
BRANCH  26  28
ATOM     28  C   UNL A   1      37.360  29.815  28.957  1.00  0.00     0.060 A 
ATOM     29  C   UNL A   1      38.137  29.535  30.083  1.00  0.00     0.016 A 
ATOM     30  C   UNL A   1      37.924  29.726  27.685  1.00  0.00     0.016 A 
ATOM     31  C   UNL A   1      39.491  29.229  29.943  1.00  0.00     0.010 A 
ATOM     32  C   UNL A   1      39.257  29.328  27.542  1.00  0.00     0.010 A 
ATOM     33  C   UNL A   1      40.062  29.094  28.670  1.00  0.00    -0.014 A 
BRANCH  33  34
ATOM     34  C   UNL A   1      41.480  28.676  28.501  1.00  0.00     0.031 A 
ATOM     35  C   UNL A   1      42.591  29.694  28.538  1.00  0.00     0.074 A 
ATOM     36  C   UNL A   1      41.771  27.383  28.253  1.00  0.00     0.049 A 
ATOM     37  N   UNL A   1      43.849  29.557  28.210  1.00  0.00    -0.248 NA
ATOM     38  C   UNL A   1      42.233  31.049  28.988  1.00  0.00     0.031 C 
ATOM     39  C   UNL A   1      40.798  26.289  28.205  1.00  0.00     0.029 A 
ATOM     40  N   UNL A   1      42.968  26.771  27.971  1.00  0.00    -0.354 N 
ATOM     41  C   UNL A   1      44.428  30.810  28.376  1.00  0.00     0.074 A 
ATOM     42  C   UNL A   1      43.376  31.700  28.821  1.00  0.00     0.031 C 
ATOM     43  C   UNL A   1      41.435  25.144  27.917  1.00  0.00     0.029 A 
ATOM     44  C   UNL A   1      42.845  25.432  27.685  1.00  0.00     0.049 A 
ATOM     45  H   UNL A   1      43.831  27.245  27.973  1.00  0.00     0.167 HD
ATOM     46  C   UNL A   1      45.716  31.182  28.180  1.00  0.00     0.037 A 
ATOM     47  C   UNL A   1      43.749  24.540  27.236  1.00  0.00     0.037 A 
ATOM     48  C   UNL A   1      46.766  30.285  27.763  1.00  0.00     0.049 A 
ATOM     49  C   UNL A   1      45.159  24.985  26.976  1.00  0.00     0.074 A 
ATOM     50  C   UNL A   1      48.108  30.563  27.566  1.00  0.00     0.029 A 
ATOM     51  N   UNL A   1      46.595  28.938  27.480  1.00  0.00    -0.354 N 
ATOM     52  N   UNL A   1      45.687  26.175  27.129  1.00  0.00    -0.248 NA
ATOM     53  C   UNL A   1      46.094  23.969  26.473  1.00  0.00     0.031 C 
ATOM     54  C   UNL A   1      48.740  29.394  27.126  1.00  0.00     0.029 A 
ATOM     55  C   UNL A   1      47.800  28.377  27.092  1.00  0.00     0.049 A 
ATOM     56  H   UNL A   1      45.741  28.452  27.547  1.00  0.00     0.167 HD
ATOM     57  C   UNL A   1      47.020  26.049  26.755  1.00  0.00     0.074 A 
ATOM     58  C   UNL A   1      47.221  24.663  26.382  1.00  0.00     0.031 C 
ATOM     59  C   UNL A   1      47.988  26.996  26.723  1.00  0.00     0.037 A 
BRANCH  46  60
ATOM     60  C   UNL A   1      46.073  32.628  28.394  1.00  0.00     0.058 A 
ATOM     61  C   UNL A   1      46.544  33.100  29.628  1.00  0.00     0.135 A 
ATOM     62  C   UNL A   1      46.001  33.540  27.328  1.00  0.00     0.135 A 
ATOM     63  F   UNL A   1      46.614  32.275  30.686  1.00  0.00    -0.206 F 
ATOM     64  C   UNL A   1      46.922  34.428  29.803  1.00  0.00     0.059 A 
ATOM     65  C   UNL A   1      46.394  34.867  27.474  1.00  0.00     0.059 A 
ATOM     66  F   UNL A   1      45.556  33.141  26.126  1.00  0.00    -0.206 F 
ATOM     67  C   UNL A   1      46.846  35.305  28.718  1.00  0.00     0.060 A 
BRANCH  67  68
ATOM     68  S   UNL A   1      47.369  37.018  28.950  1.00  0.00     0.124 S 
ATOM     69  O   UNL A   1      48.549  37.081  28.094  1.00  0.00    -0.237 OA
ATOM     70  O   UNL A   1      46.207  37.766  28.482  1.00  0.00    -0.237 OA
ATOM     71  O   UNL A   1      47.629  37.103  30.383  1.00  0.00    -0.744 OA
ENDBRANCH  67  68
ENDBRANCH  46  60
BRANCH  47  72
ATOM     72  C   UNL A   1      43.328  23.140  26.965  1.00  0.00     0.058 A 
ATOM     73  C   UNL A   1      43.184  22.673  25.652  1.00  0.00     0.135 A 
ATOM     74  C   UNL A   1      43.088  22.239  28.014  1.00  0.00     0.135 A 
ATOM     75  F   UNL A   1      43.394  23.502  24.618  1.00  0.00    -0.206 F 
ATOM     76  C   UNL A   1      42.808  21.360  25.386  1.00  0.00     0.059 A 
ATOM     77  C   UNL A   1      42.736  20.915  27.773  1.00  0.00     0.059 A 
ATOM     78  F   UNL A   1      43.228  22.635  29.288  1.00  0.00    -0.206 F 
ATOM     79  C   UNL A   1      42.590  20.488  26.453  1.00  0.00     0.060 A 
BRANCH  79  80
ATOM     80  S   UNL A   1      42.161  18.770  26.101  1.00  0.00     0.124 S 
ATOM     81  O   UNL A   1      40.750  18.887  25.753  1.00  0.00    -0.237 OA
ATOM     82  O   UNL A   1      43.065  18.444  25.002  1.00  0.00    -0.237 OA
ATOM     83  O   UNL A   1      42.449  18.089  27.360  1.00  0.00    -0.744 OA
ENDBRANCH  79  80
ENDBRANCH  47  72
BRANCH  59  84
ATOM     84  C   UNL A   1      49.362  26.558  26.299  1.00  0.00     0.058 A 
ATOM     85  C   UNL A   1      49.842  26.797  25.003  1.00  0.00     0.135 A 
ATOM     86  C   UNL A   1      50.217  25.919  27.211  1.00  0.00     0.135 A 
ATOM     87  F   UNL A   1      49.059  27.394  24.091  1.00  0.00    -0.206 F 
ATOM     88  C   UNL A   1      51.118  26.396  24.616  1.00  0.00     0.059 A 
ATOM     89  C   UNL A   1      51.504  25.531  26.853  1.00  0.00     0.059 A 
ATOM     90  F   UNL A   1      49.808  25.674  28.465  1.00  0.00    -0.206 F 
ATOM     91  C   UNL A   1      51.941  25.763  25.550  1.00  0.00     0.060 A 
BRANCH  91  92
ATOM     92  S   UNL A   1      53.604  25.270  25.046  1.00  0.00     0.124 S 
ATOM     93  O   UNL A   1      54.432  26.123  25.892  1.00  0.00    -0.237 OA
ATOM     94  O   UNL A   1      53.622  23.847  25.371  1.00  0.00    -0.237 OA
ATOM     95  O   UNL A   1      53.632  25.580  23.621  1.00  0.00    -0.744 OA
ENDBRANCH  91  92
ENDBRANCH  59  84
ENDBRANCH  33  34
ENDBRANCH  26  28
ENDBRANCH  25  26
ENDBRANCH   1  25
TORSDOF 15
ENDMDL
MODEL 3
REMARK VINA RESULT:     -12.2      5.303     10.804
REMARK SMILES CN1C(=O)C[C@@H](C(=O)OCCOC(=O)c2ccc(-c3c4nc(c(-c5c(F)cc(S(=O)(=O)[O-])cc5F)c5ccc([nH]5)c(-c5c(F)cc(S(=O)(=O)[O-])cc5F)c5nc(c(-c6c(F)cc(S(=O)(=O)[O-])cc6F)c6ccc3[nH]6)C=C5)C=C4)cc2)C12CCN(c1ccc(Cl)cn1)CC2
REMARK SMILES IDX 11 1 10 2 9 3 7 4 8 5 6 6 1 7 2 8 3 9 81 10 4 11 5 12 82 13
REMARK SMILES IDX 93 14 83 15 92 16 84 17 85 18 86 19 91 20 87 21 90 22 88 23
REMARK SMILES IDX 89 24 12 25 13 26 14 27 15 28 16 29 80 30 17 31 79 32 18 33
REMARK SMILES IDX 19 34 20 35 73 36 21 37 78 38 72 39 74 40 22 41 77 42 71 43
REMARK SMILES IDX 70 44 23 46 57 47 36 48 56 49 37 50 40 51 55 52 75 53 38 54
REMARK SMILES IDX 39 55 54 57 76 58 41 59 24 60 25 61 34 62 26 63 27 64 33 65
REMARK SMILES IDX 35 66 28 67 29 68 30 69 31 70 32 71 58 72 59 73 68 74 60 75
REMARK SMILES IDX 61 76 67 77 69 78 62 79 63 80 64 81 65 82 66 83 42 84 43 85
REMARK SMILES IDX 52 86 44 87 45 88 51 89 53 90 46 91 47 92 48 93 49 94 50 95
REMARK H PARENT 74 45 40 56
REMARK Flexibility Score: inf
ROOT
ATOM      1  C   UNL A   1      32.328  29.541  27.262  1.00  0.00     0.275 C 
ENDROOT
BRANCH   1   2
ATOM      2  C   UNL A   1      31.549  28.226  27.340  1.00  0.00     0.274 C 
BRANCH   2   3
ATOM      3  O   UNL A   1      31.504  27.559  26.060  1.00  0.00    -0.462 OA
BRANCH   3   4
ATOM      4  C   UNL A   1      31.902  26.270  26.081  1.00  0.00     0.311 C 
ATOM      5  O   UNL A   1      31.478  25.440  26.884  1.00  0.00    -0.252 OA
BRANCH   4   6
ATOM      6  C   UNL A   1      32.951  25.872  25.059  1.00  0.00     0.134 C 
ATOM      7  C   UNL A   1      31.864  26.002  21.476  1.00  0.00     0.147 C 
ATOM      8  N   UNL A   1      32.430  26.187  22.800  1.00  0.00    -0.339 N 
ATOM      9  C   UNL A   1      32.925  27.405  23.229  1.00  0.00     0.223 C 
ATOM     10  C   UNL A   1      32.670  25.086  23.750  1.00  0.00     0.060 C 
ATOM     11  O   UNL A   1      32.895  28.462  22.619  1.00  0.00    -0.275 OA
ATOM     12  C   UNL A   1      33.559  27.204  24.574  1.00  0.00     0.118 C 
ATOM     13  C   UNL A   1      31.505  24.067  23.743  1.00  0.00     0.051 C 
ATOM     14  C   UNL A   1      33.992  24.351  23.321  1.00  0.00     0.051 C 
ATOM     15  C   UNL A   1      31.823  22.771  24.472  1.00  0.00     0.120 C 
ATOM     16  C   UNL A   1      34.225  23.004  24.022  1.00  0.00     0.120 C 
ATOM     17  N   UNL A   1      33.021  22.204  23.870  1.00  0.00    -0.356 N 
BRANCH  17  18
ATOM     18  C   UNL A   1      33.150  20.822  23.909  1.00  0.00     0.128 A 
ATOM     19  C   UNL A   1      32.264  20.030  23.169  1.00  0.00     0.048 A 
ATOM     20  N   UNL A   1      34.143  20.262  24.630  1.00  0.00    -0.238 NA
ATOM     21  C   UNL A   1      32.371  18.641  23.193  1.00  0.00     0.026 A 
ATOM     22  C   UNL A   1      34.230  18.904  24.642  1.00  0.00     0.134 A 
ATOM     23  C   UNL A   1      33.369  18.063  23.958  1.00  0.00     0.059 A 
ATOM     24  Cl  UNL A   1      33.524  16.361  24.051  1.00  0.00    -0.083 Cl
ENDBRANCH  17  18
ENDBRANCH   4   6
ENDBRANCH   3   4
ENDBRANCH   2   3
ENDBRANCH   1   2
BRANCH   1  25
ATOM     25  O   UNL A   1      33.743  29.306  27.382  1.00  0.00    -0.458 OA
BRANCH  25  26
ATOM     26  C   UNL A   1      34.451  30.293  27.979  1.00  0.00     0.338 C 
ATOM     27  O   UNL A   1      34.037  31.396  28.298  1.00  0.00    -0.246 OA
BRANCH  26  28
ATOM     28  C   UNL A   1      35.836  29.858  28.251  1.00  0.00     0.060 A 
ATOM     29  C   UNL A   1      36.225  29.450  29.529  1.00  0.00     0.016 A 
ATOM     30  C   UNL A   1      36.789  29.986  27.243  1.00  0.00     0.016 A 
ATOM     31  C   UNL A   1      37.573  29.232  29.816  1.00  0.00     0.010 A 
ATOM     32  C   UNL A   1      38.127  29.677  27.509  1.00  0.00     0.010 A 
ATOM     33  C   UNL A   1      38.538  29.317  28.803  1.00  0.00    -0.014 A 
BRANCH  33  34
ATOM     34  C   UNL A   1      39.967  28.996  29.070  1.00  0.00     0.031 A 
ATOM     35  C   UNL A   1      40.910  30.056  29.576  1.00  0.00     0.074 A 
ATOM     36  C   UNL A   1      40.437  27.761  28.801  1.00  0.00     0.049 A 
ATOM     37  N   UNL A   1      42.215  30.027  29.670  1.00  0.00    -0.248 NA
ATOM     38  C   UNL A   1      40.307  31.324  30.019  1.00  0.00     0.031 C 
ATOM     39  C   UNL A   1      39.633  26.634  28.323  1.00  0.00     0.029 A 
ATOM     40  N   UNL A   1      41.710  27.252  28.870  1.00  0.00    -0.354 N 
ATOM     41  C   UNL A   1      42.594  31.276  30.146  1.00  0.00     0.074 A 
ATOM     42  C   UNL A   1      41.380  32.049  30.307  1.00  0.00     0.031 C 
ATOM     43  C   UNL A   1      40.428  25.568  28.146  1.00  0.00     0.029 A 
ATOM     44  C   UNL A   1      41.807  25.955  28.424  1.00  0.00     0.049 A 
ATOM     45  H   UNL A   1      42.481  27.765  29.205  1.00  0.00     0.167 HD
ATOM     46  C   UNL A   1      43.838  31.735  30.425  1.00  0.00     0.037 A 
ATOM     47  C   UNL A   1      42.883  25.173  28.210  1.00  0.00     0.037 A 
ATOM     48  C   UNL A   1      45.042  30.952  30.289  1.00  0.00     0.049 A 
ATOM     49  C   UNL A   1      44.256  25.719  28.478  1.00  0.00     0.074 A 
ATOM     50  C   UNL A   1      46.345  31.322  30.577  1.00  0.00     0.029 A 
ATOM     51  N   UNL A   1      45.092  29.645  29.830  1.00  0.00    -0.354 N 
ATOM     52  N   UNL A   1      44.598  26.906  28.918  1.00  0.00    -0.248 NA
ATOM     53  C   UNL A   1      45.390  24.824  28.211  1.00  0.00     0.031 C 
ATOM     54  C   UNL A   1      47.187  30.251  30.253  1.00  0.00     0.029 A 
ATOM     55  C   UNL A   1      46.404  29.200  29.806  1.00  0.00     0.049 A 
ATOM     56  H   UNL A   1      44.310  29.112  29.560  1.00  0.00     0.167 HD
ATOM     57  C   UNL A   1      45.985  26.896  28.995  1.00  0.00     0.074 A 
ATOM     58  C   UNL A   1      46.419  25.581  28.569  1.00  0.00     0.031 C 
ATOM     59  C   UNL A   1      46.824  27.888  29.382  1.00  0.00     0.037 A 
BRANCH  46  60
ATOM     60  C   UNL A   1      43.976  33.159  30.892  1.00  0.00     0.058 A 
ATOM     61  C   UNL A   1      43.937  34.239  29.997  1.00  0.00     0.135 A 
ATOM     62  C   UNL A   1      44.083  33.448  32.262  1.00  0.00     0.135 A 
ATOM     63  F   UNL A   1      43.854  34.019  28.675  1.00  0.00    -0.206 F 
ATOM     64  C   UNL A   1      44.011  35.556  30.443  1.00  0.00     0.059 A 
ATOM     65  C   UNL A   1      44.138  34.757  32.732  1.00  0.00     0.059 A 
ATOM     66  F   UNL A   1      44.127  32.452  33.161  1.00  0.00    -0.206 F 
ATOM     67  C   UNL A   1      44.109  35.805  31.813  1.00  0.00     0.060 A 
BRANCH  67  68
ATOM     68  S   UNL A   1      44.173  37.519  32.380  1.00  0.00     0.124 S 
ATOM     69  O   UNL A   1      43.924  38.246  31.140  1.00  0.00    -0.237 OA
ATOM     70  O   UNL A   1      43.099  37.563  33.366  1.00  0.00    -0.237 OA
ATOM     71  O   UNL A   1      45.522  37.647  32.922  1.00  0.00    -0.744 OA
ENDBRANCH  67  68
ENDBRANCH  46  60
BRANCH  47  72
ATOM     72  C   UNL A   1      42.699  23.799  27.673  1.00  0.00     0.058 A 
ATOM     73  C   UNL A   1      42.626  23.569  26.293  1.00  0.00     0.135 A 
ATOM     74  C   UNL A   1      42.619  22.691  28.530  1.00  0.00     0.135 A 
ATOM     75  F   UNL A   1      42.689  24.600  25.437  1.00  0.00    -0.206 F 
ATOM     76  C   UNL A   1      42.472  22.286  25.779  1.00  0.00     0.059 A 
ATOM     77  C   UNL A   1      42.491  21.396  28.039  1.00  0.00     0.059 A 
ATOM     78  F   UNL A   1      42.699  22.859  29.859  1.00  0.00    -0.206 F 
ATOM     79  C   UNL A   1      42.409  21.205  26.660  1.00  0.00     0.060 A 
BRANCH  79  80
ATOM     80  S   UNL A   1      42.269  19.537  25.984  1.00  0.00     0.124 S 
ATOM     81  O   UNL A   1      40.857  19.485  25.624  1.00  0.00    -0.237 OA
ATOM     82  O   UNL A   1      43.212  19.574  24.870  1.00  0.00    -0.237 OA
ATOM     83  O   UNL A   1      42.669  18.689  27.104  1.00  0.00    -0.744 OA
ENDBRANCH  79  80
ENDBRANCH  47  72
BRANCH  59  84
ATOM     84  C   UNL A   1      48.294  27.577  29.393  1.00  0.00     0.058 A 
ATOM     85  C   UNL A   1      49.121  27.899  28.307  1.00  0.00     0.135 A 
ATOM     86  C   UNL A   1      48.885  26.979  30.516  1.00  0.00     0.135 A 
ATOM     87  F   UNL A   1      48.602  28.463  27.205  1.00  0.00    -0.206 F 
ATOM     88  C   UNL A   1      50.484  27.617  28.324  1.00  0.00     0.059 A 
ATOM     89  C   UNL A   1      50.249  26.709  30.565  1.00  0.00     0.059 A 
ATOM     90  F   UNL A   1      48.138  26.658  31.584  1.00  0.00    -0.206 F 
ATOM     91  C   UNL A   1      51.038  27.021  29.459  1.00  0.00     0.060 A 
BRANCH  91  92
ATOM     92  S   UNL A   1      52.812  26.681  29.482  1.00  0.00     0.124 S 
ATOM     93  O   UNL A   1      52.944  25.890  30.701  1.00  0.00    -0.237 OA
ATOM     94  O   UNL A   1      53.010  25.957  28.230  1.00  0.00    -0.237 OA
ATOM     95  O   UNL A   1      53.410  28.012  29.528  1.00  0.00    -0.744 OA
ENDBRANCH  91  92
ENDBRANCH  59  84
ENDBRANCH  33  34
ENDBRANCH  26  28
ENDBRANCH  25  26
ENDBRANCH   1  25
TORSDOF 15
ENDMDL
