MODEL 1
REMARK VINA RESULT:     -15.1      0.000      0.000
REMARK SMILES Cc1ccc([C@@]23C[C@@H]4C[C@@H](C[C@@](C(=O)N5CCC(C(=O)OCCOC(=O)c6ccc(-c7c8nc(c(-c9c(F)cc(S(=O)(=O)[O-])cc9F)c9ccc([nH]9)c(-c9c(F)cc(S(=O)(=O)[O-])cc9F)c9nc(c(-c%10c(F)cc(S(=O)(=O)[O-])cc%10F)c%10ccc7[nH]%10)C=C9)C=C8)cc6)CC5)(C4)C2)C3)cc1
REMARK SMILES IDX 23 1 22 2 21 3 19 4 20 5 18 6 13 7 14 8 15 9 16 10 94 11
REMARK SMILES IDX 17 12 93 13 12 14 6 15 7 16 96 17 97 18 8 19 10 20 9 21
REMARK SMILES IDX 95 22 11 23 5 24 1 25 2 26 3 27 99 28 4 29 98 30 24 31 25 32
REMARK SMILES IDX 26 33 27 34 28 35 92 36 29 37 91 38 30 39 31 40 32 41 85 42
REMARK SMILES IDX 33 43 90 44 84 45 86 46 34 47 89 48 83 49 82 50 35 52 69 53
REMARK SMILES IDX 48 54 68 55 49 56 52 57 67 58 87 59 50 60 51 61 66 63 88 64
REMARK SMILES IDX 53 65 36 66 37 67 46 68 38 69 39 70 45 71 47 72 40 73 41 74
REMARK SMILES IDX 42 75 43 76 44 77 70 78 71 79 80 80 72 81 73 82 79 83 81 84
REMARK SMILES IDX 74 85 75 86 76 87 77 88 78 89 54 90 55 91 64 92 56 93 57 94
REMARK SMILES IDX 63 95 65 96 58 97 59 98 60 99 61 100 62 101
REMARK H PARENT 86 51 52 62
REMARK Flexibility Score: inf
ROOT
ATOM      1  C   UNL A   1      34.057  31.408  27.937  1.00  0.00     0.275 C 
ENDROOT
BRANCH   1   2
ATOM      2  C   UNL A   1      32.975  30.614  27.180  1.00  0.00     0.274 C 
BRANCH   2   3
ATOM      3  O   UNL A   1      33.112  29.230  27.506  1.00  0.00    -0.462 OA
BRANCH   3   4
ATOM      4  C   UNL A   1      32.080  28.418  27.170  1.00  0.00     0.309 C 
ATOM      5  O   UNL A   1      31.244  28.006  27.963  1.00  0.00    -0.252 OA
BRANCH   4   6
ATOM      6  C   UNL A   1      32.161  28.095  25.690  1.00  0.00     0.103 C 
ATOM      7  C   UNL A   1      32.586  24.598  24.576  1.00  0.00     0.228 C 
ATOM      8  O   UNL A   1      31.533  24.024  24.867  1.00  0.00    -0.274 OA
ATOM      9  N   UNL A   1      32.577  25.883  24.030  1.00  0.00    -0.342 N 
ATOM     10  C   UNL A   1      31.284  26.525  23.885  1.00  0.00     0.120 C 
ATOM     11  C   UNL A   1      33.656  26.864  24.081  1.00  0.00     0.120 C 
ATOM     12  C   UNL A   1      30.985  27.226  25.201  1.00  0.00     0.037 C 
ATOM     13  C   UNL A   1      33.569  27.569  25.419  1.00  0.00     0.037 C 
BRANCH   7  14
ATOM     14  C   UNL A   1      33.920  23.854  24.742  1.00  0.00     0.051 C 
ATOM     15  C   UNL A   1      34.802  21.465  25.010  1.00  0.00    -0.003 C 
ATOM     16  C   UNL A   1      35.761  21.779  23.820  1.00  0.00     0.015 C 
ATOM     17  C   UNL A   1      33.569  22.371  24.870  1.00  0.00     0.028 C 
ATOM     18  C   UNL A   1      35.508  21.883  26.326  1.00  0.00     0.015 C 
ATOM     19  C   UNL A   1      36.193  23.259  23.817  1.00  0.00    -0.009 C 
ATOM     20  C   UNL A   1      35.879  23.385  26.295  1.00  0.00    -0.009 C 
ATOM     21  C   UNL A   1      36.860  23.631  25.142  1.00  0.00     0.007 C 
ATOM     22  C   UNL A   1      34.949  24.125  23.628  1.00  0.00     0.020 C 
ATOM     23  C   UNL A   1      34.616  24.245  26.077  1.00  0.00     0.020 C 
BRANCH  15  24
ATOM     24  C   UNL A   1      34.374  19.987  25.004  1.00  0.00    -0.042 A 
ATOM     25  C   UNL A   1      33.073  15.856  24.743  1.00  0.00     0.044 C 
ATOM     26  C   UNL A   1      33.546  17.273  24.845  1.00  0.00    -0.051 A 
ATOM     27  C   UNL A   1      32.663  18.251  25.290  1.00  0.00     0.004 A 
ATOM     28  C   UNL A   1      34.846  17.647  24.494  1.00  0.00     0.004 A 
ATOM     29  C   UNL A   1      33.076  19.579  25.377  1.00  0.00     0.004 A 
ATOM     30  C   UNL A   1      35.255  18.985  24.576  1.00  0.00     0.004 A 
ENDBRANCH  15  24
ENDBRANCH   7  14
ENDBRANCH   4   6
ENDBRANCH   3   4
ENDBRANCH   2   3
ENDBRANCH   1   2
BRANCH   1  31
ATOM     31  O   UNL A   1      35.430  31.038  27.667  1.00  0.00    -0.458 OA
BRANCH  31  32
ATOM     32  C   UNL A   1      36.281  30.955  28.735  1.00  0.00     0.338 C 
ATOM     33  O   UNL A   1      36.074  31.467  29.821  1.00  0.00    -0.246 OA
BRANCH  32  34
ATOM     34  C   UNL A   1      37.248  29.846  28.454  1.00  0.00     0.060 A 
ATOM     35  C   UNL A   1      38.086  29.895  27.332  1.00  0.00     0.016 A 
ATOM     36  C   UNL A   1      37.568  29.000  29.516  1.00  0.00     0.016 A 
ATOM     37  C   UNL A   1      39.332  29.249  27.365  1.00  0.00     0.010 A 
ATOM     38  C   UNL A   1      38.840  28.495  29.612  1.00  0.00     0.010 A 
ATOM     39  C   UNL A   1      39.739  28.627  28.549  1.00  0.00    -0.014 A 
BRANCH  39  40
ATOM     40  C   UNL A   1      40.942  27.823  28.721  1.00  0.00     0.031 A 
ATOM     41  C   UNL A   1      41.096  26.414  28.281  1.00  0.00     0.074 A 
ATOM     42  C   UNL A   1      41.978  28.555  29.183  1.00  0.00     0.049 A 
ATOM     43  N   UNL A   1      41.812  25.529  28.896  1.00  0.00    -0.248 NA
ATOM     44  C   UNL A   1      40.449  25.868  27.090  1.00  0.00     0.031 C 
ATOM     45  C   UNL A   1      43.380  28.205  29.271  1.00  0.00     0.029 A 
ATOM     46  N   UNL A   1      41.915  29.804  29.818  1.00  0.00    -0.354 N 
ATOM     47  C   UNL A   1      41.936  24.437  28.050  1.00  0.00     0.074 A 
ATOM     48  C   UNL A   1      40.936  24.621  27.030  1.00  0.00     0.031 C 
ATOM     49  C   UNL A   1      43.945  29.003  30.198  1.00  0.00     0.029 A 
ATOM     50  C   UNL A   1      42.861  29.753  30.831  1.00  0.00     0.049 A 
ATOM     51  H   UNL A   1      41.325  30.559  29.591  1.00  0.00     0.167 HD
ATOM     52  C   UNL A   1      43.019  23.606  28.131  1.00  0.00     0.037 A 
ATOM     53  C   UNL A   1      42.510  29.687  32.151  1.00  0.00     0.037 A 
ATOM     54  C   UNL A   1      43.977  24.160  29.075  1.00  0.00     0.049 A 
ATOM     55  C   UNL A   1      43.111  28.453  32.783  1.00  0.00     0.074 A 
ATOM     56  C   UNL A   1      45.034  25.029  28.861  1.00  0.00     0.029 A 
ATOM     57  N   UNL A   1      43.713  24.168  30.435  1.00  0.00    -0.354 N 
ATOM     58  N   UNL A   1      43.240  27.308  32.167  1.00  0.00    -0.248 NA
ATOM     59  C   UNL A   1      43.712  28.456  34.111  1.00  0.00     0.031 C 
ATOM     60  C   UNL A   1      45.366  25.620  30.096  1.00  0.00     0.029 A 
ATOM     61  C   UNL A   1      44.520  25.097  31.060  1.00  0.00     0.049 A 
ATOM     62  H   UNL A   1      43.051  23.597  30.887  1.00  0.00     0.167 HD
ATOM     63  C   UNL A   1      44.024  26.479  32.934  1.00  0.00     0.074 A 
ATOM     64  C   UNL A   1      44.261  27.231  34.155  1.00  0.00     0.031 C 
ATOM     65  C   UNL A   1      44.492  25.273  32.497  1.00  0.00     0.037 A 
BRANCH  52  66
ATOM     66  C   UNL A   1      43.396  22.546  27.109  1.00  0.00     0.058 A 
ATOM     67  C   UNL A   1      42.669  21.335  27.012  1.00  0.00     0.135 A 
ATOM     68  C   UNL A   1      44.453  22.671  26.185  1.00  0.00     0.135 A 
ATOM     69  F   UNL A   1      41.594  21.096  27.773  1.00  0.00    -0.206 F 
ATOM     70  C   UNL A   1      43.013  20.301  26.143  1.00  0.00     0.059 A 
ATOM     71  C   UNL A   1      44.833  21.635  25.315  1.00  0.00     0.059 A 
ATOM     72  F   UNL A   1      45.141  23.820  26.087  1.00  0.00    -0.206 F 
ATOM     73  C   UNL A   1      44.113  20.444  25.311  1.00  0.00     0.060 A 
BRANCH  73  74
ATOM     74  S   UNL A   1      44.560  19.053  24.251  1.00  0.00     0.124 S 
ATOM     75  O   UNL A   1      45.942  18.798  24.648  1.00  0.00    -0.237 OA
ATOM     76  O   UNL A   1      43.592  18.036  24.648  1.00  0.00    -0.237 OA
ATOM     77  O   UNL A   1      44.393  19.584  22.901  1.00  0.00    -0.744 OA
ENDBRANCH  73  74
ENDBRANCH  52  66
BRANCH  53  78
ATOM     78  C   UNL A   1      41.183  30.287  32.507  1.00  0.00     0.058 A 
ATOM     79  C   UNL A   1      40.226  29.466  33.143  1.00  0.00     0.135 A 
ATOM     80  C   UNL A   1      40.941  31.670  32.532  1.00  0.00     0.135 A 
ATOM     81  F   UNL A   1      40.381  28.133  33.141  1.00  0.00    -0.206 F 
ATOM     82  C   UNL A   1      39.168  29.991  33.886  1.00  0.00     0.059 A 
ATOM     83  C   UNL A   1      39.871  32.218  33.256  1.00  0.00     0.059 A 
ATOM     84  F   UNL A   1      41.790  32.518  31.937  1.00  0.00    -0.206 F 
ATOM     85  C   UNL A   1      39.021  31.372  33.970  1.00  0.00     0.060 A 
BRANCH  85  86
ATOM     86  S   UNL A   1      37.815  32.027  35.154  1.00  0.00     0.124 S 
ATOM     87  O   UNL A   1      36.618  32.146  34.330  1.00  0.00    -0.237 OA
ATOM     88  O   UNL A   1      37.787  30.971  36.164  1.00  0.00    -0.237 OA
ATOM     89  O   UNL A   1      38.418  33.283  35.586  1.00  0.00    -0.744 OA
ENDBRANCH  85  86
ENDBRANCH  53  78
BRANCH  65  90
ATOM     90  C   UNL A   1      45.126  24.196  33.345  1.00  0.00     0.058 A 
ATOM     91  C   UNL A   1      46.439  24.273  33.830  1.00  0.00     0.135 A 
ATOM     92  C   UNL A   1      44.353  23.114  33.843  1.00  0.00     0.135 A 
ATOM     93  F   UNL A   1      47.235  25.310  33.533  1.00  0.00    -0.206 F 
ATOM     94  C   UNL A   1      46.974  23.313  34.686  1.00  0.00     0.059 A 
ATOM     95  C   UNL A   1      44.848  22.181  34.748  1.00  0.00     0.059 A 
ATOM     96  F   UNL A   1      43.074  22.931  33.486  1.00  0.00    -0.206 F 
ATOM     97  C   UNL A   1      46.171  22.272  35.142  1.00  0.00     0.060 A 
BRANCH  97  98
ATOM     98  S   UNL A   1      46.843  21.067  36.296  1.00  0.00     0.124 S 
ATOM     99  O   UNL A   1      46.454  19.812  35.660  1.00  0.00    -0.237 OA
ATOM    100  O   UNL A   1      48.273  21.367  36.276  1.00  0.00    -0.237 OA
ATOM    101  O   UNL A   1      46.162  21.384  37.546  1.00  0.00    -0.744 OA
ENDBRANCH  97  98
ENDBRANCH  65  90
ENDBRANCH  39  40
ENDBRANCH  32  34
ENDBRANCH  31  32
ENDBRANCH   1  31
TORSDOF 16
ENDMDL
MODEL 2
REMARK VINA RESULT:     -14.9      4.677     11.287
REMARK SMILES Cc1ccc([C@@]23C[C@@H]4C[C@@H](C[C@@](C(=O)N5CCC(C(=O)OCCOC(=O)c6ccc(-c7c8nc(c(-c9c(F)cc(S(=O)(=O)[O-])cc9F)c9ccc([nH]9)c(-c9c(F)cc(S(=O)(=O)[O-])cc9F)c9nc(c(-c%10c(F)cc(S(=O)(=O)[O-])cc%10F)c%10ccc7[nH]%10)C=C9)C=C8)cc6)CC5)(C4)C2)C3)cc1
REMARK SMILES IDX 23 1 22 2 21 3 19 4 20 5 18 6 13 7 14 8 15 9 16 10 94 11
REMARK SMILES IDX 17 12 93 13 12 14 6 15 7 16 96 17 97 18 8 19 10 20 9 21
REMARK SMILES IDX 95 22 11 23 5 24 1 25 2 26 3 27 99 28 4 29 98 30 24 31 25 32
REMARK SMILES IDX 26 33 27 34 28 35 92 36 29 37 91 38 30 39 31 40 32 41 85 42
REMARK SMILES IDX 33 43 90 44 84 45 86 46 34 47 89 48 83 49 82 50 35 52 69 53
REMARK SMILES IDX 48 54 68 55 49 56 52 57 67 58 87 59 50 60 51 61 66 63 88 64
REMARK SMILES IDX 53 65 36 66 37 67 46 68 38 69 39 70 45 71 47 72 40 73 41 74
REMARK SMILES IDX 42 75 43 76 44 77 70 78 71 79 80 80 72 81 73 82 79 83 81 84
REMARK SMILES IDX 74 85 75 86 76 87 77 88 78 89 54 90 55 91 64 92 56 93 57 94
REMARK SMILES IDX 63 95 65 96 58 97 59 98 60 99 61 100 62 101
REMARK H PARENT 86 51 52 62
REMARK Flexibility Score: inf
ROOT
ATOM      1  C   UNL A   1      39.767  21.941  26.433  1.00  0.00     0.275 C 
ENDROOT
BRANCH   1   2
ATOM      2  C   UNL A   1      38.761  21.120  25.602  1.00  0.00     0.274 C 
BRANCH   2   3
ATOM      3  O   UNL A   1      37.583  21.905  25.406  1.00  0.00    -0.462 OA
BRANCH   3   4
ATOM      4  C   UNL A   1      36.397  21.253  25.478  1.00  0.00     0.309 C 
ATOM      5  O   UNL A   1      36.148  20.212  24.884  1.00  0.00    -0.252 OA
BRANCH   4   6
ATOM      6  C   UNL A   1      35.452  22.035  26.371  1.00  0.00     0.103 C 
ATOM      7  C   UNL A   1      32.302  23.393  24.998  1.00  0.00     0.228 C 
ATOM      8  O   UNL A   1      31.598  22.412  24.742  1.00  0.00    -0.274 OA
ATOM      9  N   UNL A   1      33.050  23.453  26.176  1.00  0.00    -0.342 N 
ATOM     10  C   UNL A   1      33.007  22.289  27.041  1.00  0.00     0.120 C 
ATOM     11  C   UNL A   1      34.251  24.247  26.411  1.00  0.00     0.120 C 
ATOM     12  C   UNL A   1      34.090  21.338  26.559  1.00  0.00     0.037 C 
ATOM     13  C   UNL A   1      35.427  23.471  25.853  1.00  0.00     0.037 C 
BRANCH   7  14
ATOM     14  C   UNL A   1      32.290  24.598  24.044  1.00  0.00     0.051 C 
ATOM     15  C   UNL A   1      32.523  27.147  24.118  1.00  0.00    -0.003 C 
ATOM     16  C   UNL A   1      33.619  26.992  23.019  1.00  0.00     0.015 C 
ATOM     17  C   UNL A   1      32.474  25.837  24.920  1.00  0.00     0.028 C 
ATOM     18  C   UNL A   1      31.147  27.283  23.414  1.00  0.00     0.015 C 
ATOM     19  C   UNL A   1      33.315  25.808  22.079  1.00  0.00    -0.009 C 
ATOM     20  C   UNL A   1      30.865  26.052  22.520  1.00  0.00    -0.009 C 
ATOM     21  C   UNL A   1      31.940  25.974  21.429  1.00  0.00     0.007 C 
ATOM     22  C   UNL A   1      33.322  24.522  22.902  1.00  0.00     0.020 C 
ATOM     23  C   UNL A   1      30.902  24.758  23.361  1.00  0.00     0.020 C 
BRANCH  15  24
ATOM     24  C   UNL A   1      32.835  28.328  25.053  1.00  0.00    -0.042 A 
ATOM     25  C   UNL A   1      33.560  31.545  27.873  1.00  0.00     0.044 C 
ATOM     26  C   UNL A   1      33.337  30.434  26.894  1.00  0.00    -0.051 A 
ATOM     27  C   UNL A   1      32.245  30.498  26.036  1.00  0.00     0.004 A 
ATOM     28  C   UNL A   1      34.187  29.327  26.823  1.00  0.00     0.004 A 
ATOM     29  C   UNL A   1      32.008  29.468  25.127  1.00  0.00     0.004 A 
ATOM     30  C   UNL A   1      33.942  28.289  25.912  1.00  0.00     0.004 A 
ENDBRANCH  15  24
ENDBRANCH   7  14
ENDBRANCH   4   6
ENDBRANCH   3   4
ENDBRANCH   2   3
ENDBRANCH   1   2
BRANCH   1  31
ATOM     31  O   UNL A   1      39.457  23.344  26.611  1.00  0.00    -0.458 OA
BRANCH  31  32
ATOM     32  C   UNL A   1      40.488  24.177  26.950  1.00  0.00     0.338 C 
ATOM     33  O   UNL A   1      41.640  24.031  26.581  1.00  0.00    -0.246 OA
BRANCH  32  34
ATOM     34  C   UNL A   1      39.887  25.441  27.483  1.00  0.00     0.060 A 
ATOM     35  C   UNL A   1      39.260  25.461  28.737  1.00  0.00     0.016 A 
ATOM     36  C   UNL A   1      40.313  26.638  26.906  1.00  0.00     0.016 A 
ATOM     37  C   UNL A   1      39.241  26.649  29.486  1.00  0.00     0.010 A 
ATOM     38  C   UNL A   1      40.430  27.756  27.692  1.00  0.00     0.010 A 
ATOM     39  C   UNL A   1      39.913  27.770  28.991  1.00  0.00    -0.014 A 
BRANCH  39  40
ATOM     40  C   UNL A   1      39.899  29.103  29.582  1.00  0.00     0.031 A 
ATOM     41  C   UNL A   1      38.793  30.083  29.451  1.00  0.00     0.074 A 
ATOM     42  C   UNL A   1      40.946  29.298  30.412  1.00  0.00     0.049 A 
ATOM     43  N   UNL A   1      38.953  31.366  29.404  1.00  0.00    -0.248 NA
ATOM     44  C   UNL A   1      37.386  29.700  29.362  1.00  0.00     0.031 C 
ATOM     45  C   UNL A   1      41.178  30.370  31.357  1.00  0.00     0.029 A 
ATOM     46  N   UNL A   1      42.137  28.558  30.462  1.00  0.00    -0.354 N 
ATOM     47  C   UNL A   1      37.703  31.945  29.563  1.00  0.00     0.074 A 
ATOM     48  C   UNL A   1      36.754  30.882  29.356  1.00  0.00     0.031 C 
ATOM     49  C   UNL A   1      42.502  30.422  31.601  1.00  0.00     0.029 A 
ATOM     50  C   UNL A   1      43.142  29.490  30.675  1.00  0.00     0.049 A 
ATOM     51  H   UNL A   1      42.237  27.583  30.366  1.00  0.00     0.167 HD
ATOM     52  C   UNL A   1      37.573  33.197  30.097  1.00  0.00     0.037 A 
ATOM     53  C   UNL A   1      44.042  29.823  29.702  1.00  0.00     0.037 A 
ATOM     54  C   UNL A   1      38.873  33.657  30.559  1.00  0.00     0.049 A 
ATOM     55  C   UNL A   1      43.986  31.310  29.436  1.00  0.00     0.074 A 
ATOM     56  C   UNL A   1      39.475  33.516  31.798  1.00  0.00     0.029 A 
ATOM     57  N   UNL A   1      39.869  33.998  29.659  1.00  0.00    -0.354 N 
ATOM     58  N   UNL A   1      42.887  32.015  29.465  1.00  0.00    -0.248 NA
ATOM     59  C   UNL A   1      45.180  32.123  29.235  1.00  0.00     0.031 C 
ATOM     60  C   UNL A   1      40.862  33.706  31.630  1.00  0.00     0.029 A 
ATOM     61  C   UNL A   1      41.095  33.978  30.292  1.00  0.00     0.049 A 
ATOM     62  H   UNL A   1      39.724  34.222  28.712  1.00  0.00     0.167 HD
ATOM     63  C   UNL A   1      43.216  33.348  29.412  1.00  0.00     0.074 A 
ATOM     64  C   UNL A   1      44.657  33.361  29.230  1.00  0.00     0.031 C 
ATOM     65  C   UNL A   1      42.309  34.353  29.597  1.00  0.00     0.037 A 
BRANCH  52  66
ATOM     66  C   UNL A   1      36.269  33.829  30.558  1.00  0.00     0.058 A 
ATOM     67  C   UNL A   1      35.328  34.323  29.622  1.00  0.00     0.135 A 
ATOM     68  C   UNL A   1      35.882  33.961  31.906  1.00  0.00     0.135 A 
ATOM     69  F   UNL A   1      35.519  34.208  28.303  1.00  0.00    -0.206 F 
ATOM     70  C   UNL A   1      34.151  34.973  29.990  1.00  0.00     0.059 A 
ATOM     71  C   UNL A   1      34.712  34.632  32.302  1.00  0.00     0.059 A 
ATOM     72  F   UNL A   1      36.624  33.421  32.886  1.00  0.00    -0.206 F 
ATOM     73  C   UNL A   1      33.857  35.149  31.333  1.00  0.00     0.060 A 
BRANCH  73  74
ATOM     74  S   UNL A   1      32.355  36.055  31.761  1.00  0.00     0.124 S 
ATOM     75  O   UNL A   1      31.840  36.429  30.447  1.00  0.00    -0.237 OA
ATOM     76  O   UNL A   1      31.580  35.049  32.480  1.00  0.00    -0.237 OA
ATOM     77  O   UNL A   1      32.845  37.166  32.572  1.00  0.00    -0.744 OA
ENDBRANCH  73  74
ENDBRANCH  52  66
BRANCH  53  78
ATOM     78  C   UNL A   1      44.318  28.767  28.674  1.00  0.00     0.058 A 
ATOM     79  C   UNL A   1      43.832  28.964  27.363  1.00  0.00     0.135 A 
ATOM     80  C   UNL A   1      45.278  27.755  28.842  1.00  0.00     0.135 A 
ATOM     81  F   UNL A   1      42.898  29.900  27.130  1.00  0.00    -0.206 F 
ATOM     82  C   UNL A   1      44.368  28.301  26.260  1.00  0.00     0.059 A 
ATOM     83  C   UNL A   1      45.817  27.061  27.749  1.00  0.00     0.059 A 
ATOM     84  F   UNL A   1      45.779  27.491  30.056  1.00  0.00    -0.206 F 
ATOM     85  C   UNL A   1      45.391  27.377  26.458  1.00  0.00     0.060 A 
BRANCH  85  86
ATOM     86  S   UNL A   1      46.251  26.737  24.997  1.00  0.00     0.124 S 
ATOM     87  O   UNL A   1      46.037  27.805  24.028  1.00  0.00    -0.237 OA
ATOM     88  O   UNL A   1      47.618  26.597  25.494  1.00  0.00    -0.237 OA
ATOM     89  O   UNL A   1      45.558  25.482  24.725  1.00  0.00    -0.744 OA
ENDBRANCH  85  86
ENDBRANCH  53  78
BRANCH  65  90
ATOM     90  C   UNL A   1      42.520  35.818  29.301  1.00  0.00     0.058 A 
ATOM     91  C   UNL A   1      43.380  36.636  30.045  1.00  0.00     0.135 A 
ATOM     92  C   UNL A   1      41.977  36.408  28.127  1.00  0.00     0.135 A 
ATOM     93  F   UNL A   1      44.050  36.165  31.106  1.00  0.00    -0.206 F 
ATOM     94  C   UNL A   1      43.631  37.963  29.699  1.00  0.00     0.059 A 
ATOM     95  C   UNL A   1      42.266  37.708  27.730  1.00  0.00     0.059 A 
ATOM     96  F   UNL A   1      41.160  35.734  27.306  1.00  0.00    -0.206 F 
ATOM     97  C   UNL A   1      43.071  38.490  28.539  1.00  0.00     0.060 A 
BRANCH  97  98
ATOM     98  S   UNL A   1      43.445  40.183  28.059  1.00  0.00     0.124 S 
ATOM     99  O   UNL A   1      42.708  40.295  26.804  1.00  0.00    -0.237 OA
ATOM    100  O   UNL A   1      42.910  40.958  29.176  1.00  0.00    -0.237 OA
ATOM    101  O   UNL A   1      44.899  40.185  27.944  1.00  0.00    -0.744 OA
ENDBRANCH  97  98
ENDBRANCH  65  90
ENDBRANCH  39  40
ENDBRANCH  32  34
ENDBRANCH  31  32
ENDBRANCH   1  31
TORSDOF 16
ENDMDL
MODEL 3
REMARK VINA RESULT:     -14.3      2.268      3.277
REMARK SMILES Cc1ccc([C@@]23C[C@@H]4C[C@@H](C[C@@](C(=O)N5CCC(C(=O)OCCOC(=O)c6ccc(-c7c8nc(c(-c9c(F)cc(S(=O)(=O)[O-])cc9F)c9ccc([nH]9)c(-c9c(F)cc(S(=O)(=O)[O-])cc9F)c9nc(c(-c%10c(F)cc(S(=O)(=O)[O-])cc%10F)c%10ccc7[nH]%10)C=C9)C=C8)cc6)CC5)(C4)C2)C3)cc1
REMARK SMILES IDX 23 1 22 2 21 3 19 4 20 5 18 6 13 7 14 8 15 9 16 10 94 11
REMARK SMILES IDX 17 12 93 13 12 14 6 15 7 16 96 17 97 18 8 19 10 20 9 21
REMARK SMILES IDX 95 22 11 23 5 24 1 25 2 26 3 27 99 28 4 29 98 30 24 31 25 32
REMARK SMILES IDX 26 33 27 34 28 35 92 36 29 37 91 38 30 39 31 40 32 41 85 42
REMARK SMILES IDX 33 43 90 44 84 45 86 46 34 47 89 48 83 49 82 50 35 52 69 53
REMARK SMILES IDX 48 54 68 55 49 56 52 57 67 58 87 59 50 60 51 61 66 63 88 64
REMARK SMILES IDX 53 65 36 66 37 67 46 68 38 69 39 70 45 71 47 72 40 73 41 74
REMARK SMILES IDX 42 75 43 76 44 77 70 78 71 79 80 80 72 81 73 82 79 83 81 84
REMARK SMILES IDX 74 85 75 86 76 87 77 88 78 89 54 90 55 91 64 92 56 93 57 94
REMARK SMILES IDX 63 95 65 96 58 97 59 98 60 99 61 100 62 101
REMARK H PARENT 86 51 52 62
REMARK Flexibility Score: inf
ROOT
ATOM      1  C   UNL A   1      32.456  32.052  27.168  1.00  0.00     0.275 C 
ENDROOT
BRANCH   1   2
ATOM      2  C   UNL A   1      31.766  30.810  26.573  1.00  0.00     0.274 C 
BRANCH   2   3
ATOM      3  O   UNL A   1      32.309  29.643  27.194  1.00  0.00    -0.462 OA
BRANCH   3   4
ATOM      4  C   UNL A   1      31.679  28.470  26.946  1.00  0.00     0.309 C 
ATOM      5  O   UNL A   1      31.083  27.818  27.793  1.00  0.00    -0.252 OA
BRANCH   4   6
ATOM      6  C   UNL A   1      31.867  28.103  25.486  1.00  0.00     0.103 C 
ATOM      7  C   UNL A   1      32.369  24.574  24.510  1.00  0.00     0.228 C 
ATOM      8  O   UNL A   1      31.298  24.008  24.741  1.00  0.00    -0.274 OA
ATOM      9  N   UNL A   1      32.399  25.843  23.927  1.00  0.00    -0.342 N 
ATOM     10  C   UNL A   1      31.120  26.479  23.670  1.00  0.00     0.120 C 
ATOM     11  C   UNL A   1      33.472  26.827  24.026  1.00  0.00     0.120 C 
ATOM     12  C   UNL A   1      30.729  27.218  24.939  1.00  0.00     0.037 C 
ATOM     13  C   UNL A   1      33.290  27.571  25.333  1.00  0.00     0.037 C 
BRANCH   7  14
ATOM     14  C   UNL A   1      33.687  23.838  24.794  1.00  0.00     0.051 C 
ATOM     15  C   UNL A   1      34.582  21.448  25.001  1.00  0.00    -0.003 C 
ATOM     16  C   UNL A   1      35.678  21.862  23.971  1.00  0.00     0.015 C 
ATOM     17  C   UNL A   1      33.356  22.346  24.768  1.00  0.00     0.028 C 
ATOM     18  C   UNL A   1      35.104  21.777  26.424  1.00  0.00     0.015 C 
ATOM     19  C   UNL A   1      36.073  23.344  24.130  1.00  0.00    -0.009 C 
ATOM     20  C   UNL A   1      35.442  23.282  26.549  1.00  0.00    -0.009 C 
ATOM     21  C   UNL A   1      36.556  23.626  25.553  1.00  0.00     0.007 C 
ATOM     22  C   UNL A   1      34.844  24.205  23.845  1.00  0.00     0.020 C 
ATOM     23  C   UNL A   1      34.198  24.139  26.232  1.00  0.00     0.020 C 
BRANCH  15  24
ATOM     24  C   UNL A   1      34.192  19.969  24.834  1.00  0.00    -0.042 A 
ATOM     25  C   UNL A   1      33.130  15.767  24.625  1.00  0.00     0.044 C 
ATOM     26  C   UNL A   1      33.474  17.223  24.680  1.00  0.00    -0.051 A 
ATOM     27  C   UNL A   1      34.806  17.608  24.562  1.00  0.00     0.004 A 
ATOM     28  C   UNL A   1      32.501  18.209  24.860  1.00  0.00     0.004 A 
ATOM     29  C   UNL A   1      35.152  18.956  24.627  1.00  0.00     0.004 A 
ATOM     30  C   UNL A   1      32.854  19.564  24.933  1.00  0.00     0.004 A 
ENDBRANCH  15  24
ENDBRANCH   7  14
ENDBRANCH   4   6
ENDBRANCH   3   4
ENDBRANCH   2   3
ENDBRANCH   1   2
BRANCH   1  31
ATOM     31  O   UNL A   1      33.812  31.868  27.640  1.00  0.00    -0.458 OA
BRANCH  31  32
ATOM     32  C   UNL A   1      34.458  32.965  28.142  1.00  0.00     0.338 C 
ATOM     33  O   UNL A   1      33.987  34.089  28.167  1.00  0.00    -0.246 OA
BRANCH  32  34
ATOM     34  C   UNL A   1      35.605  32.472  28.969  1.00  0.00     0.060 A 
ATOM     35  C   UNL A   1      35.514  31.260  29.666  1.00  0.00     0.016 A 
ATOM     36  C   UNL A   1      36.859  33.025  28.707  1.00  0.00     0.016 A 
ATOM     37  C   UNL A   1      36.678  30.516  29.921  1.00  0.00     0.010 A 
ATOM     38  C   UNL A   1      37.975  32.236  28.819  1.00  0.00     0.010 A 
ATOM     39  C   UNL A   1      37.896  30.971  29.409  1.00  0.00    -0.014 A 
BRANCH  39  40
ATOM     40  C   UNL A   1      39.204  30.385  29.672  1.00  0.00     0.031 A 
ATOM     41  C   UNL A   1      39.666  29.068  29.168  1.00  0.00     0.074 A 
ATOM     42  C   UNL A   1      40.030  31.251  30.298  1.00  0.00     0.049 A 
ATOM     43  N   UNL A   1      40.467  28.279  29.808  1.00  0.00    -0.248 NA
ATOM     44  C   UNL A   1      39.261  28.514  27.878  1.00  0.00     0.031 C 
ATOM     45  C   UNL A   1      41.456  31.152  30.529  1.00  0.00     0.029 A 
ATOM     46  N   UNL A   1      39.667  32.412  30.996  1.00  0.00    -0.354 N 
ATOM     47  C   UNL A   1      40.882  27.299  28.917  1.00  0.00     0.074 A 
ATOM     48  C   UNL A   1      39.978  27.384  27.799  1.00  0.00     0.031 C 
ATOM     49  C   UNL A   1      41.760  31.961  31.564  1.00  0.00     0.029 A 
ATOM     50  C   UNL A   1      40.495  32.449  32.108  1.00  0.00     0.049 A 
ATOM     51  H   UNL A   1      38.972  33.064  30.748  1.00  0.00     0.167 HD
ATOM     52  C   UNL A   1      42.087  26.674  29.075  1.00  0.00     0.037 A 
ATOM     53  C   UNL A   1      40.026  32.213  33.371  1.00  0.00     0.037 A 
ATOM     54  C   UNL A   1      42.819  27.311  30.157  1.00  0.00     0.049 A 
ATOM     55  C   UNL A   1      40.778  31.059  33.992  1.00  0.00     0.074 A 
ATOM     56  C   UNL A   1      43.711  28.370  30.123  1.00  0.00     0.029 A 
ATOM     57  N   UNL A   1      42.418  27.160  31.474  1.00  0.00    -0.354 N 
ATOM     58  N   UNL A   1      41.185  30.010  33.328  1.00  0.00    -0.248 NA
ATOM     59  C   UNL A   1      41.226  31.062  35.380  1.00  0.00     0.031 C 
ATOM     60  C   UNL A   1      43.794  28.909  31.423  1.00  0.00     0.029 A 
ATOM     61  C   UNL A   1      42.965  28.165  32.246  1.00  0.00     0.049 A 
ATOM     62  H   UNL A   1      41.831  26.443  31.809  1.00  0.00     0.167 HD
ATOM     63  C   UNL A   1      42.025  29.276  34.129  1.00  0.00     0.074 A 
ATOM     64  C   UNL A   1      41.987  29.955  35.413  1.00  0.00     0.031 C 
ATOM     65  C   UNL A   1      42.755  28.214  33.678  1.00  0.00     0.037 A 
BRANCH  52  66
ATOM     66  C   UNL A   1      42.762  25.786  28.041  1.00  0.00     0.058 A 
ATOM     67  C   UNL A   1      42.407  24.422  27.908  1.00  0.00     0.135 A 
ATOM     68  C   UNL A   1      43.753  26.225  27.141  1.00  0.00     0.135 A 
ATOM     69  F   UNL A   1      41.433  23.873  28.643  1.00  0.00    -0.206 F 
ATOM     70  C   UNL A   1      43.041  23.547  27.027  1.00  0.00     0.059 A 
ATOM     71  C   UNL A   1      44.422  25.358  26.259  1.00  0.00     0.059 A 
ATOM     72  F   UNL A   1      44.091  27.523  27.077  1.00  0.00    -0.206 F 
ATOM     73  C   UNL A   1      44.067  24.013  26.220  1.00  0.00     0.060 A 
BRANCH  73  74
ATOM     74  S   UNL A   1      44.903  22.829  25.143  1.00  0.00     0.124 S 
ATOM     75  O   UNL A   1      45.270  23.661  24.001  1.00  0.00    -0.237 OA
ATOM     76  O   UNL A   1      46.011  22.379  25.979  1.00  0.00    -0.237 OA
ATOM     77  O   UNL A   1      43.876  21.826  24.873  1.00  0.00    -0.744 OA
ENDBRANCH  73  74
ENDBRANCH  52  66
BRANCH  53  78
ATOM     78  C   UNL A   1      38.579  32.533  33.604  1.00  0.00     0.058 A 
ATOM     79  C   UNL A   1      38.232  33.862  33.931  1.00  0.00     0.135 A 
ATOM     80  C   UNL A   1      37.528  31.684  33.222  1.00  0.00     0.135 A 
ATOM     81  F   UNL A   1      39.182  34.724  34.325  1.00  0.00    -0.206 F 
ATOM     82  C   UNL A   1      36.942  34.362  33.751  1.00  0.00     0.059 A 
ATOM     83  C   UNL A   1      36.219  32.161  33.054  1.00  0.00     0.059 A 
ATOM     84  F   UNL A   1      37.769  30.403  32.912  1.00  0.00    -0.206 F 
ATOM     85  C   UNL A   1      35.949  33.512  33.273  1.00  0.00     0.060 A 
BRANCH  85  86
ATOM     86  S   UNL A   1      34.364  34.247  32.791  1.00  0.00     0.124 S 
ATOM     87  O   UNL A   1      34.535  34.418  31.353  1.00  0.00    -0.237 OA
ATOM     88  O   UNL A   1      33.419  33.209  33.198  1.00  0.00    -0.237 OA
ATOM     89  O   UNL A   1      34.312  35.476  33.576  1.00  0.00    -0.744 OA
ENDBRANCH  85  86
ENDBRANCH  53  78
BRANCH  65  90
ATOM     90  C   UNL A   1      43.488  27.203  34.527  1.00  0.00     0.058 A 
ATOM     91  C   UNL A   1      44.840  27.327  34.875  1.00  0.00     0.135 A 
ATOM     92  C   UNL A   1      42.786  26.146  35.167  1.00  0.00     0.135 A 
ATOM     93  F   UNL A   1      45.585  28.351  34.435  1.00  0.00    -0.206 F 
ATOM     94  C   UNL A   1      45.473  26.432  35.735  1.00  0.00     0.059 A 
ATOM     95  C   UNL A   1      43.383  25.282  36.077  1.00  0.00     0.059 A 
ATOM     96  F   UNL A   1      41.482  25.926  34.949  1.00  0.00    -0.206 F 
ATOM     97  C   UNL A   1      44.737  25.413  36.333  1.00  0.00     0.060 A 
BRANCH  97  98
ATOM     98  S   UNL A   1      45.539  24.295  37.491  1.00  0.00     0.124 S 
ATOM     99  O   UNL A   1      46.914  24.786  37.458  1.00  0.00    -0.237 OA
ATOM    100  O   UNL A   1      44.811  24.543  38.732  1.00  0.00    -0.237 OA
ATOM    101  O   UNL A   1      45.319  22.982  36.896  1.00  0.00    -0.744 OA
ENDBRANCH  97  98
ENDBRANCH  65  90
ENDBRANCH  39  40
ENDBRANCH  32  34
ENDBRANCH  31  32
ENDBRANCH   1  31
TORSDOF 16
ENDMDL
