MODEL 1
REMARK VINA RESULT:      -9.5      0.000      0.000
REMARK SMILES CC[C@@](C)(Nc1ccccc1Br)C(=O)OCCOC(=O)c1ccc(-c2c3nc(c(-c4c(F)cc(S(=O)(=O)[O-])cc4F)c4ccc([nH]4)c(-c4c(F)cc(S(=O)(=O)[O-])cc4F)c4nc(c(-c5c(F)cc(S(=O)(=O)[O-])cc5F)c5ccc2[nH]5)C=C4)C=C3)cc1
REMARK SMILES IDX 17 1 16 2 15 3 13 4 14 5 3 6 4 7 2 8 1 9 5 10 6 12 7 13
REMARK SMILES IDX 11 14 8 15 10 16 12 17 9 18 18 19 19 20 20 21 21 22 22 23
REMARK SMILES IDX 86 24 23 25 85 26 24 27 25 28 26 29 79 30 27 31 84 32 78 33
REMARK SMILES IDX 80 34 28 35 83 36 77 37 76 38 29 40 63 41 42 42 62 43 43 44
REMARK SMILES IDX 46 45 61 46 81 47 44 48 45 49 60 51 82 52 47 53 30 54 31 55
REMARK SMILES IDX 40 56 32 57 33 58 39 59 41 60 34 61 35 62 36 63 37 64 38 65
REMARK SMILES IDX 64 66 65 67 74 68 66 69 67 70 73 71 75 72 68 73 69 74 70 75
REMARK SMILES IDX 71 76 72 77 48 78 49 79 58 80 50 81 51 82 57 83 59 84 52 85
REMARK SMILES IDX 53 86 54 87 55 88 56 89
REMARK H PARENT 5 11 80 39 46 50
REMARK Flexibility Score: inf
ROOT
ATOM      1  C   UNL A   1      32.850  31.916  27.331  1.00  0.00     0.275 C 
ENDROOT
BRANCH   1   2
ATOM      2  C   UNL A   1      32.830  33.407  27.645  1.00  0.00     0.274 C 
BRANCH   2   3
ATOM      3  O   UNL A   1      33.334  33.608  28.979  1.00  0.00    -0.460 OA
BRANCH   3   4
ATOM      4  C   UNL A   1      34.410  34.411  29.156  1.00  0.00     0.331 C 
ATOM      5  O   UNL A   1      34.488  35.530  28.656  1.00  0.00    -0.249 OA
BRANCH   4   6
ATOM      6  C   UNL A   1      35.571  33.780  29.992  1.00  0.00     0.133 C 
ATOM      7  C   UNL A   1      34.955  32.571  30.725  1.00  0.00     0.047 C 
BRANCH   6   8
ATOM      8  C   UNL A   1      36.730  33.295  29.067  1.00  0.00     0.037 C 
ATOM      9  C   UNL A   1      38.066  34.025  29.171  1.00  0.00     0.007 C 
ENDBRANCH   6   8
BRANCH   6  10
ATOM     10  N   UNL A   1      36.220  34.607  31.059  1.00  0.00    -0.369 N 
ATOM     11  H   UNL A   1      36.700  35.412  30.758  1.00  0.00     0.161 HD
BRANCH  10  12
ATOM     12  C   UNL A   1      36.218  34.363  32.422  1.00  0.00     0.049 A 
ATOM     13  C   UNL A   1      37.213  33.547  32.978  1.00  0.00     0.027 A 
ATOM     14  C   UNL A   1      35.215  34.850  33.285  1.00  0.00     0.041 A 
ATOM     15  C   UNL A   1      37.238  33.265  34.348  1.00  0.00     0.002 A 
ATOM     16  C   UNL A   1      35.249  34.584  34.658  1.00  0.00     0.018 A 
ATOM     17  Br  UNL A   1      33.759  35.896  32.646  1.00  0.00    -0.049 Br
ATOM     18  C   UNL A   1      36.263  33.793  35.190  1.00  0.00     0.001 A 
ENDBRANCH  10  12
ENDBRANCH   6  10
ENDBRANCH   4   6
ENDBRANCH   3   4
ENDBRANCH   2   3
ENDBRANCH   1   2
BRANCH   1  19
ATOM     19  O   UNL A   1      34.174  31.441  27.609  1.00  0.00    -0.458 OA
BRANCH  19  20
ATOM     20  C   UNL A   1      34.309  30.114  27.800  1.00  0.00     0.338 C 
ATOM     21  O   UNL A   1      33.439  29.256  27.739  1.00  0.00    -0.246 OA
BRANCH  20  22
ATOM     22  C   UNL A   1      35.724  29.851  28.115  1.00  0.00     0.060 A 
ATOM     23  C   UNL A   1      36.697  30.044  27.130  1.00  0.00     0.016 A 
ATOM     24  C   UNL A   1      36.087  29.386  29.377  1.00  0.00     0.016 A 
ATOM     25  C   UNL A   1      38.032  29.741  27.389  1.00  0.00     0.010 A 
ATOM     26  C   UNL A   1      37.435  29.147  29.658  1.00  0.00     0.010 A 
ATOM     27  C   UNL A   1      38.420  29.303  28.663  1.00  0.00    -0.014 A 
BRANCH  27  28
ATOM     28  C   UNL A   1      39.840  28.968  28.953  1.00  0.00     0.031 A 
ATOM     29  C   UNL A   1      40.741  30.009  29.562  1.00  0.00     0.074 A 
ATOM     30  C   UNL A   1      40.328  27.745  28.669  1.00  0.00     0.049 A 
ATOM     31  N   UNL A   1      42.040  29.995  29.714  1.00  0.00    -0.248 NA
ATOM     32  C   UNL A   1      40.092  31.235  30.058  1.00  0.00     0.031 C 
ATOM     33  C   UNL A   1      39.558  26.627  28.119  1.00  0.00     0.029 A 
ATOM     34  N   UNL A   1      41.598  27.237  28.797  1.00  0.00    -0.354 N 
ATOM     35  C   UNL A   1      42.369  31.220  30.282  1.00  0.00     0.074 A 
ATOM     36  C   UNL A   1      41.134  31.956  30.446  1.00  0.00     0.031 C 
ATOM     37  C   UNL A   1      40.367  25.566  27.967  1.00  0.00     0.029 A 
ATOM     38  C   UNL A   1      41.725  25.946  28.344  1.00  0.00     0.049 A 
ATOM     39  H   UNL A   1      42.348  27.751  29.178  1.00  0.00     0.167 HD
ATOM     40  C   UNL A   1      43.591  31.686  30.635  1.00  0.00     0.037 A 
ATOM     41  C   UNL A   1      42.817  25.168  28.203  1.00  0.00     0.037 A 
ATOM     42  C   UNL A   1      44.814  30.938  30.503  1.00  0.00     0.049 A 
ATOM     43  C   UNL A   1      44.166  25.720  28.573  1.00  0.00     0.074 A 
ATOM     44  C   UNL A   1      46.104  31.330  30.819  1.00  0.00     0.029 A 
ATOM     45  N   UNL A   1      44.897  29.637  30.032  1.00  0.00    -0.354 N 
ATOM     46  N   UNL A   1      44.470  26.905  29.049  1.00  0.00    -0.248 NA
ATOM     47  C   UNL A   1      45.324  24.838  28.370  1.00  0.00     0.031 C 
ATOM     48  C   UNL A   1      46.969  30.272  30.518  1.00  0.00     0.029 A 
ATOM     49  C   UNL A   1      46.215  29.210  30.047  1.00  0.00     0.049 A 
ATOM     50  H   UNL A   1      44.132  29.094  29.732  1.00  0.00     0.167 HD
ATOM     51  C   UNL A   1      45.851  26.906  29.205  1.00  0.00     0.074 A 
ATOM     52  C   UNL A   1      46.322  25.598  28.798  1.00  0.00     0.031 C 
ATOM     53  C   UNL A   1      46.662  27.904  29.638  1.00  0.00     0.037 A 
BRANCH  40  54
ATOM     54  C   UNL A   1      43.670  33.083  31.181  1.00  0.00     0.058 A 
ATOM     55  C   UNL A   1      43.583  33.344  32.557  1.00  0.00     0.135 A 
ATOM     56  C   UNL A   1      43.878  34.171  30.317  1.00  0.00     0.135 A 
ATOM     57  F   UNL A   1      43.363  32.343  33.422  1.00  0.00    -0.206 F 
ATOM     58  C   UNL A   1      43.685  34.639  33.057  1.00  0.00     0.059 A 
ATOM     59  C   UNL A   1      44.004  35.471  30.798  1.00  0.00     0.059 A 
ATOM     60  F   UNL A   1      43.964  33.975  28.992  1.00  0.00    -0.206 F 
ATOM     61  C   UNL A   1      43.895  35.696  32.169  1.00  0.00     0.060 A 
BRANCH  61  62
ATOM     62  S   UNL A   1      44.040  37.369  32.833  1.00  0.00     0.124 S 
ATOM     63  O   UNL A   1      42.942  37.396  33.795  1.00  0.00    -0.237 OA
ATOM     64  O   UNL A   1      45.383  37.364  33.405  1.00  0.00    -0.237 OA
ATOM     65  O   UNL A   1      43.867  38.217  31.658  1.00  0.00    -0.744 OA
ENDBRANCH  61  62
ENDBRANCH  40  54
BRANCH  41  66
ATOM     66  C   UNL A   1      42.692  23.797  27.640  1.00  0.00     0.058 A 
ATOM     67  C   UNL A   1      42.525  22.683  28.476  1.00  0.00     0.135 A 
ATOM     68  C   UNL A   1      42.752  23.573  26.256  1.00  0.00     0.135 A 
ATOM     69  F   UNL A   1      42.475  22.845  29.807  1.00  0.00    -0.206 F 
ATOM     70  C   UNL A   1      42.441  21.393  27.962  1.00  0.00     0.059 A 
ATOM     71  C   UNL A   1      42.644  22.295  25.717  1.00  0.00     0.059 A 
ATOM     72  F   UNL A   1      42.899  24.608  25.413  1.00  0.00    -0.206 F 
ATOM     73  C   UNL A   1      42.503  21.209  26.579  1.00  0.00     0.060 A 
BRANCH  73  74
ATOM     74  S   UNL A   1      42.357  19.539  25.910  1.00  0.00     0.124 S 
ATOM     75  O   UNL A   1      42.641  18.726  27.089  1.00  0.00    -0.237 OA
ATOM     76  O   UNL A   1      40.976  19.512  25.436  1.00  0.00    -0.237 OA
ATOM     77  O   UNL A   1      43.371  19.511  24.861  1.00  0.00    -0.744 OA
ENDBRANCH  73  74
ENDBRANCH  41  66
BRANCH  53  78
ATOM     78  C   UNL A   1      48.132  27.606  29.711  1.00  0.00     0.058 A 
ATOM     79  C   UNL A   1      49.003  27.965  28.671  1.00  0.00     0.135 A 
ATOM     80  C   UNL A   1      48.676  26.973  30.838  1.00  0.00     0.135 A 
ATOM     81  F   UNL A   1      48.529  28.568  27.569  1.00  0.00    -0.206 F 
ATOM     82  C   UNL A   1      50.362  27.678  28.734  1.00  0.00     0.059 A 
ATOM     83  C   UNL A   1      50.036  26.695  30.931  1.00  0.00     0.059 A 
ATOM     84  F   UNL A   1      47.884  26.618  31.864  1.00  0.00    -0.206 F 
ATOM     85  C   UNL A   1      50.869  27.037  29.866  1.00  0.00     0.060 A 
BRANCH  85  86
ATOM     86  S   UNL A   1      52.636  26.675  29.944  1.00  0.00     0.124 S 
ATOM     87  O   UNL A   1      52.876  26.103  28.625  1.00  0.00    -0.237 OA
ATOM     88  O   UNL A   1      53.219  27.992  30.180  1.00  0.00    -0.237 OA
ATOM     89  O   UNL A   1      52.740  25.743  31.063  1.00  0.00    -0.744 OA
ENDBRANCH  85  86
ENDBRANCH  53  78
ENDBRANCH  27  28
ENDBRANCH  20  22
ENDBRANCH  19  20
ENDBRANCH   1  19
TORSDOF 17
ENDMDL
MODEL 2
REMARK VINA RESULT:      -9.3      5.388     11.951
REMARK SMILES CC[C@@](C)(Nc1ccccc1Br)C(=O)OCCOC(=O)c1ccc(-c2c3nc(c(-c4c(F)cc(S(=O)(=O)[O-])cc4F)c4ccc([nH]4)c(-c4c(F)cc(S(=O)(=O)[O-])cc4F)c4nc(c(-c5c(F)cc(S(=O)(=O)[O-])cc5F)c5ccc2[nH]5)C=C4)C=C3)cc1
REMARK SMILES IDX 17 1 16 2 15 3 13 4 14 5 3 6 4 7 2 8 1 9 5 10 6 12 7 13
REMARK SMILES IDX 11 14 8 15 10 16 12 17 9 18 18 19 19 20 20 21 21 22 22 23
REMARK SMILES IDX 86 24 23 25 85 26 24 27 25 28 26 29 79 30 27 31 84 32 78 33
REMARK SMILES IDX 80 34 28 35 83 36 77 37 76 38 29 40 63 41 42 42 62 43 43 44
REMARK SMILES IDX 46 45 61 46 81 47 44 48 45 49 60 51 82 52 47 53 30 54 31 55
REMARK SMILES IDX 40 56 32 57 33 58 39 59 41 60 34 61 35 62 36 63 37 64 38 65
REMARK SMILES IDX 64 66 65 67 74 68 66 69 67 70 73 71 75 72 68 73 69 74 70 75
REMARK SMILES IDX 71 76 72 77 48 78 49 79 58 80 50 81 51 82 57 83 59 84 52 85
REMARK SMILES IDX 53 86 54 87 55 88 56 89
REMARK H PARENT 5 11 80 39 46 50
REMARK Flexibility Score: inf
ROOT
ATOM      1  C   UNL A   1      40.854  22.091  26.394  1.00  0.00     0.275 C 
ENDROOT
BRANCH   1   2
ATOM      2  C   UNL A   1      39.561  21.290  26.301  1.00  0.00     0.274 C 
BRANCH   2   3
ATOM      3  O   UNL A   1      38.633  22.000  25.458  1.00  0.00    -0.460 OA
BRANCH   3   4
ATOM      4  C   UNL A   1      37.366  21.537  25.347  1.00  0.00     0.331 C 
ATOM      5  O   UNL A   1      37.111  20.363  25.088  1.00  0.00    -0.249 OA
BRANCH   4   6
ATOM      6  C   UNL A   1      36.252  22.622  25.511  1.00  0.00     0.133 C 
ATOM      7  C   UNL A   1      36.963  23.875  26.063  1.00  0.00     0.047 C 
BRANCH   6   8
ATOM      8  C   UNL A   1      35.589  22.959  24.140  1.00  0.00     0.037 C 
ATOM      9  C   UNL A   1      36.489  22.967  22.907  1.00  0.00     0.007 C 
ENDBRANCH   6   8
BRANCH   6  10
ATOM     10  N   UNL A   1      35.122  22.355  26.457  1.00  0.00    -0.369 N 
ATOM     11  H   UNL A   1      35.355  21.909  27.303  1.00  0.00     0.161 HD
BRANCH  10  12
ATOM     12  C   UNL A   1      33.786  22.666  26.271  1.00  0.00     0.049 A 
ATOM     13  C   UNL A   1      33.309  23.923  26.666  1.00  0.00     0.027 A 
ATOM     14  C   UNL A   1      32.851  21.747  25.752  1.00  0.00     0.041 A 
ATOM     15  C   UNL A   1      31.963  24.271  26.508  1.00  0.00     0.002 A 
ATOM     16  C   UNL A   1      31.508  22.099  25.576  1.00  0.00     0.018 A 
ATOM     17  Br  UNL A   1      33.349  19.977  25.259  1.00  0.00    -0.049 Br
ATOM     18  C   UNL A   1      31.065  23.363  25.952  1.00  0.00     0.001 A 
ENDBRANCH  10  12
ENDBRANCH   6  10
ENDBRANCH   4   6
ENDBRANCH   3   4
ENDBRANCH   2   3
ENDBRANCH   1   2
BRANCH   1  19
ATOM     19  O   UNL A   1      40.490  23.457  26.637  1.00  0.00    -0.458 OA
BRANCH  19  20
ATOM     20  C   UNL A   1      41.440  24.383  26.397  1.00  0.00     0.338 C 
ATOM     21  O   UNL A   1      42.291  24.372  25.518  1.00  0.00    -0.246 OA
BRANCH  20  22
ATOM     22  C   UNL A   1      41.289  25.447  27.404  1.00  0.00     0.060 A 
ATOM     23  C   UNL A   1      42.189  26.517  27.415  1.00  0.00     0.016 A 
ATOM     24  C   UNL A   1      40.276  25.373  28.356  1.00  0.00     0.016 A 
ATOM     25  C   UNL A   1      42.101  27.501  28.398  1.00  0.00     0.010 A 
ATOM     26  C   UNL A   1      40.146  26.396  29.299  1.00  0.00     0.010 A 
ATOM     27  C   UNL A   1      41.067  27.460  29.344  1.00  0.00    -0.014 A 
BRANCH  27  28
ATOM     28  C   UNL A   1      40.965  28.498  30.404  1.00  0.00     0.031 A 
ATOM     29  C   UNL A   1      41.906  28.458  31.579  1.00  0.00     0.074 A 
ATOM     30  C   UNL A   1      40.035  29.471  30.325  1.00  0.00     0.049 A 
ATOM     31  N   UNL A   1      41.866  29.137  32.696  1.00  0.00    -0.248 NA
ATOM     32  C   UNL A   1      43.037  27.518  31.487  1.00  0.00     0.031 C 
ATOM     33  C   UNL A   1      39.090  29.657  29.222  1.00  0.00     0.029 A 
ATOM     34  N   UNL A   1      39.726  30.485  31.198  1.00  0.00    -0.354 N 
ATOM     35  C   UNL A   1      42.937  28.681  33.456  1.00  0.00     0.074 A 
ATOM     36  C   UNL A   1      43.607  27.663  32.675  1.00  0.00     0.031 C 
ATOM     37  C   UNL A   1      38.316  30.724  29.480  1.00  0.00     0.029 A 
ATOM     38  C   UNL A   1      38.662  31.256  30.795  1.00  0.00     0.049 A 
ATOM     39  H   UNL A   1      40.220  30.644  32.036  1.00  0.00     0.167 HD
ATOM     40  C   UNL A   1      43.325  29.076  34.692  1.00  0.00     0.037 A 
ATOM     41  C   UNL A   1      38.008  32.250  31.428  1.00  0.00     0.037 A 
ATOM     42  C   UNL A   1      42.677  30.112  35.453  1.00  0.00     0.049 A 
ATOM     43  C   UNL A   1      38.438  32.648  32.813  1.00  0.00     0.074 A 
ATOM     44  C   UNL A   1      42.986  30.573  36.721  1.00  0.00     0.029 A 
ATOM     45  N   UNL A   1      41.598  30.861  35.009  1.00  0.00    -0.354 N 
ATOM     46  N   UNL A   1      39.413  32.163  33.545  1.00  0.00    -0.248 NA
ATOM     47  C   UNL A   1      37.669  33.717  33.466  1.00  0.00     0.031 C 
ATOM     48  C   UNL A   1      42.080  31.587  37.052  1.00  0.00     0.029 A 
ATOM     49  C   UNL A   1      41.228  31.780  35.977  1.00  0.00     0.049 A 
ATOM     50  H   UNL A   1      41.159  30.756  34.133  1.00  0.00     0.167 HD
ATOM     51  C   UNL A   1      39.375  32.871  34.741  1.00  0.00     0.074 A 
ATOM     52  C   UNL A   1      38.299  33.834  34.626  1.00  0.00     0.031 C 
ATOM     53  C   UNL A   1      40.155  32.730  35.842  1.00  0.00     0.037 A 
BRANCH  40  54
ATOM     54  C   UNL A   1      44.495  28.368  35.312  1.00  0.00     0.058 A 
ATOM     55  C   UNL A   1      44.330  27.222  36.105  1.00  0.00     0.135 A 
ATOM     56  C   UNL A   1      45.804  28.819  35.074  1.00  0.00     0.135 A 
ATOM     57  F   UNL A   1      43.100  26.763  36.382  1.00  0.00    -0.206 F 
ATOM     58  C   UNL A   1      45.422  26.556  36.654  1.00  0.00     0.059 A 
ATOM     59  C   UNL A   1      46.911  28.156  35.595  1.00  0.00     0.059 A 
ATOM     60  F   UNL A   1      46.016  29.913  34.325  1.00  0.00    -0.206 F 
ATOM     61  C   UNL A   1      46.709  27.032  36.393  1.00  0.00     0.060 A 
BRANCH  61  62
ATOM     62  S   UNL A   1      48.117  26.148  37.098  1.00  0.00     0.124 S 
ATOM     63  O   UNL A   1      49.239  26.844  36.473  1.00  0.00    -0.237 OA
ATOM     64  O   UNL A   1      47.949  26.379  38.529  1.00  0.00    -0.237 OA
ATOM     65  O   UNL A   1      47.909  24.772  36.660  1.00  0.00    -0.744 OA
ENDBRANCH  61  62
ENDBRANCH  40  54
BRANCH  41  66
ATOM     66  C   UNL A   1      36.841  32.909  30.782  1.00  0.00     0.058 A 
ATOM     67  C   UNL A   1      37.018  33.898  29.803  1.00  0.00     0.135 A 
ATOM     68  C   UNL A   1      35.527  32.572  31.142  1.00  0.00     0.135 A 
ATOM     69  F   UNL A   1      38.256  34.262  29.434  1.00  0.00    -0.206 F 
ATOM     70  C   UNL A   1      35.935  34.544  29.217  1.00  0.00     0.059 A 
ATOM     71  C   UNL A   1      34.428  33.186  30.551  1.00  0.00     0.059 A 
ATOM     72  F   UNL A   1      35.305  31.624  32.066  1.00  0.00    -0.206 F 
ATOM     73  C   UNL A   1      34.642  34.182  29.600  1.00  0.00     0.060 A 
BRANCH  73  74
ATOM     74  S   UNL A   1      33.235  34.995  28.812  1.00  0.00     0.124 S 
ATOM     75  O   UNL A   1      32.413  35.339  29.967  1.00  0.00    -0.237 OA
ATOM     76  O   UNL A   1      33.867  36.115  28.122  1.00  0.00    -0.237 OA
ATOM     77  O   UNL A   1      32.697  33.956  27.939  1.00  0.00    -0.744 OA
ENDBRANCH  73  74
ENDBRANCH  41  66
BRANCH  53  78
ATOM     78  C   UNL A   1      39.881  33.654  36.994  1.00  0.00     0.058 A 
ATOM     79  C   UNL A   1      38.998  33.297  38.025  1.00  0.00     0.135 A 
ATOM     80  C   UNL A   1      40.522  34.900  37.077  1.00  0.00     0.135 A 
ATOM     81  F   UNL A   1      38.356  32.118  37.987  1.00  0.00    -0.206 F 
ATOM     82  C   UNL A   1      38.736  34.158  39.085  1.00  0.00     0.059 A 
ATOM     83  C   UNL A   1      40.290  35.767  38.140  1.00  0.00     0.059 A 
ATOM     84  F   UNL A   1      41.383  35.283  36.121  1.00  0.00    -0.206 F 
ATOM     85  C   UNL A   1      39.383  35.394  39.130  1.00  0.00     0.060 A 
BRANCH  85  86
ATOM     86  S   UNL A   1      39.045  36.503  40.514  1.00  0.00     0.124 S 
ATOM     87  O   UNL A   1      38.531  37.682  39.826  1.00  0.00    -0.237 OA
ATOM     88  O   UNL A   1      38.069  35.749  41.294  1.00  0.00    -0.237 OA
ATOM     89  O   UNL A   1      40.351  36.663  41.146  1.00  0.00    -0.744 OA
ENDBRANCH  85  86
ENDBRANCH  53  78
ENDBRANCH  27  28
ENDBRANCH  20  22
ENDBRANCH  19  20
ENDBRANCH   1  19
TORSDOF 17
ENDMDL
MODEL 3
REMARK VINA RESULT:      -9.3      3.302      5.279
REMARK SMILES CC[C@@](C)(Nc1ccccc1Br)C(=O)OCCOC(=O)c1ccc(-c2c3nc(c(-c4c(F)cc(S(=O)(=O)[O-])cc4F)c4ccc([nH]4)c(-c4c(F)cc(S(=O)(=O)[O-])cc4F)c4nc(c(-c5c(F)cc(S(=O)(=O)[O-])cc5F)c5ccc2[nH]5)C=C4)C=C3)cc1
REMARK SMILES IDX 17 1 16 2 15 3 13 4 14 5 3 6 4 7 2 8 1 9 5 10 6 12 7 13
REMARK SMILES IDX 11 14 8 15 10 16 12 17 9 18 18 19 19 20 20 21 21 22 22 23
REMARK SMILES IDX 86 24 23 25 85 26 24 27 25 28 26 29 79 30 27 31 84 32 78 33
REMARK SMILES IDX 80 34 28 35 83 36 77 37 76 38 29 40 63 41 42 42 62 43 43 44
REMARK SMILES IDX 46 45 61 46 81 47 44 48 45 49 60 51 82 52 47 53 30 54 31 55
REMARK SMILES IDX 40 56 32 57 33 58 39 59 41 60 34 61 35 62 36 63 37 64 38 65
REMARK SMILES IDX 64 66 65 67 74 68 66 69 67 70 73 71 75 72 68 73 69 74 70 75
REMARK SMILES IDX 71 76 72 77 48 78 49 79 58 80 50 81 51 82 57 83 59 84 52 85
REMARK SMILES IDX 53 86 54 87 55 88 56 89
REMARK H PARENT 5 11 80 39 46 50
REMARK Flexibility Score: inf
ROOT
ATOM      1  C   UNL A   1      32.373  29.719  26.815  1.00  0.00     0.275 C 
ENDROOT
BRANCH   1   2
ATOM      2  C   UNL A   1      32.569  29.598  25.309  1.00  0.00     0.274 C 
BRANCH   2   3
ATOM      3  O   UNL A   1      31.978  28.362  24.861  1.00  0.00    -0.460 OA
BRANCH   3   4
ATOM      4  C   UNL A   1      32.776  27.423  24.300  1.00  0.00     0.331 C 
ATOM      5  O   UNL A   1      33.953  27.278  24.622  1.00  0.00    -0.249 OA
BRANCH   4   6
ATOM      6  C   UNL A   1      32.104  26.581  23.167  1.00  0.00     0.133 C 
ATOM      7  C   UNL A   1      30.733  27.239  22.909  1.00  0.00     0.047 C 
BRANCH   6   8
ATOM      8  C   UNL A   1      32.955  26.616  21.860  1.00  0.00     0.037 C 
ATOM      9  C   UNL A   1      32.610  25.607  20.768  1.00  0.00     0.007 C 
ENDBRANCH   6   8
BRANCH   6  10
ATOM     10  N   UNL A   1      31.811  25.135  23.425  1.00  0.00    -0.369 N 
ATOM     11  H   UNL A   1      31.416  24.628  22.679  1.00  0.00     0.161 HD
BRANCH  10  12
ATOM     12  C   UNL A   1      32.035  24.433  24.596  1.00  0.00     0.049 A 
ATOM     13  C   UNL A   1      31.042  24.409  25.586  1.00  0.00     0.027 A 
ATOM     14  C   UNL A   1      33.252  23.780  24.878  1.00  0.00     0.041 A 
ATOM     15  C   UNL A   1      31.234  23.723  26.790  1.00  0.00     0.002 A 
ATOM     16  C   UNL A   1      33.440  23.078  26.074  1.00  0.00     0.018 A 
ATOM     17  Br  UNL A   1      34.713  23.809  23.658  1.00  0.00    -0.049 Br
ATOM     18  C   UNL A   1      32.428  23.048  27.029  1.00  0.00     0.001 A 
ENDBRANCH  10  12
ENDBRANCH   6  10
ENDBRANCH   4   6
ENDBRANCH   3   4
ENDBRANCH   2   3
ENDBRANCH   1   2
BRANCH   1  19
ATOM     19  O   UNL A   1      33.632  29.421  27.433  1.00  0.00    -0.458 OA
BRANCH  19  20
ATOM     20  C   UNL A   1      34.265  30.449  28.033  1.00  0.00     0.338 C 
ATOM     21  O   UNL A   1      33.796  31.534  28.353  1.00  0.00    -0.246 OA
BRANCH  20  22
ATOM     22  C   UNL A   1      35.667  30.048  28.243  1.00  0.00     0.060 A 
ATOM     23  C   UNL A   1      36.091  29.669  29.519  1.00  0.00     0.016 A 
ATOM     24  C   UNL A   1      36.570  30.074  27.183  1.00  0.00     0.016 A 
ATOM     25  C   UNL A   1      37.426  29.347  29.752  1.00  0.00     0.010 A 
ATOM     26  C   UNL A   1      37.894  29.684  27.401  1.00  0.00     0.010 A 
ATOM     27  C   UNL A   1      38.342  29.335  28.690  1.00  0.00    -0.014 A 
BRANCH  27  28
ATOM     28  C   UNL A   1      39.772  29.001  28.923  1.00  0.00     0.031 A 
ATOM     29  C   UNL A   1      40.706  30.054  29.458  1.00  0.00     0.074 A 
ATOM     30  C   UNL A   1      40.242  27.766  28.654  1.00  0.00     0.049 A 
ATOM     31  N   UNL A   1      42.010  30.036  29.549  1.00  0.00    -0.248 NA
ATOM     32  C   UNL A   1      40.086  31.298  29.947  1.00  0.00     0.031 C 
ATOM     33  C   UNL A   1      39.441  26.637  28.174  1.00  0.00     0.029 A 
ATOM     34  N   UNL A   1      41.514  27.255  28.737  1.00  0.00    -0.354 N 
ATOM     35  C   UNL A   1      42.372  31.276  30.065  1.00  0.00     0.074 A 
ATOM     36  C   UNL A   1      41.149  32.024  30.264  1.00  0.00     0.031 C 
ATOM     37  C   UNL A   1      40.237  25.568  28.017  1.00  0.00     0.029 A 
ATOM     38  C   UNL A   1      41.614  25.950  28.318  1.00  0.00     0.049 A 
ATOM     39  H   UNL A   1      42.283  27.776  29.067  1.00  0.00     0.167 HD
ATOM     40  C   UNL A   1      43.611  31.745  30.346  1.00  0.00     0.037 A 
ATOM     41  C   UNL A   1      42.694  25.162  28.150  1.00  0.00     0.037 A 
ATOM     42  C   UNL A   1      44.822  30.986  30.180  1.00  0.00     0.049 A 
ATOM     43  C   UNL A   1      44.062  25.717  28.439  1.00  0.00     0.074 A 
ATOM     44  C   UNL A   1      46.127  31.380  30.423  1.00  0.00     0.029 A 
ATOM     45  N   UNL A   1      44.878  29.671  29.745  1.00  0.00    -0.354 N 
ATOM     46  N   UNL A   1      44.393  26.913  28.865  1.00  0.00    -0.248 NA
ATOM     47  C   UNL A   1      45.205  24.822  28.209  1.00  0.00     0.031 C 
ATOM     48  C   UNL A   1      46.973  30.308  30.114  1.00  0.00     0.029 A 
ATOM     49  C   UNL A   1      46.193  29.237  29.711  1.00  0.00     0.049 A 
ATOM     50  H   UNL A   1      44.097  29.125  29.497  1.00  0.00     0.167 HD
ATOM     51  C   UNL A   1      45.780  26.911  28.957  1.00  0.00     0.074 A 
ATOM     52  C   UNL A   1      46.225  25.589  28.568  1.00  0.00     0.031 C 
ATOM     53  C   UNL A   1      46.614  27.917  29.321  1.00  0.00     0.037 A 
BRANCH  40  54
ATOM     54  C   UNL A   1      43.722  33.157  30.845  1.00  0.00     0.058 A 
ATOM     55  C   UNL A   1      43.640  33.466  32.212  1.00  0.00     0.135 A 
ATOM     56  C   UNL A   1      43.955  34.211  29.946  1.00  0.00     0.135 A 
ATOM     57  F   UNL A   1      43.396  32.499  33.110  1.00  0.00    -0.206 F 
ATOM     58  C   UNL A   1      43.771  34.774  32.669  1.00  0.00     0.059 A 
ATOM     59  C   UNL A   1      44.110  35.523  30.384  1.00  0.00     0.059 A 
ATOM     60  F   UNL A   1      44.037  33.969  28.629  1.00  0.00    -0.206 F 
ATOM     61  C   UNL A   1      44.005  35.796  31.746  1.00  0.00     0.060 A 
BRANCH  61  62
ATOM     62  S   UNL A   1      44.189  37.486  32.355  1.00  0.00     0.124 S 
ATOM     63  O   UNL A   1      43.290  37.480  33.506  1.00  0.00    -0.237 OA
ATOM     64  O   UNL A   1      45.613  37.556  32.665  1.00  0.00    -0.237 OA
ATOM     65  O   UNL A   1      43.757  38.303  31.225  1.00  0.00    -0.744 OA
ENDBRANCH  61  62
ENDBRANCH  40  54
BRANCH  41  66
ATOM     66  C   UNL A   1      42.537  23.775  27.635  1.00  0.00     0.058 A 
ATOM     67  C   UNL A   1      42.458  22.682  28.510  1.00  0.00     0.135 A 
ATOM     68  C   UNL A   1      42.477  23.517  26.256  1.00  0.00     0.135 A 
ATOM     69  F   UNL A   1      42.523  22.879  29.836  1.00  0.00    -0.206 F 
ATOM     70  C   UNL A   1      42.344  21.379  28.038  1.00  0.00     0.059 A 
ATOM     71  C   UNL A   1      42.338  22.224  25.761  1.00  0.00     0.059 A 
ATOM     72  F   UNL A   1      42.538  24.530  25.378  1.00  0.00    -0.206 F 
ATOM     73  C   UNL A   1      42.287  21.160  26.660  1.00  0.00     0.060 A 
BRANCH  73  74
ATOM     74  S   UNL A   1      42.102  19.471  26.049  1.00  0.00     0.124 S 
ATOM     75  O   UNL A   1      42.494  18.692  27.219  1.00  0.00    -0.237 OA
ATOM     76  O   UNL A   1      40.688  19.420  25.693  1.00  0.00    -0.237 OA
ATOM     77  O   UNL A   1      43.025  19.423  24.919  1.00  0.00    -0.744 OA
ENDBRANCH  73  74
ENDBRANCH  41  66
BRANCH  53  78
ATOM     78  C   UNL A   1      48.085  27.613  29.334  1.00  0.00     0.058 A 
ATOM     79  C   UNL A   1      48.717  27.104  30.479  1.00  0.00     0.135 A 
ATOM     80  C   UNL A   1      48.865  27.815  28.186  1.00  0.00     0.135 A 
ATOM     81  F   UNL A   1      48.013  26.899  31.605  1.00  0.00    -0.206 F 
ATOM     82  C   UNL A   1      50.080  26.834  30.495  1.00  0.00     0.059 A 
ATOM     83  C   UNL A   1      50.227  27.532  28.173  1.00  0.00     0.059 A 
ATOM     84  F   UNL A   1      48.304  28.291  27.062  1.00  0.00    -0.206 F 
ATOM     85  C   UNL A   1      50.829  27.056  29.337  1.00  0.00     0.060 A 
BRANCH  85  86
ATOM     86  S   UNL A   1      52.597  26.695  29.361  1.00  0.00     0.124 S 
ATOM     87  O   UNL A   1      52.721  25.916  30.588  1.00  0.00    -0.237 OA
ATOM     88  O   UNL A   1      52.787  25.955  28.118  1.00  0.00    -0.237 OA
ATOM     89  O   UNL A   1      53.211  28.020  29.392  1.00  0.00    -0.744 OA
ENDBRANCH  85  86
ENDBRANCH  53  78
ENDBRANCH  27  28
ENDBRANCH  20  22
ENDBRANCH  19  20
ENDBRANCH   1  19
TORSDOF 17
ENDMDL
