MODEL 1
REMARK VINA RESULT:     -10.6      0.000      0.000
REMARK SMILES CC[C@@H](C)CN(C)c1cccc(Cl)c1/C=C/C(=O)OCCOC(=O)c1ccc(-c2c3nc(c(-c4c(F)cc(S(=O)(=O)[O-])cc4F)c4ccc([nH]4)c(-c4c(F)cc(S(=O)(=O)[O-])cc4F)c4nc(c(-c5c(F)cc(S(=O)(=O)[O-])cc5F)c5ccc2[nH]5)C=C4)C=C3)cc1
REMARK SMILES IDX 20 1 19 2 17 3 18 4 16 5 15 6 14 7 8 8 9 9 10 10 12 11 11 12
REMARK SMILES IDX 13 13 6 14 7 15 5 16 3 17 4 18 2 19 1 20 21 21 22 22 23 23
REMARK SMILES IDX 24 24 25 25 26 26 90 27 27 28 89 29 28 30 29 31 30 32 83 33
REMARK SMILES IDX 31 34 88 35 82 36 84 37 32 38 87 39 81 40 80 41 33 43 67 44
REMARK SMILES IDX 46 45 66 46 47 47 50 48 65 49 85 50 48 51 49 52 64 54 86 55
REMARK SMILES IDX 51 56 34 57 35 58 44 59 36 60 37 61 43 62 45 63 38 64 39 65
REMARK SMILES IDX 40 66 41 67 42 68 68 69 69 70 78 71 70 72 71 73 77 74 79 75
REMARK SMILES IDX 72 76 73 77 74 78 75 79 76 80 52 81 53 82 62 83 54 84 55 85
REMARK SMILES IDX 61 86 63 87 56 88 57 89 58 90 59 91 60 92
REMARK H PARENT 84 42 50 53
REMARK Flexibility Score: inf
ROOT
ATOM      1  C   UNL A   1      38.351  22.409  26.041  1.00  0.00     0.275 C 
ENDROOT
BRANCH   1   2
ATOM      2  O   UNL A   1      37.909  23.667  25.498  1.00  0.00    -0.459 OA
BRANCH   2   3
ATOM      3  C   UNL A   1      36.870  23.618  24.629  1.00  0.00     0.330 C 
ATOM      4  O   UNL A   1      36.906  23.180  23.489  1.00  0.00    -0.247 OA
BRANCH   3   5
ATOM      5  C   UNL A   1      35.621  24.161  25.206  1.00  0.00     0.094 C 
ATOM      6  C   UNL A   1      34.505  24.387  24.500  1.00  0.00     0.019 C 
BRANCH   6   7
ATOM      7  C   UNL A   1      33.258  24.972  25.046  1.00  0.00     0.017 A 
ATOM      8  C   UNL A   1      32.371  24.223  25.857  1.00  0.00     0.045 A 
ATOM      9  C   UNL A   1      31.339  24.903  26.530  1.00  0.00     0.026 A 
ATOM     10  C   UNL A   1      31.104  26.262  26.343  1.00  0.00     0.004 A 
ATOM     11  C   UNL A   1      33.003  26.350  24.859  1.00  0.00     0.050 A 
ATOM     12  C   UNL A   1      31.925  26.982  25.487  1.00  0.00     0.021 A 
ATOM     13  Cl  UNL A   1      33.999  27.341  23.838  1.00  0.00    -0.084 Cl
BRANCH   8  14
ATOM     14  N   UNL A   1      32.508  22.851  26.056  1.00  0.00    -0.374 N 
ATOM     15  C   UNL A   1      33.211  22.448  27.266  1.00  0.00     0.143 C 
BRANCH  14  16
ATOM     16  C   UNL A   1      31.599  21.914  25.377  1.00  0.00     0.119 C 
BRANCH  16  17
ATOM     17  C   UNL A   1      32.309  20.974  24.376  1.00  0.00     0.005 C 
ATOM     18  C   UNL A   1      33.831  21.054  24.567  1.00  0.00     0.009 C 
BRANCH  17  19
ATOM     19  C   UNL A   1      31.961  21.333  22.914  1.00  0.00     0.002 C 
ATOM     20  C   UNL A   1      32.858  22.434  22.361  1.00  0.00     0.004 C 
ENDBRANCH  17  19
ENDBRANCH  16  17
ENDBRANCH  14  16
ENDBRANCH   8  14
ENDBRANCH   6   7
ENDBRANCH   3   5
ENDBRANCH   2   3
ENDBRANCH   1   2
BRANCH   1  21
ATOM     21  C   UNL A   1      39.840  22.445  26.396  1.00  0.00     0.275 C 
BRANCH  21  22
ATOM     22  O   UNL A   1      40.096  23.313  27.514  1.00  0.00    -0.458 OA
BRANCH  22  23
ATOM     23  C   UNL A   1      40.997  24.291  27.268  1.00  0.00     0.338 C 
ATOM     24  O   UNL A   1      41.923  24.260  26.474  1.00  0.00    -0.246 OA
BRANCH  23  25
ATOM     25  C   UNL A   1      40.665  25.498  28.041  1.00  0.00     0.060 A 
ATOM     26  C   UNL A   1      41.684  26.426  28.251  1.00  0.00     0.016 A 
ATOM     27  C   UNL A   1      39.433  25.640  28.682  1.00  0.00     0.016 A 
ATOM     28  C   UNL A   1      41.504  27.457  29.169  1.00  0.00     0.010 A 
ATOM     29  C   UNL A   1      39.245  26.699  29.581  1.00  0.00     0.010 A 
ATOM     30  C   UNL A   1      40.295  27.589  29.866  1.00  0.00    -0.014 A 
BRANCH  30  31
ATOM     31  C   UNL A   1      40.189  28.606  30.948  1.00  0.00     0.031 A 
ATOM     32  C   UNL A   1      41.130  28.560  32.127  1.00  0.00     0.074 A 
ATOM     33  C   UNL A   1      39.302  29.616  30.845  1.00  0.00     0.049 A 
ATOM     34  N   UNL A   1      41.174  29.334  33.181  1.00  0.00    -0.248 NA
ATOM     35  C   UNL A   1      42.154  27.503  32.117  1.00  0.00     0.031 C 
ATOM     36  C   UNL A   1      38.365  29.805  29.737  1.00  0.00     0.029 A 
ATOM     37  N   UNL A   1      39.057  30.681  31.676  1.00  0.00    -0.354 N 
ATOM     38  C   UNL A   1      42.204  28.842  33.975  1.00  0.00     0.074 A 
ATOM     39  C   UNL A   1      42.753  27.694  33.284  1.00  0.00     0.031 C 
ATOM     40  C   UNL A   1      37.664  30.932  29.945  1.00  0.00     0.029 A 
ATOM     41  C   UNL A   1      38.065  31.516  31.221  1.00  0.00     0.049 A 
ATOM     42  H   UNL A   1      39.545  30.832  32.517  1.00  0.00     0.167 HD
ATOM     43  C   UNL A   1      42.657  29.305  35.166  1.00  0.00     0.037 A 
ATOM     44  C   UNL A   1      37.525  32.619  31.776  1.00  0.00     0.037 A 
ATOM     45  C   UNL A   1      42.139  30.469  35.836  1.00  0.00     0.049 A 
ATOM     46  C   UNL A   1      38.032  33.105  33.106  1.00  0.00     0.074 A 
ATOM     47  C   UNL A   1      42.536  31.016  37.045  1.00  0.00     0.029 A 
ATOM     48  N   UNL A   1      41.119  31.275  35.352  1.00  0.00    -0.354 N 
ATOM     49  N   UNL A   1      38.987  32.607  33.855  1.00  0.00    -0.248 NA
ATOM     50  C   UNL A   1      37.385  34.299  33.668  1.00  0.00     0.031 C 
ATOM     51  C   UNL A   1      41.739  32.138  37.303  1.00  0.00     0.029 A 
ATOM     52  C   UNL A   1      40.869  32.309  36.239  1.00  0.00     0.049 A 
ATOM     53  H   UNL A   1      40.642  31.132  34.503  1.00  0.00     0.167 HD
ATOM     54  C   UNL A   1      39.065  33.437  34.969  1.00  0.00     0.074 A 
ATOM     55  C   UNL A   1      38.072  34.475  34.789  1.00  0.00     0.031 C 
ATOM     56  C   UNL A   1      39.884  33.342  36.044  1.00  0.00     0.037 A 
BRANCH  43  57
ATOM     57  C   UNL A   1      43.759  28.534  35.838  1.00  0.00     0.058 A 
ATOM     58  C   UNL A   1      45.111  28.848  35.635  1.00  0.00     0.135 A 
ATOM     59  C   UNL A   1      43.454  27.487  36.722  1.00  0.00     0.135 A 
ATOM     60  F   UNL A   1      45.458  29.828  34.786  1.00  0.00    -0.206 F 
ATOM     61  C   UNL A   1      46.125  28.134  36.266  1.00  0.00     0.059 A 
ATOM     62  C   UNL A   1      44.450  26.774  37.382  1.00  0.00     0.059 A 
ATOM     63  F   UNL A   1      42.175  27.149  36.952  1.00  0.00    -0.206 F 
ATOM     64  C   UNL A   1      45.784  27.095  37.136  1.00  0.00     0.060 A 
BRANCH  64  65
ATOM     65  S   UNL A   1      47.107  26.173  37.947  1.00  0.00     0.124 S 
ATOM     66  O   UNL A   1      47.131  24.945  37.158  1.00  0.00    -0.237 OA
ATOM     67  O   UNL A   1      48.257  27.055  37.780  1.00  0.00    -0.237 OA
ATOM     68  O   UNL A   1      46.628  26.029  39.319  1.00  0.00    -0.744 OA
ENDBRANCH  64  65
ENDBRANCH  43  57
BRANCH  44  69
ATOM     69  C   UNL A   1      36.426  33.335  31.075  1.00  0.00     0.058 A 
ATOM     70  C   UNL A   1      35.105  33.261  31.535  1.00  0.00     0.135 A 
ATOM     71  C   UNL A   1      36.683  34.116  29.938  1.00  0.00     0.135 A 
ATOM     72  F   UNL A   1      34.810  32.518  32.614  1.00  0.00    -0.206 F 
ATOM     73  C   UNL A   1      34.071  33.930  30.889  1.00  0.00     0.059 A 
ATOM     74  C   UNL A   1      35.671  34.813  29.289  1.00  0.00     0.059 A 
ATOM     75  F   UNL A   1      37.934  34.226  29.466  1.00  0.00    -0.206 F 
ATOM     76  C   UNL A   1      34.365  34.706  29.766  1.00  0.00     0.060 A 
BRANCH  76  77
ATOM     77  S   UNL A   1      33.030  35.621  28.963  1.00  0.00     0.124 S 
ATOM     78  O   UNL A   1      32.458  34.599  28.095  1.00  0.00    -0.237 OA
ATOM     79  O   UNL A   1      32.207  36.027  30.098  1.00  0.00    -0.237 OA
ATOM     80  O   UNL A   1      33.731  36.707  28.287  1.00  0.00    -0.744 OA
ENDBRANCH  76  77
ENDBRANCH  44  69
BRANCH  56  81
ATOM     81  C   UNL A   1      39.765  34.408  37.096  1.00  0.00     0.058 A 
ATOM     82  C   UNL A   1      38.970  34.229  38.238  1.00  0.00     0.135 A 
ATOM     83  C   UNL A   1      40.486  35.607  36.979  1.00  0.00     0.135 A 
ATOM     84  F   UNL A   1      38.257  33.102  38.395  1.00  0.00    -0.206 F 
ATOM     85  C   UNL A   1      38.874  35.213  39.218  1.00  0.00     0.059 A 
ATOM     86  C   UNL A   1      40.422  36.595  37.956  1.00  0.00     0.059 A 
ATOM     87  F   UNL A   1      41.269  35.823  35.910  1.00  0.00    -0.206 F 
ATOM     88  C   UNL A   1      39.602  36.394  39.066  1.00  0.00     0.060 A 
BRANCH  88  89
ATOM     89  S   UNL A   1      39.492  37.656  40.353  1.00  0.00     0.124 S 
ATOM     90  O   UNL A   1      40.755  38.365  40.176  1.00  0.00    -0.237 OA
ATOM     91  O   UNL A   1      38.292  38.394  39.972  1.00  0.00    -0.237 OA
ATOM     92  O   UNL A   1      39.377  36.875  41.582  1.00  0.00    -0.744 OA
ENDBRANCH  88  89
ENDBRANCH  56  81
ENDBRANCH  30  31
ENDBRANCH  23  25
ENDBRANCH  22  23
ENDBRANCH  21  22
ENDBRANCH   1  21
TORSDOF 19
ENDMDL
MODEL 2
REMARK VINA RESULT:     -10.5      7.150     12.390
REMARK SMILES CC[C@@H](C)CN(C)c1cccc(Cl)c1/C=C/C(=O)OCCOC(=O)c1ccc(-c2c3nc(c(-c4c(F)cc(S(=O)(=O)[O-])cc4F)c4ccc([nH]4)c(-c4c(F)cc(S(=O)(=O)[O-])cc4F)c4nc(c(-c5c(F)cc(S(=O)(=O)[O-])cc5F)c5ccc2[nH]5)C=C4)C=C3)cc1
REMARK SMILES IDX 20 1 19 2 17 3 18 4 16 5 15 6 14 7 8 8 9 9 10 10 12 11 11 12
REMARK SMILES IDX 13 13 6 14 7 15 5 16 3 17 4 18 2 19 1 20 21 21 22 22 23 23
REMARK SMILES IDX 24 24 25 25 26 26 90 27 27 28 89 29 28 30 29 31 30 32 83 33
REMARK SMILES IDX 31 34 88 35 82 36 84 37 32 38 87 39 81 40 80 41 33 43 67 44
REMARK SMILES IDX 46 45 66 46 47 47 50 48 65 49 85 50 48 51 49 52 64 54 86 55
REMARK SMILES IDX 51 56 34 57 35 58 44 59 36 60 37 61 43 62 45 63 38 64 39 65
REMARK SMILES IDX 40 66 41 67 42 68 68 69 69 70 78 71 70 72 71 73 77 74 79 75
REMARK SMILES IDX 72 76 73 77 74 78 75 79 76 80 52 81 53 82 62 83 54 84 55 85
REMARK SMILES IDX 61 86 63 87 56 88 57 89 58 90 59 91 60 92
REMARK H PARENT 84 42 50 53
REMARK Flexibility Score: inf
ROOT
ATOM      1  C   UNL A   1      33.283  29.961  27.364  1.00  0.00     0.275 C 
ENDROOT
BRANCH   1   2
ATOM      2  O   UNL A   1      33.274  28.540  27.593  1.00  0.00    -0.459 OA
BRANCH   2   3
ATOM      3  C   UNL A   1      32.078  27.914  27.462  1.00  0.00     0.330 C 
ATOM      4  O   UNL A   1      31.042  28.216  28.036  1.00  0.00    -0.247 OA
BRANCH   3   5
ATOM      5  C   UNL A   1      32.132  26.780  26.514  1.00  0.00     0.094 C 
ATOM      6  C   UNL A   1      31.057  26.089  26.110  1.00  0.00     0.019 C 
BRANCH   6   7
ATOM      7  C   UNL A   1      31.091  24.923  25.198  1.00  0.00     0.017 A 
ATOM      8  C   UNL A   1      30.681  25.017  23.845  1.00  0.00     0.045 A 
ATOM      9  C   UNL A   1      30.961  23.941  22.982  1.00  0.00     0.026 A 
ATOM     10  C   UNL A   1      31.533  22.756  23.437  1.00  0.00     0.004 A 
ATOM     11  C   UNL A   1      31.663  23.711  25.648  1.00  0.00     0.050 A 
ATOM     12  C   UNL A   1      31.864  22.634  24.778  1.00  0.00     0.021 A 
ATOM     13  Cl  UNL A   1      32.145  23.478  27.300  1.00  0.00    -0.084 Cl
BRANCH   8  14
ATOM     14  N   UNL A   1      30.058  26.148  23.323  1.00  0.00    -0.374 N 
ATOM     15  C   UNL A   1      28.807  26.540  23.957  1.00  0.00     0.143 C 
BRANCH  14  16
ATOM     16  C   UNL A   1      30.841  27.128  22.553  1.00  0.00     0.119 C 
BRANCH  16  17
ATOM     17  C   UNL A   1      31.195  28.405  23.350  1.00  0.00     0.005 C 
ATOM     18  C   UNL A   1      30.187  29.520  23.033  1.00  0.00     0.009 C 
BRANCH  17  19
ATOM     19  C   UNL A   1      32.621  28.903  23.022  1.00  0.00     0.002 C 
ATOM     20  C   UNL A   1      33.697  28.025  23.649  1.00  0.00     0.004 C 
ENDBRANCH  17  19
ENDBRANCH  16  17
ENDBRANCH  14  16
ENDBRANCH   8  14
ENDBRANCH   6   7
ENDBRANCH   3   5
ENDBRANCH   2   3
ENDBRANCH   1   2
BRANCH   1  21
ATOM     21  C   UNL A   1      34.645  30.574  27.700  1.00  0.00     0.275 C 
BRANCH  21  22
ATOM     22  O   UNL A   1      35.608  29.564  28.049  1.00  0.00    -0.458 OA
BRANCH  22  23
ATOM     23  C   UNL A   1      36.282  29.806  29.195  1.00  0.00     0.338 C 
ATOM     24  O   UNL A   1      35.813  29.944  30.313  1.00  0.00    -0.246 OA
BRANCH  23  25
ATOM     25  C   UNL A   1      37.732  29.796  28.947  1.00  0.00     0.060 A 
ATOM     26  C   UNL A   1      38.156  29.679  27.624  1.00  0.00     0.016 A 
ATOM     27  C   UNL A   1      38.653  29.738  29.995  1.00  0.00     0.016 A 
ATOM     28  C   UNL A   1      39.495  29.421  27.345  1.00  0.00     0.010 A 
ATOM     29  C   UNL A   1      40.007  29.511  29.707  1.00  0.00     0.010 A 
ATOM     30  C   UNL A   1      40.431  29.304  28.383  1.00  0.00    -0.014 A 
BRANCH  30  31
ATOM     31  C   UNL A   1      41.820  28.878  28.062  1.00  0.00     0.031 A 
ATOM     32  C   UNL A   1      42.950  29.876  28.114  1.00  0.00     0.074 A 
ATOM     33  C   UNL A   1      42.088  27.584  27.795  1.00  0.00     0.049 A 
ATOM     34  N   UNL A   1      44.219  29.705  27.838  1.00  0.00    -0.248 NA
ATOM     35  C   UNL A   1      42.608  31.245  28.532  1.00  0.00     0.031 C 
ATOM     36  C   UNL A   1      41.096  26.508  27.755  1.00  0.00     0.029 A 
ATOM     37  N   UNL A   1      43.276  26.953  27.521  1.00  0.00    -0.354 N 
ATOM     38  C   UNL A   1      44.820  30.947  28.015  1.00  0.00     0.074 A 
ATOM     39  C   UNL A   1      43.773  31.866  28.413  1.00  0.00     0.031 C 
ATOM     40  C   UNL A   1      41.720  25.347  27.499  1.00  0.00     0.029 A 
ATOM     41  C   UNL A   1      43.145  25.602  27.307  1.00  0.00     0.049 A 
ATOM     42  H   UNL A   1      44.140  27.424  27.484  1.00  0.00     0.167 HD
ATOM     43  C   UNL A   1      46.122  31.291  27.867  1.00  0.00     0.037 A 
ATOM     44  C   UNL A   1      44.064  24.674  26.975  1.00  0.00     0.037 A 
ATOM     45  C   UNL A   1      47.171  30.371  27.509  1.00  0.00     0.049 A 
ATOM     46  C   UNL A   1      45.500  25.082  26.800  1.00  0.00     0.074 A 
ATOM     47  C   UNL A   1      48.521  30.628  27.337  1.00  0.00     0.029 A 
ATOM     48  N   UNL A   1      46.992  29.016  27.279  1.00  0.00    -0.354 N 
ATOM     49  N   UNL A   1      46.043  26.268  26.942  1.00  0.00    -0.248 NA
ATOM     50  C   UNL A   1      46.449  24.027  26.414  1.00  0.00     0.031 C 
ATOM     51  C   UNL A   1      49.154  29.432  26.979  1.00  0.00     0.029 A 
ATOM     52  C   UNL A   1      48.204  28.424  26.962  1.00  0.00     0.049 A 
ATOM     53  H   UNL A   1      46.130  28.542  27.332  1.00  0.00     0.167 HD
ATOM     54  C   UNL A   1      47.399  26.098  26.678  1.00  0.00     0.074 A 
ATOM     55  C   UNL A   1      47.595  24.694  26.381  1.00  0.00     0.031 C 
ATOM     56  C   UNL A   1      48.388  27.023  26.678  1.00  0.00     0.037 A 
BRANCH  43  57
ATOM     57  C   UNL A   1      46.487  32.735  28.068  1.00  0.00     0.058 A 
ATOM     58  C   UNL A   1      46.382  33.676  27.033  1.00  0.00     0.135 A 
ATOM     59  C   UNL A   1      46.918  33.189  29.325  1.00  0.00     0.135 A 
ATOM     60  F   UNL A   1      45.992  33.292  25.807  1.00  0.00    -0.206 F 
ATOM     61  C   UNL A   1      46.716  35.013  27.229  1.00  0.00     0.059 A 
ATOM     62  C   UNL A   1      47.235  34.524  29.551  1.00  0.00     0.059 A 
ATOM     63  F   UNL A   1      47.034  32.328  30.350  1.00  0.00    -0.206 F 
ATOM     64  C   UNL A   1      47.146  35.427  28.493  1.00  0.00     0.060 A 
BRANCH  64  65
ATOM     65  S   UNL A   1      47.578  37.162  28.736  1.00  0.00     0.124 S 
ATOM     66  O   UNL A   1      48.991  37.162  28.370  1.00  0.00    -0.237 OA
ATOM     67  O   UNL A   1      46.684  37.845  27.808  1.00  0.00    -0.237 OA
ATOM     68  O   UNL A   1      47.296  37.387  30.151  1.00  0.00    -0.744 OA
ENDBRANCH  64  65
ENDBRANCH  43  57
BRANCH  44  69
ATOM     69  C   UNL A   1      43.646  23.262  26.773  1.00  0.00     0.058 A 
ATOM     70  C   UNL A   1      43.310  22.443  27.860  1.00  0.00     0.135 A 
ATOM     71  C   UNL A   1      43.562  22.711  25.485  1.00  0.00     0.135 A 
ATOM     72  F   UNL A   1      43.384  22.925  29.110  1.00  0.00    -0.206 F 
ATOM     73  C   UNL A   1      42.914  21.122  27.680  1.00  0.00     0.059 A 
ATOM     74  C   UNL A   1      43.146  21.401  25.278  1.00  0.00     0.059 A 
ATOM     75  F   UNL A   1      43.863  23.459  24.412  1.00  0.00    -0.206 F 
ATOM     76  C   UNL A   1      42.833  20.610  26.383  1.00  0.00     0.060 A 
BRANCH  76  77
ATOM     77  S   UNL A   1      42.262  18.912  26.150  1.00  0.00     0.124 S 
ATOM     78  O   UNL A   1      42.490  18.344  27.473  1.00  0.00    -0.237 OA
ATOM     79  O   UNL A   1      40.867  19.104  25.769  1.00  0.00    -0.237 OA
ATOM     80  O   UNL A   1      43.130  18.414  25.087  1.00  0.00    -0.744 OA
ENDBRANCH  76  77
ENDBRANCH  44  69
BRANCH  56  81
ATOM     81  C   UNL A   1      49.780  26.544  26.380  1.00  0.00     0.058 A 
ATOM     82  C   UNL A   1      50.571  25.927  27.360  1.00  0.00     0.135 A 
ATOM     83  C   UNL A   1      50.315  26.670  25.088  1.00  0.00     0.135 A 
ATOM     84  F   UNL A   1      50.108  25.787  28.613  1.00  0.00    -0.206 F 
ATOM     85  C   UNL A   1      51.855  25.470  27.076  1.00  0.00     0.059 A 
ATOM     86  C   UNL A   1      51.588  26.202  24.776  1.00  0.00     0.059 A 
ATOM     87  F   UNL A   1      49.594  27.245  24.112  1.00  0.00    -0.206 F 
ATOM     88  C   UNL A   1      52.355  25.616  25.781  1.00  0.00     0.060 A 
BRANCH  88  89
ATOM     89  S   UNL A   1      54.013  24.999  25.413  1.00  0.00     0.124 S 
ATOM     90  O   UNL A   1      54.435  25.909  24.354  1.00  0.00    -0.237 OA
ATOM     91  O   UNL A   1      54.699  25.153  26.692  1.00  0.00    -0.237 OA
ATOM     92  O   UNL A   1      53.775  23.619  24.999  1.00  0.00    -0.744 OA
ENDBRANCH  88  89
ENDBRANCH  56  81
ENDBRANCH  30  31
ENDBRANCH  23  25
ENDBRANCH  22  23
ENDBRANCH  21  22
ENDBRANCH   1  21
TORSDOF 19
ENDMDL
MODEL 3
REMARK VINA RESULT:     -10.4      2.234      8.449
REMARK SMILES CC[C@@H](C)CN(C)c1cccc(Cl)c1/C=C/C(=O)OCCOC(=O)c1ccc(-c2c3nc(c(-c4c(F)cc(S(=O)(=O)[O-])cc4F)c4ccc([nH]4)c(-c4c(F)cc(S(=O)(=O)[O-])cc4F)c4nc(c(-c5c(F)cc(S(=O)(=O)[O-])cc5F)c5ccc2[nH]5)C=C4)C=C3)cc1
REMARK SMILES IDX 20 1 19 2 17 3 18 4 16 5 15 6 14 7 8 8 9 9 10 10 12 11 11 12
REMARK SMILES IDX 13 13 6 14 7 15 5 16 3 17 4 18 2 19 1 20 21 21 22 22 23 23
REMARK SMILES IDX 24 24 25 25 26 26 90 27 27 28 89 29 28 30 29 31 30 32 83 33
REMARK SMILES IDX 31 34 88 35 82 36 84 37 32 38 87 39 81 40 80 41 33 43 67 44
REMARK SMILES IDX 46 45 66 46 47 47 50 48 65 49 85 50 48 51 49 52 64 54 86 55
REMARK SMILES IDX 51 56 34 57 35 58 44 59 36 60 37 61 43 62 45 63 38 64 39 65
REMARK SMILES IDX 40 66 41 67 42 68 68 69 69 70 78 71 70 72 71 73 77 74 79 75
REMARK SMILES IDX 72 76 73 77 74 78 75 79 76 80 52 81 53 82 62 83 54 84 55 85
REMARK SMILES IDX 61 86 63 87 56 88 57 89 58 90 59 91 60 92
REMARK H PARENT 84 42 50 53
REMARK Flexibility Score: inf
ROOT
ATOM      1  C   UNL A   1      33.708  31.389  27.595  1.00  0.00     0.275 C 
ENDROOT
BRANCH   1   2
ATOM      2  O   UNL A   1      33.145  30.379  26.739  1.00  0.00    -0.459 OA
BRANCH   2   3
ATOM      3  C   UNL A   1      33.884  29.257  26.559  1.00  0.00     0.330 C 
ATOM      4  O   UNL A   1      34.915  28.974  27.150  1.00  0.00    -0.247 OA
BRANCH   3   5
ATOM      5  C   UNL A   1      33.308  28.354  25.539  1.00  0.00     0.094 C 
ATOM      6  C   UNL A   1      33.911  27.243  25.094  1.00  0.00     0.019 C 
BRANCH   6   7
ATOM      7  C   UNL A   1      33.375  26.349  24.042  1.00  0.00     0.017 A 
ATOM      8  C   UNL A   1      32.781  25.100  24.350  1.00  0.00     0.045 A 
ATOM      9  C   UNL A   1      32.086  24.418  23.334  1.00  0.00     0.026 A 
ATOM     10  C   UNL A   1      32.053  24.880  22.022  1.00  0.00     0.004 A 
ATOM     11  C   UNL A   1      33.341  26.802  22.703  1.00  0.00     0.050 A 
ATOM     12  C   UNL A   1      32.701  26.064  21.702  1.00  0.00     0.021 A 
ATOM     13  Cl  UNL A   1      34.090  28.290  22.215  1.00  0.00    -0.084 Cl
BRANCH   8  14
ATOM     14  N   UNL A   1      32.812  24.546  25.628  1.00  0.00    -0.374 N 
ATOM     15  C   UNL A   1      31.550  24.547  26.356  1.00  0.00     0.143 C 
BRANCH  14  16
ATOM     16  C   UNL A   1      33.883  23.606  25.996  1.00  0.00     0.119 C 
BRANCH  16  17
ATOM     17  C   UNL A   1      33.422  22.132  26.058  1.00  0.00     0.005 C 
ATOM     18  C   UNL A   1      33.976  21.459  27.323  1.00  0.00     0.009 C 
BRANCH  17  19
ATOM     19  C   UNL A   1      33.886  21.338  24.816  1.00  0.00     0.002 C 
ATOM     20  C   UNL A   1      32.719  20.907  23.936  1.00  0.00     0.004 C 
ENDBRANCH  17  19
ENDBRANCH  16  17
ENDBRANCH  14  16
ENDBRANCH   8  14
ENDBRANCH   6   7
ENDBRANCH   3   5
ENDBRANCH   2   3
ENDBRANCH   1   2
BRANCH   1  21
ATOM     21  C   UNL A   1      32.771  32.591  27.735  1.00  0.00     0.275 C 
BRANCH  21  22
ATOM     22  O   UNL A   1      33.477  33.834  27.573  1.00  0.00    -0.458 OA
BRANCH  22  23
ATOM     23  C   UNL A   1      33.395  34.667  28.635  1.00  0.00     0.338 C 
ATOM     24  O   UNL A   1      32.536  35.506  28.852  1.00  0.00    -0.246 OA
BRANCH  23  25
ATOM     25  C   UNL A   1      34.466  34.371  29.599  1.00  0.00     0.060 A 
ATOM     26  C   UNL A   1      35.779  34.408  29.131  1.00  0.00     0.016 A 
ATOM     27  C   UNL A   1      34.185  33.912  30.887  1.00  0.00     0.016 A 
ATOM     28  C   UNL A   1      36.810  33.907  29.920  1.00  0.00     0.010 A 
ATOM     29  C   UNL A   1      35.232  33.439  31.691  1.00  0.00     0.010 A 
ATOM     30  C   UNL A   1      36.547  33.389  31.196  1.00  0.00    -0.014 A 
BRANCH  30  31
ATOM     31  C   UNL A   1      37.644  32.724  31.950  1.00  0.00     0.031 A 
ATOM     32  C   UNL A   1      38.379  31.554  31.344  1.00  0.00     0.074 A 
ATOM     33  C   UNL A   1      38.037  33.209  33.145  1.00  0.00     0.049 A 
ATOM     34  N   UNL A   1      39.337  30.824  31.856  1.00  0.00    -0.248 NA
ATOM     35  C   UNL A   1      37.982  31.153  29.985  1.00  0.00     0.031 C 
ATOM     36  C   UNL A   1      37.442  34.361  33.824  1.00  0.00     0.029 A 
ATOM     37  N   UNL A   1      39.038  32.802  33.991  1.00  0.00    -0.354 N 
ATOM     38  C   UNL A   1      39.636  29.859  30.900  1.00  0.00     0.074 A 
ATOM     39  C   UNL A   1      38.748  30.090  29.780  1.00  0.00     0.031 C 
ATOM     40  C   UNL A   1      38.106  34.583  34.970  1.00  0.00     0.029 A 
ATOM     41  C   UNL A   1      39.138  33.563  35.132  1.00  0.00     0.049 A 
ATOM     42  H   UNL A   1      39.629  32.038  33.800  1.00  0.00     0.167 HD
ATOM     43  C   UNL A   1      40.567  28.875  30.946  1.00  0.00     0.037 A 
ATOM     44  C   UNL A   1      39.955  33.443  36.196  1.00  0.00     0.037 A 
ATOM     45  C   UNL A   1      41.477  28.666  32.041  1.00  0.00     0.049 A 
ATOM     46  C   UNL A   1      40.969  32.333  36.232  1.00  0.00     0.074 A 
ATOM     47  C   UNL A   1      42.457  27.696  32.176  1.00  0.00     0.029 A 
ATOM     48  N   UNL A   1      41.531  29.446  33.187  1.00  0.00    -0.354 N 
ATOM     49  N   UNL A   1      41.215  31.413  35.332  1.00  0.00    -0.248 NA
ATOM     50  C   UNL A   1      41.813  32.243  37.432  1.00  0.00     0.031 C 
ATOM     51  C   UNL A   1      43.085  27.875  33.414  1.00  0.00     0.029 A 
ATOM     52  C   UNL A   1      42.521  28.977  34.035  1.00  0.00     0.049 A 
ATOM     53  H   UNL A   1      40.950  30.220  33.371  1.00  0.00     0.167 HD
ATOM     54  C   UNL A   1      42.252  30.643  35.849  1.00  0.00     0.074 A 
ATOM     55  C   UNL A   1      42.596  31.215  37.134  1.00  0.00     0.031 C 
ATOM     56  C   UNL A   1      42.860  29.560  35.308  1.00  0.00     0.037 A 
BRANCH  43  57
ATOM     57  C   UNL A   1      40.634  27.927  29.781  1.00  0.00     0.058 A 
ATOM     58  C   UNL A   1      39.685  26.909  29.601  1.00  0.00     0.135 A 
ATOM     59  C   UNL A   1      41.644  28.059  28.816  1.00  0.00     0.135 A 
ATOM     60  F   UNL A   1      38.708  26.727  30.503  1.00  0.00    -0.206 F 
ATOM     61  C   UNL A   1      39.750  26.039  28.516  1.00  0.00     0.059 A 
ATOM     62  C   UNL A   1      41.716  27.216  27.712  1.00  0.00     0.059 A 
ATOM     63  F   UNL A   1      42.576  29.018  28.942  1.00  0.00    -0.206 F 
ATOM     64  C   UNL A   1      40.773  26.198  27.578  1.00  0.00     0.060 A 
BRANCH  64  65
ATOM     65  S   UNL A   1      40.850  25.063  26.177  1.00  0.00     0.124 S 
ATOM     66  O   UNL A   1      41.926  24.167  26.589  1.00  0.00    -0.237 OA
ATOM     67  O   UNL A   1      39.512  24.482  26.167  1.00  0.00    -0.237 OA
ATOM     68  O   UNL A   1      41.158  25.936  25.049  1.00  0.00    -0.744 OA
ENDBRANCH  64  65
ENDBRANCH  43  57
BRANCH  44  69
ATOM     69  C   UNL A   1      39.836  34.400  37.328  1.00  0.00     0.058 A 
ATOM     70  C   UNL A   1      40.485  35.641  37.298  1.00  0.00     0.135 A 
ATOM     71  C   UNL A   1      39.059  34.093  38.455  1.00  0.00     0.135 A 
ATOM     72  F   UNL A   1      41.247  35.975  36.244  1.00  0.00    -0.206 F 
ATOM     73  C   UNL A   1      40.376  36.545  38.349  1.00  0.00     0.059 A 
ATOM     74  C   UNL A   1      38.915  34.988  39.509  1.00  0.00     0.059 A 
ATOM     75  F   UNL A   1      38.409  32.920  38.525  1.00  0.00    -0.206 F 
ATOM     76  C   UNL A   1      39.586  36.209  39.451  1.00  0.00     0.060 A 
BRANCH  76  77
ATOM     77  S   UNL A   1      39.400  37.408  40.790  1.00  0.00     0.124 S 
ATOM     78  O   UNL A   1      38.468  38.361  40.200  1.00  0.00    -0.237 OA
ATOM     79  O   UNL A   1      38.872  36.584  41.872  1.00  0.00    -0.237 OA
ATOM     80  O   UNL A   1      40.762  37.893  40.991  1.00  0.00    -0.744 OA
ENDBRANCH  76  77
ENDBRANCH  44  69
BRANCH  56  81
ATOM     81  C   UNL A   1      43.984  28.939  36.088  1.00  0.00     0.058 A 
ATOM     82  C   UNL A   1      43.778  27.824  36.914  1.00  0.00     0.135 A 
ATOM     83  C   UNL A   1      45.289  29.444  35.979  1.00  0.00     0.135 A 
ATOM     84  F   UNL A   1      42.547  27.307  37.056  1.00  0.00    -0.206 F 
ATOM     85  C   UNL A   1      44.824  27.243  37.624  1.00  0.00     0.059 A 
ATOM     86  C   UNL A   1      46.354  28.866  36.663  1.00  0.00     0.059 A 
ATOM     87  F   UNL A   1      45.540  30.504  35.195  1.00  0.00    -0.206 F 
ATOM     88  C   UNL A   1      46.109  27.774  37.494  1.00  0.00     0.060 A 
BRANCH  88  89
ATOM     89  S   UNL A   1      47.467  26.999  38.399  1.00  0.00     0.124 S 
ATOM     90  O   UNL A   1      48.033  28.140  39.110  1.00  0.00    -0.237 OA
ATOM     91  O   UNL A   1      46.775  26.016  39.227  1.00  0.00    -0.237 OA
ATOM     92  O   UNL A   1      48.303  26.440  37.340  1.00  0.00    -0.744 OA
ENDBRANCH  88  89
ENDBRANCH  56  81
ENDBRANCH  30  31
ENDBRANCH  23  25
ENDBRANCH  22  23
ENDBRANCH  21  22
ENDBRANCH   1  21
TORSDOF 19
ENDMDL
