MODEL 1
REMARK VINA RESULT:      -9.8      0.000      0.000
REMARK SMILES C/C(=C(/F)C(=O)OCCOC(=O)c1ccc(-c2c3nc(c(-c4c(F)cc(S(=O)(=O)[O-])cc4F)c4ccc([nH]4)c(-c4c(F)cc(S(=O)(=O)[O-])cc4F)c4nc(c(-c5c(F)cc(S(=O)(=O)[O-])cc5F)c5ccc2[nH]5)C=C4)C=C3)cc1)c1ccccc1F
REMARK SMILES IDX 9 1 8 2 7 3 5 4 6 5 3 6 1 7 2 8 4 9 79 10 80 11 84 12 81 13
REMARK SMILES IDX 83 14 85 15 82 16 10 17 11 18 12 19 13 20 14 21 78 22 15 23
REMARK SMILES IDX 77 24 16 25 17 26 18 27 71 28 19 29 76 30 70 31 72 32 20 33
REMARK SMILES IDX 75 34 69 35 68 36 21 38 55 39 34 40 54 41 35 42 38 43 53 44
REMARK SMILES IDX 73 45 36 46 37 47 52 49 74 50 39 51 22 52 23 53 32 54 24 55
REMARK SMILES IDX 25 56 31 57 33 58 26 59 27 60 28 61 29 62 30 63 56 64 57 65
REMARK SMILES IDX 66 66 58 67 59 68 65 69 67 70 60 71 61 72 62 73 63 74 64 75
REMARK SMILES IDX 40 76 41 77 50 78 42 79 43 80 49 81 51 82 44 83 45 84 46 85
REMARK SMILES IDX 47 86 48 87
REMARK H PARENT 72 37 38 48
REMARK Flexibility Score: inf
ROOT
ATOM      1  C   UNL A   1      34.013  33.145  28.440  1.00  0.00     0.275 C 
ENDROOT
BRANCH   1   2
ATOM      2  C   UNL A   1      34.058  34.295  29.447  1.00  0.00     0.275 C 
BRANCH   2   3
ATOM      3  O   UNL A   1      34.039  33.786  30.798  1.00  0.00    -0.457 OA
BRANCH   3   4
ATOM      4  C   UNL A   1      34.932  34.353  31.652  1.00  0.00     0.367 C 
ATOM      5  O   UNL A   1      34.781  35.424  32.224  1.00  0.00    -0.243 OA
BRANCH   4   6
ATOM      6  C   UNL A   1      36.134  33.490  31.791  1.00  0.00     0.211 C 
ATOM      7  C   UNL A   1      36.024  33.333  34.313  1.00  0.00     0.048 C 
ATOM      8  C   UNL A   1      36.632  33.061  32.966  1.00  0.00     0.002 C 
ATOM      9  F   UNL A   1      36.709  33.135  30.619  1.00  0.00    -0.199 F 
BRANCH   8  10
ATOM     10  C   UNL A   1      37.869  32.255  33.063  1.00  0.00     0.016 A 
ATOM     11  C   UNL A   1      39.097  32.884  33.305  1.00  0.00     0.011 A 
ATOM     12  C   UNL A   1      37.813  30.854  33.127  1.00  0.00     0.130 A 
ATOM     13  C   UNL A   1      40.222  32.126  33.648  1.00  0.00     0.001 A 
ATOM     14  C   UNL A   1      38.928  30.097  33.470  1.00  0.00     0.040 A 
ATOM     15  F   UNL A   1      36.656  30.211  32.898  1.00  0.00    -0.206 F 
ATOM     16  C   UNL A   1      40.134  30.736  33.745  1.00  0.00     0.003 A 
ENDBRANCH   8  10
ENDBRANCH   4   6
ENDBRANCH   3   4
ENDBRANCH   2   3
ENDBRANCH   1   2
BRANCH   1  17
ATOM     17  O   UNL A   1      34.320  31.914  29.116  1.00  0.00    -0.458 OA
BRANCH  17  18
ATOM     18  C   UNL A   1      34.367  30.799  28.344  1.00  0.00     0.338 C 
ATOM     19  O   UNL A   1      33.456  30.354  27.666  1.00  0.00    -0.246 OA
BRANCH  18  20
ATOM     20  C   UNL A   1      35.721  30.189  28.408  1.00  0.00     0.060 A 
ATOM     21  C   UNL A   1      36.229  29.699  29.606  1.00  0.00     0.016 A 
ATOM     22  C   UNL A   1      36.544  30.190  27.278  1.00  0.00     0.016 A 
ATOM     23  C   UNL A   1      37.579  29.344  29.706  1.00  0.00     0.010 A 
ATOM     24  C   UNL A   1      37.866  29.715  27.361  1.00  0.00     0.010 A 
ATOM     25  C   UNL A   1      38.429  29.331  28.590  1.00  0.00    -0.014 A 
BRANCH  25  26
ATOM     26  C   UNL A   1      39.889  28.983  28.729  1.00  0.00     0.031 A 
ATOM     27  C   UNL A   1      40.872  29.980  29.312  1.00  0.00     0.074 A 
ATOM     28  C   UNL A   1      40.366  27.766  28.380  1.00  0.00     0.049 A 
ATOM     29  N   UNL A   1      42.183  29.964  29.285  1.00  0.00    -0.248 NA
ATOM     30  C   UNL A   1      40.312  31.160  29.990  1.00  0.00     0.031 C 
ATOM     31  C   UNL A   1      39.575  26.661  27.834  1.00  0.00     0.029 A 
ATOM     32  N   UNL A   1      41.637  27.240  28.457  1.00  0.00    -0.354 N 
ATOM     33  C   UNL A   1      42.598  31.170  29.843  1.00  0.00     0.074 A 
ATOM     34  C   UNL A   1      41.399  31.887  30.222  1.00  0.00     0.031 C 
ATOM     35  C   UNL A   1      40.346  25.572  27.724  1.00  0.00     0.029 A 
ATOM     36  C   UNL A   1      41.721  25.927  28.052  1.00  0.00     0.049 A 
ATOM     37  H   UNL A   1      42.413  27.757  28.771  1.00  0.00     0.167 HD
ATOM     38  C   UNL A   1      43.859  31.642  30.017  1.00  0.00     0.037 A 
ATOM     39  C   UNL A   1      42.778  25.104  27.902  1.00  0.00     0.037 A 
ATOM     40  C   UNL A   1      45.058  30.884  29.755  1.00  0.00     0.049 A 
ATOM     41  C   UNL A   1      44.165  25.629  28.134  1.00  0.00     0.074 A 
ATOM     42  C   UNL A   1      46.377  31.275  29.919  1.00  0.00     0.029 A 
ATOM     43  N   UNL A   1      45.088  29.570  29.316  1.00  0.00    -0.354 N 
ATOM     44  N   UNL A   1      44.538  26.822  28.527  1.00  0.00    -0.248 NA
ATOM     45  C   UNL A   1      45.278  24.709  27.858  1.00  0.00     0.031 C 
ATOM     46  C   UNL A   1      47.204  30.203  29.561  1.00  0.00     0.029 A 
ATOM     47  C   UNL A   1      46.399  29.135  29.207  1.00  0.00     0.049 A 
ATOM     48  H   UNL A   1      44.294  29.025  29.113  1.00  0.00     0.167 HD
ATOM     49  C   UNL A   1      45.928  26.804  28.523  1.00  0.00     0.074 A 
ATOM     50  C   UNL A   1      46.329  25.469  28.131  1.00  0.00     0.031 C 
ATOM     51  C   UNL A   1      46.791  27.811  28.800  1.00  0.00     0.037 A 
BRANCH  38  52
ATOM     52  C   UNL A   1      44.021  33.066  30.481  1.00  0.00     0.058 A 
ATOM     53  C   UNL A   1      44.193  34.135  29.590  1.00  0.00     0.135 A 
ATOM     54  C   UNL A   1      43.947  33.365  31.854  1.00  0.00     0.135 A 
ATOM     55  F   UNL A   1      44.282  33.907  28.271  1.00  0.00    -0.206 F 
ATOM     56  C   UNL A   1      44.311  35.447  30.043  1.00  0.00     0.059 A 
ATOM     57  C   UNL A   1      44.036  34.671  32.326  1.00  0.00     0.059 A 
ATOM     58  F   UNL A   1      43.777  32.381  32.751  1.00  0.00    -0.206 F 
ATOM     59  C   UNL A   1      44.233  35.705  31.414  1.00  0.00     0.060 A 
BRANCH  59  60
ATOM     60  S   UNL A   1      44.375  37.410  31.990  1.00  0.00     0.124 S 
ATOM     61  O   UNL A   1      43.620  37.360  33.238  1.00  0.00    -0.237 OA
ATOM     62  O   UNL A   1      45.819  37.578  32.129  1.00  0.00    -0.237 OA
ATOM     63  O   UNL A   1      43.760  38.184  30.915  1.00  0.00    -0.744 OA
ENDBRANCH  59  60
ENDBRANCH  38  52
BRANCH  39  64
ATOM     64  C   UNL A   1      42.566  23.707  27.433  1.00  0.00     0.058 A 
ATOM     65  C   UNL A   1      42.554  23.397  26.066  1.00  0.00     0.135 A 
ATOM     66  C   UNL A   1      42.408  22.651  28.345  1.00  0.00     0.135 A 
ATOM     67  F   UNL A   1      42.677  24.374  25.154  1.00  0.00    -0.206 F 
ATOM     68  C   UNL A   1      42.406  22.088  25.618  1.00  0.00     0.059 A 
ATOM     69  C   UNL A   1      42.290  21.332  27.922  1.00  0.00     0.059 A 
ATOM     70  F   UNL A   1      42.416  22.895  29.664  1.00  0.00    -0.206 F 
ATOM     71  C   UNL A   1      42.286  21.060  26.555  1.00  0.00     0.060 A 
BRANCH  71  72
ATOM     72  S   UNL A   1      42.199  19.350  25.979  1.00  0.00     0.124 S 
ATOM     73  O   UNL A   1      40.777  19.213  25.686  1.00  0.00    -0.237 OA
ATOM     74  O   UNL A   1      43.090  19.363  24.823  1.00  0.00    -0.237 OA
ATOM     75  O   UNL A   1      42.687  18.590  27.125  1.00  0.00    -0.744 OA
ENDBRANCH  71  72
ENDBRANCH  39  64
BRANCH  51  76
ATOM     76  C   UNL A   1      48.257  27.499  28.688  1.00  0.00     0.058 A 
ATOM     77  C   UNL A   1      48.964  26.922  29.755  1.00  0.00     0.135 A 
ATOM     78  C   UNL A   1      48.962  27.780  27.508  1.00  0.00     0.135 A 
ATOM     79  F   UNL A   1      48.336  26.641  30.908  1.00  0.00    -0.206 F 
ATOM     80  C   UNL A   1      50.329  26.666  29.668  1.00  0.00     0.059 A 
ATOM     81  C   UNL A   1      50.323  27.513  27.392  1.00  0.00     0.059 A 
ATOM     82  F   UNL A   1      48.330  28.325  26.456  1.00  0.00    -0.206 F 
ATOM     83  C   UNL A   1      51.001  26.973  28.485  1.00  0.00     0.060 A 
BRANCH  83  84
ATOM     84  S   UNL A   1      52.774  26.646  28.383  1.00  0.00     0.124 S 
ATOM     85  O   UNL A   1      53.080  26.261  29.757  1.00  0.00    -0.237 OA
ATOM     86  O   UNL A   1      52.842  25.574  27.394  1.00  0.00    -0.237 OA
ATOM     87  O   UNL A   1      53.330  27.925  27.950  1.00  0.00    -0.744 OA
ENDBRANCH  83  84
ENDBRANCH  51  76
ENDBRANCH  25  26
ENDBRANCH  18  20
ENDBRANCH  17  18
ENDBRANCH   1  17
TORSDOF 15
ENDMDL
MODEL 2
REMARK VINA RESULT:      -9.7      0.709      1.688
REMARK SMILES C/C(=C(/F)C(=O)OCCOC(=O)c1ccc(-c2c3nc(c(-c4c(F)cc(S(=O)(=O)[O-])cc4F)c4ccc([nH]4)c(-c4c(F)cc(S(=O)(=O)[O-])cc4F)c4nc(c(-c5c(F)cc(S(=O)(=O)[O-])cc5F)c5ccc2[nH]5)C=C4)C=C3)cc1)c1ccccc1F
REMARK SMILES IDX 9 1 8 2 7 3 5 4 6 5 3 6 1 7 2 8 4 9 79 10 80 11 84 12 81 13
REMARK SMILES IDX 83 14 85 15 82 16 10 17 11 18 12 19 13 20 14 21 78 22 15 23
REMARK SMILES IDX 77 24 16 25 17 26 18 27 71 28 19 29 76 30 70 31 72 32 20 33
REMARK SMILES IDX 75 34 69 35 68 36 21 38 55 39 34 40 54 41 35 42 38 43 53 44
REMARK SMILES IDX 73 45 36 46 37 47 52 49 74 50 39 51 22 52 23 53 32 54 24 55
REMARK SMILES IDX 25 56 31 57 33 58 26 59 27 60 28 61 29 62 30 63 56 64 57 65
REMARK SMILES IDX 66 66 58 67 59 68 65 69 67 70 60 71 61 72 62 73 63 74 64 75
REMARK SMILES IDX 40 76 41 77 50 78 42 79 43 80 49 81 51 82 44 83 45 84 46 85
REMARK SMILES IDX 47 86 48 87
REMARK H PARENT 72 37 38 48
REMARK Flexibility Score: inf
ROOT
ATOM      1  C   UNL A   1      34.198  33.099  28.223  1.00  0.00     0.275 C 
ENDROOT
BRANCH   1   2
ATOM      2  C   UNL A   1      33.653  34.201  29.134  1.00  0.00     0.275 C 
BRANCH   2   3
ATOM      3  O   UNL A   1      33.699  33.784  30.515  1.00  0.00    -0.457 OA
BRANCH   3   4
ATOM      4  C   UNL A   1      34.331  34.637  31.366  1.00  0.00     0.367 C 
ATOM      5  O   UNL A   1      34.121  35.839  31.448  1.00  0.00    -0.243 OA
BRANCH   4   6
ATOM      6  C   UNL A   1      35.330  33.901  32.185  1.00  0.00     0.211 C 
ATOM      7  C   UNL A   1      37.093  33.799  30.375  1.00  0.00     0.048 C 
ATOM      8  C   UNL A   1      36.538  33.507  31.741  1.00  0.00     0.002 C 
ATOM      9  F   UNL A   1      34.941  33.654  33.457  1.00  0.00    -0.199 F 
BRANCH   8  10
ATOM     10  C   UNL A   1      37.476  32.719  32.570  1.00  0.00     0.016 A 
ATOM     11  C   UNL A   1      37.277  31.343  32.737  1.00  0.00     0.011 A 
ATOM     12  C   UNL A   1      38.682  33.279  33.022  1.00  0.00     0.130 A 
ATOM     13  C   UNL A   1      38.283  30.548  33.299  1.00  0.00     0.001 A 
ATOM     14  C   UNL A   1      39.685  32.492  33.579  1.00  0.00     0.040 A 
ATOM     15  F   UNL A   1      38.912  34.595  32.884  1.00  0.00    -0.206 F 
ATOM     16  C   UNL A   1      39.489  31.120  33.705  1.00  0.00     0.003 A 
ENDBRANCH   8  10
ENDBRANCH   4   6
ENDBRANCH   3   4
ENDBRANCH   2   3
ENDBRANCH   1   2
BRANCH   1  17
ATOM     17  O   UNL A   1      34.351  31.891  28.985  1.00  0.00    -0.458 OA
BRANCH  17  18
ATOM     18  C   UNL A   1      34.413  30.736  28.276  1.00  0.00     0.338 C 
ATOM     19  O   UNL A   1      33.507  30.240  27.626  1.00  0.00    -0.246 OA
BRANCH  18  20
ATOM     20  C   UNL A   1      35.777  30.151  28.367  1.00  0.00     0.060 A 
ATOM     21  C   UNL A   1      36.270  29.672  29.576  1.00  0.00     0.016 A 
ATOM     22  C   UNL A   1      36.621  30.165  27.254  1.00  0.00     0.016 A 
ATOM     23  C   UNL A   1      37.624  29.342  29.704  1.00  0.00     0.010 A 
ATOM     24  C   UNL A   1      37.950  29.714  27.363  1.00  0.00     0.010 A 
ATOM     25  C   UNL A   1      38.496  29.343  28.604  1.00  0.00    -0.014 A 
BRANCH  25  26
ATOM     26  C   UNL A   1      39.959  29.022  28.772  1.00  0.00     0.031 A 
ATOM     27  C   UNL A   1      40.914  30.041  29.365  1.00  0.00     0.074 A 
ATOM     28  C   UNL A   1      40.463  27.811  28.442  1.00  0.00     0.049 A 
ATOM     29  N   UNL A   1      42.225  30.048  29.363  1.00  0.00    -0.248 NA
ATOM     30  C   UNL A   1      40.320  31.216  30.024  1.00  0.00     0.031 C 
ATOM     31  C   UNL A   1      39.702  26.688  27.891  1.00  0.00     0.029 A 
ATOM     32  N   UNL A   1      41.742  27.309  28.546  1.00  0.00    -0.354 N 
ATOM     33  C   UNL A   1      42.608  31.266  29.919  1.00  0.00     0.074 A 
ATOM     34  C   UNL A   1      41.389  31.964  30.270  1.00  0.00     0.031 C 
ATOM     35  C   UNL A   1      40.495  25.612  27.803  1.00  0.00     0.029 A 
ATOM     36  C   UNL A   1      41.857  25.994  28.154  1.00  0.00     0.049 A 
ATOM     37  H   UNL A   1      42.503  27.842  28.871  1.00  0.00     0.167 HD
ATOM     38  C   UNL A   1      43.857  31.761  30.112  1.00  0.00     0.037 A 
ATOM     39  C   UNL A   1      42.931  25.189  28.029  1.00  0.00     0.037 A 
ATOM     40  C   UNL A   1      45.074  31.023  29.877  1.00  0.00     0.049 A 
ATOM     41  C   UNL A   1      44.304  25.741  28.283  1.00  0.00     0.074 A 
ATOM     42  C   UNL A   1      46.382  31.439  30.062  1.00  0.00     0.029 A 
ATOM     43  N   UNL A   1      45.135  29.706  29.450  1.00  0.00    -0.354 N 
ATOM     44  N   UNL A   1      44.649  26.943  28.672  1.00  0.00    -0.248 NA
ATOM     45  C   UNL A   1      45.437  24.838  28.034  1.00  0.00     0.031 C 
ATOM     46  C   UNL A   1      47.234  30.379  29.728  1.00  0.00     0.029 A 
ATOM     47  C   UNL A   1      46.455  29.294  29.368  1.00  0.00     0.049 A 
ATOM     48  H   UNL A   1      44.354  29.146  29.236  1.00  0.00     0.167 HD
ATOM     49  C   UNL A   1      46.038  26.949  28.694  1.00  0.00     0.074 A 
ATOM     50  C   UNL A   1      46.470  25.619  28.320  1.00  0.00     0.031 C 
ATOM     51  C   UNL A   1      46.879  27.974  28.979  1.00  0.00     0.037 A 
BRANCH  38  52
ATOM     52  C   UNL A   1      43.985  33.191  30.567  1.00  0.00     0.058 A 
ATOM     53  C   UNL A   1      44.038  33.550  31.922  1.00  0.00     0.135 A 
ATOM     54  C   UNL A   1      44.113  34.218  29.614  1.00  0.00     0.135 A 
ATOM     55  F   UNL A   1      43.909  32.614  32.875  1.00  0.00    -0.206 F 
ATOM     56  C   UNL A   1      44.187  34.878  32.317  1.00  0.00     0.059 A 
ATOM     57  C   UNL A   1      44.289  35.548  29.987  1.00  0.00     0.059 A 
ATOM     58  F   UNL A   1      44.076  33.931  28.304  1.00  0.00    -0.206 F 
ATOM     59  C   UNL A   1      44.310  35.869  31.342  1.00  0.00     0.060 A 
BRANCH  59  60
ATOM     60  S   UNL A   1      44.516  37.586  31.865  1.00  0.00     0.124 S 
ATOM     61  O   UNL A   1      43.781  37.595  33.126  1.00  0.00    -0.237 OA
ATOM     62  O   UNL A   1      45.966  37.711  31.976  1.00  0.00    -0.237 OA
ATOM     63  O   UNL A   1      43.907  38.348  30.778  1.00  0.00    -0.744 OA
ENDBRANCH  59  60
ENDBRANCH  38  52
BRANCH  39  64
ATOM     64  C   UNL A   1      42.752  23.785  27.567  1.00  0.00     0.058 A 
ATOM     65  C   UNL A   1      42.606  22.735  28.484  1.00  0.00     0.135 A 
ATOM     66  C   UNL A   1      42.685  23.474  26.199  1.00  0.00     0.135 A 
ATOM     67  F   UNL A   1      42.685  22.978  29.802  1.00  0.00    -0.206 F 
ATOM     68  C   UNL A   1      42.387  21.427  28.064  1.00  0.00     0.059 A 
ATOM     69  C   UNL A   1      42.436  22.180  25.756  1.00  0.00     0.059 A 
ATOM     70  F   UNL A   1      42.815  24.444  25.282  1.00  0.00    -0.206 F 
ATOM     71  C   UNL A   1      42.292  21.161  26.696  1.00  0.00     0.060 A 
BRANCH  71  72
ATOM     72  S   UNL A   1      41.905  19.483  26.152  1.00  0.00     0.124 S 
ATOM     73  O   UNL A   1      40.479  19.589  25.870  1.00  0.00    -0.237 OA
ATOM     74  O   UNL A   1      42.775  19.322  24.991  1.00  0.00    -0.237 OA
ATOM     75  O   UNL A   1      42.265  18.668  27.309  1.00  0.00    -0.744 OA
ENDBRANCH  71  72
ENDBRANCH  39  64
BRANCH  51  76
ATOM     76  C   UNL A   1      48.351  27.688  28.895  1.00  0.00     0.058 A 
ATOM     77  C   UNL A   1      49.057  27.169  29.994  1.00  0.00     0.135 A 
ATOM     78  C   UNL A   1      49.065  27.934  27.713  1.00  0.00     0.135 A 
ATOM     79  F   UNL A   1      48.420  26.923  31.150  1.00  0.00    -0.206 F 
ATOM     80  C   UNL A   1      50.427  26.937  29.933  1.00  0.00     0.059 A 
ATOM     81  C   UNL A   1      50.432  27.691  27.624  1.00  0.00     0.059 A 
ATOM     82  F   UNL A   1      48.435  28.423  26.633  1.00  0.00    -0.206 F 
ATOM     83  C   UNL A   1      51.108  27.210  28.745  1.00  0.00     0.060 A 
BRANCH  83  84
ATOM     84  S   UNL A   1      52.888  26.914  28.676  1.00  0.00     0.124 S 
ATOM     85  O   UNL A   1      53.398  28.261  28.439  1.00  0.00    -0.237 OA
ATOM     86  O   UNL A   1      53.167  26.354  29.996  1.00  0.00    -0.237 OA
ATOM     87  O   UNL A   1      53.033  25.982  27.563  1.00  0.00    -0.744 OA
ENDBRANCH  83  84
ENDBRANCH  51  76
ENDBRANCH  25  26
ENDBRANCH  18  20
ENDBRANCH  17  18
ENDBRANCH   1  17
TORSDOF 15
ENDMDL
MODEL 3
REMARK VINA RESULT:      -9.7      5.256     12.276
REMARK SMILES C/C(=C(/F)C(=O)OCCOC(=O)c1ccc(-c2c3nc(c(-c4c(F)cc(S(=O)(=O)[O-])cc4F)c4ccc([nH]4)c(-c4c(F)cc(S(=O)(=O)[O-])cc4F)c4nc(c(-c5c(F)cc(S(=O)(=O)[O-])cc5F)c5ccc2[nH]5)C=C4)C=C3)cc1)c1ccccc1F
REMARK SMILES IDX 9 1 8 2 7 3 5 4 6 5 3 6 1 7 2 8 4 9 79 10 80 11 84 12 81 13
REMARK SMILES IDX 83 14 85 15 82 16 10 17 11 18 12 19 13 20 14 21 78 22 15 23
REMARK SMILES IDX 77 24 16 25 17 26 18 27 71 28 19 29 76 30 70 31 72 32 20 33
REMARK SMILES IDX 75 34 69 35 68 36 21 38 55 39 34 40 54 41 35 42 38 43 53 44
REMARK SMILES IDX 73 45 36 46 37 47 52 49 74 50 39 51 22 52 23 53 32 54 24 55
REMARK SMILES IDX 25 56 31 57 33 58 26 59 27 60 28 61 29 62 30 63 56 64 57 65
REMARK SMILES IDX 66 66 58 67 59 68 65 69 67 70 60 71 61 72 62 73 63 74 64 75
REMARK SMILES IDX 40 76 41 77 50 78 42 79 43 80 49 81 51 82 44 83 45 84 46 85
REMARK SMILES IDX 47 86 48 87
REMARK H PARENT 72 37 38 48
REMARK Flexibility Score: inf
ROOT
ATOM      1  C   UNL A   1      39.456  21.840  26.396  1.00  0.00     0.275 C 
ENDROOT
BRANCH   1   2
ATOM      2  C   UNL A   1      38.407  21.372  25.386  1.00  0.00     0.275 C 
BRANCH   2   3
ATOM      3  O   UNL A   1      37.083  21.754  25.818  1.00  0.00    -0.457 OA
BRANCH   3   4
ATOM      4  C   UNL A   1      36.059  21.307  25.042  1.00  0.00     0.367 C 
ATOM      5  O   UNL A   1      35.672  20.149  24.979  1.00  0.00    -0.243 OA
BRANCH   4   6
ATOM      6  C   UNL A   1      35.475  22.431  24.264  1.00  0.00     0.211 C 
ATOM      7  C   UNL A   1      33.561  22.855  25.862  1.00  0.00     0.048 C 
ATOM      8  C   UNL A   1      34.358  23.097  24.611  1.00  0.00     0.002 C 
ATOM      9  F   UNL A   1      36.169  22.766  23.152  1.00  0.00    -0.199 F 
BRANCH   8  10
ATOM     10  C   UNL A   1      33.773  24.168  23.773  1.00  0.00     0.016 A 
ATOM     11  C   UNL A   1      33.988  25.512  24.104  1.00  0.00     0.011 A 
ATOM     12  C   UNL A   1      33.183  23.871  22.534  1.00  0.00     0.130 A 
ATOM     13  C   UNL A   1      33.661  26.523  23.193  1.00  0.00     0.001 A 
ATOM     14  C   UNL A   1      32.859  24.873  21.625  1.00  0.00     0.040 A 
ATOM     15  F   UNL A   1      32.956  22.596  22.180  1.00  0.00    -0.206 F 
ATOM     16  C   UNL A   1      33.112  26.203  21.950  1.00  0.00     0.003 A 
ENDBRANCH   8  10
ENDBRANCH   4   6
ENDBRANCH   3   4
ENDBRANCH   2   3
ENDBRANCH   1   2
BRANCH   1  17
ATOM     17  O   UNL A   1      39.456  23.276  26.444  1.00  0.00    -0.458 OA
BRANCH  17  18
ATOM     18  C   UNL A   1      40.659  23.872  26.639  1.00  0.00     0.338 C 
ATOM     19  O   UNL A   1      41.730  23.496  26.192  1.00  0.00    -0.246 OA
BRANCH  18  20
ATOM     20  C   UNL A   1      40.496  25.097  27.465  1.00  0.00     0.060 A 
ATOM     21  C   UNL A   1      41.444  26.114  27.432  1.00  0.00     0.016 A 
ATOM     22  C   UNL A   1      39.431  25.198  28.365  1.00  0.00     0.016 A 
ATOM     23  C   UNL A   1      41.404  27.146  28.375  1.00  0.00     0.010 A 
ATOM     24  C   UNL A   1      39.333  26.306  29.229  1.00  0.00     0.010 A 
ATOM     25  C   UNL A   1      40.347  27.277  29.290  1.00  0.00    -0.014 A 
BRANCH  25  26
ATOM     26  C   UNL A   1      40.344  28.375  30.323  1.00  0.00     0.031 A 
ATOM     27  C   UNL A   1      41.409  28.426  31.402  1.00  0.00     0.074 A 
ATOM     28  C   UNL A   1      39.426  29.368  30.302  1.00  0.00     0.049 A 
ATOM     29  N   UNL A   1      41.435  29.131  32.508  1.00  0.00    -0.248 NA
ATOM     30  C   UNL A   1      42.582  27.554  31.232  1.00  0.00     0.031 C 
ATOM     31  C   UNL A   1      38.346  29.515  29.325  1.00  0.00     0.029 A 
ATOM     32  N   UNL A   1      39.270  30.467  31.119  1.00  0.00    -0.354 N 
ATOM     33  C   UNL A   1      42.563  28.713  33.208  1.00  0.00     0.074 A 
ATOM     34  C   UNL A   1      43.211  27.708  32.392  1.00  0.00     0.031 C 
ATOM     35  C   UNL A   1      37.710  30.676  29.533  1.00  0.00     0.029 A 
ATOM     36  C   UNL A   1      38.237  31.296  30.743  1.00  0.00     0.049 A 
ATOM     37  H   UNL A   1      39.843  30.642  31.898  1.00  0.00     0.167 HD
ATOM     38  C   UNL A   1      43.015  29.121  34.421  1.00  0.00     0.037 A 
ATOM     39  C   UNL A   1      37.721  32.399  31.321  1.00  0.00     0.037 A 
ATOM     40  C   UNL A   1      42.445  30.206  35.183  1.00  0.00     0.049 A 
ATOM     41  C   UNL A   1      38.256  32.861  32.645  1.00  0.00     0.074 A 
ATOM     42  C   UNL A   1      42.849  30.700  36.412  1.00  0.00     0.029 A 
ATOM     43  N   UNL A   1      41.380  30.992  34.772  1.00  0.00    -0.354 N 
ATOM     44  N   UNL A   1      39.235  32.361  33.357  1.00  0.00    -0.248 NA
ATOM     45  C   UNL A   1      37.584  34.012  33.267  1.00  0.00     0.031 C 
ATOM     46  C   UNL A   1      42.015  31.772  36.753  1.00  0.00     0.029 A 
ATOM     47  C   UNL A   1      41.115  31.967  35.720  1.00  0.00     0.049 A 
ATOM     48  H   UNL A   1      40.885  30.875  33.929  1.00  0.00     0.167 HD
ATOM     49  C   UNL A   1      39.283  33.120  34.520  1.00  0.00     0.074 A 
ATOM     50  C   UNL A   1      38.263  34.140  34.398  1.00  0.00     0.031 C 
ATOM     51  C   UNL A   1      40.088  32.969  35.600  1.00  0.00     0.037 A 
BRANCH  38  52
ATOM     52  C   UNL A   1      44.168  28.370  35.034  1.00  0.00     0.058 A 
ATOM     53  C   UNL A   1      43.987  27.231  35.831  1.00  0.00     0.135 A 
ATOM     54  C   UNL A   1      45.487  28.776  34.765  1.00  0.00     0.135 A 
ATOM     55  F   UNL A   1      42.750  26.804  36.130  1.00  0.00    -0.206 F 
ATOM     56  C   UNL A   1      45.071  26.535  36.362  1.00  0.00     0.059 A 
ATOM     57  C   UNL A   1      46.586  28.081  35.264  1.00  0.00     0.059 A 
ATOM     58  F   UNL A   1      45.719  29.856  34.002  1.00  0.00    -0.206 F 
ATOM     59  C   UNL A   1      46.367  26.969  36.074  1.00  0.00     0.060 A 
BRANCH  59  60
ATOM     60  S   UNL A   1      47.766  26.054  36.757  1.00  0.00     0.124 S 
ATOM     61  O   UNL A   1      47.258  25.689  38.076  1.00  0.00    -0.237 OA
ATOM     62  O   UNL A   1      47.916  24.953  35.809  1.00  0.00    -0.237 OA
ATOM     63  O   UNL A   1      48.849  27.033  36.750  1.00  0.00    -0.744 OA
ENDBRANCH  59  60
ENDBRANCH  38  52
BRANCH  39  64
ATOM     64  C   UNL A   1      36.576  33.102  30.679  1.00  0.00     0.058 A 
ATOM     65  C   UNL A   1      35.279  32.997  31.200  1.00  0.00     0.135 A 
ATOM     66  C   UNL A   1      36.765  33.922  29.554  1.00  0.00     0.135 A 
ATOM     67  F   UNL A   1      35.042  32.208  32.259  1.00  0.00    -0.206 F 
ATOM     68  C   UNL A   1      34.211  33.690  30.638  1.00  0.00     0.059 A 
ATOM     69  C   UNL A   1      35.720  34.648  28.996  1.00  0.00     0.059 A 
ATOM     70  F   UNL A   1      37.988  34.059  29.021  1.00  0.00    -0.206 F 
ATOM     71  C   UNL A   1      34.444  34.522  29.542  1.00  0.00     0.060 A 
BRANCH  71  72
ATOM     72  S   UNL A   1      33.080  35.502  28.876  1.00  0.00     0.124 S 
ATOM     73  O   UNL A   1      32.376  34.512  28.069  1.00  0.00    -0.237 OA
ATOM     74  O   UNL A   1      32.394  35.946  30.085  1.00  0.00    -0.237 OA
ATOM     75  O   UNL A   1      33.763  36.556  28.132  1.00  0.00    -0.744 OA
ENDBRANCH  71  72
ENDBRANCH  39  64
BRANCH  51  76
ATOM     76  C   UNL A   1      39.892  33.935  36.734  1.00  0.00     0.058 A 
ATOM     77  C   UNL A   1      39.048  33.630  37.815  1.00  0.00     0.135 A 
ATOM     78  C   UNL A   1      40.548  35.175  36.741  1.00  0.00     0.135 A 
ATOM     79  F   UNL A   1      38.393  32.459  37.850  1.00  0.00    -0.206 F 
ATOM     80  C   UNL A   1      38.836  34.537  38.848  1.00  0.00     0.059 A 
ATOM     81  C   UNL A   1      40.365  36.089  37.775  1.00  0.00     0.059 A 
ATOM     82  F   UNL A   1      41.370  35.511  35.735  1.00  0.00    -0.206 F 
ATOM     83  C   UNL A   1      39.492  35.768  38.814  1.00  0.00     0.060 A 
BRANCH  83  84
ATOM     84  S   UNL A   1      39.204  36.944  40.155  1.00  0.00     0.124 S 
ATOM     85  O   UNL A   1      40.559  37.160  40.650  1.00  0.00    -0.237 OA
ATOM     86  O   UNL A   1      38.596  38.074  39.459  1.00  0.00    -0.237 OA
ATOM     87  O   UNL A   1      38.313  36.218  41.055  1.00  0.00    -0.744 OA
ENDBRANCH  83  84
ENDBRANCH  51  76
ENDBRANCH  25  26
ENDBRANCH  18  20
ENDBRANCH  17  18
ENDBRANCH   1  17
TORSDOF 15
ENDMDL
