MODEL 1
REMARK VINA RESULT:     -10.8      0.000      0.000
REMARK SMILES O=C(CCSC1=NC=NC2=[NH+]C=N[C@@H]12)OCCOC(=O)c1ccc(-c2c3nc(c(-c4c(F)cc(S(=O)(=O)[O-])cc4F)c4ccc([nH]4)c(-c4c(F)cc(S(=O)(=O)[O-])cc4F)c4nc(c(-c5c(F)cc(S(=O)(=O)[O-])cc5F)c5ccc2[nH]5)C=C4)C=C3)cc1
REMARK SMILES IDX 16 1 15 2 2 3 1 4 3 5 4 6 5 7 6 8 7 9 14 10 8 11 10 12 13 13
REMARK SMILES IDX 9 14 11 15 12 16 17 18 18 19 19 20 20 21 21 22 22 23 86 24
REMARK SMILES IDX 23 25 85 26 24 27 25 28 26 29 79 30 27 31 84 32 78 33 80 34
REMARK SMILES IDX 28 35 83 36 77 37 76 38 29 40 63 41 42 42 62 43 43 44 46 45
REMARK SMILES IDX 61 46 81 47 44 48 45 49 60 51 82 52 47 53 30 54 31 55 40 56
REMARK SMILES IDX 32 57 33 58 39 59 41 60 34 61 35 62 36 63 37 64 38 65 64 66
REMARK SMILES IDX 65 67 74 68 66 69 67 70 73 71 75 72 68 73 69 74 70 75 71 76
REMARK SMILES IDX 72 77 48 78 49 79 58 80 50 81 51 82 57 83 59 84 52 85 53 86
REMARK SMILES IDX 54 87 55 88 56 89
REMARK H PARENT 11 17 80 39 46 50
REMARK Flexibility Score: inf
ROOT
ATOM      1  C   UNL A   1      39.802  21.875  26.920  1.00  0.00     0.274 C 
ENDROOT
BRANCH   1   2
ATOM      2  O   UNL A   1      39.271  21.406  25.653  1.00  0.00    -0.462 OA
BRANCH   2   3
ATOM      3  C   UNL A   1      37.988  21.487  25.235  1.00  0.00     0.306 C 
ATOM      4  O   UNL A   1      37.454  20.526  24.679  1.00  0.00    -0.252 OA
BRANCH   3   5
ATOM      5  C   UNL A   1      37.185  22.728  25.513  1.00  0.00     0.134 C 
BRANCH   5   6
ATOM      6  C   UNL A   1      36.562  23.278  24.236  1.00  0.00     0.088 C 
BRANCH   6   7
ATOM      7  S   UNL A   1      35.007  24.204  24.466  1.00  0.00    -0.106 SA
BRANCH   7   8
ATOM      8  C   UNL A   1      33.845  22.904  24.648  1.00  0.00     0.128 C 
ATOM      9  N   UNL A   1      33.659  22.095  23.657  1.00  0.00    -0.214 NA
ATOM     10  C   UNL A   1      33.113  22.722  25.937  1.00  0.00     0.340 C 
ATOM     11  C   UNL A   1      32.656  21.153  23.749  1.00  0.00     0.320 C 
ATOM     12  C   UNL A   1      32.781  21.273  25.938  1.00  0.00     0.285 C 
ATOM     13  N   UNL A   1      33.986  22.803  27.128  1.00  0.00    -0.130 NA
ATOM     14  N   UNL A   1      32.183  20.706  24.867  1.00  0.00    -0.092 NA
ATOM     15  N   UNL A   1      33.279  20.627  26.929  1.00  0.00    -0.248 N 
ATOM     16  C   UNL A   1      34.000  21.586  27.589  1.00  0.00     0.362 C 
ATOM     17  H   UNL A   1      33.170  19.675  27.158  1.00  0.00     0.266 HD
ENDBRANCH   7   8
ENDBRANCH   6   7
ENDBRANCH   5   6
ENDBRANCH   3   5
ENDBRANCH   2   3
ENDBRANCH   1   2
BRANCH   1  18
ATOM     18  C   UNL A   1      41.246  21.456  27.064  1.00  0.00     0.275 C 
BRANCH  18  19
ATOM     19  O   UNL A   1      41.818  21.496  25.769  1.00  0.00    -0.458 OA
BRANCH  19  20
ATOM     20  C   UNL A   1      43.073  20.995  25.621  1.00  0.00     0.338 C 
ATOM     21  O   UNL A   1      43.437  19.847  25.728  1.00  0.00    -0.246 OA
BRANCH  20  22
ATOM     22  C   UNL A   1      43.959  22.167  25.429  1.00  0.00     0.060 A 
ATOM     23  C   UNL A   1      44.697  22.421  26.582  1.00  0.00     0.016 A 
ATOM     24  C   UNL A   1      43.406  23.197  24.658  1.00  0.00     0.016 A 
ATOM     25  C   UNL A   1      44.444  23.610  27.222  1.00  0.00     0.010 A 
ATOM     26  C   UNL A   1      43.056  24.330  25.343  1.00  0.00     0.010 A 
ATOM     27  C   UNL A   1      43.514  24.484  26.651  1.00  0.00    -0.014 A 
BRANCH  27  28
ATOM     28  C   UNL A   1      43.204  25.710  27.345  1.00  0.00     0.031 A 
ATOM     29  C   UNL A   1      44.246  26.715  27.060  1.00  0.00     0.074 A 
ATOM     30  C   UNL A   1      42.072  25.946  28.027  1.00  0.00     0.049 A 
ATOM     31  N   UNL A   1      45.325  26.919  27.743  1.00  0.00    -0.248 NA
ATOM     32  C   UNL A   1      44.277  27.290  25.704  1.00  0.00     0.031 C 
ATOM     33  C   UNL A   1      40.849  25.152  28.108  1.00  0.00     0.029 A 
ATOM     34  N   UNL A   1      41.770  27.051  28.755  1.00  0.00    -0.354 N 
ATOM     35  C   UNL A   1      46.011  27.874  27.008  1.00  0.00     0.074 A 
ATOM     36  C   UNL A   1      45.526  27.753  25.663  1.00  0.00     0.031 C 
ATOM     37  C   UNL A   1      39.867  25.907  28.660  1.00  0.00     0.029 A 
ATOM     38  C   UNL A   1      40.425  27.182  29.082  1.00  0.00     0.049 A 
ATOM     39  H   UNL A   1      42.449  27.708  29.031  1.00  0.00     0.167 HD
ATOM     40  C   UNL A   1      46.600  28.937  27.620  1.00  0.00     0.037 A 
ATOM     41  C   UNL A   1      39.853  28.315  29.573  1.00  0.00     0.037 A 
ATOM     42  C   UNL A   1      46.723  28.702  29.041  1.00  0.00     0.049 A 
ATOM     43  C   UNL A   1      40.962  29.149  30.132  1.00  0.00     0.074 A 
ATOM     44  C   UNL A   1      47.308  27.715  29.814  1.00  0.00     0.029 A 
ATOM     45  N   UNL A   1      45.824  29.341  29.865  1.00  0.00    -0.354 N 
ATOM     46  N   UNL A   1      41.675  28.800  31.171  1.00  0.00    -0.248 NA
ATOM     47  C   UNL A   1      41.602  30.107  29.239  1.00  0.00     0.031 C 
ATOM     48  C   UNL A   1      46.408  27.510  30.901  1.00  0.00     0.029 A 
ATOM     49  C   UNL A   1      45.364  28.430  30.782  1.00  0.00     0.049 A 
ATOM     50  H   UNL A   1      45.557  30.287  29.806  1.00  0.00     0.167 HD
ATOM     51  C   UNL A   1      42.980  29.153  30.850  1.00  0.00     0.074 A 
ATOM     52  C   UNL A   1      42.861  30.014  29.675  1.00  0.00     0.031 C 
ATOM     53  C   UNL A   1      44.045  28.477  31.378  1.00  0.00     0.037 A 
BRANCH  40  54
ATOM     54  C   UNL A   1      46.659  30.323  27.014  1.00  0.00     0.058 A 
ATOM     55  C   UNL A   1      47.895  30.999  27.008  1.00  0.00     0.135 A 
ATOM     56  C   UNL A   1      45.539  31.120  26.671  1.00  0.00     0.135 A 
ATOM     57  F   UNL A   1      49.029  30.349  27.314  1.00  0.00    -0.206 F 
ATOM     58  C   UNL A   1      47.998  32.368  26.763  1.00  0.00     0.059 A 
ATOM     59  C   UNL A   1      45.627  32.469  26.366  1.00  0.00     0.059 A 
ATOM     60  F   UNL A   1      44.280  30.677  26.699  1.00  0.00    -0.206 F 
ATOM     61  C   UNL A   1      46.852  33.096  26.458  1.00  0.00     0.060 A 
BRANCH  61  62
ATOM     62  S   UNL A   1      46.954  34.876  26.232  1.00  0.00     0.124 S 
ATOM     63  O   UNL A   1      47.821  34.967  25.064  1.00  0.00    -0.237 OA
ATOM     64  O   UNL A   1      45.555  35.230  26.026  1.00  0.00    -0.237 OA
ATOM     65  O   UNL A   1      47.534  35.341  27.489  1.00  0.00    -0.744 OA
ENDBRANCH  61  62
ENDBRANCH  40  54
BRANCH  41  66
ATOM     66  C   UNL A   1      38.520  28.888  29.236  1.00  0.00     0.058 A 
ATOM     67  C   UNL A   1      37.557  29.140  30.232  1.00  0.00     0.135 A 
ATOM     68  C   UNL A   1      38.266  29.467  27.976  1.00  0.00     0.135 A 
ATOM     69  F   UNL A   1      37.724  28.650  31.469  1.00  0.00    -0.206 F 
ATOM     70  C   UNL A   1      36.439  29.956  30.006  1.00  0.00     0.059 A 
ATOM     71  C   UNL A   1      37.157  30.275  27.724  1.00  0.00     0.059 A 
ATOM     72  F   UNL A   1      39.142  29.344  26.967  1.00  0.00    -0.206 F 
ATOM     73  C   UNL A   1      36.260  30.537  28.752  1.00  0.00     0.060 A 
BRANCH  73  74
ATOM     74  S   UNL A   1      34.923  31.730  28.498  1.00  0.00     0.124 S 
ATOM     75  O   UNL A   1      34.618  32.138  29.864  1.00  0.00    -0.237 OA
ATOM     76  O   UNL A   1      35.562  32.737  27.658  1.00  0.00    -0.237 OA
ATOM     77  O   UNL A   1      33.885  30.940  27.837  1.00  0.00    -0.744 OA
ENDBRANCH  73  74
ENDBRANCH  41  66
BRANCH  53  78
ATOM     78  C   UNL A   1      43.798  27.551  32.542  1.00  0.00     0.058 A 
ATOM     79  C   UNL A   1      43.731  26.148  32.452  1.00  0.00     0.135 A 
ATOM     80  C   UNL A   1      43.790  28.108  33.830  1.00  0.00     0.135 A 
ATOM     81  F   UNL A   1      43.838  25.528  31.268  1.00  0.00    -0.206 F 
ATOM     82  C   UNL A   1      43.618  25.342  33.588  1.00  0.00     0.059 A 
ATOM     83  C   UNL A   1      43.711  27.324  34.976  1.00  0.00     0.059 A 
ATOM     84  F   UNL A   1      43.914  29.437  33.986  1.00  0.00    -0.206 F 
ATOM     85  C   UNL A   1      43.611  25.941  34.848  1.00  0.00     0.060 A 
BRANCH  85  86
ATOM     86  S   UNL A   1      43.535  24.901  36.323  1.00  0.00     0.124 S 
ATOM     87  O   UNL A   1      43.469  25.890  37.392  1.00  0.00    -0.237 OA
ATOM     88  O   UNL A   1      42.318  24.125  36.101  1.00  0.00    -0.237 OA
ATOM     89  O   UNL A   1      44.774  24.130  36.262  1.00  0.00    -0.744 OA
ENDBRANCH  85  86
ENDBRANCH  53  78
ENDBRANCH  27  28
ENDBRANCH  20  22
ENDBRANCH  19  20
ENDBRANCH  18  19
ENDBRANCH   1  18
TORSDOF 17
ENDMDL
MODEL 2
REMARK VINA RESULT:     -10.7      4.313     10.987
REMARK SMILES O=C(CCSC1=NC=NC2=[NH+]C=N[C@@H]12)OCCOC(=O)c1ccc(-c2c3nc(c(-c4c(F)cc(S(=O)(=O)[O-])cc4F)c4ccc([nH]4)c(-c4c(F)cc(S(=O)(=O)[O-])cc4F)c4nc(c(-c5c(F)cc(S(=O)(=O)[O-])cc5F)c5ccc2[nH]5)C=C4)C=C3)cc1
REMARK SMILES IDX 16 1 15 2 2 3 1 4 3 5 4 6 5 7 6 8 7 9 14 10 8 11 10 12 13 13
REMARK SMILES IDX 9 14 11 15 12 16 17 18 18 19 19 20 20 21 21 22 22 23 86 24
REMARK SMILES IDX 23 25 85 26 24 27 25 28 26 29 79 30 27 31 84 32 78 33 80 34
REMARK SMILES IDX 28 35 83 36 77 37 76 38 29 40 63 41 42 42 62 43 43 44 46 45
REMARK SMILES IDX 61 46 81 47 44 48 45 49 60 51 82 52 47 53 30 54 31 55 40 56
REMARK SMILES IDX 32 57 33 58 39 59 41 60 34 61 35 62 36 63 37 64 38 65 64 66
REMARK SMILES IDX 65 67 74 68 66 69 67 70 73 71 75 72 68 73 69 74 70 75 71 76
REMARK SMILES IDX 72 77 48 78 49 79 58 80 50 81 51 82 57 83 59 84 52 85 53 86
REMARK SMILES IDX 54 87 55 88 56 89
REMARK H PARENT 11 17 80 39 46 50
REMARK Flexibility Score: inf
ROOT
ATOM      1  C   UNL A   1      33.774  34.127  28.875  1.00  0.00     0.274 C 
ENDROOT
BRANCH   1   2
ATOM      2  O   UNL A   1      34.243  34.772  30.089  1.00  0.00    -0.462 OA
BRANCH   2   3
ATOM      3  C   UNL A   1      34.096  34.319  31.354  1.00  0.00     0.306 C 
ATOM      4  O   UNL A   1      34.133  33.111  31.590  1.00  0.00    -0.252 OA
BRANCH   3   5
ATOM      5  C   UNL A   1      33.959  35.297  32.489  1.00  0.00     0.134 C 
BRANCH   5   6
ATOM      6  C   UNL A   1      35.266  35.432  33.259  1.00  0.00     0.088 C 
BRANCH   6   7
ATOM      7  S   UNL A   1      35.624  34.078  34.429  1.00  0.00    -0.106 SA
BRANCH   7   8
ATOM      8  C   UNL A   1      37.238  33.603  33.937  1.00  0.00     0.128 C 
ATOM      9  N   UNL A   1      37.970  34.459  33.302  1.00  0.00    -0.214 NA
ATOM     10  C   UNL A   1      37.761  32.246  34.275  1.00  0.00     0.340 C 
ATOM     11  C   UNL A   1      39.187  34.049  32.802  1.00  0.00     0.320 C 
ATOM     12  C   UNL A   1      39.234  32.446  34.301  1.00  0.00     0.285 C 
ATOM     13  N   UNL A   1      37.514  31.852  35.679  1.00  0.00    -0.130 NA
ATOM     14  N   UNL A   1      39.862  33.049  33.268  1.00  0.00    -0.092 NA
ATOM     15  N   UNL A   1      39.775  32.178  35.433  1.00  0.00    -0.248 N 
ATOM     16  C   UNL A   1      38.699  31.850  36.216  1.00  0.00     0.362 C 
ATOM     17  H   UNL A   1      40.728  32.203  35.679  1.00  0.00     0.266 HD
ENDBRANCH   7   8
ENDBRANCH   6   7
ENDBRANCH   5   6
ENDBRANCH   3   5
ENDBRANCH   2   3
ENDBRANCH   1   2
BRANCH   1  18
ATOM     18  C   UNL A   1      34.906  34.000  27.885  1.00  0.00     0.275 C 
BRANCH  18  19
ATOM     19  O   UNL A   1      35.897  33.191  28.492  1.00  0.00    -0.458 OA
BRANCH  19  20
ATOM     20  C   UNL A   1      35.751  31.843  28.399  1.00  0.00     0.338 C 
ATOM     21  O   UNL A   1      35.200  31.210  27.528  1.00  0.00    -0.246 OA
BRANCH  20  22
ATOM     22  C   UNL A   1      36.291  31.286  29.661  1.00  0.00     0.060 A 
ATOM     23  C   UNL A   1      37.332  32.075  30.142  1.00  0.00     0.016 A 
ATOM     24  C   UNL A   1      36.335  29.887  29.711  1.00  0.00     0.016 A 
ATOM     25  C   UNL A   1      38.575  31.492  30.181  1.00  0.00     0.010 A 
ATOM     26  C   UNL A   1      37.582  29.328  29.631  1.00  0.00     0.010 A 
ATOM     27  C   UNL A   1      38.692  30.156  29.787  1.00  0.00    -0.014 A 
BRANCH  27  28
ATOM     28  C   UNL A   1      40.003  29.553  29.775  1.00  0.00     0.031 A 
ATOM     29  C   UNL A   1      40.444  29.303  31.161  1.00  0.00     0.074 A 
ATOM     30  C   UNL A   1      40.658  29.151  28.674  1.00  0.00     0.049 A 
ATOM     31  N   UNL A   1      41.120  30.111  31.910  1.00  0.00    -0.248 NA
ATOM     32  C   UNL A   1      39.767  28.224  31.901  1.00  0.00     0.031 C 
ATOM     33  C   UNL A   1      40.190  29.057  27.293  1.00  0.00     0.029 A 
ATOM     34  N   UNL A   1      41.917  28.650  28.607  1.00  0.00    -0.354 N 
ATOM     35  C   UNL A   1      41.175  29.465  33.135  1.00  0.00     0.074 A 
ATOM     36  C   UNL A   1      40.054  28.571  33.155  1.00  0.00     0.031 C 
ATOM     37  C   UNL A   1      41.079  28.326  26.574  1.00  0.00     0.029 A 
ATOM     38  C   UNL A   1      42.228  28.015  27.410  1.00  0.00     0.049 A 
ATOM     39  H   UNL A   1      42.561  28.731  29.347  1.00  0.00     0.167 HD
ATOM     40  C   UNL A   1      42.336  29.409  33.844  1.00  0.00     0.037 A 
ATOM     41  C   UNL A   1      43.317  27.224  27.212  1.00  0.00     0.037 A 
ATOM     42  C   UNL A   1      43.283  30.383  33.348  1.00  0.00     0.049 A 
ATOM     43  C   UNL A   1      44.300  27.570  28.285  1.00  0.00     0.074 A 
ATOM     44  C   UNL A   1      43.260  31.754  33.168  1.00  0.00     0.029 A 
ATOM     45  N   UNL A   1      44.308  29.917  32.555  1.00  0.00    -0.354 N 
ATOM     46  N   UNL A   1      44.891  28.732  28.376  1.00  0.00    -0.248 NA
ATOM     47  C   UNL A   1      44.236  26.812  29.529  1.00  0.00     0.031 C 
ATOM     48  C   UNL A   1      43.949  31.980  31.940  1.00  0.00     0.029 A 
ATOM     49  C   UNL A   1      44.424  30.753  31.474  1.00  0.00     0.049 A 
ATOM     50  H   UNL A   1      44.861  29.122  32.734  1.00  0.00     0.167 HD
ATOM     51  C   UNL A   1      44.894  29.033  29.733  1.00  0.00     0.074 A 
ATOM     52  C   UNL A   1      44.535  27.782  30.398  1.00  0.00     0.031 C 
ATOM     53  C   UNL A   1      44.888  30.329  30.170  1.00  0.00     0.037 A 
BRANCH  40  54
ATOM     54  C   UNL A   1      42.755  28.211  34.670  1.00  0.00     0.058 A 
ATOM     55  C   UNL A   1      43.015  28.401  36.040  1.00  0.00     0.135 A 
ATOM     56  C   UNL A   1      43.155  26.954  34.151  1.00  0.00     0.135 A 
ATOM     57  F   UNL A   1      42.680  29.551  36.645  1.00  0.00    -0.206 F 
ATOM     58  C   UNL A   1      43.691  27.455  36.811  1.00  0.00     0.059 A 
ATOM     59  C   UNL A   1      43.774  25.976  34.914  1.00  0.00     0.059 A 
ATOM     60  F   UNL A   1      43.061  26.622  32.861  1.00  0.00    -0.206 F 
ATOM     61  C   UNL A   1      44.079  26.251  36.231  1.00  0.00     0.060 A 
BRANCH  61  62
ATOM     62  S   UNL A   1      45.031  25.062  37.184  1.00  0.00     0.124 S 
ATOM     63  O   UNL A   1      44.717  23.820  36.489  1.00  0.00    -0.237 OA
ATOM     64  O   UNL A   1      46.389  25.568  37.019  1.00  0.00    -0.237 OA
ATOM     65  O   UNL A   1      44.479  25.191  38.530  1.00  0.00    -0.744 OA
ENDBRANCH  61  62
ENDBRANCH  40  54
BRANCH  41  66
ATOM     66  C   UNL A   1      43.398  25.952  26.440  1.00  0.00     0.058 A 
ATOM     67  C   UNL A   1      44.329  25.786  25.396  1.00  0.00     0.135 A 
ATOM     68  C   UNL A   1      42.767  24.776  26.891  1.00  0.00     0.135 A 
ATOM     69  F   UNL A   1      44.998  26.846  24.915  1.00  0.00    -0.206 F 
ATOM     70  C   UNL A   1      44.650  24.527  24.869  1.00  0.00     0.059 A 
ATOM     71  C   UNL A   1      43.062  23.514  26.377  1.00  0.00     0.059 A 
ATOM     72  F   UNL A   1      41.905  24.804  27.920  1.00  0.00    -0.206 F 
ATOM     73  C   UNL A   1      44.024  23.393  25.383  1.00  0.00     0.060 A 
BRANCH  73  74
ATOM     74  S   UNL A   1      44.555  21.751  24.838  1.00  0.00     0.124 S 
ATOM     75  O   UNL A   1      43.472  20.905  25.326  1.00  0.00    -0.237 OA
ATOM     76  O   UNL A   1      44.633  21.915  23.391  1.00  0.00    -0.237 OA
ATOM     77  O   UNL A   1      45.839  21.570  25.511  1.00  0.00    -0.744 OA
ENDBRANCH  73  74
ENDBRANCH  41  66
BRANCH  53  78
ATOM     78  C   UNL A   1      45.190  31.420  29.174  1.00  0.00     0.058 A 
ATOM     79  C   UNL A   1      46.482  31.795  28.759  1.00  0.00     0.135 A 
ATOM     80  C   UNL A   1      44.108  32.000  28.494  1.00  0.00     0.135 A 
ATOM     81  F   UNL A   1      47.569  31.212  29.284  1.00  0.00    -0.206 F 
ATOM     82  C   UNL A   1      46.685  32.734  27.744  1.00  0.00     0.059 A 
ATOM     83  C   UNL A   1      44.288  32.913  27.458  1.00  0.00     0.059 A 
ATOM     84  F   UNL A   1      42.851  31.639  28.800  1.00  0.00    -0.206 F 
ATOM     85  C   UNL A   1      45.580  33.286  27.097  1.00  0.00     0.060 A 
BRANCH  85  86
ATOM     86  S   UNL A   1      45.837  34.448  25.738  1.00  0.00     0.124 S 
ATOM     87  O   UNL A   1      44.915  33.945  24.727  1.00  0.00    -0.237 OA
ATOM     88  O   UNL A   1      45.479  35.728  26.343  1.00  0.00    -0.237 OA
ATOM     89  O   UNL A   1      47.255  34.294  25.421  1.00  0.00    -0.744 OA
ENDBRANCH  85  86
ENDBRANCH  53  78
ENDBRANCH  27  28
ENDBRANCH  20  22
ENDBRANCH  19  20
ENDBRANCH  18  19
ENDBRANCH   1  18
TORSDOF 17
ENDMDL
MODEL 3
REMARK VINA RESULT:     -10.5      2.345      3.321
REMARK SMILES O=C(CCSC1=NC=NC2=[NH+]C=N[C@@H]12)OCCOC(=O)c1ccc(-c2c3nc(c(-c4c(F)cc(S(=O)(=O)[O-])cc4F)c4ccc([nH]4)c(-c4c(F)cc(S(=O)(=O)[O-])cc4F)c4nc(c(-c5c(F)cc(S(=O)(=O)[O-])cc5F)c5ccc2[nH]5)C=C4)C=C3)cc1
REMARK SMILES IDX 16 1 15 2 2 3 1 4 3 5 4 6 5 7 6 8 7 9 14 10 8 11 10 12 13 13
REMARK SMILES IDX 9 14 11 15 12 16 17 18 18 19 19 20 20 21 21 22 22 23 86 24
REMARK SMILES IDX 23 25 85 26 24 27 25 28 26 29 79 30 27 31 84 32 78 33 80 34
REMARK SMILES IDX 28 35 83 36 77 37 76 38 29 40 63 41 42 42 62 43 43 44 46 45
REMARK SMILES IDX 61 46 81 47 44 48 45 49 60 51 82 52 47 53 30 54 31 55 40 56
REMARK SMILES IDX 32 57 33 58 39 59 41 60 34 61 35 62 36 63 37 64 38 65 64 66
REMARK SMILES IDX 65 67 74 68 66 69 67 70 73 71 75 72 68 73 69 74 70 75 71 76
REMARK SMILES IDX 72 77 48 78 49 79 58 80 50 81 51 82 57 83 59 84 52 85 53 86
REMARK SMILES IDX 54 87 55 88 56 89
REMARK H PARENT 11 17 80 39 46 50
REMARK Flexibility Score: inf
ROOT
ATOM      1  C   UNL A   1      37.918  21.517  25.379  1.00  0.00     0.274 C 
ENDROOT
BRANCH   1   2
ATOM      2  O   UNL A   1      37.248  22.784  25.612  1.00  0.00    -0.462 OA
BRANCH   2   3
ATOM      3  C   UNL A   1      36.249  23.318  24.874  1.00  0.00     0.306 C 
ATOM      4  O   UNL A   1      35.779  24.418  25.167  1.00  0.00    -0.252 OA
BRANCH   3   5
ATOM      5  C   UNL A   1      35.758  22.600  23.646  1.00  0.00     0.134 C 
BRANCH   5   6
ATOM      6  C   UNL A   1      34.326  23.000  23.312  1.00  0.00     0.088 C 
BRANCH   6   7
ATOM      7  S   UNL A   1      33.062  21.735  23.675  1.00  0.00    -0.106 SA
BRANCH   7   8
ATOM      8  C   UNL A   1      32.653  22.111  25.339  1.00  0.00     0.128 C 
ATOM      9  N   UNL A   1      33.538  21.902  26.257  1.00  0.00    -0.214 NA
ATOM     10  C   UNL A   1      31.319  22.691  25.674  1.00  0.00     0.340 C 
ATOM     11  C   UNL A   1      33.178  22.073  27.576  1.00  0.00     0.320 C 
ATOM     12  C   UNL A   1      31.579  23.435  26.935  1.00  0.00     0.285 C 
ATOM     13  N   UNL A   1      30.916  23.800  24.782  1.00  0.00    -0.130 NA
ATOM     14  N   UNL A   1      32.207  22.832  27.969  1.00  0.00    -0.092 NA
ATOM     15  N   UNL A   1      31.335  24.692  26.857  1.00  0.00    -0.248 N 
ATOM     16  C   UNL A   1      30.963  24.851  25.548  1.00  0.00     0.362 C 
ATOM     17  H   UNL A   1      31.399  25.375  27.563  1.00  0.00     0.266 HD
ENDBRANCH   7   8
ENDBRANCH   6   7
ENDBRANCH   5   6
ENDBRANCH   3   5
ENDBRANCH   2   3
ENDBRANCH   1   2
BRANCH   1  18
ATOM     18  C   UNL A   1      39.266  21.511  26.060  1.00  0.00     0.275 C 
BRANCH  18  19
ATOM     19  O   UNL A   1      39.457  22.802  26.610  1.00  0.00    -0.458 OA
BRANCH  19  20
ATOM     20  C   UNL A   1      40.636  23.049  27.238  1.00  0.00     0.338 C 
ATOM     21  O   UNL A   1      41.140  22.436  28.150  1.00  0.00    -0.246 OA
BRANCH  20  22
ATOM     22  C   UNL A   1      41.141  24.321  26.670  1.00  0.00     0.060 A 
ATOM     23  C   UNL A   1      42.356  24.673  27.252  1.00  0.00     0.016 A 
ATOM     24  C   UNL A   1      40.150  25.270  26.389  1.00  0.00     0.016 A 
ATOM     25  C   UNL A   1      42.367  25.824  28.001  1.00  0.00     0.010 A 
ATOM     26  C   UNL A   1      40.110  26.354  27.223  1.00  0.00     0.010 A 
ATOM     27  C   UNL A   1      41.188  26.572  28.081  1.00  0.00    -0.014 A 
BRANCH  27  28
ATOM     28  C   UNL A   1      41.176  27.755  28.908  1.00  0.00     0.031 A 
ATOM     29  C   UNL A   1      42.253  28.667  28.478  1.00  0.00     0.074 A 
ATOM     30  C   UNL A   1      40.244  28.043  29.829  1.00  0.00     0.049 A 
ATOM     31  N   UNL A   1      43.464  28.694  28.929  1.00  0.00    -0.248 NA
ATOM     32  C   UNL A   1      42.078  29.360  27.189  1.00  0.00     0.031 C 
ATOM     33  C   UNL A   1      38.975  27.376  30.112  1.00  0.00     0.029 A 
ATOM     34  N   UNL A   1      40.232  29.100  30.679  1.00  0.00    -0.354 N 
ATOM     35  C   UNL A   1      44.099  29.635  28.133  1.00  0.00     0.074 A 
ATOM     36  C   UNL A   1      43.340  29.691  26.917  1.00  0.00     0.031 C 
ATOM     37  C   UNL A   1      38.225  28.176  30.911  1.00  0.00     0.029 A 
ATOM     38  C   UNL A   1      39.007  29.340  31.292  1.00  0.00     0.049 A 
ATOM     39  H   UNL A   1      41.027  29.655  30.849  1.00  0.00     0.167 HD
ATOM     40  C   UNL A   1      44.924  30.570  28.678  1.00  0.00     0.037 A 
ATOM     41  C   UNL A   1      38.689  30.476  31.970  1.00  0.00     0.037 A 
ATOM     42  C   UNL A   1      45.303  30.192  30.022  1.00  0.00     0.049 A 
ATOM     43  C   UNL A   1      39.981  31.134  32.337  1.00  0.00     0.074 A 
ATOM     44  C   UNL A   1      45.908  29.083  30.583  1.00  0.00     0.029 A 
ATOM     45  N   UNL A   1      44.674  30.843  31.060  1.00  0.00    -0.354 N 
ATOM     46  N   UNL A   1      40.841  30.619  33.175  1.00  0.00    -0.248 NA
ATOM     47  C   UNL A   1      40.538  32.099  31.397  1.00  0.00     0.031 C 
ATOM     48  C   UNL A   1      45.229  28.872  31.819  1.00  0.00     0.029 A 
ATOM     49  C   UNL A   1      44.303  29.903  31.988  1.00  0.00     0.049 A 
ATOM     50  H   UNL A   1      44.518  31.813  31.124  1.00  0.00     0.167 HD
ATOM     51  C   UNL A   1      42.088  30.862  32.610  1.00  0.00     0.074 A 
ATOM     52  C   UNL A   1      41.838  31.835  31.549  1.00  0.00     0.031 C 
ATOM     53  C   UNL A   1      43.148  30.032  32.852  1.00  0.00     0.037 A 
BRANCH  40  54
ATOM     54  C   UNL A   1      45.027  31.993  28.171  1.00  0.00     0.058 A 
ATOM     55  C   UNL A   1      46.279  32.453  27.719  1.00  0.00     0.135 A 
ATOM     56  C   UNL A   1      44.042  32.998  28.335  1.00  0.00     0.135 A 
ATOM     57  F   UNL A   1      47.291  31.594  27.524  1.00  0.00    -0.206 F 
ATOM     58  C   UNL A   1      46.552  33.807  27.526  1.00  0.00     0.059 A 
ATOM     59  C   UNL A   1      44.276  34.342  28.091  1.00  0.00     0.059 A 
ATOM     60  F   UNL A   1      42.823  32.766  28.828  1.00  0.00    -0.206 F 
ATOM     61  C   UNL A   1      45.545  34.744  27.730  1.00  0.00     0.060 A 
BRANCH  61  62
ATOM     62  S   UNL A   1      45.906  36.498  27.576  1.00  0.00     0.124 S 
ATOM     63  O   UNL A   1      44.806  36.944  26.731  1.00  0.00    -0.237 OA
ATOM     64  O   UNL A   1      45.867  36.932  28.968  1.00  0.00    -0.237 OA
ATOM     65  O   UNL A   1      47.228  36.515  26.956  1.00  0.00    -0.744 OA
ENDBRANCH  61  62
ENDBRANCH  40  54
BRANCH  41  66
ATOM     66  C   UNL A   1      37.394  31.214  31.964  1.00  0.00     0.058 A 
ATOM     67  C   UNL A   1      36.809  31.679  33.158  1.00  0.00     0.135 A 
ATOM     68  C   UNL A   1      36.848  31.730  30.771  1.00  0.00     0.135 A 
ATOM     69  F   UNL A   1      37.277  31.261  34.343  1.00  0.00    -0.206 F 
ATOM     70  C   UNL A   1      35.781  32.632  33.169  1.00  0.00     0.059 A 
ATOM     71  C   UNL A   1      35.820  32.672  30.756  1.00  0.00     0.059 A 
ATOM     72  F   UNL A   1      37.363  31.405  29.576  1.00  0.00    -0.206 F 
ATOM     73  C   UNL A   1      35.307  33.139  31.960  1.00  0.00     0.060 A 
BRANCH  73  74
ATOM     74  S   UNL A   1      34.109  34.495  31.963  1.00  0.00     0.124 S 
ATOM     75  O   UNL A   1      34.912  35.607  32.460  1.00  0.00    -0.237 OA
ATOM     76  O   UNL A   1      33.718  34.567  30.560  1.00  0.00    -0.237 OA
ATOM     77  O   UNL A   1      33.067  34.023  32.873  1.00  0.00    -0.744 OA
ENDBRANCH  73  74
ENDBRANCH  41  66
BRANCH  53  78
ATOM     78  C   UNL A   1      43.031  29.032  33.975  1.00  0.00     0.058 A 
ATOM     79  C   UNL A   1      43.296  29.311  35.329  1.00  0.00     0.135 A 
ATOM     80  C   UNL A   1      42.471  27.780  33.680  1.00  0.00     0.135 A 
ATOM     81  F   UNL A   1      43.734  30.520  35.710  1.00  0.00    -0.206 F 
ATOM     82  C   UNL A   1      43.055  28.372  36.335  1.00  0.00     0.059 A 
ATOM     83  C   UNL A   1      42.191  26.842  34.669  1.00  0.00     0.059 A 
ATOM     84  F   UNL A   1      42.138  27.476  32.414  1.00  0.00    -0.206 F 
ATOM     85  C   UNL A   1      42.499  27.139  35.994  1.00  0.00     0.060 A 
BRANCH  85  86
ATOM     86  S   UNL A   1      42.119  25.947  37.297  1.00  0.00     0.124 S 
ATOM     87  O   UNL A   1      42.451  24.679  36.659  1.00  0.00    -0.237 OA
ATOM     88  O   UNL A   1      43.008  26.365  38.378  1.00  0.00    -0.237 OA
ATOM     89  O   UNL A   1      40.697  26.163  37.554  1.00  0.00    -0.744 OA
ENDBRANCH  85  86
ENDBRANCH  53  78
ENDBRANCH  27  28
ENDBRANCH  20  22
ENDBRANCH  19  20
ENDBRANCH  18  19
ENDBRANCH   1  18
TORSDOF 17
ENDMDL
