MODEL 1
REMARK VINA RESULT:     -11.8      0.000      0.000
REMARK SMILES O=C(OCCOC(=O)c1ccc(-c2c3nc(c(-c4c(F)cc(S(=O)(=O)[O-])cc4F)c4ccc([nH]4)c(-c4c(F)cc(S(=O)(=O)[O-])cc4F)c4nc(c(-c5c(F)cc(S(=O)(=O)[O-])cc5F)c5ccc2[nH]5)C=C4)C=C3)cc1)C1=Cc2c(ccc(Cl)c2Cl)O[C@H]1C(F)(F)F
REMARK SMILES IDX 5 1 4 2 3 3 2 4 1 5 75 6 76 7 86 8 77 9 85 10 78 11 83 12
REMARK SMILES IDX 79 13 81 14 84 15 80 16 82 17 87 18 88 19 89 20 90 21 6 22
REMARK SMILES IDX 7 23 8 24 9 25 10 26 74 27 11 28 73 29 12 30 13 31 14 32
REMARK SMILES IDX 67 33 15 34 72 35 66 36 68 37 16 38 71 39 65 40 64 41 17 43
REMARK SMILES IDX 51 44 30 45 50 46 31 47 34 48 49 49 69 50 32 51 33 52 48 54
REMARK SMILES IDX 70 55 35 56 18 57 19 58 28 59 20 60 21 61 27 62 29 63 22 64
REMARK SMILES IDX 23 65 24 66 25 67 26 68 52 69 53 70 62 71 54 72 55 73 61 74
REMARK SMILES IDX 63 75 56 76 57 77 58 78 59 79 60 80 36 81 37 82 46 83 38 84
REMARK SMILES IDX 39 85 45 86 47 87 40 88 41 89 42 90 43 91 44 92
REMARK H PARENT 68 42 34 53
REMARK Flexibility Score: inf
ROOT
ATOM      1  C   UNL A   1      32.690  30.830  27.063  1.00  0.00     0.275 C 
ENDROOT
BRANCH   1   2
ATOM      2  C   UNL A   1      32.303  30.128  25.752  1.00  0.00     0.275 C 
BRANCH   2   3
ATOM      3  O   UNL A   1      32.398  28.689  25.792  1.00  0.00    -0.459 OA
BRANCH   3   4
ATOM      4  C   UNL A   1      31.482  27.785  26.197  1.00  0.00     0.338 C 
ATOM      5  O   UNL A   1      31.300  27.622  27.401  1.00  0.00    -0.246 OA
BRANCH   4   6
ATOM      6  C   UNL A   1      30.666  26.978  25.251  1.00  0.00     0.087 C 
ATOM      7  C   UNL A   1      30.086  25.794  25.518  1.00  0.00     0.029 C 
ATOM      8  C   UNL A   1      30.910  27.365  23.797  1.00  0.00     0.316 C 
ATOM      9  C   UNL A   1      30.778  24.699  24.791  1.00  0.00     0.037 A 
ATOM     10  O   UNL A   1      31.086  26.210  22.918  1.00  0.00    -0.475 OA
ATOM     11  C   UNL A   1      31.324  25.011  23.538  1.00  0.00     0.129 A 
ATOM     12  C   UNL A   1      30.966  23.415  25.334  1.00  0.00     0.070 A 
ATOM     13  C   UNL A   1      32.108  24.084  22.861  1.00  0.00     0.049 A 
ATOM     14  C   UNL A   1      31.813  22.511  24.682  1.00  0.00     0.060 A 
ATOM     15  Cl  UNL A   1      30.140  22.940  26.783  1.00  0.00    -0.082 Cl
ATOM     16  C   UNL A   1      32.387  22.851  23.453  1.00  0.00     0.026 A 
ATOM     17  Cl  UNL A   1      32.221  20.971  25.355  1.00  0.00    -0.083 Cl
BRANCH   8  18
ATOM     18  C   UNL A   1      29.780  28.271  23.283  1.00  0.00     0.430 C 
ATOM     19  F   UNL A   1      29.922  28.572  21.974  1.00  0.00    -0.167 F 
ATOM     20  F   UNL A   1      28.571  27.683  23.433  1.00  0.00    -0.167 F 
ATOM     21  F   UNL A   1      29.748  29.445  23.961  1.00  0.00    -0.167 F 
ENDBRANCH   8  18
ENDBRANCH   4   6
ENDBRANCH   3   4
ENDBRANCH   2   3
ENDBRANCH   1   2
BRANCH   1  22
ATOM     22  O   UNL A   1      33.651  30.085  27.809  1.00  0.00    -0.458 OA
BRANCH  22  23
ATOM     23  C   UNL A   1      34.589  30.872  28.388  1.00  0.00     0.338 C 
ATOM     24  O   UNL A   1      34.398  31.964  28.901  1.00  0.00    -0.246 OA
BRANCH  23  25
ATOM     25  C   UNL A   1      35.860  30.131  28.467  1.00  0.00     0.060 A 
ATOM     26  C   UNL A   1      36.250  29.678  29.730  1.00  0.00     0.016 A 
ATOM     27  C   UNL A   1      36.670  29.911  27.346  1.00  0.00     0.016 A 
ATOM     28  C   UNL A   1      37.511  29.129  29.902  1.00  0.00     0.010 A 
ATOM     29  C   UNL A   1      37.925  29.326  27.514  1.00  0.00     0.010 A 
ATOM     30  C   UNL A   1      38.378  29.020  28.807  1.00  0.00    -0.014 A 
BRANCH  30  31
ATOM     31  C   UNL A   1      39.823  28.851  29.082  1.00  0.00     0.031 A 
ATOM     32  C   UNL A   1      40.467  27.543  28.698  1.00  0.00     0.074 A 
ATOM     33  C   UNL A   1      40.558  29.878  29.542  1.00  0.00     0.049 A 
ATOM     34  N   UNL A   1      41.730  27.206  28.694  1.00  0.00    -0.248 NA
ATOM     35  C   UNL A   1      39.562  26.465  28.261  1.00  0.00     0.031 C 
ATOM     36  C   UNL A   1      40.031  31.190  29.916  1.00  0.00     0.029 A 
ATOM     37  N   UNL A   1      41.908  29.985  29.742  1.00  0.00    -0.354 N 
ATOM     38  C   UNL A   1      41.766  25.887  28.253  1.00  0.00     0.074 A 
ATOM     39  C   UNL A   1      40.400  25.460  28.068  1.00  0.00     0.031 C 
ATOM     40  C   UNL A   1      41.056  31.983  30.276  1.00  0.00     0.029 A 
ATOM     41  C   UNL A   1      42.304  31.229  30.170  1.00  0.00     0.049 A 
ATOM     42  H   UNL A   1      42.537  29.241  29.595  1.00  0.00     0.167 HD
ATOM     43  C   UNL A   1      42.843  25.109  27.997  1.00  0.00     0.037 A 
ATOM     44  C   UNL A   1      43.537  31.702  30.429  1.00  0.00     0.037 A 
ATOM     45  C   UNL A   1      44.197  25.551  28.187  1.00  0.00     0.049 A 
ATOM     46  C   UNL A   1      44.723  30.802  30.187  1.00  0.00     0.074 A 
ATOM     47  C   UNL A   1      45.372  24.861  27.953  1.00  0.00     0.029 A 
ATOM     48  N   UNL A   1      44.555  26.804  28.670  1.00  0.00    -0.354 N 
ATOM     49  N   UNL A   1      44.749  29.572  29.729  1.00  0.00    -0.248 NA
ATOM     50  C   UNL A   1      46.048  31.362  30.479  1.00  0.00     0.031 C 
ATOM     51  C   UNL A   1      46.438  25.674  28.355  1.00  0.00     0.029 A 
ATOM     52  C   UNL A   1      45.931  26.898  28.768  1.00  0.00     0.049 A 
ATOM     53  H   UNL A   1      43.921  27.519  28.906  1.00  0.00     0.167 HD
ATOM     54  C   UNL A   1      46.094  29.225  29.636  1.00  0.00     0.074 A 
ATOM     55  C   UNL A   1      46.847  30.379  30.085  1.00  0.00     0.031 C 
ATOM     56  C   UNL A   1      46.656  28.066  29.209  1.00  0.00     0.037 A 
BRANCH  43  57
ATOM     57  C   UNL A   1      42.581  23.701  27.528  1.00  0.00     0.058 A 
ATOM     58  C   UNL A   1      42.429  22.630  28.426  1.00  0.00     0.135 A 
ATOM     59  C   UNL A   1      42.522  23.412  26.156  1.00  0.00     0.135 A 
ATOM     60  F   UNL A   1      42.496  22.842  29.750  1.00  0.00    -0.206 F 
ATOM     61  C   UNL A   1      42.285  21.319  27.980  1.00  0.00     0.059 A 
ATOM     62  C   UNL A   1      42.343  22.113  25.687  1.00  0.00     0.059 A 
ATOM     63  F   UNL A   1      42.662  24.393  25.250  1.00  0.00    -0.206 F 
ATOM     64  C   UNL A   1      42.252  21.070  26.608  1.00  0.00     0.060 A 
BRANCH  64  65
ATOM     65  S   UNL A   1      42.108  19.362  26.042  1.00  0.00     0.124 S 
ATOM     66  O   UNL A   1      43.026  19.354  24.906  1.00  0.00    -0.237 OA
ATOM     67  O   UNL A   1      42.544  18.608  27.213  1.00  0.00    -0.237 OA
ATOM     68  O   UNL A   1      40.694  19.232  25.706  1.00  0.00    -0.744 OA
ENDBRANCH  64  65
ENDBRANCH  43  57
BRANCH  44  69
ATOM     69  C   UNL A   1      43.713  33.102  30.902  1.00  0.00     0.058 A 
ATOM     70  C   UNL A   1      43.810  34.171  29.997  1.00  0.00     0.135 A 
ATOM     71  C   UNL A   1      43.770  33.403  32.272  1.00  0.00     0.135 A 
ATOM     72  F   UNL A   1      43.767  33.936  28.676  1.00  0.00    -0.206 F 
ATOM     73  C   UNL A   1      43.972  35.483  30.430  1.00  0.00     0.059 A 
ATOM     74  C   UNL A   1      43.906  34.711  32.731  1.00  0.00     0.059 A 
ATOM     75  F   UNL A   1      43.671  32.421  33.181  1.00  0.00    -0.206 F 
ATOM     76  C   UNL A   1      44.014  35.743  31.802  1.00  0.00     0.060 A 
BRANCH  76  77
ATOM     77  S   UNL A   1      44.175  37.456  32.352  1.00  0.00     0.124 S 
ATOM     78  O   UNL A   1      43.251  37.491  33.481  1.00  0.00    -0.237 OA
ATOM     79  O   UNL A   1      45.594  37.536  32.685  1.00  0.00    -0.237 OA
ATOM     80  O   UNL A   1      43.769  38.227  31.181  1.00  0.00    -0.744 OA
ENDBRANCH  76  77
ENDBRANCH  44  69
BRANCH  56  81
ATOM     81  C   UNL A   1      48.159  28.004  29.149  1.00  0.00     0.058 A 
ATOM     82  C   UNL A   1      48.877  28.396  28.009  1.00  0.00     0.135 A 
ATOM     83  C   UNL A   1      48.890  27.598  30.278  1.00  0.00     0.135 A 
ATOM     84  F   UNL A   1      48.229  28.791  26.902  1.00  0.00    -0.206 F 
ATOM     85  C   UNL A   1      50.268  28.356  27.979  1.00  0.00     0.059 A 
ATOM     86  C   UNL A   1      50.280  27.586  30.283  1.00  0.00     0.059 A 
ATOM     87  F   UNL A   1      48.253  27.227  31.400  1.00  0.00    -0.206 F 
ATOM     88  C   UNL A   1      50.960  27.952  29.124  1.00  0.00     0.060 A 
BRANCH  88  89
ATOM     89  S   UNL A   1      52.764  27.930  29.080  1.00  0.00     0.124 S 
ATOM     90  O   UNL A   1      53.041  28.802  27.943  1.00  0.00    -0.237 OA
ATOM     91  O   UNL A   1      53.113  28.467  30.391  1.00  0.00    -0.237 OA
ATOM     92  O   UNL A   1      53.082  26.519  28.881  1.00  0.00    -0.744 OA
ENDBRANCH  88  89
ENDBRANCH  56  81
ENDBRANCH  30  31
ENDBRANCH  23  25
ENDBRANCH  22  23
ENDBRANCH   1  22
TORSDOF 15
ENDMDL
MODEL 2
REMARK VINA RESULT:     -11.7      4.444      8.800
REMARK SMILES O=C(OCCOC(=O)c1ccc(-c2c3nc(c(-c4c(F)cc(S(=O)(=O)[O-])cc4F)c4ccc([nH]4)c(-c4c(F)cc(S(=O)(=O)[O-])cc4F)c4nc(c(-c5c(F)cc(S(=O)(=O)[O-])cc5F)c5ccc2[nH]5)C=C4)C=C3)cc1)C1=Cc2c(ccc(Cl)c2Cl)O[C@H]1C(F)(F)F
REMARK SMILES IDX 5 1 4 2 3 3 2 4 1 5 75 6 76 7 86 8 77 9 85 10 78 11 83 12
REMARK SMILES IDX 79 13 81 14 84 15 80 16 82 17 87 18 88 19 89 20 90 21 6 22
REMARK SMILES IDX 7 23 8 24 9 25 10 26 74 27 11 28 73 29 12 30 13 31 14 32
REMARK SMILES IDX 67 33 15 34 72 35 66 36 68 37 16 38 71 39 65 40 64 41 17 43
REMARK SMILES IDX 51 44 30 45 50 46 31 47 34 48 49 49 69 50 32 51 33 52 48 54
REMARK SMILES IDX 70 55 35 56 18 57 19 58 28 59 20 60 21 61 27 62 29 63 22 64
REMARK SMILES IDX 23 65 24 66 25 67 26 68 52 69 53 70 62 71 54 72 55 73 61 74
REMARK SMILES IDX 63 75 56 76 57 77 58 78 59 79 60 80 36 81 37 82 46 83 38 84
REMARK SMILES IDX 39 85 45 86 47 87 40 88 41 89 42 90 43 91 44 92
REMARK H PARENT 68 42 34 53
REMARK Flexibility Score: inf
ROOT
ATOM      1  C   UNL A   1      32.506  30.589  26.916  1.00  0.00     0.275 C 
ENDROOT
BRANCH   1   2
ATOM      2  C   UNL A   1      32.685  29.751  25.641  1.00  0.00     0.275 C 
BRANCH   2   3
ATOM      3  O   UNL A   1      32.597  28.325  25.844  1.00  0.00    -0.459 OA
BRANCH   3   4
ATOM      4  C   UNL A   1      31.531  27.579  26.203  1.00  0.00     0.338 C 
ATOM      5  O   UNL A   1      31.203  27.544  27.387  1.00  0.00    -0.246 OA
BRANCH   4   6
ATOM      6  C   UNL A   1      30.720  26.802  25.230  1.00  0.00     0.087 C 
ATOM      7  C   UNL A   1      30.144  25.607  25.456  1.00  0.00     0.029 C 
ATOM      8  C   UNL A   1      30.965  27.238  23.789  1.00  0.00     0.316 C 
ATOM      9  C   UNL A   1      30.841  24.540  24.694  1.00  0.00     0.037 A 
ATOM     10  O   UNL A   1      31.147  26.113  22.873  1.00  0.00    -0.475 OA
ATOM     11  C   UNL A   1      31.388  24.895  23.453  1.00  0.00     0.129 A 
ATOM     12  C   UNL A   1      31.032  23.239  25.194  1.00  0.00     0.070 A 
ATOM     13  C   UNL A   1      32.176  23.994  22.748  1.00  0.00     0.049 A 
ATOM     14  C   UNL A   1      31.884  22.360  24.515  1.00  0.00     0.060 A 
ATOM     15  Cl  UNL A   1      30.206  22.713  26.625  1.00  0.00    -0.082 Cl
ATOM     16  C   UNL A   1      32.459  22.743  23.299  1.00  0.00     0.026 A 
ATOM     17  Cl  UNL A   1      32.296  20.800  25.137  1.00  0.00    -0.083 Cl
BRANCH   8  18
ATOM     18  C   UNL A   1      29.833  28.156  23.304  1.00  0.00     0.430 C 
ATOM     19  F   UNL A   1      29.899  28.389  21.974  1.00  0.00    -0.167 F 
ATOM     20  F   UNL A   1      28.619  27.618  23.559  1.00  0.00    -0.167 F 
ATOM     21  F   UNL A   1      29.881  29.362  23.923  1.00  0.00    -0.167 F 
ENDBRANCH   8  18
ENDBRANCH   4   6
ENDBRANCH   3   4
ENDBRANCH   2   3
ENDBRANCH   1   2
BRANCH   1  22
ATOM     22  O   UNL A   1      33.602  30.439  27.817  1.00  0.00    -0.458 OA
BRANCH  22  23
ATOM     23  C   UNL A   1      34.393  31.538  27.867  1.00  0.00     0.338 C 
ATOM     24  O   UNL A   1      34.015  32.699  27.883  1.00  0.00    -0.246 OA
BRANCH  23  25
ATOM     25  C   UNL A   1      35.789  31.119  28.081  1.00  0.00     0.060 A 
ATOM     26  C   UNL A   1      36.056  29.749  28.015  1.00  0.00     0.016 A 
ATOM     27  C   UNL A   1      36.809  32.034  28.372  1.00  0.00     0.016 A 
ATOM     28  C   UNL A   1      37.307  29.276  28.377  1.00  0.00     0.010 A 
ATOM     29  C   UNL A   1      38.078  31.559  28.702  1.00  0.00     0.010 A 
ATOM     30  C   UNL A   1      38.298  30.176  28.792  1.00  0.00    -0.014 A 
BRANCH  30  31
ATOM     31  C   UNL A   1      39.439  29.639  29.569  1.00  0.00     0.031 A 
ATOM     32  C   UNL A   1      39.550  30.030  31.020  1.00  0.00     0.074 A 
ATOM     33  C   UNL A   1      40.271  28.734  29.028  1.00  0.00     0.049 A 
ATOM     34  N   UNL A   1      40.359  29.580  31.944  1.00  0.00    -0.248 NA
ATOM     35  C   UNL A   1      38.625  31.074  31.496  1.00  0.00     0.031 C 
ATOM     36  C   UNL A   1      40.227  28.272  27.640  1.00  0.00     0.029 A 
ATOM     37  N   UNL A   1      41.295  28.020  29.591  1.00  0.00    -0.354 N 
ATOM     38  C   UNL A   1      40.036  30.282  33.102  1.00  0.00     0.074 A 
ATOM     39  C   UNL A   1      39.010  31.235  32.752  1.00  0.00     0.031 C 
ATOM     40  C   UNL A   1      41.168  27.328  27.468  1.00  0.00     0.029 A 
ATOM     41  C   UNL A   1      41.886  27.131  28.725  1.00  0.00     0.049 A 
ATOM     42  H   UNL A   1      41.582  28.133  30.526  1.00  0.00     0.167 HD
ATOM     43  C   UNL A   1      40.528  30.125  34.352  1.00  0.00     0.037 A 
ATOM     44  C   UNL A   1      42.882  26.251  28.938  1.00  0.00     0.037 A 
ATOM     45  C   UNL A   1      41.549  29.169  34.683  1.00  0.00     0.049 A 
ATOM     46  C   UNL A   1      43.455  26.128  30.328  1.00  0.00     0.074 A 
ATOM     47  C   UNL A   1      42.123  28.909  35.913  1.00  0.00     0.029 A 
ATOM     48  N   UNL A   1      42.157  28.321  33.767  1.00  0.00    -0.354 N 
ATOM     49  N   UNL A   1      43.112  26.765  31.424  1.00  0.00    -0.248 NA
ATOM     50  C   UNL A   1      44.536  25.152  30.513  1.00  0.00     0.031 C 
ATOM     51  C   UNL A   1      43.122  27.947  35.729  1.00  0.00     0.029 A 
ATOM     52  C   UNL A   1      43.120  27.554  34.398  1.00  0.00     0.049 A 
ATOM     53  H   UNL A   1      41.935  28.271  32.809  1.00  0.00     0.167 HD
ATOM     54  C   UNL A   1      43.905  26.236  32.438  1.00  0.00     0.074 A 
ATOM     55  C   UNL A   1      44.742  25.226  31.821  1.00  0.00     0.031 C 
ATOM     56  C   UNL A   1      43.933  26.547  33.759  1.00  0.00     0.037 A 
BRANCH  43  57
ATOM     57  C   UNL A   1      39.991  31.037  35.424  1.00  0.00     0.058 A 
ATOM     58  C   UNL A   1      40.769  32.059  35.996  1.00  0.00     0.135 A 
ATOM     59  C   UNL A   1      38.688  30.860  35.917  1.00  0.00     0.135 A 
ATOM     60  F   UNL A   1      42.029  32.263  35.580  1.00  0.00    -0.206 F 
ATOM     61  C   UNL A   1      40.296  32.831  37.053  1.00  0.00     0.059 A 
ATOM     62  C   UNL A   1      38.181  31.644  36.949  1.00  0.00     0.059 A 
ATOM     63  F   UNL A   1      37.897  29.900  35.412  1.00  0.00    -0.206 F 
ATOM     64  C   UNL A   1      39.003  32.611  37.529  1.00  0.00     0.060 A 
BRANCH  64  65
ATOM     65  S   UNL A   1      38.417  33.589  38.927  1.00  0.00     0.124 S 
ATOM     66  O   UNL A   1      37.061  33.074  39.095  1.00  0.00    -0.237 OA
ATOM     67  O   UNL A   1      39.365  33.231  39.978  1.00  0.00    -0.237 OA
ATOM     68  O   UNL A   1      38.509  34.963  38.445  1.00  0.00    -0.744 OA
ENDBRANCH  64  65
ENDBRANCH  43  57
BRANCH  44  69
ATOM     69  C   UNL A   1      43.367  25.393  27.823  1.00  0.00     0.058 A 
ATOM     70  C   UNL A   1      44.289  25.872  26.881  1.00  0.00     0.135 A 
ATOM     71  C   UNL A   1      42.930  24.065  27.687  1.00  0.00     0.135 A 
ATOM     72  F   UNL A   1      44.734  27.136  26.962  1.00  0.00    -0.206 F 
ATOM     73  C   UNL A   1      44.749  25.076  25.837  1.00  0.00     0.059 A 
ATOM     74  C   UNL A   1      43.395  23.240  26.667  1.00  0.00     0.059 A 
ATOM     75  F   UNL A   1      42.056  23.551  28.568  1.00  0.00    -0.206 F 
ATOM     76  C   UNL A   1      44.299  23.757  25.741  1.00  0.00     0.060 A 
BRANCH  76  77
ATOM     77  S   UNL A   1      44.941  22.718  24.411  1.00  0.00     0.124 S 
ATOM     78  O   UNL A   1      43.772  22.588  23.548  1.00  0.00    -0.237 OA
ATOM     79  O   UNL A   1      46.033  23.533  23.889  1.00  0.00    -0.237 OA
ATOM     80  O   UNL A   1      45.353  21.501  25.103  1.00  0.00    -0.744 OA
ENDBRANCH  76  77
ENDBRANCH  44  69
BRANCH  56  81
ATOM     81  C   UNL A   1      44.855  25.748  34.641  1.00  0.00     0.058 A 
ATOM     82  C   UNL A   1      46.155  26.178  34.945  1.00  0.00     0.135 A 
ATOM     83  C   UNL A   1      44.401  24.559  35.237  1.00  0.00     0.135 A 
ATOM     84  F   UNL A   1      46.640  27.307  34.403  1.00  0.00    -0.206 F 
ATOM     85  C   UNL A   1      46.986  25.440  35.782  1.00  0.00     0.059 A 
ATOM     86  C   UNL A   1      45.201  23.825  36.106  1.00  0.00     0.059 A 
ATOM     87  F   UNL A   1      43.160  24.110  34.993  1.00  0.00    -0.206 F 
ATOM     88  C   UNL A   1      46.497  24.266  36.360  1.00  0.00     0.060 A 
BRANCH  88  89
ATOM     89  S   UNL A   1      47.576  23.332  37.466  1.00  0.00     0.124 S 
ATOM     90  O   UNL A   1      46.848  22.074  37.593  1.00  0.00    -0.237 OA
ATOM     91  O   UNL A   1      48.821  23.272  36.708  1.00  0.00    -0.237 OA
ATOM     92  O   UNL A   1      47.622  24.155  38.671  1.00  0.00    -0.744 OA
ENDBRANCH  88  89
ENDBRANCH  56  81
ENDBRANCH  30  31
ENDBRANCH  23  25
ENDBRANCH  22  23
ENDBRANCH   1  22
TORSDOF 15
ENDMDL
MODEL 3
REMARK VINA RESULT:     -11.7      0.996      1.637
REMARK SMILES O=C(OCCOC(=O)c1ccc(-c2c3nc(c(-c4c(F)cc(S(=O)(=O)[O-])cc4F)c4ccc([nH]4)c(-c4c(F)cc(S(=O)(=O)[O-])cc4F)c4nc(c(-c5c(F)cc(S(=O)(=O)[O-])cc5F)c5ccc2[nH]5)C=C4)C=C3)cc1)C1=Cc2c(ccc(Cl)c2Cl)O[C@H]1C(F)(F)F
REMARK SMILES IDX 5 1 4 2 3 3 2 4 1 5 75 6 76 7 86 8 77 9 85 10 78 11 83 12
REMARK SMILES IDX 79 13 81 14 84 15 80 16 82 17 87 18 88 19 89 20 90 21 6 22
REMARK SMILES IDX 7 23 8 24 9 25 10 26 74 27 11 28 73 29 12 30 13 31 14 32
REMARK SMILES IDX 67 33 15 34 72 35 66 36 68 37 16 38 71 39 65 40 64 41 17 43
REMARK SMILES IDX 51 44 30 45 50 46 31 47 34 48 49 49 69 50 32 51 33 52 48 54
REMARK SMILES IDX 70 55 35 56 18 57 19 58 28 59 20 60 21 61 27 62 29 63 22 64
REMARK SMILES IDX 23 65 24 66 25 67 26 68 52 69 53 70 62 71 54 72 55 73 61 74
REMARK SMILES IDX 63 75 56 76 57 77 58 78 59 79 60 80 36 81 37 82 46 83 38 84
REMARK SMILES IDX 39 85 45 86 47 87 40 88 41 89 42 90 43 91 44 92
REMARK H PARENT 68 42 34 53
REMARK Flexibility Score: inf
ROOT
ATOM      1  C   UNL A   1      33.096  30.301  27.373  1.00  0.00     0.275 C 
ENDROOT
BRANCH   1   2
ATOM      2  C   UNL A   1      31.994  31.145  26.715  1.00  0.00     0.275 C 
BRANCH   2   3
ATOM      3  O   UNL A   1      31.351  30.516  25.587  1.00  0.00    -0.459 OA
BRANCH   3   4
ATOM      4  C   UNL A   1      31.806  29.529  24.787  1.00  0.00     0.338 C 
ATOM      5  O   UNL A   1      32.993  29.522  24.471  1.00  0.00    -0.246 OA
BRANCH   4   6
ATOM      6  C   UNL A   1      30.940  28.434  24.276  1.00  0.00     0.087 C 
ATOM      7  C   UNL A   1      30.885  27.179  24.755  1.00  0.00     0.029 C 
ATOM      8  C   UNL A   1      30.439  28.702  22.861  1.00  0.00     0.316 C 
ATOM      9  C   UNL A   1      31.495  26.227  23.792  1.00  0.00     0.037 A 
ATOM     10  O   UNL A   1      30.557  27.541  21.981  1.00  0.00    -0.475 OA
ATOM     11  C   UNL A   1      31.361  26.524  22.429  1.00  0.00     0.129 A 
ATOM     12  C   UNL A   1      32.248  25.107  24.191  1.00  0.00     0.070 A 
ATOM     13  C   UNL A   1      32.023  25.763  21.474  1.00  0.00     0.049 A 
ATOM     14  C   UNL A   1      32.969  24.387  23.231  1.00  0.00     0.060 A 
ATOM     15  Cl  UNL A   1      32.268  24.602  25.850  1.00  0.00    -0.082 Cl
ATOM     16  C   UNL A   1      32.861  24.722  21.878  1.00  0.00     0.026 A 
ATOM     17  Cl  UNL A   1      34.039  23.095  23.651  1.00  0.00    -0.083 Cl
BRANCH   8  18
ATOM     18  C   UNL A   1      28.991  29.217  22.889  1.00  0.00     0.430 C 
ATOM     19  F   UNL A   1      28.603  29.715  21.695  1.00  0.00    -0.167 F 
ATOM     20  F   UNL A   1      28.125  28.231  23.215  1.00  0.00    -0.167 F 
ATOM     21  F   UNL A   1      28.843  30.208  23.803  1.00  0.00    -0.167 F 
ENDBRANCH   8  18
ENDBRANCH   4   6
ENDBRANCH   3   4
ENDBRANCH   2   3
ENDBRANCH   1   2
BRANCH   1  22
ATOM     22  O   UNL A   1      34.381  30.912  27.264  1.00  0.00    -0.458 OA
BRANCH  22  23
ATOM     23  C   UNL A   1      34.964  31.124  28.468  1.00  0.00     0.338 C 
ATOM     24  O   UNL A   1      34.484  31.746  29.403  1.00  0.00    -0.246 OA
BRANCH  23  25
ATOM     25  C   UNL A   1      36.205  30.335  28.549  1.00  0.00     0.060 A 
ATOM     26  C   UNL A   1      36.565  29.848  29.808  1.00  0.00     0.016 A 
ATOM     27  C   UNL A   1      37.018  30.101  27.432  1.00  0.00     0.016 A 
ATOM     28  C   UNL A   1      37.802  29.250  29.984  1.00  0.00     0.010 A 
ATOM     29  C   UNL A   1      38.248  29.467  27.603  1.00  0.00     0.010 A 
ATOM     30  C   UNL A   1      38.677  29.125  28.896  1.00  0.00    -0.014 A 
BRANCH  30  31
ATOM     31  C   UNL A   1      40.111  28.898  29.184  1.00  0.00     0.031 A 
ATOM     32  C   UNL A   1      40.710  27.573  28.784  1.00  0.00     0.074 A 
ATOM     33  C   UNL A   1      40.878  29.889  29.668  1.00  0.00     0.049 A 
ATOM     34  N   UNL A   1      41.960  27.189  28.787  1.00  0.00    -0.248 NA
ATOM     35  C   UNL A   1      39.770  26.537  28.320  1.00  0.00     0.031 C 
ATOM     36  C   UNL A   1      40.396  31.213  30.059  1.00  0.00     0.029 A 
ATOM     37  N   UNL A   1      42.230  29.941  29.884  1.00  0.00    -0.354 N 
ATOM     38  C   UNL A   1      41.952  25.877  28.325  1.00  0.00     0.074 A 
ATOM     39  C   UNL A   1      40.572  25.505  28.118  1.00  0.00     0.031 C 
ATOM     40  C   UNL A   1      41.446  31.961  30.443  1.00  0.00     0.029 A 
ATOM     41  C   UNL A   1      42.666  31.163  30.337  1.00  0.00     0.049 A 
ATOM     42  H   UNL A   1      42.832  29.177  29.731  1.00  0.00     0.167 HD
ATOM     43  C   UNL A   1      43.001  25.064  28.067  1.00  0.00     0.037 A 
ATOM     44  C   UNL A   1      43.914  31.585  30.617  1.00  0.00     0.037 A 
ATOM     45  C   UNL A   1      44.369  25.452  28.278  1.00  0.00     0.049 A 
ATOM     46  C   UNL A   1      45.068  30.646  30.372  1.00  0.00     0.074 A 
ATOM     47  C   UNL A   1      45.520  24.722  28.045  1.00  0.00     0.029 A 
ATOM     48  N   UNL A   1      44.767  26.682  28.785  1.00  0.00    -0.354 N 
ATOM     49  N   UNL A   1      45.052  29.423  29.893  1.00  0.00    -0.248 NA
ATOM     50  C   UNL A   1      46.410  31.151  30.687  1.00  0.00     0.031 C 
ATOM     51  C   UNL A   1      46.610  25.488  28.471  1.00  0.00     0.029 A 
ATOM     52  C   UNL A   1      46.145  26.723  28.899  1.00  0.00     0.049 A 
ATOM     53  H   UNL A   1      44.158  27.417  29.027  1.00  0.00     0.167 HD
ATOM     54  C   UNL A   1      46.385  29.028  29.808  1.00  0.00     0.074 A 
ATOM     55  C   UNL A   1      47.175  30.146  30.284  1.00  0.00     0.031 C 
ATOM     56  C   UNL A   1      46.908  27.856  29.367  1.00  0.00     0.037 A 
BRANCH  43  57
ATOM     57  C   UNL A   1      42.693  23.675  27.571  1.00  0.00     0.058 A 
ATOM     58  C   UNL A   1      42.448  22.604  28.450  1.00  0.00     0.135 A 
ATOM     59  C   UNL A   1      42.681  23.400  26.194  1.00  0.00     0.135 A 
ATOM     60  F   UNL A   1      42.466  22.802  29.778  1.00  0.00    -0.206 F 
ATOM     61  C   UNL A   1      42.261  21.306  27.983  1.00  0.00     0.059 A 
ATOM     62  C   UNL A   1      42.460  22.116  25.704  1.00  0.00     0.059 A 
ATOM     63  F   UNL A   1      42.909  24.381  25.306  1.00  0.00    -0.206 F 
ATOM     64  C   UNL A   1      42.277  21.071  26.608  1.00  0.00     0.060 A 
BRANCH  64  65
ATOM     65  S   UNL A   1      42.076  19.377  26.019  1.00  0.00     0.124 S 
ATOM     66  O   UNL A   1      42.500  18.610  27.187  1.00  0.00    -0.237 OA
ATOM     67  O   UNL A   1      40.651  19.321  25.710  1.00  0.00    -0.237 OA
ATOM     68  O   UNL A   1      42.968  19.308  24.867  1.00  0.00    -0.744 OA
ENDBRANCH  64  65
ENDBRANCH  43  57
BRANCH  44  69
ATOM     69  C   UNL A   1      44.136  32.970  31.114  1.00  0.00     0.058 A 
ATOM     70  C   UNL A   1      44.326  34.042  30.229  1.00  0.00     0.135 A 
ATOM     71  C   UNL A   1      44.146  33.253  32.490  1.00  0.00     0.135 A 
ATOM     72  F   UNL A   1      44.332  33.824  28.904  1.00  0.00    -0.206 F 
ATOM     73  C   UNL A   1      44.533  35.340  30.686  1.00  0.00     0.059 A 
ATOM     74  C   UNL A   1      44.324  34.547  32.971  1.00  0.00     0.059 A 
ATOM     75  F   UNL A   1      43.958  32.267  33.381  1.00  0.00    -0.206 F 
ATOM     76  C   UNL A   1      44.525  35.583  32.061  1.00  0.00     0.060 A 
BRANCH  76  77
ATOM     77  S   UNL A   1      44.744  37.279  32.640  1.00  0.00     0.124 S 
ATOM     78  O   UNL A   1      46.198  37.395  32.672  1.00  0.00    -0.237 OA
ATOM     79  O   UNL A   1      44.065  38.046  31.601  1.00  0.00    -0.237 OA
ATOM     80  O   UNL A   1      44.084  37.280  33.942  1.00  0.00    -0.744 OA
ENDBRANCH  76  77
ENDBRANCH  44  69
BRANCH  56  81
ATOM     81  C   UNL A   1      48.408  27.739  29.322  1.00  0.00     0.058 A 
ATOM     82  C   UNL A   1      49.157  27.305  30.426  1.00  0.00     0.135 A 
ATOM     83  C   UNL A   1      49.098  28.013  28.128  1.00  0.00     0.135 A 
ATOM     84  F   UNL A   1      48.549  27.031  31.591  1.00  0.00    -0.206 F 
ATOM     85  C   UNL A   1      50.541  27.179  30.359  1.00  0.00     0.059 A 
ATOM     86  C   UNL A   1      50.476  27.858  28.028  1.00  0.00     0.059 A 
ATOM     87  F   UNL A   1      48.428  28.416  27.036  1.00  0.00    -0.206 F 
ATOM     88  C   UNL A   1      51.190  27.455  29.153  1.00  0.00     0.060 A 
BRANCH  88  89
ATOM     89  S   UNL A   1      52.983  27.261  29.073  1.00  0.00     0.124 S 
ATOM     90  O   UNL A   1      53.211  26.224  30.073  1.00  0.00    -0.237 OA
ATOM     91  O   UNL A   1      53.191  26.861  27.685  1.00  0.00    -0.237 OA
ATOM     92  O   UNL A   1      53.484  28.588  29.419  1.00  0.00    -0.744 OA
ENDBRANCH  88  89
ENDBRANCH  56  81
ENDBRANCH  30  31
ENDBRANCH  23  25
ENDBRANCH  22  23
ENDBRANCH   1  22
TORSDOF 15
ENDMDL
