MODEL 1
REMARK VINA RESULT:     -12.0      0.000      0.000
REMARK SMILES C[N@H+]1CCO[C@H](c2noc(-c3ccccc3C(=O)OCCOC(=O)c3ccc(-c4c5nc(c(-c6c(F)cc(S(=O)(=O)[O-])cc6F)c6ccc([nH]6)c(-c6c(F)cc(S(=O)(=O)[O-])cc6F)c6nc(c(-c7c(F)cc(S(=O)(=O)[O-])cc7F)c7ccc4[nH]7)C=C6)C=C5)cc3)n2)C1
REMARK SMILES IDX 21 1 20 2 19 3 17 4 18 5 16 6 11 7 12 8 13 9 15 10 14 11
REMARK SMILES IDX 10 12 7 13 8 14 91 15 9 16 6 17 1 18 2 19 3 20 92 21 4 23
REMARK SMILES IDX 5 24 22 25 23 26 24 27 25 28 26 29 90 30 27 31 89 32 28 33
REMARK SMILES IDX 29 34 30 35 83 36 31 37 88 38 82 39 84 40 32 41 87 42 81 43
REMARK SMILES IDX 80 44 33 46 67 47 46 48 66 49 47 50 50 51 65 52 85 53 48 54
REMARK SMILES IDX 49 55 64 57 86 58 51 59 34 60 35 61 44 62 36 63 37 64 43 65
REMARK SMILES IDX 45 66 38 67 39 68 40 69 41 70 42 71 68 72 69 73 78 74 70 75
REMARK SMILES IDX 71 76 77 77 79 78 72 79 73 80 74 81 75 82 76 83 52 84 53 85
REMARK SMILES IDX 62 86 54 87 55 88 61 89 63 90 56 91 57 92 58 93 59 94 60 95
REMARK H PARENT 2 22 84 45 50 56
REMARK Flexibility Score: inf
ROOT
ATOM      1  C   UNL A   1      34.590  29.608  27.343  1.00  0.00     0.275 C 
ENDROOT
BRANCH   1   2
ATOM      2  C   UNL A   1      33.420  28.633  27.257  1.00  0.00     0.275 C 
BRANCH   2   3
ATOM      3  O   UNL A   1      33.617  27.686  26.186  1.00  0.00    -0.458 OA
BRANCH   3   4
ATOM      4  C   UNL A   1      32.905  26.533  26.254  1.00  0.00     0.339 C 
ATOM      5  O   UNL A   1      31.929  26.320  26.956  1.00  0.00    -0.246 OA
BRANCH   4   6
ATOM      6  C   UNL A   1      33.400  25.555  25.249  1.00  0.00     0.072 A 
ATOM      7  C   UNL A   1      32.695  25.244  24.070  1.00  0.00     0.054 A 
ATOM      8  C   UNL A   1      33.224  24.273  23.201  1.00  0.00     0.015 A 
ATOM      9  C   UNL A   1      34.441  23.645  23.489  1.00  0.00     0.001 A 
ATOM     10  C   UNL A   1      34.642  24.951  25.506  1.00  0.00     0.016 A 
ATOM     11  C   UNL A   1      35.152  23.990  24.636  1.00  0.00     0.001 A 
BRANCH   7  12
ATOM     12  C   UNL A   1      31.496  25.977  23.713  1.00  0.00     0.258 A 
ATOM     13  C   UNL A   1      30.081  27.450  23.270  1.00  0.00     0.206 A 
ATOM     14  N   UNL A   1      29.333  26.461  23.786  1.00  0.00    -0.059 NA
ATOM     15  N   UNL A   1      31.406  27.142  23.118  1.00  0.00    -0.189 NA
ATOM     16  O   UNL A   1      30.286  25.475  24.099  1.00  0.00    -0.334 OA
BRANCH  13  17
ATOM     17  C   UNL A   1      29.560  28.827  22.978  1.00  0.00     0.245 C 
ATOM     18  C   UNL A   1      27.411  31.101  23.599  1.00  0.00     0.332 C 
ATOM     19  N   UNL A   1      27.366  30.104  22.539  1.00  0.00    -0.333 N 
ATOM     20  C   UNL A   1      28.013  30.566  21.297  1.00  0.00     0.290 C 
ATOM     21  C   UNL A   1      27.999  28.830  22.957  1.00  0.00     0.303 C 
ATOM     22  H   UNL A   1      26.376  29.948  22.352  1.00  0.00     0.348 HD
ATOM     23  C   UNL A   1      29.547  30.582  21.368  1.00  0.00     0.222 C 
ATOM     24  O   UNL A   1      30.069  29.295  21.704  1.00  0.00    -0.358 OA
ENDBRANCH  13  17
ENDBRANCH   7  12
ENDBRANCH   4   6
ENDBRANCH   3   4
ENDBRANCH   2   3
ENDBRANCH   1   2
BRANCH   1  25
ATOM     25  O   UNL A   1      35.610  29.052  28.188  1.00  0.00    -0.458 OA
BRANCH  25  26
ATOM     26  C   UNL A   1      36.195  29.943  29.018  1.00  0.00     0.338 C 
ATOM     27  O   UNL A   1      35.670  30.627  29.877  1.00  0.00    -0.246 OA
BRANCH  26  28
ATOM     28  C   UNL A   1      37.647  29.859  28.842  1.00  0.00     0.060 A 
ATOM     29  C   UNL A   1      38.128  29.779  27.538  1.00  0.00     0.016 A 
ATOM     30  C   UNL A   1      38.505  29.723  29.930  1.00  0.00     0.016 A 
ATOM     31  C   UNL A   1      39.464  29.481  27.306  1.00  0.00     0.010 A 
ATOM     32  C   UNL A   1      39.862  29.476  29.695  1.00  0.00     0.010 A 
ATOM     33  C   UNL A   1      40.345  29.309  28.382  1.00  0.00    -0.014 A 
BRANCH  33  34
ATOM     34  C   UNL A   1      41.738  28.853  28.125  1.00  0.00     0.031 A 
ATOM     35  C   UNL A   1      42.877  29.834  28.237  1.00  0.00     0.074 A 
ATOM     36  C   UNL A   1      41.992  27.560  27.845  1.00  0.00     0.049 A 
ATOM     37  N   UNL A   1      44.142  29.670  27.946  1.00  0.00    -0.248 NA
ATOM     38  C   UNL A   1      42.547  31.181  28.730  1.00  0.00     0.031 C 
ATOM     39  C   UNL A   1      40.985  26.500  27.752  1.00  0.00     0.029 A 
ATOM     40  N   UNL A   1      43.177  26.911  27.604  1.00  0.00    -0.354 N 
ATOM     41  C   UNL A   1      44.746  30.905  28.163  1.00  0.00     0.074 A 
ATOM     42  C   UNL A   1      43.708  31.809  28.607  1.00  0.00     0.031 C 
ATOM     43  C   UNL A   1      41.599  25.331  27.512  1.00  0.00     0.029 A 
ATOM     44  C   UNL A   1      43.032  25.565  27.366  1.00  0.00     0.049 A 
ATOM     45  H   UNL A   1      44.050  27.368  27.603  1.00  0.00     0.167 HD
ATOM     46  C   UNL A   1      46.046  31.252  28.007  1.00  0.00     0.037 A 
ATOM     47  C   UNL A   1      43.944  24.630  27.040  1.00  0.00     0.037 A 
ATOM     48  C   UNL A   1      47.086  30.330  27.625  1.00  0.00     0.049 A 
ATOM     49  C   UNL A   1      45.384  25.034  26.888  1.00  0.00     0.074 A 
ATOM     50  C   UNL A   1      48.435  30.578  27.445  1.00  0.00     0.029 A 
ATOM     51  N   UNL A   1      46.894  28.977  27.386  1.00  0.00    -0.354 N 
ATOM     52  N   UNL A   1      45.927  26.219  27.037  1.00  0.00    -0.248 NA
ATOM     53  C   UNL A   1      46.334  23.978  26.513  1.00  0.00     0.031 C 
ATOM     54  C   UNL A   1      49.057  29.379  27.075  1.00  0.00     0.029 A 
ATOM     55  C   UNL A   1      48.100  28.377  27.062  1.00  0.00     0.049 A 
ATOM     56  H   UNL A   1      46.028  28.511  27.439  1.00  0.00     0.167 HD
ATOM     57  C   UNL A   1      47.283  26.049  26.782  1.00  0.00     0.074 A 
ATOM     58  C   UNL A   1      47.480  24.643  26.493  1.00  0.00     0.031 C 
ATOM     59  C   UNL A   1      48.275  26.975  26.781  1.00  0.00     0.037 A 
BRANCH  46  60
ATOM     60  C   UNL A   1      46.414  32.694  28.219  1.00  0.00     0.058 A 
ATOM     61  C   UNL A   1      46.891  33.171  29.450  1.00  0.00     0.135 A 
ATOM     62  C   UNL A   1      46.305  33.613  27.162  1.00  0.00     0.135 A 
ATOM     63  F   UNL A   1      46.997  32.342  30.501  1.00  0.00    -0.206 F 
ATOM     64  C   UNL A   1      47.220  34.512  29.633  1.00  0.00     0.059 A 
ATOM     65  C   UNL A   1      46.652  34.952  27.314  1.00  0.00     0.059 A 
ATOM     66  F   UNL A   1      45.853  33.212  25.962  1.00  0.00    -0.206 F 
ATOM     67  C   UNL A   1      47.094  35.395  28.560  1.00  0.00     0.060 A 
BRANCH  67  68
ATOM     68  S   UNL A   1      47.525  37.131  28.808  1.00  0.00     0.124 S 
ATOM     69  O   UNL A   1      46.446  37.804  28.091  1.00  0.00    -0.237 OA
ATOM     70  O   UNL A   1      47.494  37.258  30.261  1.00  0.00    -0.237 OA
ATOM     71  O   UNL A   1      48.847  37.243  28.200  1.00  0.00    -0.744 OA
ENDBRANCH  67  68
ENDBRANCH  46  60
BRANCH  47  72
ATOM     72  C   UNL A   1      43.516  23.223  26.818  1.00  0.00     0.058 A 
ATOM     73  C   UNL A   1      43.465  22.675  25.528  1.00  0.00     0.135 A 
ATOM     74  C   UNL A   1      43.171  22.392  27.895  1.00  0.00     0.135 A 
ATOM     75  F   UNL A   1      43.776  23.433  24.466  1.00  0.00    -0.206 F 
ATOM     76  C   UNL A   1      43.083  21.356  25.311  1.00  0.00     0.059 A 
ATOM     77  C   UNL A   1      42.811  21.061  27.707  1.00  0.00     0.059 A 
ATOM     78  F   UNL A   1      43.214  22.863  29.151  1.00  0.00    -0.206 F 
ATOM     79  C   UNL A   1      42.760  20.555  26.409  1.00  0.00     0.060 A 
BRANCH  79  80
ATOM     80  S   UNL A   1      42.327  18.824  26.128  1.00  0.00     0.124 S 
ATOM     81  O   UNL A   1      43.255  18.460  25.062  1.00  0.00    -0.237 OA
ATOM     82  O   UNL A   1      42.587  18.223  27.432  1.00  0.00    -0.237 OA
ATOM     83  O   UNL A   1      40.920  18.890  25.746  1.00  0.00    -0.744 OA
ENDBRANCH  79  80
ENDBRANCH  47  72
BRANCH  59  84
ATOM     84  C   UNL A   1      49.665  26.484  26.487  1.00  0.00     0.058 A 
ATOM     85  C   UNL A   1      50.192  26.502  25.187  1.00  0.00     0.135 A 
ATOM     86  C   UNL A   1      50.481  26.005  27.523  1.00  0.00     0.135 A 
ATOM     87  F   UNL A   1      49.448  26.947  24.162  1.00  0.00    -0.206 F 
ATOM     88  C   UNL A   1      51.472  26.029  24.917  1.00  0.00     0.059 A 
ATOM     89  C   UNL A   1      51.774  25.549  27.280  1.00  0.00     0.059 A 
ATOM     90  F   UNL A   1      50.028  25.977  28.785  1.00  0.00    -0.206 F 
ATOM     91  C   UNL A   1      52.253  25.549  25.970  1.00  0.00     0.060 A 
BRANCH  91  92
ATOM     92  S   UNL A   1      53.914  24.938  25.613  1.00  0.00     0.124 S 
ATOM     93  O   UNL A   1      53.658  23.524  25.362  1.00  0.00    -0.237 OA
ATOM     94  O   UNL A   1      54.298  25.729  24.448  1.00  0.00    -0.237 OA
ATOM     95  O   UNL A   1      54.654  25.236  26.836  1.00  0.00    -0.744 OA
ENDBRANCH  91  92
ENDBRANCH  59  84
ENDBRANCH  33  34
ENDBRANCH  26  28
ENDBRANCH  25  26
ENDBRANCH   1  25
TORSDOF 16
ENDMDL
MODEL 2
REMARK VINA RESULT:     -11.9      4.020      9.909
REMARK SMILES C[N@H+]1CCO[C@H](c2noc(-c3ccccc3C(=O)OCCOC(=O)c3ccc(-c4c5nc(c(-c6c(F)cc(S(=O)(=O)[O-])cc6F)c6ccc([nH]6)c(-c6c(F)cc(S(=O)(=O)[O-])cc6F)c6nc(c(-c7c(F)cc(S(=O)(=O)[O-])cc7F)c7ccc4[nH]7)C=C6)C=C5)cc3)n2)C1
REMARK SMILES IDX 21 1 20 2 19 3 17 4 18 5 16 6 11 7 12 8 13 9 15 10 14 11
REMARK SMILES IDX 10 12 7 13 8 14 91 15 9 16 6 17 1 18 2 19 3 20 92 21 4 23
REMARK SMILES IDX 5 24 22 25 23 26 24 27 25 28 26 29 90 30 27 31 89 32 28 33
REMARK SMILES IDX 29 34 30 35 83 36 31 37 88 38 82 39 84 40 32 41 87 42 81 43
REMARK SMILES IDX 80 44 33 46 67 47 46 48 66 49 47 50 50 51 65 52 85 53 48 54
REMARK SMILES IDX 49 55 64 57 86 58 51 59 34 60 35 61 44 62 36 63 37 64 43 65
REMARK SMILES IDX 45 66 38 67 39 68 40 69 41 70 42 71 68 72 69 73 78 74 70 75
REMARK SMILES IDX 71 76 77 77 79 78 72 79 73 80 74 81 75 82 76 83 52 84 53 85
REMARK SMILES IDX 62 86 54 87 55 88 61 89 63 90 56 91 57 92 58 93 59 94 60 95
REMARK H PARENT 2 22 84 45 50 56
REMARK Flexibility Score: inf
ROOT
ATOM      1  C   UNL A   1      37.584  21.287  24.997  1.00  0.00     0.275 C 
ENDROOT
BRANCH   1   2
ATOM      2  C   UNL A   1      36.085  21.114  25.220  1.00  0.00     0.275 C 
BRANCH   2   3
ATOM      3  O   UNL A   1      35.464  22.376  25.543  1.00  0.00    -0.458 OA
BRANCH   3   4
ATOM      4  C   UNL A   1      34.739  22.967  24.562  1.00  0.00     0.339 C 
ATOM      5  O   UNL A   1      34.996  22.972  23.368  1.00  0.00    -0.246 OA
BRANCH   4   6
ATOM      6  C   UNL A   1      33.479  23.534  25.113  1.00  0.00     0.072 A 
ATOM      7  C   UNL A   1      32.227  22.904  24.970  1.00  0.00     0.054 A 
ATOM      8  C   UNL A   1      31.087  23.541  25.490  1.00  0.00     0.015 A 
ATOM      9  C   UNL A   1      31.195  24.764  26.159  1.00  0.00     0.001 A 
ATOM     10  C   UNL A   1      33.582  24.740  25.826  1.00  0.00     0.016 A 
ATOM     11  C   UNL A   1      32.442  25.359  26.333  1.00  0.00     0.001 A 
BRANCH   7  12
ATOM     12  C   UNL A   1      32.130  21.582  24.381  1.00  0.00     0.258 A 
ATOM     13  C   UNL A   1      32.289  19.545  23.943  1.00  0.00     0.206 A 
ATOM     14  N   UNL A   1      32.173  20.105  22.728  1.00  0.00    -0.059 NA
ATOM     15  N   UNL A   1      32.165  20.421  24.988  1.00  0.00    -0.189 NA
ATOM     16  O   UNL A   1      32.081  21.478  23.020  1.00  0.00    -0.334 OA
BRANCH  13  17
ATOM     17  C   UNL A   1      32.638  18.103  24.169  1.00  0.00     0.245 C 
ATOM     18  C   UNL A   1      32.250  15.460  25.913  1.00  0.00     0.332 C 
ATOM     19  N   UNL A   1      33.306  16.456  26.033  1.00  0.00    -0.333 N 
ATOM     20  C   UNL A   1      34.476  16.148  25.190  1.00  0.00     0.290 C 
ATOM     21  C   UNL A   1      32.821  17.815  25.692  1.00  0.00     0.303 C 
ATOM     22  H   UNL A   1      33.595  16.432  27.010  1.00  0.00     0.348 HD
ATOM     23  C   UNL A   1      34.247  16.412  23.695  1.00  0.00     0.222 C 
ATOM     24  O   UNL A   1      33.854  17.765  23.456  1.00  0.00    -0.358 OA
ENDBRANCH  13  17
ENDBRANCH   7  12
ENDBRANCH   4   6
ENDBRANCH   3   4
ENDBRANCH   2   3
ENDBRANCH   1   2
BRANCH   1  25
ATOM     25  O   UNL A   1      38.055  22.398  25.777  1.00  0.00    -0.458 OA
BRANCH  25  26
ATOM     26  C   UNL A   1      39.266  22.210  26.343  1.00  0.00     0.338 C 
ATOM     27  O   UNL A   1      40.002  21.245  26.241  1.00  0.00    -0.246 OA
BRANCH  26  28
ATOM     28  C   UNL A   1      39.668  23.452  27.008  1.00  0.00     0.060 A 
ATOM     29  C   UNL A   1      39.165  24.643  26.491  1.00  0.00     0.016 A 
ATOM     30  C   UNL A   1      40.621  23.459  28.021  1.00  0.00     0.016 A 
ATOM     31  C   UNL A   1      39.669  25.860  26.929  1.00  0.00     0.010 A 
ATOM     32  C   UNL A   1      41.090  24.688  28.501  1.00  0.00     0.010 A 
ATOM     33  C   UNL A   1      40.651  25.897  27.928  1.00  0.00    -0.014 A 
BRANCH  33  34
ATOM     34  C   UNL A   1      41.284  27.196  28.288  1.00  0.00     0.031 A 
ATOM     35  C   UNL A   1      42.757  27.400  28.046  1.00  0.00     0.074 A 
ATOM     36  C   UNL A   1      40.539  28.205  28.778  1.00  0.00     0.049 A 
ATOM     37  N   UNL A   1      43.521  28.406  28.390  1.00  0.00    -0.248 NA
ATOM     38  C   UNL A   1      43.469  26.325  27.336  1.00  0.00     0.031 C 
ATOM     39  C   UNL A   1      39.094  28.153  29.017  1.00  0.00     0.029 A 
ATOM     40  N   UNL A   1      40.888  29.480  29.147  1.00  0.00    -0.354 N 
ATOM     41  C   UNL A   1      44.809  28.059  27.990  1.00  0.00     0.074 A 
ATOM     42  C   UNL A   1      44.724  26.749  27.383  1.00  0.00     0.031 C 
ATOM     43  C   UNL A   1      38.678  29.351  29.456  1.00  0.00     0.029 A 
ATOM     44  C   UNL A   1      39.831  30.235  29.595  1.00  0.00     0.049 A 
ATOM     45  H   UNL A   1      41.811  29.821  29.096  1.00  0.00     0.167 HD
ATOM     46  C   UNL A   1      45.955  28.770  28.119  1.00  0.00     0.037 A 
ATOM     47  C   UNL A   1      39.796  31.488  30.088  1.00  0.00     0.037 A 
ATOM     48  C   UNL A   1      46.022  30.100  28.668  1.00  0.00     0.049 A 
ATOM     49  C   UNL A   1      41.078  32.264  30.207  1.00  0.00     0.074 A 
ATOM     50  C   UNL A   1      47.132  30.909  28.837  1.00  0.00     0.029 A 
ATOM     51  N   UNL A   1      44.928  30.826  29.117  1.00  0.00    -0.354 N 
ATOM     52  N   UNL A   1      42.295  31.898  29.882  1.00  0.00    -0.248 NA
ATOM     53  C   UNL A   1      40.985  33.617  30.769  1.00  0.00     0.031 C 
ATOM     54  C   UNL A   1      46.712  32.116  29.409  1.00  0.00     0.029 A 
ATOM     55  C   UNL A   1      45.336  32.073  29.562  1.00  0.00     0.049 A 
ATOM     56  H   UNL A   1      43.997  30.502  29.120  1.00  0.00     0.167 HD
ATOM     57  C   UNL A   1      43.112  32.979  30.192  1.00  0.00     0.074 A 
ATOM     58  C   UNL A   1      42.247  34.020  30.709  1.00  0.00     0.031 C 
ATOM     59  C   UNL A   1      44.458  33.097  30.068  1.00  0.00     0.037 A 
BRANCH  46  60
ATOM     60  C   UNL A   1      47.236  28.111  27.687  1.00  0.00     0.058 A 
ATOM     61  C   UNL A   1      48.018  27.346  28.567  1.00  0.00     0.135 A 
ATOM     62  C   UNL A   1      47.678  28.232  26.359  1.00  0.00     0.135 A 
ATOM     63  F   UNL A   1      47.654  27.213  29.852  1.00  0.00    -0.206 F 
ATOM     64  C   UNL A   1      49.205  26.748  28.153  1.00  0.00     0.059 A 
ATOM     65  C   UNL A   1      48.848  27.622  25.917  1.00  0.00     0.059 A 
ATOM     66  F   UNL A   1      46.970  28.952  25.474  1.00  0.00    -0.206 F 
ATOM     67  C   UNL A   1      49.614  26.895  26.827  1.00  0.00     0.060 A 
BRANCH  67  68
ATOM     68  S   UNL A   1      51.155  26.115  26.302  1.00  0.00     0.124 S 
ATOM     69  O   UNL A   1      52.149  27.012  26.885  1.00  0.00    -0.237 OA
ATOM     70  O   UNL A   1      51.062  24.792  26.910  1.00  0.00    -0.237 OA
ATOM     71  O   UNL A   1      51.069  26.138  24.845  1.00  0.00    -0.744 OA
ENDBRANCH  67  68
ENDBRANCH  46  60
BRANCH  47  72
ATOM     72  C   UNL A   1      38.501  32.077  30.523  1.00  0.00     0.058 A 
ATOM     73  C   UNL A   1      37.780  32.941  29.686  1.00  0.00     0.135 A 
ATOM     74  C   UNL A   1      37.950  31.770  31.777  1.00  0.00     0.135 A 
ATOM     75  F   UNL A   1      38.271  33.273  28.483  1.00  0.00    -0.206 F 
ATOM     76  C   UNL A   1      36.560  33.484  30.076  1.00  0.00     0.059 A 
ATOM     77  C   UNL A   1      36.719  32.278  32.180  1.00  0.00     0.059 A 
ATOM     78  F   UNL A   1      38.594  30.939  32.611  1.00  0.00    -0.206 F 
ATOM     79  C   UNL A   1      36.036  33.143  31.326  1.00  0.00     0.060 A 
BRANCH  79  80
ATOM     80  S   UNL A   1      34.421  33.798  31.801  1.00  0.00     0.124 S 
ATOM     81  O   UNL A   1      33.855  32.673  32.537  1.00  0.00    -0.237 OA
ATOM     82  O   UNL A   1      34.782  34.966  32.598  1.00  0.00    -0.237 OA
ATOM     83  O   UNL A   1      33.791  34.096  30.518  1.00  0.00    -0.744 OA
ENDBRANCH  79  80
ENDBRANCH  47  72
BRANCH  59  84
ATOM     84  C   UNL A   1      45.066  34.411  30.469  1.00  0.00     0.058 A 
ATOM     85  C   UNL A   1      45.498  34.652  31.782  1.00  0.00     0.135 A 
ATOM     86  C   UNL A   1      45.232  35.434  29.523  1.00  0.00     0.135 A 
ATOM     87  F   UNL A   1      45.357  33.706  32.724  1.00  0.00    -0.206 F 
ATOM     88  C   UNL A   1      46.044  35.877  32.153  1.00  0.00     0.059 A 
ATOM     89  C   UNL A   1      45.798  36.658  29.865  1.00  0.00     0.059 A 
ATOM     90  F   UNL A   1      44.846  35.249  28.251  1.00  0.00    -0.206 F 
ATOM     91  C   UNL A   1      46.183  36.876  31.188  1.00  0.00     0.060 A 
BRANCH  91  92
ATOM     92  S   UNL A   1      46.893  38.462  31.676  1.00  0.00     0.124 S 
ATOM     93  O   UNL A   1      48.070  38.533  30.817  1.00  0.00    -0.237 OA
ATOM     94  O   UNL A   1      45.821  39.400  31.361  1.00  0.00    -0.237 OA
ATOM     95  O   UNL A   1      47.164  38.287  33.101  1.00  0.00    -0.744 OA
ENDBRANCH  91  92
ENDBRANCH  59  84
ENDBRANCH  33  34
ENDBRANCH  26  28
ENDBRANCH  25  26
ENDBRANCH   1  25
TORSDOF 16
ENDMDL
MODEL 3
REMARK VINA RESULT:     -11.9      6.987     12.017
REMARK SMILES C[N@H+]1CCO[C@H](c2noc(-c3ccccc3C(=O)OCCOC(=O)c3ccc(-c4c5nc(c(-c6c(F)cc(S(=O)(=O)[O-])cc6F)c6ccc([nH]6)c(-c6c(F)cc(S(=O)(=O)[O-])cc6F)c6nc(c(-c7c(F)cc(S(=O)(=O)[O-])cc7F)c7ccc4[nH]7)C=C6)C=C5)cc3)n2)C1
REMARK SMILES IDX 21 1 20 2 19 3 17 4 18 5 16 6 11 7 12 8 13 9 15 10 14 11
REMARK SMILES IDX 10 12 7 13 8 14 91 15 9 16 6 17 1 18 2 19 3 20 92 21 4 23
REMARK SMILES IDX 5 24 22 25 23 26 24 27 25 28 26 29 90 30 27 31 89 32 28 33
REMARK SMILES IDX 29 34 30 35 83 36 31 37 88 38 82 39 84 40 32 41 87 42 81 43
REMARK SMILES IDX 80 44 33 46 67 47 46 48 66 49 47 50 50 51 65 52 85 53 48 54
REMARK SMILES IDX 49 55 64 57 86 58 51 59 34 60 35 61 44 62 36 63 37 64 43 65
REMARK SMILES IDX 45 66 38 67 39 68 40 69 41 70 42 71 68 72 69 73 78 74 70 75
REMARK SMILES IDX 71 76 77 77 79 78 72 79 73 80 74 81 75 82 76 83 52 84 53 85
REMARK SMILES IDX 62 86 54 87 55 88 61 89 63 90 56 91 57 92 58 93 59 94 60 95
REMARK H PARENT 2 22 84 45 50 56
REMARK Flexibility Score: inf
ROOT
ATOM      1  C   UNL A   1      38.267  23.239  25.919  1.00  0.00     0.275 C 
ENDROOT
BRANCH   1   2
ATOM      2  C   UNL A   1      36.945  23.326  25.162  1.00  0.00     0.275 C 
BRANCH   2   3
ATOM      3  O   UNL A   1      36.346  22.021  25.022  1.00  0.00    -0.458 OA
BRANCH   3   4
ATOM      4  C   UNL A   1      35.205  21.796  25.720  1.00  0.00     0.339 C 
ATOM      5  O   UNL A   1      34.932  22.231  26.828  1.00  0.00    -0.246 OA
BRANCH   4   6
ATOM      6  C   UNL A   1      34.236  21.021  24.900  1.00  0.00     0.072 A 
ATOM      7  C   UNL A   1      33.359  21.623  23.977  1.00  0.00     0.054 A 
ATOM      8  C   UNL A   1      32.449  20.809  23.279  1.00  0.00     0.015 A 
ATOM      9  C   UNL A   1      32.430  19.425  23.480  1.00  0.00     0.001 A 
ATOM     10  C   UNL A   1      34.239  19.626  25.060  1.00  0.00     0.016 A 
ATOM     11  C   UNL A   1      33.330  18.834  24.364  1.00  0.00     0.001 A 
BRANCH   7  12
ATOM     12  C   UNL A   1      33.457  23.040  23.683  1.00  0.00     0.258 A 
ATOM     13  C   UNL A   1      33.102  25.084  23.432  1.00  0.00     0.206 A 
ATOM     14  N   UNL A   1      33.989  24.812  22.460  1.00  0.00    -0.059 NA
ATOM     15  N   UNL A   1      32.831  24.033  24.266  1.00  0.00    -0.189 NA
ATOM     16  O   UNL A   1      34.218  23.433  22.619  1.00  0.00    -0.334 OA
BRANCH  13  17
ATOM     17  C   UNL A   1      32.368  26.387  23.552  1.00  0.00     0.245 C 
ATOM     18  C   UNL A   1      29.779  28.115  22.851  1.00  0.00     0.332 C 
ATOM     19  N   UNL A   1      31.054  28.100  22.146  1.00  0.00    -0.333 N 
ATOM     20  C   UNL A   1      32.005  29.096  22.673  1.00  0.00     0.290 C 
ATOM     21  C   UNL A   1      31.693  26.763  22.196  1.00  0.00     0.303 C 
ATOM     22  H   UNL A   1      30.835  28.338  21.180  1.00  0.00     0.348 HD
ATOM     23  C   UNL A   1      32.623  28.708  24.024  1.00  0.00     0.222 C 
ATOM     24  O   UNL A   1      33.279  27.440  23.955  1.00  0.00    -0.358 OA
ENDBRANCH  13  17
ENDBRANCH   7  12
ENDBRANCH   4   6
ENDBRANCH   3   4
ENDBRANCH   2   3
ENDBRANCH   1   2
BRANCH   1  25
ATOM     25  O   UNL A   1      38.537  24.502  26.548  1.00  0.00    -0.458 OA
BRANCH  25  26
ATOM     26  C   UNL A   1      39.840  24.860  26.549  1.00  0.00     0.338 C 
ATOM     27  O   UNL A   1      40.677  24.649  25.690  1.00  0.00    -0.246 OA
BRANCH  26  28
ATOM     28  C   UNL A   1      40.089  25.714  27.713  1.00  0.00     0.060 A 
ATOM     29  C   UNL A   1      39.231  25.574  28.801  1.00  0.00     0.016 A 
ATOM     30  C   UNL A   1      41.049  26.720  27.684  1.00  0.00     0.016 A 
ATOM     31  C   UNL A   1      39.271  26.493  29.841  1.00  0.00     0.010 A 
ATOM     32  C   UNL A   1      41.126  27.613  28.759  1.00  0.00     0.010 A 
ATOM     33  C   UNL A   1      40.210  27.534  29.826  1.00  0.00    -0.014 A 
BRANCH  33  34
ATOM     34  C   UNL A   1      40.151  28.590  30.872  1.00  0.00     0.031 A 
ATOM     35  C   UNL A   1      41.132  28.562  32.016  1.00  0.00     0.074 A 
ATOM     36  C   UNL A   1      39.263  29.599  30.776  1.00  0.00     0.049 A 
ATOM     37  N   UNL A   1      41.179  29.316  33.085  1.00  0.00    -0.248 NA
ATOM     38  C   UNL A   1      42.192  27.543  31.957  1.00  0.00     0.031 C 
ATOM     39  C   UNL A   1      38.288  29.768  29.695  1.00  0.00     0.029 A 
ATOM     40  N   UNL A   1      39.045  30.683  31.589  1.00  0.00    -0.354 N 
ATOM     41  C   UNL A   1      42.234  28.826  33.850  1.00  0.00     0.074 A 
ATOM     42  C   UNL A   1      42.796  27.707  33.125  1.00  0.00     0.031 C 
ATOM     43  C   UNL A   1      37.606  30.907  29.893  1.00  0.00     0.029 A 
ATOM     44  C   UNL A   1      38.043  31.513  31.146  1.00  0.00     0.049 A 
ATOM     45  H   UNL A   1      39.560  30.849  32.412  1.00  0.00     0.167 HD
ATOM     46  C   UNL A   1      42.689  29.269  35.046  1.00  0.00     0.037 A 
ATOM     47  C   UNL A   1      37.517  32.623  31.700  1.00  0.00     0.037 A 
ATOM     48  C   UNL A   1      42.165  30.422  35.732  1.00  0.00     0.049 A 
ATOM     49  C   UNL A   1      38.050  33.105  33.020  1.00  0.00     0.074 A 
ATOM     50  C   UNL A   1      42.560  30.958  36.945  1.00  0.00     0.029 A 
ATOM     51  N   UNL A   1      41.145  31.231  35.252  1.00  0.00    -0.354 N 
ATOM     52  N   UNL A   1      39.005  32.593  33.760  1.00  0.00    -0.248 NA
ATOM     53  C   UNL A   1      37.426  34.308  33.587  1.00  0.00     0.031 C 
ATOM     54  C   UNL A   1      41.763  32.080  37.210  1.00  0.00     0.029 A 
ATOM     55  C   UNL A   1      40.898  32.262  36.144  1.00  0.00     0.049 A 
ATOM     56  H   UNL A   1      40.666  31.093  34.403  1.00  0.00     0.167 HD
ATOM     57  C   UNL A   1      39.103  33.417  34.875  1.00  0.00     0.074 A 
ATOM     58  C   UNL A   1      38.126  34.473  34.701  1.00  0.00     0.031 C 
ATOM     59  C   UNL A   1      39.923  33.306  35.950  1.00  0.00     0.037 A 
BRANCH  46  60
ATOM     60  C   UNL A   1      43.791  28.486  35.706  1.00  0.00     0.058 A 
ATOM     61  C   UNL A   1      43.531  27.437  36.601  1.00  0.00     0.135 A 
ATOM     62  C   UNL A   1      45.135  28.781  35.419  1.00  0.00     0.135 A 
ATOM     63  F   UNL A   1      42.266  27.125  36.927  1.00  0.00    -0.206 F 
ATOM     64  C   UNL A   1      44.562  26.727  37.210  1.00  0.00     0.059 A 
ATOM     65  C   UNL A   1      46.181  28.068  35.996  1.00  0.00     0.059 A 
ATOM     66  F   UNL A   1      45.443  29.775  34.571  1.00  0.00    -0.206 F 
ATOM     67  C   UNL A   1      45.884  27.052  36.903  1.00  0.00     0.060 A 
BRANCH  67  68
ATOM     68  S   UNL A   1      47.214  26.123  37.697  1.00  0.00     0.124 S 
ATOM     69  O   UNL A   1      48.353  26.464  36.850  1.00  0.00    -0.237 OA
ATOM     70  O   UNL A   1      47.233  26.689  39.041  1.00  0.00    -0.237 OA
ATOM     71  O   UNL A   1      46.760  24.738  37.610  1.00  0.00    -0.744 OA
ENDBRANCH  67  68
ENDBRANCH  46  60
BRANCH  47  72
ATOM     72  C   UNL A   1      36.411  33.340  31.012  1.00  0.00     0.058 A 
ATOM     73  C   UNL A   1      35.103  33.314  31.519  1.00  0.00     0.135 A 
ATOM     74  C   UNL A   1      36.644  34.085  29.845  1.00  0.00     0.135 A 
ATOM     75  F   UNL A   1      34.828  32.607  32.625  1.00  0.00    -0.206 F 
ATOM     76  C   UNL A   1      34.065  33.995  30.893  1.00  0.00     0.059 A 
ATOM     77  C   UNL A   1      35.629  34.797  29.216  1.00  0.00     0.059 A 
ATOM     78  F   UNL A   1      37.879  34.152  29.326  1.00  0.00    -0.206 F 
ATOM     79  C   UNL A   1      34.339  34.738  29.742  1.00  0.00     0.060 A 
BRANCH  79  80
ATOM     80  S   UNL A   1      33.001  35.674  28.970  1.00  0.00     0.124 S 
ATOM     81  O   UNL A   1      32.367  34.651  28.146  1.00  0.00    -0.237 OA
ATOM     82  O   UNL A   1      32.233  36.129  30.125  1.00  0.00    -0.237 OA
ATOM     83  O   UNL A   1      33.706  36.726  28.243  1.00  0.00    -0.744 OA
ENDBRANCH  79  80
ENDBRANCH  47  72
BRANCH  59  84
ATOM     84  C   UNL A   1      39.816  34.373  37.002  1.00  0.00     0.058 A 
ATOM     85  C   UNL A   1      40.491  35.597  36.880  1.00  0.00     0.135 A 
ATOM     86  C   UNL A   1      39.016  34.173  38.137  1.00  0.00     0.135 A 
ATOM     87  F   UNL A   1      41.273  35.835  35.814  1.00  0.00    -0.206 F 
ATOM     88  C   UNL A   1      40.404  36.575  37.866  1.00  0.00     0.059 A 
ATOM     89  C   UNL A   1      38.895  35.146  39.124  1.00  0.00     0.059 A 
ATOM     90  F   UNL A   1      38.341  33.024  38.296  1.00  0.00    -0.206 F 
ATOM     91  C   UNL A   1      39.607  36.337  38.987  1.00  0.00     0.060 A 
BRANCH  91  92
ATOM     92  S   UNL A   1      39.498  37.612  40.261  1.00  0.00     0.124 S 
ATOM     93  O   UNL A   1      40.894  38.017  40.390  1.00  0.00    -0.237 OA
ATOM     94  O   UNL A   1      38.607  38.593  39.651  1.00  0.00    -0.237 OA
ATOM     95  O   UNL A   1      38.942  36.897  41.407  1.00  0.00    -0.744 OA
ENDBRANCH  91  92
ENDBRANCH  59  84
ENDBRANCH  33  34
ENDBRANCH  26  28
ENDBRANCH  25  26
ENDBRANCH   1  25
TORSDOF 16
ENDMDL
