MODEL 1
REMARK VINA RESULT:     -12.1      0.000      0.000
REMARK SMILES [NH2+]=C1S[C@@H](C(=O)Nc2ccc(C(=O)OCCOC(=O)c3ccc(-c4c5nc(c(-c6c(F)cc(S(=O)(=O)[O-])cc6F)c6ccc([nH]6)c(-c6c(F)cc(S(=O)(=O)[O-])cc6F)c6nc(c(-c7c(F)cc(S(=O)(=O)[O-])cc7F)c7ccc4[nH]7)C=C6)C=C5)cc3)cc2)CC(=O)N1/N=C/c1ccc(Cl)cc1
REMARK SMILES IDX 15 1 14 2 12 3 13 4 11 5 8 6 9 7 87 8 10 9 86 10 7 11 5 12
REMARK SMILES IDX 6 13 4 15 1 16 2 17 3 20 91 21 89 22 88 23 90 24 92 25 93 26
REMARK SMILES IDX 94 27 95 28 100 29 96 30 99 31 97 32 98 33 16 34 17 35 18 36
REMARK SMILES IDX 19 37 20 38 21 39 85 40 22 41 84 42 23 43 24 44 25 45 78 46
REMARK SMILES IDX 26 47 83 48 77 49 79 50 27 51 82 52 76 53 75 54 28 56 62 57
REMARK SMILES IDX 41 58 61 59 42 60 45 61 60 62 80 63 43 64 44 65 59 67 81 68
REMARK SMILES IDX 46 69 29 70 30 71 39 72 31 73 32 74 38 75 40 76 33 77 34 78
REMARK SMILES IDX 35 79 36 80 37 81 63 82 64 83 73 84 65 85 66 86 72 87 74 88
REMARK SMILES IDX 67 89 68 90 69 91 70 92 71 93 47 94 48 95 57 96 49 97 50 98
REMARK SMILES IDX 56 99 58 100 51 101 52 102 53 103 54 104 55 105
REMARK H PARENT 7 14 1 18 1 19 79 55 45 66
REMARK Flexibility Score: inf
ROOT
ATOM      1  C   UNL A   1      32.316  32.282  26.834  1.00  0.00     0.275 C 
ENDROOT
BRANCH   1   2
ATOM      2  O   UNL A   1      31.331  31.241  26.997  1.00  0.00    -0.458 OA
BRANCH   2   3
ATOM      3  C   UNL A   1      31.830  30.013  26.750  1.00  0.00     0.338 C 
ATOM      4  O   UNL A   1      31.983  29.133  27.591  1.00  0.00    -0.246 OA
BRANCH   3   5
ATOM      5  C   UNL A   1      32.285  29.762  25.377  1.00  0.00     0.060 A 
ATOM      6  C   UNL A   1      32.855  28.401  23.047  1.00  0.00     0.041 A 
ATOM      7  C   UNL A   1      31.582  28.920  23.213  1.00  0.00     0.027 A 
ATOM      8  C   UNL A   1      33.888  28.730  23.927  1.00  0.00     0.027 A 
ATOM      9  C   UNL A   1      31.293  29.579  24.398  1.00  0.00     0.018 A 
ATOM     10  C   UNL A   1      33.606  29.414  25.110  1.00  0.00     0.018 A 
BRANCH   6  11
ATOM     11  N   UNL A   1      33.073  27.533  21.989  1.00  0.00    -0.325 N 
ATOM     12  C   UNL A   1      33.087  26.170  22.003  1.00  0.00     0.238 C 
ATOM     13  O   UNL A   1      33.355  25.615  20.927  1.00  0.00    -0.273 OA
ATOM     14  H   UNL A   1      33.239  27.955  21.115  1.00  0.00     0.169 HD
BRANCH  12  15
ATOM     15  C   UNL A   1      32.655  25.301  23.203  1.00  0.00     0.160 C 
ATOM     16  N   UNL A   1      35.544  22.821  23.666  1.00  0.00    -0.279 N 
ATOM     17  C   UNL A   1      34.307  23.175  23.722  1.00  0.00     0.338 C 
ATOM     18  H   UNL A   1      36.253  23.485  23.827  1.00  0.00     0.302 HD
ATOM     19  H   UNL A   1      35.780  21.887  23.462  1.00  0.00     0.302 HD
ATOM     20  S   UNL A   1      34.066  24.822  24.196  1.00  0.00    -0.022 SA
ATOM     21  N   UNL A   1      33.210  22.339  23.516  1.00  0.00    -0.057 N 
ATOM     22  C   UNL A   1      31.920  22.773  23.172  1.00  0.00     0.337 C 
ATOM     23  C   UNL A   1      31.585  24.251  23.111  1.00  0.00     0.155 C 
ATOM     24  O   UNL A   1      30.983  21.997  22.922  1.00  0.00    -0.244 OA
BRANCH  21  25
ATOM     25  N   UNL A   1      33.273  20.926  23.660  1.00  0.00    -0.082 NA
ATOM     26  C   UNL A   1      33.166  20.316  24.795  1.00  0.00     0.167 C 
BRANCH  26  27
ATOM     27  C   UNL A   1      33.225  18.836  24.880  1.00  0.00    -0.003 A 
ATOM     28  C   UNL A   1      33.824  18.083  23.871  1.00  0.00     0.011 A 
ATOM     29  C   UNL A   1      32.611  18.195  25.961  1.00  0.00     0.011 A 
ATOM     30  C   UNL A   1      33.823  16.684  23.963  1.00  0.00     0.021 A 
ATOM     31  C   UNL A   1      32.659  16.806  26.080  1.00  0.00     0.021 A 
ATOM     32  C   UNL A   1      33.259  16.055  25.074  1.00  0.00     0.041 A 
ATOM     33  Cl  UNL A   1      33.297  14.338  25.203  1.00  0.00    -0.084 Cl
ENDBRANCH  26  27
ENDBRANCH  21  25
ENDBRANCH  12  15
ENDBRANCH   6  11
ENDBRANCH   3   5
ENDBRANCH   2   3
ENDBRANCH   1   2
BRANCH   1  34
ATOM     34  C   UNL A   1      33.245  32.461  28.043  1.00  0.00     0.275 C 
BRANCH  34  35
ATOM     35  O   UNL A   1      34.460  31.684  27.957  1.00  0.00    -0.458 OA
BRANCH  35  36
ATOM     36  C   UNL A   1      35.098  31.508  29.141  1.00  0.00     0.338 C 
ATOM     37  O   UNL A   1      34.847  32.073  30.188  1.00  0.00    -0.246 OA
BRANCH  36  38
ATOM     38  C   UNL A   1      36.184  30.507  29.059  1.00  0.00     0.060 A 
ATOM     39  C   UNL A   1      36.768  30.005  30.221  1.00  0.00     0.016 A 
ATOM     40  C   UNL A   1      36.820  30.310  27.833  1.00  0.00     0.016 A 
ATOM     41  C   UNL A   1      38.058  29.479  30.192  1.00  0.00     0.010 A 
ATOM     42  C   UNL A   1      38.071  29.684  27.791  1.00  0.00     0.010 A 
ATOM     43  C   UNL A   1      38.743  29.343  28.980  1.00  0.00    -0.014 A 
BRANCH  43  44
ATOM     44  C   UNL A   1      40.194  28.999  28.961  1.00  0.00     0.031 A 
ATOM     45  C   UNL A   1      41.207  30.049  29.357  1.00  0.00     0.074 A 
ATOM     46  C   UNL A   1      40.618  27.760  28.645  1.00  0.00     0.049 A 
ATOM     47  N   UNL A   1      42.510  30.041  29.225  1.00  0.00    -0.248 NA
ATOM     48  C   UNL A   1      40.680  31.282  29.966  1.00  0.00     0.031 C 
ATOM     49  C   UNL A   1      39.756  26.623  28.321  1.00  0.00     0.029 A 
ATOM     50  N   UNL A   1      41.890  27.250  28.547  1.00  0.00    -0.354 N 
ATOM     51  C   UNL A   1      42.946  31.287  29.665  1.00  0.00     0.074 A 
ATOM     52  C   UNL A   1      41.770  32.028  30.066  1.00  0.00     0.031 C 
ATOM     53  C   UNL A   1      40.520  25.545  28.084  1.00  0.00     0.029 A 
ATOM     54  C   UNL A   1      41.924  25.932  28.154  1.00  0.00     0.049 A 
ATOM     55  H   UNL A   1      42.699  27.776  28.740  1.00  0.00     0.167 HD
ATOM     56  C   UNL A   1      44.211  31.771  29.728  1.00  0.00     0.037 A 
ATOM     57  C   UNL A   1      42.966  25.136  27.840  1.00  0.00     0.037 A 
ATOM     58  C   UNL A   1      45.383  31.002  29.394  1.00  0.00     0.049 A 
ATOM     59  C   UNL A   1      44.362  25.693  27.904  1.00  0.00     0.074 A 
ATOM     60  C   UNL A   1      46.710  31.395  29.423  1.00  0.00     0.029 A 
ATOM     61  N   UNL A   1      45.369  29.674  28.994  1.00  0.00    -0.354 N 
ATOM     62  N   UNL A   1      44.754  26.900  28.239  1.00  0.00    -0.248 NA
ATOM     63  C   UNL A   1      45.456  24.785  27.537  1.00  0.00     0.031 C 
ATOM     64  C   UNL A   1      47.496  30.312  29.012  1.00  0.00     0.029 A 
ATOM     65  C   UNL A   1      46.663  29.232  28.774  1.00  0.00     0.049 A 
ATOM     66  H   UNL A   1      44.558  29.127  28.882  1.00  0.00     0.167 HD
ATOM     67  C   UNL A   1      46.141  26.888  28.147  1.00  0.00     0.074 A 
ATOM     68  C   UNL A   1      46.520  25.551  27.737  1.00  0.00     0.031 C 
ATOM     69  C   UNL A   1      47.022  27.892  28.381  1.00  0.00     0.037 A 
BRANCH  56  70
ATOM     70  C   UNL A   1      44.391  33.210  30.135  1.00  0.00     0.058 A 
ATOM     71  C   UNL A   1      44.704  33.586  31.450  1.00  0.00     0.135 A 
ATOM     72  C   UNL A   1      44.257  34.233  29.180  1.00  0.00     0.135 A 
ATOM     73  F   UNL A   1      44.826  32.653  32.409  1.00  0.00    -0.206 F 
ATOM     74  C   UNL A   1      44.844  34.924  31.813  1.00  0.00     0.059 A 
ATOM     75  C   UNL A   1      44.422  35.574  29.512  1.00  0.00     0.059 A 
ATOM     76  F   UNL A   1      43.960  33.933  27.906  1.00  0.00    -0.206 F 
ATOM     77  C   UNL A   1      44.696  35.911  30.837  1.00  0.00     0.060 A 
BRANCH  77  78
ATOM     78  S   UNL A   1      44.869  37.642  31.320  1.00  0.00     0.124 S 
ATOM     79  O   UNL A   1      46.291  37.713  31.644  1.00  0.00    -0.237 OA
ATOM     80  O   UNL A   1      44.459  38.349  30.111  1.00  0.00    -0.237 OA
ATOM     81  O   UNL A   1      43.960  37.771  32.455  1.00  0.00    -0.744 OA
ENDBRANCH  77  78
ENDBRANCH  56  70
BRANCH  57  82
ATOM     82  C   UNL A   1      42.720  23.735  27.405  1.00  0.00     0.058 A 
ATOM     83  C   UNL A   1      42.658  23.399  26.044  1.00  0.00     0.135 A 
ATOM     84  C   UNL A   1      42.561  22.700  28.340  1.00  0.00     0.135 A 
ATOM     85  F   UNL A   1      42.792  24.354  25.111  1.00  0.00    -0.206 F 
ATOM     86  C   UNL A   1      42.443  22.090  25.626  1.00  0.00     0.059 A 
ATOM     87  C   UNL A   1      42.374  21.379  27.948  1.00  0.00     0.059 A 
ATOM     88  F   UNL A   1      42.624  22.966  29.655  1.00  0.00    -0.206 F 
ATOM     89  C   UNL A   1      42.307  21.085  26.586  1.00  0.00     0.060 A 
BRANCH  89  90
ATOM     90  S   UNL A   1      42.093  19.379  26.035  1.00  0.00     0.124 S 
ATOM     91  O   UNL A   1      42.989  19.329  24.885  1.00  0.00    -0.237 OA
ATOM     92  O   UNL A   1      42.515  18.621  27.209  1.00  0.00    -0.237 OA
ATOM     93  O   UNL A   1      40.668  19.302  25.729  1.00  0.00    -0.744 OA
ENDBRANCH  89  90
ENDBRANCH  57  82
BRANCH  69  94
ATOM     94  C   UNL A   1      48.485  27.564  28.258  1.00  0.00     0.058 A 
ATOM     95  C   UNL A   1      49.155  27.606  27.026  1.00  0.00     0.135 A 
ATOM     96  C   UNL A   1      49.230  27.227  29.399  1.00  0.00     0.135 A 
ATOM     97  F   UNL A   1      48.487  27.918  25.904  1.00  0.00    -0.206 F 
ATOM     98  C   UNL A   1      50.505  27.288  26.924  1.00  0.00     0.059 A 
ATOM     99  C   UNL A   1      50.587  26.933  29.324  1.00  0.00     0.059 A 
ATOM    100  F   UNL A   1      48.639  27.185  30.604  1.00  0.00    -0.206 F 
ATOM    101  C   UNL A   1      51.212  26.949  28.079  1.00  0.00     0.060 A 
BRANCH 101 102
ATOM    102  S   UNL A   1      52.966  26.543  27.938  1.00  0.00     0.124 S 
ATOM    103  O   UNL A   1      53.515  27.795  27.428  1.00  0.00    -0.237 OA
ATOM    104  O   UNL A   1      53.322  26.208  29.313  1.00  0.00    -0.237 OA
ATOM    105  O   UNL A   1      52.980  25.423  27.002  1.00  0.00    -0.744 OA
ENDBRANCH 101 102
ENDBRANCH  69  94
ENDBRANCH  43  44
ENDBRANCH  36  38
ENDBRANCH  35  36
ENDBRANCH  34  35
ENDBRANCH   1  34
TORSDOF 18
ENDMDL
MODEL 2
REMARK VINA RESULT:     -12.0      1.730      2.466
REMARK SMILES [NH2+]=C1S[C@@H](C(=O)Nc2ccc(C(=O)OCCOC(=O)c3ccc(-c4c5nc(c(-c6c(F)cc(S(=O)(=O)[O-])cc6F)c6ccc([nH]6)c(-c6c(F)cc(S(=O)(=O)[O-])cc6F)c6nc(c(-c7c(F)cc(S(=O)(=O)[O-])cc7F)c7ccc4[nH]7)C=C6)C=C5)cc3)cc2)CC(=O)N1/N=C/c1ccc(Cl)cc1
REMARK SMILES IDX 15 1 14 2 12 3 13 4 11 5 8 6 9 7 87 8 10 9 86 10 7 11 5 12
REMARK SMILES IDX 6 13 4 15 1 16 2 17 3 20 91 21 89 22 88 23 90 24 92 25 93 26
REMARK SMILES IDX 94 27 95 28 100 29 96 30 99 31 97 32 98 33 16 34 17 35 18 36
REMARK SMILES IDX 19 37 20 38 21 39 85 40 22 41 84 42 23 43 24 44 25 45 78 46
REMARK SMILES IDX 26 47 83 48 77 49 79 50 27 51 82 52 76 53 75 54 28 56 62 57
REMARK SMILES IDX 41 58 61 59 42 60 45 61 60 62 80 63 43 64 44 65 59 67 81 68
REMARK SMILES IDX 46 69 29 70 30 71 39 72 31 73 32 74 38 75 40 76 33 77 34 78
REMARK SMILES IDX 35 79 36 80 37 81 63 82 64 83 73 84 65 85 66 86 72 87 74 88
REMARK SMILES IDX 67 89 68 90 69 91 70 92 71 93 47 94 48 95 57 96 49 97 50 98
REMARK SMILES IDX 56 99 58 100 51 101 52 102 53 103 54 104 55 105
REMARK H PARENT 7 14 1 18 1 19 79 55 45 66
REMARK Flexibility Score: inf
ROOT
ATOM      1  C   UNL A   1      34.431  32.365  27.905  1.00  0.00     0.275 C 
ENDROOT
BRANCH   1   2
ATOM      2  O   UNL A   1      33.742  31.103  28.031  1.00  0.00    -0.458 OA
BRANCH   2   3
ATOM      3  C   UNL A   1      34.303  30.130  27.285  1.00  0.00     0.338 C 
ATOM      4  O   UNL A   1      35.418  29.655  27.473  1.00  0.00    -0.246 OA
BRANCH   3   5
ATOM      5  C   UNL A   1      33.531  29.677  26.122  1.00  0.00     0.060 A 
ATOM      6  C   UNL A   1      31.757  28.205  24.606  1.00  0.00     0.041 A 
ATOM      7  C   UNL A   1      31.277  29.300  25.305  1.00  0.00     0.027 A 
ATOM      8  C   UNL A   1      33.129  27.967  24.493  1.00  0.00     0.027 A 
ATOM      9  C   UNL A   1      32.167  30.020  26.088  1.00  0.00     0.018 A 
ATOM     10  C   UNL A   1      34.031  28.705  25.261  1.00  0.00     0.018 A 
BRANCH   6  11
ATOM     11  N   UNL A   1      30.837  27.343  24.033  1.00  0.00    -0.325 N 
ATOM     12  C   UNL A   1      30.964  26.006  23.796  1.00  0.00     0.238 C 
ATOM     13  O   UNL A   1      30.012  25.460  23.221  1.00  0.00    -0.273 OA
ATOM     14  H   UNL A   1      29.982  27.747  23.761  1.00  0.00     0.169 HD
BRANCH  12  15
ATOM     15  C   UNL A   1      32.122  25.130  24.317  1.00  0.00     0.160 C 
ATOM     16  N   UNL A   1      32.149  22.097  21.969  1.00  0.00    -0.279 N 
ATOM     17  C   UNL A   1      32.334  22.681  23.102  1.00  0.00     0.338 C 
ATOM     18  H   UNL A   1      32.304  22.589  21.132  1.00  0.00     0.302 HD
ATOM     19  H   UNL A   1      31.853  21.159  21.942  1.00  0.00     0.302 HD
ATOM     20  S   UNL A   1      32.956  24.290  22.973  1.00  0.00    -0.022 SA
ATOM     21  N   UNL A   1      32.152  22.100  24.358  1.00  0.00    -0.057 N 
ATOM     22  C   UNL A   1      31.951  22.810  25.552  1.00  0.00     0.337 C 
ATOM     23  C   UNL A   1      32.035  24.325  25.582  1.00  0.00     0.155 C 
ATOM     24  O   UNL A   1      31.717  22.261  26.641  1.00  0.00    -0.244 OA
BRANCH  21  25
ATOM     25  N   UNL A   1      32.177  20.696  24.574  1.00  0.00    -0.082 NA
ATOM     26  C   UNL A   1      33.226  19.962  24.395  1.00  0.00     0.167 C 
BRANCH  26  27
ATOM     27  C   UNL A   1      33.195  18.501  24.652  1.00  0.00    -0.003 A 
ATOM     28  C   UNL A   1      32.530  17.982  25.762  1.00  0.00     0.011 A 
ATOM     29  C   UNL A   1      33.902  17.648  23.797  1.00  0.00     0.011 A 
ATOM     30  C   UNL A   1      32.559  16.601  25.998  1.00  0.00     0.021 A 
ATOM     31  C   UNL A   1      33.883  16.268  24.001  1.00  0.00     0.021 A 
ATOM     32  C   UNL A   1      33.218  15.750  25.108  1.00  0.00     0.041 A 
ATOM     33  Cl  UNL A   1      33.214  14.050  25.379  1.00  0.00    -0.084 Cl
ENDBRANCH  26  27
ENDBRANCH  21  25
ENDBRANCH  12  15
ENDBRANCH   6  11
ENDBRANCH   3   5
ENDBRANCH   2   3
ENDBRANCH   1   2
BRANCH   1  34
ATOM     34  C   UNL A   1      35.066  32.866  29.210  1.00  0.00     0.275 C 
BRANCH  34  35
ATOM     35  O   UNL A   1      35.555  31.804  30.058  1.00  0.00    -0.458 OA
BRANCH  35  36
ATOM     36  C   UNL A   1      36.813  31.995  30.528  1.00  0.00     0.338 C 
ATOM     37  O   UNL A   1      37.193  32.919  31.221  1.00  0.00    -0.246 OA
BRANCH  36  38
ATOM     38  C   UNL A   1      37.745  30.923  30.113  1.00  0.00     0.060 A 
ATOM     39  C   UNL A   1      38.514  30.254  31.063  1.00  0.00     0.016 A 
ATOM     40  C   UNL A   1      38.072  30.809  28.762  1.00  0.00     0.016 A 
ATOM     41  C   UNL A   1      39.705  29.630  30.694  1.00  0.00     0.010 A 
ATOM     42  C   UNL A   1      39.211  30.090  28.381  1.00  0.00     0.010 A 
ATOM     43  C   UNL A   1      40.088  29.570  29.351  1.00  0.00    -0.014 A 
BRANCH  43  44
ATOM     44  C   UNL A   1      41.457  29.112  28.971  1.00  0.00     0.031 A 
ATOM     45  C   UNL A   1      42.606  30.092  29.031  1.00  0.00     0.074 A 
ATOM     46  C   UNL A   1      41.697  27.834  28.620  1.00  0.00     0.049 A 
ATOM     47  N   UNL A   1      43.824  29.977  28.563  1.00  0.00    -0.248 NA
ATOM     48  C   UNL A   1      42.344  31.382  29.691  1.00  0.00     0.031 C 
ATOM     49  C   UNL A   1      40.706  26.758  28.594  1.00  0.00     0.029 A 
ATOM     50  N   UNL A   1      42.860  27.222  28.219  1.00  0.00    -0.354 N 
ATOM     51  C   UNL A   1      44.444  31.199  28.807  1.00  0.00     0.074 A 
ATOM     52  C   UNL A   1      43.468  32.042  29.462  1.00  0.00     0.031 C 
ATOM     53  C   UNL A   1      41.305  25.616  28.223  1.00  0.00     0.029 A 
ATOM     54  C   UNL A   1      42.700  25.893  27.902  1.00  0.00     0.049 A 
ATOM     55  H   UNL A   1      43.725  27.689  28.166  1.00  0.00     0.167 HD
ATOM     56  C   UNL A   1      45.709  31.583  28.511  1.00  0.00     0.037 A 
ATOM     57  C   UNL A   1      43.566  25.007  27.368  1.00  0.00     0.037 A 
ATOM     58  C   UNL A   1      46.697  30.714  27.923  1.00  0.00     0.049 A 
ATOM     59  C   UNL A   1      44.963  25.455  27.035  1.00  0.00     0.074 A 
ATOM     60  C   UNL A   1      48.007  31.002  27.582  1.00  0.00     0.029 A 
ATOM     61  N   UNL A   1      46.488  29.379  27.611  1.00  0.00    -0.354 N 
ATOM     62  N   UNL A   1      45.510  26.638  27.191  1.00  0.00    -0.248 NA
ATOM     63  C   UNL A   1      45.857  24.451  26.443  1.00  0.00     0.031 C 
ATOM     64  C   UNL A   1      48.582  29.847  27.038  1.00  0.00     0.029 A 
ATOM     65  C   UNL A   1      47.645  28.828  27.083  1.00  0.00     0.049 A 
ATOM     66  H   UNL A   1      45.642  28.893  27.745  1.00  0.00     0.167 HD
ATOM     67  C   UNL A   1      46.819  26.513  26.740  1.00  0.00     0.074 A 
ATOM     68  C   UNL A   1      46.985  25.138  26.316  1.00  0.00     0.031 C 
ATOM     69  C   UNL A   1      47.796  27.452  26.681  1.00  0.00     0.037 A 
BRANCH  56  70
ATOM     70  C   UNL A   1      46.087  33.016  28.780  1.00  0.00     0.058 A 
ATOM     71  C   UNL A   1      45.880  34.038  27.841  1.00  0.00     0.135 A 
ATOM     72  C   UNL A   1      46.660  33.372  30.013  1.00  0.00     0.135 A 
ATOM     73  F   UNL A   1      45.353  33.754  26.638  1.00  0.00    -0.206 F 
ATOM     74  C   UNL A   1      46.258  35.354  28.099  1.00  0.00     0.059 A 
ATOM     75  C   UNL A   1      47.019  34.685  30.305  1.00  0.00     0.059 A 
ATOM     76  F   UNL A   1      46.881  32.438  30.951  1.00  0.00    -0.206 F 
ATOM     77  C   UNL A   1      46.831  35.666  29.333  1.00  0.00     0.060 A 
BRANCH  77  78
ATOM     78  S   UNL A   1      47.326  37.373  29.653  1.00  0.00     0.124 S 
ATOM     79  O   UNL A   1      47.731  37.301  31.054  1.00  0.00    -0.237 OA
ATOM     80  O   UNL A   1      48.406  37.572  28.691  1.00  0.00    -0.237 OA
ATOM     81  O   UNL A   1      46.110  38.135  29.390  1.00  0.00    -0.744 OA
ENDBRANCH  77  78
ENDBRANCH  56  70
BRANCH  57  82
ATOM     82  C   UNL A   1      43.120  23.616  27.087  1.00  0.00     0.058 A 
ATOM     83  C   UNL A   1      42.788  23.211  25.786  1.00  0.00     0.135 A 
ATOM     84  C   UNL A   1      43.036  22.659  28.111  1.00  0.00     0.135 A 
ATOM     85  F   UNL A   1      42.841  24.092  24.775  1.00  0.00    -0.206 F 
ATOM     86  C   UNL A   1      42.383  21.909  25.510  1.00  0.00     0.059 A 
ATOM     87  C   UNL A   1      42.662  21.344  27.856  1.00  0.00     0.059 A 
ATOM     88  F   UNL A   1      43.354  22.993  29.372  1.00  0.00    -0.206 F 
ATOM     89  C   UNL A   1      42.328  20.981  26.552  1.00  0.00     0.060 A 
BRANCH  89  90
ATOM     90  S   UNL A   1      41.865  19.277  26.174  1.00  0.00     0.124 S 
ATOM     91  O   UNL A   1      42.243  18.591  27.404  1.00  0.00    -0.237 OA
ATOM     92  O   UNL A   1      40.432  19.396  25.922  1.00  0.00    -0.237 OA
ATOM     93  O   UNL A   1      42.675  18.962  25.000  1.00  0.00    -0.744 OA
ENDBRANCH  89  90
ENDBRANCH  57  82
BRANCH  69  94
ATOM     94  C   UNL A   1      49.148  27.007  26.197  1.00  0.00     0.058 A 
ATOM     95  C   UNL A   1      50.113  26.480  27.068  1.00  0.00     0.135 A 
ATOM     96  C   UNL A   1      49.471  27.089  24.832  1.00  0.00     0.135 A 
ATOM     97  F   UNL A   1      49.857  26.384  28.382  1.00  0.00    -0.206 F 
ATOM     98  C   UNL A   1      51.365  26.083  26.609  1.00  0.00     0.059 A 
ATOM     99  C   UNL A   1      50.706  26.672  24.348  1.00  0.00     0.059 A 
ATOM    100  F   UNL A   1      48.578  27.574  23.955  1.00  0.00    -0.206 F 
ATOM    101  C   UNL A   1      51.653  26.187  25.247  1.00  0.00     0.060 A 
BRANCH 101 102
ATOM    102  S   UNL A   1      53.279  25.665  24.660  1.00  0.00     0.124 S 
ATOM    103  O   UNL A   1      54.163  26.509  25.457  1.00  0.00    -0.237 OA
ATOM    104  O   UNL A   1      53.291  24.243  24.990  1.00  0.00    -0.237 OA
ATOM    105  O   UNL A   1      53.238  25.970  23.233  1.00  0.00    -0.744 OA
ENDBRANCH 101 102
ENDBRANCH  69  94
ENDBRANCH  43  44
ENDBRANCH  36  38
ENDBRANCH  35  36
ENDBRANCH  34  35
ENDBRANCH   1  34
TORSDOF 18
ENDMDL
MODEL 3
REMARK VINA RESULT:     -11.9      1.632      2.295
REMARK SMILES [NH2+]=C1S[C@@H](C(=O)Nc2ccc(C(=O)OCCOC(=O)c3ccc(-c4c5nc(c(-c6c(F)cc(S(=O)(=O)[O-])cc6F)c6ccc([nH]6)c(-c6c(F)cc(S(=O)(=O)[O-])cc6F)c6nc(c(-c7c(F)cc(S(=O)(=O)[O-])cc7F)c7ccc4[nH]7)C=C6)C=C5)cc3)cc2)CC(=O)N1/N=C/c1ccc(Cl)cc1
REMARK SMILES IDX 15 1 14 2 12 3 13 4 11 5 8 6 9 7 87 8 10 9 86 10 7 11 5 12
REMARK SMILES IDX 6 13 4 15 1 16 2 17 3 20 91 21 89 22 88 23 90 24 92 25 93 26
REMARK SMILES IDX 94 27 95 28 100 29 96 30 99 31 97 32 98 33 16 34 17 35 18 36
REMARK SMILES IDX 19 37 20 38 21 39 85 40 22 41 84 42 23 43 24 44 25 45 78 46
REMARK SMILES IDX 26 47 83 48 77 49 79 50 27 51 82 52 76 53 75 54 28 56 62 57
REMARK SMILES IDX 41 58 61 59 42 60 45 61 60 62 80 63 43 64 44 65 59 67 81 68
REMARK SMILES IDX 46 69 29 70 30 71 39 72 31 73 32 74 38 75 40 76 33 77 34 78
REMARK SMILES IDX 35 79 36 80 37 81 63 82 64 83 73 84 65 85 66 86 72 87 74 88
REMARK SMILES IDX 67 89 68 90 69 91 70 92 71 93 47 94 48 95 57 96 49 97 50 98
REMARK SMILES IDX 56 99 58 100 51 101 52 102 53 103 54 104 55 105
REMARK H PARENT 7 14 1 18 1 19 79 55 45 66
REMARK Flexibility Score: inf
ROOT
ATOM      1  C   UNL A   1      34.003  32.033  28.150  1.00  0.00     0.275 C 
ENDROOT
BRANCH   1   2
ATOM      2  O   UNL A   1      34.821  31.175  27.327  1.00  0.00    -0.458 OA
BRANCH   2   3
ATOM      3  C   UNL A   1      34.428  29.886  27.373  1.00  0.00     0.338 C 
ATOM      4  O   UNL A   1      35.092  28.965  27.837  1.00  0.00    -0.246 OA
BRANCH   3   5
ATOM      5  C   UNL A   1      33.139  29.579  26.744  1.00  0.00     0.060 A 
ATOM      6  C   UNL A   1      31.225  28.226  25.289  1.00  0.00     0.041 A 
ATOM      7  C   UNL A   1      31.370  27.922  26.632  1.00  0.00     0.027 A 
ATOM      8  C   UNL A   1      31.872  29.328  24.726  1.00  0.00     0.027 A 
ATOM      9  C   UNL A   1      32.352  28.584  27.352  1.00  0.00     0.018 A 
ATOM     10  C   UNL A   1      32.845  30.013  25.455  1.00  0.00     0.018 A 
BRANCH   6  11
ATOM     11  N   UNL A   1      30.429  27.398  24.515  1.00  0.00    -0.325 N 
ATOM     12  C   UNL A   1      30.691  26.129  24.089  1.00  0.00     0.238 C 
ATOM     13  O   UNL A   1      29.835  25.609  23.359  1.00  0.00    -0.273 OA
ATOM     14  H   UNL A   1      29.563  27.773  24.235  1.00  0.00     0.169 HD
BRANCH  12  15
ATOM     15  C   UNL A   1      31.882  25.273  24.569  1.00  0.00     0.160 C 
ATOM     16  N   UNL A   1      31.938  22.291  22.157  1.00  0.00    -0.279 N 
ATOM     17  C   UNL A   1      32.131  22.856  23.298  1.00  0.00     0.338 C 
ATOM     18  H   UNL A   1      32.063  22.805  21.327  1.00  0.00     0.302 HD
ATOM     19  H   UNL A   1      31.665  21.346  22.115  1.00  0.00     0.302 HD
ATOM     20  S   UNL A   1      32.709  24.483  23.191  1.00  0.00    -0.022 SA
ATOM     21  N   UNL A   1      31.989  22.244  24.544  1.00  0.00    -0.057 N 
ATOM     22  C   UNL A   1      31.795  22.924  25.757  1.00  0.00     0.337 C 
ATOM     23  C   UNL A   1      31.841  24.439  25.818  1.00  0.00     0.155 C 
ATOM     24  O   UNL A   1      31.597  22.346  26.838  1.00  0.00    -0.244 OA
BRANCH  21  25
ATOM     25  N   UNL A   1      32.055  20.837  24.730  1.00  0.00    -0.082 NA
ATOM     26  C   UNL A   1      33.110  20.130  24.485  1.00  0.00     0.167 C 
BRANCH  26  27
ATOM     27  C   UNL A   1      33.122  18.664  24.713  1.00  0.00    -0.003 A 
ATOM     28  C   UNL A   1      32.664  18.120  25.913  1.00  0.00     0.011 A 
ATOM     29  C   UNL A   1      33.663  17.831  23.728  1.00  0.00     0.011 A 
ATOM     30  C   UNL A   1      32.733  16.735  26.111  1.00  0.00     0.021 A 
ATOM     31  C   UNL A   1      33.679  16.446  23.903  1.00  0.00     0.021 A 
ATOM     32  C   UNL A   1      33.220  15.904  25.100  1.00  0.00     0.041 A 
ATOM     33  Cl  UNL A   1      33.262  14.198  25.332  1.00  0.00    -0.084 Cl
ENDBRANCH  26  27
ENDBRANCH  21  25
ENDBRANCH  12  15
ENDBRANCH   6  11
ENDBRANCH   3   5
ENDBRANCH   2   3
ENDBRANCH   1   2
BRANCH   1  34
ATOM     34  C   UNL A   1      34.751  32.670  29.330  1.00  0.00     0.275 C 
BRANCH  34  35
ATOM     35  O   UNL A   1      35.196  31.712  30.315  1.00  0.00    -0.458 OA
BRANCH  35  36
ATOM     36  C   UNL A   1      36.453  31.926  30.777  1.00  0.00     0.338 C 
ATOM     37  O   UNL A   1      36.809  32.823  31.517  1.00  0.00    -0.246 OA
BRANCH  36  38
ATOM     38  C   UNL A   1      37.418  30.915  30.291  1.00  0.00     0.060 A 
ATOM     39  C   UNL A   1      38.156  30.155  31.196  1.00  0.00     0.016 A 
ATOM     40  C   UNL A   1      37.805  30.952  28.951  1.00  0.00     0.016 A 
ATOM     41  C   UNL A   1      39.370  29.587  30.815  1.00  0.00     0.010 A 
ATOM     42  C   UNL A   1      38.970  30.291  28.546  1.00  0.00     0.010 A 
ATOM     43  C   UNL A   1      39.813  29.678  29.491  1.00  0.00    -0.014 A 
BRANCH  43  44
ATOM     44  C   UNL A   1      41.203  29.278  29.125  1.00  0.00     0.031 A 
ATOM     45  C   UNL A   1      42.312  30.302  29.208  1.00  0.00     0.074 A 
ATOM     46  C   UNL A   1      41.499  28.014  28.766  1.00  0.00     0.049 A 
ATOM     47  N   UNL A   1      43.538  30.241  28.756  1.00  0.00    -0.248 NA
ATOM     48  C   UNL A   1      41.989  31.575  29.877  1.00  0.00     0.031 C 
ATOM     49  C   UNL A   1      40.552  26.899  28.718  1.00  0.00     0.029 A 
ATOM     50  N   UNL A   1      42.690  27.452  28.375  1.00  0.00    -0.354 N 
ATOM     51  C   UNL A   1      44.106  31.484  29.018  1.00  0.00     0.074 A 
ATOM     52  C   UNL A   1      43.089  32.282  29.668  1.00  0.00     0.031 C 
ATOM     53  C   UNL A   1      41.201  25.786  28.345  1.00  0.00     0.029 A 
ATOM     54  C   UNL A   1      42.588  26.122  28.044  1.00  0.00     0.049 A 
ATOM     55  H   UNL A   1      43.536  27.954  28.337  1.00  0.00     0.167 HD
ATOM     56  C   UNL A   1      45.359  31.922  28.742  1.00  0.00     0.037 A 
ATOM     57  C   UNL A   1      43.495  25.276  27.514  1.00  0.00     0.037 A 
ATOM     58  C   UNL A   1      46.387  31.098  28.159  1.00  0.00     0.049 A 
ATOM     59  C   UNL A   1      44.877  25.782  27.203  1.00  0.00     0.074 A 
ATOM     60  C   UNL A   1      47.690  31.441  27.838  1.00  0.00     0.029 A 
ATOM     61  N   UNL A   1      46.237  29.758  27.832  1.00  0.00    -0.354 N 
ATOM     62  N   UNL A   1      45.374  26.984  27.376  1.00  0.00    -0.248 NA
ATOM     63  C   UNL A   1      45.817  24.821  26.613  1.00  0.00     0.031 C 
ATOM     64  C   UNL A   1      48.317  30.315  27.291  1.00  0.00     0.029 A 
ATOM     65  C   UNL A   1      47.420  29.259  27.315  1.00  0.00     0.049 A 
ATOM     66  H   UNL A   1      45.409  29.238  27.951  1.00  0.00     0.167 HD
ATOM     67  C   UNL A   1      46.692  26.916  26.941  1.00  0.00     0.074 A 
ATOM     68  C   UNL A   1      46.918  25.552  26.507  1.00  0.00     0.031 C 
ATOM     69  C   UNL A   1      47.632  27.894  26.903  1.00  0.00     0.037 A 
BRANCH  56  70
ATOM     70  C   UNL A   1      45.676  33.366  29.028  1.00  0.00     0.058 A 
ATOM     71  C   UNL A   1      46.354  33.771  30.187  1.00  0.00     0.135 A 
ATOM     72  C   UNL A   1      45.299  34.363  28.112  1.00  0.00     0.135 A 
ATOM     73  F   UNL A   1      46.723  32.864  31.107  1.00  0.00    -0.206 F 
ATOM     74  C   UNL A   1      46.617  35.114  30.446  1.00  0.00     0.059 A 
ATOM     75  C   UNL A   1      45.577  35.708  28.335  1.00  0.00     0.059 A 
ATOM     76  F   UNL A   1      44.649  34.034  26.985  1.00  0.00    -0.206 F 
ATOM     77  C   UNL A   1      46.221  36.076  29.515  1.00  0.00     0.060 A 
BRANCH  77  78
ATOM     78  S   UNL A   1      46.559  37.815  29.866  1.00  0.00     0.124 S 
ATOM     79  O   UNL A   1      46.087  38.455  28.642  1.00  0.00    -0.237 OA
ATOM     80  O   UNL A   1      45.753  38.057  31.059  1.00  0.00    -0.237 OA
ATOM     81  O   UNL A   1      48.003  37.846  30.073  1.00  0.00    -0.744 OA
ENDBRANCH  77  78
ENDBRANCH  56  70
BRANCH  57  82
ATOM     82  C   UNL A   1      43.108  23.871  27.215  1.00  0.00     0.058 A 
ATOM     83  C   UNL A   1      43.039  22.906  28.232  1.00  0.00     0.135 A 
ATOM     84  C   UNL A   1      42.782  23.468  25.910  1.00  0.00     0.135 A 
ATOM     85  F   UNL A   1      43.353  23.238  29.493  1.00  0.00    -0.206 F 
ATOM     86  C   UNL A   1      42.666  21.594  27.965  1.00  0.00     0.059 A 
ATOM     87  C   UNL A   1      42.377  22.169  25.624  1.00  0.00     0.059 A 
ATOM     88  F   UNL A   1      42.821  24.355  24.903  1.00  0.00    -0.206 F 
ATOM     89  C   UNL A   1      42.332  21.235  26.658  1.00  0.00     0.060 A 
BRANCH  89  90
ATOM     90  S   UNL A   1      41.784  19.546  26.332  1.00  0.00     0.124 S 
ATOM     91  O   UNL A   1      40.343  19.726  26.198  1.00  0.00    -0.237 OA
ATOM     92  O   UNL A   1      42.505  19.219  25.106  1.00  0.00    -0.237 OA
ATOM     93  O   UNL A   1      42.222  18.817  27.519  1.00  0.00    -0.744 OA
ENDBRANCH  89  90
ENDBRANCH  57  82
BRANCH  69  94
ATOM     94  C   UNL A   1      49.007  27.507  26.432  1.00  0.00     0.058 A 
ATOM     95  C   UNL A   1      49.351  27.497  25.072  1.00  0.00     0.135 A 
ATOM     96  C   UNL A   1      50.000  27.165  27.364  1.00  0.00     0.135 A 
ATOM     97  F   UNL A   1      48.437  27.812  24.142  1.00  0.00    -0.206 F 
ATOM     98  C   UNL A   1      50.623  27.125  24.649  1.00  0.00     0.059 A 
ATOM     99  C   UNL A   1      51.286  26.816  26.965  1.00  0.00     0.059 A 
ATOM    100  F   UNL A   1      49.726  27.171  28.678  1.00  0.00    -0.206 F 
ATOM    101  C   UNL A   1      51.583  26.782  25.604  1.00  0.00     0.060 A 
BRANCH 101 102
ATOM    102  S   UNL A   1      53.232  26.306  25.046  1.00  0.00     0.124 S 
ATOM    103  O   UNL A   1      53.076  24.866  24.868  1.00  0.00    -0.237 OA
ATOM    104  O   UNL A   1      53.387  27.084  23.821  1.00  0.00    -0.237 OA
ATOM    105  O   UNL A   1      54.095  26.712  26.152  1.00  0.00    -0.744 OA
ENDBRANCH 101 102
ENDBRANCH  69  94
ENDBRANCH  43  44
ENDBRANCH  36  38
ENDBRANCH  35  36
ENDBRANCH  34  35
ENDBRANCH   1  34
TORSDOF 18
ENDMDL
