MODEL 1
REMARK VINA RESULT:     -12.0      0.000      0.000
REMARK SMILES N#C[C@@H](c1ccccc1)[C@H](CC(=O)OCCOC(=O)c1ccc(-c2c3nc(c(-c4c(F)cc(S(=O)(=O)[O-])cc4F)c4ccc([nH]4)c(-c4c(F)cc(S(=O)(=O)[O-])cc4F)c4nc(c(-c5c(F)cc(S(=O)(=O)[O-])cc5F)c5ccc2[nH]5)C=C4)C=C3)cc1)c1ccccc1
REMARK SMILES IDX 15 1 14 2 12 3 13 4 11 5 10 6 3 7 2 8 1 9 4 10 5 11 9 12
REMARK SMILES IDX 6 13 8 14 7 15 86 16 87 17 91 18 88 19 90 20 89 21 16 22
REMARK SMILES IDX 17 23 18 24 19 25 20 26 21 27 85 28 22 29 84 30 23 31 24 32
REMARK SMILES IDX 25 33 78 34 26 35 83 36 77 37 79 38 27 39 82 40 76 41 75 42
REMARK SMILES IDX 28 44 62 45 41 46 61 47 42 48 45 49 60 50 80 51 43 52 44 53
REMARK SMILES IDX 59 55 81 56 46 57 29 58 30 59 39 60 31 61 32 62 38 63 40 64
REMARK SMILES IDX 33 65 34 66 35 67 36 68 37 69 63 70 64 71 73 72 65 73 66 74
REMARK SMILES IDX 72 75 74 76 67 77 68 78 69 79 70 80 71 81 47 82 48 83 57 84
REMARK SMILES IDX 49 85 50 86 56 87 58 88 51 89 52 90 53 91 54 92 55 93
REMARK H PARENT 79 43 45 54
REMARK Flexibility Score: inf
ROOT
ATOM      1  C   UNL A   1      32.420  28.586  27.776  1.00  0.00     0.274 C 
ENDROOT
BRANCH   1   2
ATOM      2  O   UNL A   1      31.552  26.991  26.896  1.00  0.00    -0.462 OA
BRANCH   2   3
ATOM      3  C   UNL A   1      31.280  25.773  26.257  1.00  0.00     0.306 C 
ATOM      4  O   UNL A   1      30.160  25.584  25.766  1.00  0.00    -0.252 OA
BRANCH   3   5
ATOM      5  C   UNL A   1      32.339  24.634  26.093  1.00  0.00     0.132 C 
BRANCH   5   6
ATOM      6  C   UNL A   1      32.858  23.986  24.749  1.00  0.00     0.052 C 
BRANCH   6   7
ATOM      7  C   UNL A   1      34.196  24.638  24.320  1.00  0.00     0.130 C 
BRANCH   7   8
ATOM      8  C   UNL A   1      35.102  23.824  23.500  1.00  0.00     0.071 C 
ATOM      9  N   UNL A   1      35.851  23.229  22.844  1.00  0.00    -0.198 NA
ENDBRANCH   7   8
BRANCH   7  10
ATOM     10  C   UNL A   1      33.767  25.852  23.526  1.00  0.00    -0.030 A 
ATOM     11  C   UNL A   1      33.938  27.462  24.311  1.00  0.00     0.005 A 
ATOM     12  C   UNL A   1      32.406  25.569  22.351  1.00  0.00     0.005 A 
ATOM     13  C   UNL A   1      32.790  28.770  23.909  1.00  0.00     0.000 A 
ATOM     14  C   UNL A   1      31.222  26.907  21.984  1.00  0.00     0.000 A 
ATOM     15  C   UNL A   1      31.430  28.501  22.771  1.00  0.00     0.000 A 
ENDBRANCH   7  10
ENDBRANCH   6   7
BRANCH   6  16
ATOM     16  C   UNL A   1      32.851  22.451  24.719  1.00  0.00    -0.043 A 
ATOM     17  C   UNL A   1      33.327  21.656  25.769  1.00  0.00     0.004 A 
ATOM     18  C   UNL A   1      32.262  21.789  23.621  1.00  0.00     0.004 A 
ATOM     19  C   UNL A   1      33.275  20.261  25.698  1.00  0.00     0.000 A 
ATOM     20  C   UNL A   1      32.226  20.396  23.542  1.00  0.00     0.000 A 
ATOM     21  C   UNL A   1      32.741  19.630  24.580  1.00  0.00     0.000 A 
ENDBRANCH   6  16
ENDBRANCH   5   6
ENDBRANCH   3   5
ENDBRANCH   2   3
ENDBRANCH   1   2
BRANCH   1  22
ATOM     22  C   UNL A   1      32.570  30.209  27.195  1.00  0.00     0.275 C 
BRANCH  22  23
ATOM     23  O   UNL A   1      33.887  30.814  26.964  1.00  0.00    -0.458 OA
BRANCH  23  24
ATOM     24  C   UNL A   1      34.620  31.112  28.079  1.00  0.00     0.338 C 
ATOM     25  O   UNL A   1      34.298  31.912  28.946  1.00  0.00    -0.246 OA
BRANCH  24  26
ATOM     26  C   UNL A   1      35.780  30.196  28.305  1.00  0.00     0.060 A 
ATOM     27  C   UNL A   1      36.212  29.876  29.609  1.00  0.00     0.016 A 
ATOM     28  C   UNL A   1      36.627  29.918  27.237  1.00  0.00     0.016 A 
ATOM     29  C   UNL A   1      37.492  29.370  29.855  1.00  0.00     0.010 A 
ATOM     30  C   UNL A   1      37.899  29.375  27.481  1.00  0.00     0.010 A 
ATOM     31  C   UNL A   1      38.362  29.150  28.792  1.00  0.00    -0.014 A 
BRANCH  31  32
ATOM     32  C   UNL A   1      39.793  28.824  29.029  1.00  0.00     0.031 A 
ATOM     33  C   UNL A   1      40.723  29.919  29.489  1.00  0.00     0.074 A 
ATOM     34  C   UNL A   1      40.272  27.586  28.805  1.00  0.00     0.049 A 
ATOM     35  N   UNL A   1      42.029  29.936  29.536  1.00  0.00    -0.248 NA
ATOM     36  C   UNL A   1      40.089  31.169  29.939  1.00  0.00     0.031 C 
ATOM     37  C   UNL A   1      39.470  26.421  28.431  1.00  0.00     0.029 A 
ATOM     38  N   UNL A   1      41.561  27.112  28.822  1.00  0.00    -0.354 N 
ATOM     39  C   UNL A   1      42.377  31.210  29.975  1.00  0.00     0.074 A 
ATOM     40  C   UNL A   1      41.142  31.940  30.166  1.00  0.00     0.031 C 
ATOM     41  C   UNL A   1      40.288  25.377  28.217  1.00  0.00     0.029 A 
ATOM     42  C   UNL A   1      41.673  25.812  28.386  1.00  0.00     0.049 A 
ATOM     43  H   UNL A   1      42.331  27.650  29.118  1.00  0.00     0.167 HD
ATOM     44  C   UNL A   1      43.613  31.722  30.194  1.00  0.00     0.037 A 
ATOM     45  C   UNL A   1      42.765  25.071  28.107  1.00  0.00     0.037 A 
ATOM     46  C   UNL A   1      44.832  30.975  30.010  1.00  0.00     0.049 A 
ATOM     47  C   UNL A   1      44.132  25.680  28.296  1.00  0.00     0.074 A 
ATOM     48  C   UNL A   1      46.136  31.391  30.218  1.00  0.00     0.029 A 
ATOM     49  N   UNL A   1      44.900  29.659  29.575  1.00  0.00    -0.354 N 
ATOM     50  N   UNL A   1      44.451  26.888  28.695  1.00  0.00    -0.248 NA
ATOM     51  C   UNL A   1      45.286  24.820  28.002  1.00  0.00     0.031 C 
ATOM     52  C   UNL A   1      46.993  30.349  29.851  1.00  0.00     0.029 A 
ATOM     53  C   UNL A   1      46.223  29.254  29.488  1.00  0.00     0.049 A 
ATOM     54  H   UNL A   1      44.123  29.094  29.361  1.00  0.00     0.167 HD
ATOM     55  C   UNL A   1      45.843  26.919  28.740  1.00  0.00     0.074 A 
ATOM     56  C   UNL A   1      46.301  25.608  28.333  1.00  0.00     0.031 C 
ATOM     57  C   UNL A   1      46.666  27.938  29.096  1.00  0.00     0.037 A 
BRANCH  44  58
ATOM     58  C   UNL A   1      43.715  33.165  30.616  1.00  0.00     0.058 A 
ATOM     59  C   UNL A   1      43.699  33.552  31.966  1.00  0.00     0.135 A 
ATOM     60  C   UNL A   1      43.874  34.178  29.653  1.00  0.00     0.135 A 
ATOM     61  F   UNL A   1      43.537  32.634  32.932  1.00  0.00    -0.206 F 
ATOM     62  C   UNL A   1      43.806  34.888  32.344  1.00  0.00     0.059 A 
ATOM     63  C   UNL A   1      44.016  35.516  30.009  1.00  0.00     0.059 A 
ATOM     64  F   UNL A   1      43.896  33.870  28.347  1.00  0.00    -0.206 F 
ATOM     65  C   UNL A   1      43.966  35.863  31.358  1.00  0.00     0.060 A 
BRANCH  65  66
ATOM     66  S   UNL A   1      44.113  37.589  31.867  1.00  0.00     0.124 S 
ATOM     67  O   UNL A   1      45.545  37.695  32.129  1.00  0.00    -0.237 OA
ATOM     68  O   UNL A   1      43.630  38.303  30.689  1.00  0.00    -0.237 OA
ATOM     69  O   UNL A   1      43.254  37.673  33.044  1.00  0.00    -0.744 OA
ENDBRANCH  65  66
ENDBRANCH  44  58
BRANCH  45  70
ATOM     70  C   UNL A   1      42.613  23.677  27.607  1.00  0.00     0.058 A 
ATOM     71  C   UNL A   1      42.550  23.408  26.231  1.00  0.00     0.135 A 
ATOM     72  C   UNL A   1      42.533  22.587  28.488  1.00  0.00     0.135 A 
ATOM     73  F   UNL A   1      42.609  24.415  25.347  1.00  0.00    -0.206 F 
ATOM     74  C   UNL A   1      42.398  22.112  25.747  1.00  0.00     0.059 A 
ATOM     75  C   UNL A   1      42.413  21.279  28.028  1.00  0.00     0.059 A 
ATOM     76  F   UNL A   1      42.597  22.786  29.813  1.00  0.00    -0.206 F 
ATOM     77  C   UNL A   1      42.336  21.053  26.654  1.00  0.00     0.060 A 
BRANCH  77  78
ATOM     78  S   UNL A   1      42.191  19.372  26.010  1.00  0.00     0.124 S 
ATOM     79  O   UNL A   1      43.035  19.439  24.821  1.00  0.00    -0.237 OA
ATOM     80  O   UNL A   1      42.709  18.576  27.118  1.00  0.00    -0.237 OA
ATOM     81  O   UNL A   1      40.760  19.230  25.759  1.00  0.00    -0.744 OA
ENDBRANCH  77  78
ENDBRANCH  45  70
BRANCH  57  82
ATOM     82  C   UNL A   1      48.146  27.660  29.132  1.00  0.00     0.058 A 
ATOM     83  C   UNL A   1      48.811  27.282  30.309  1.00  0.00     0.135 A 
ATOM     84  C   UNL A   1      48.903  27.734  27.950  1.00  0.00     0.135 A 
ATOM     85  F   UNL A   1      48.140  27.199  31.468  1.00  0.00    -0.206 F 
ATOM     86  C   UNL A   1      50.179  27.021  30.320  1.00  0.00     0.059 A 
ATOM     87  C   UNL A   1      50.264  27.442  27.930  1.00  0.00     0.059 A 
ATOM     88  F   UNL A   1      48.318  28.078  26.791  1.00  0.00    -0.206 F 
ATOM     89  C   UNL A   1      50.897  27.102  29.125  1.00  0.00     0.060 A 
BRANCH  89  90
ATOM     90  S   UNL A   1      52.665  26.741  29.149  1.00  0.00     0.124 S 
ATOM     91  O   UNL A   1      52.786  25.946  30.366  1.00  0.00    -0.237 OA
ATOM     92  O   UNL A   1      52.851  26.016  27.896  1.00  0.00    -0.237 OA
ATOM     93  O   UNL A   1      53.283  28.063  29.199  1.00  0.00    -0.744 OA
ENDBRANCH  89  90
ENDBRANCH  57  82
ENDBRANCH  31  32
ENDBRANCH  24  26
ENDBRANCH  23  24
ENDBRANCH  22  23
ENDBRANCH   1  22
TORSDOF 19
ENDMDL
MODEL 2
REMARK VINA RESULT:     -11.8      3.730      9.774
REMARK SMILES N#C[C@@H](c1ccccc1)[C@H](CC(=O)OCCOC(=O)c1ccc(-c2c3nc(c(-c4c(F)cc(S(=O)(=O)[O-])cc4F)c4ccc([nH]4)c(-c4c(F)cc(S(=O)(=O)[O-])cc4F)c4nc(c(-c5c(F)cc(S(=O)(=O)[O-])cc5F)c5ccc2[nH]5)C=C4)C=C3)cc1)c1ccccc1
REMARK SMILES IDX 15 1 14 2 12 3 13 4 11 5 10 6 3 7 2 8 1 9 4 10 5 11 9 12
REMARK SMILES IDX 6 13 8 14 7 15 86 16 87 17 91 18 88 19 90 20 89 21 16 22
REMARK SMILES IDX 17 23 18 24 19 25 20 26 21 27 85 28 22 29 84 30 23 31 24 32
REMARK SMILES IDX 25 33 78 34 26 35 83 36 77 37 79 38 27 39 82 40 76 41 75 42
REMARK SMILES IDX 28 44 62 45 41 46 61 47 42 48 45 49 60 50 80 51 43 52 44 53
REMARK SMILES IDX 59 55 81 56 46 57 29 58 30 59 39 60 31 61 32 62 38 63 40 64
REMARK SMILES IDX 33 65 34 66 35 67 36 68 37 69 63 70 64 71 73 72 65 73 66 74
REMARK SMILES IDX 72 75 74 76 67 77 68 78 69 79 70 80 71 81 47 82 48 83 57 84
REMARK SMILES IDX 49 85 50 86 56 87 58 88 51 89 52 90 53 91 54 92 55 93
REMARK H PARENT 79 43 45 54
REMARK Flexibility Score: inf
ROOT
ATOM      1  C   UNL A   1      36.218  23.229  23.953  1.00  0.00     0.274 C 
ENDROOT
BRANCH   1   2
ATOM      2  O   UNL A   1      34.756  24.465  23.314  1.00  0.00    -0.462 OA
BRANCH   2   3
ATOM      3  C   UNL A   1      33.716  25.088  22.611  1.00  0.00     0.306 C 
ATOM      4  O   UNL A   1      33.279  24.558  21.581  1.00  0.00    -0.252 OA
BRANCH   3   5
ATOM      5  C   UNL A   1      33.038  26.417  23.079  1.00  0.00     0.132 C 
BRANCH   5   6
ATOM      6  C   UNL A   1      31.659  26.583  23.832  1.00  0.00     0.052 C 
BRANCH   6   7
ATOM      7  C   UNL A   1      31.889  26.672  25.361  1.00  0.00     0.130 C 
BRANCH   7   8
ATOM      8  C   UNL A   1      32.672  25.597  25.981  1.00  0.00     0.071 C 
ATOM      9  N   UNL A   1      33.243  24.731  26.502  1.00  0.00    -0.198 NA
ENDBRANCH   7   8
BRANCH   7  10
ATOM     10  C   UNL A   1      32.622  27.983  25.540  1.00  0.00    -0.030 A 
ATOM     11  C   UNL A   1      34.263  27.925  26.276  1.00  0.00     0.005 A 
ATOM     12  C   UNL A   1      31.560  29.432  25.834  1.00  0.00     0.005 A 
ATOM     13  C   UNL A   1      34.842  29.298  27.261  1.00  0.00     0.000 A 
ATOM     14  C   UNL A   1      32.156  30.806  26.876  1.00  0.00     0.000 A 
ATOM     15  C   UNL A   1      33.800  30.723  27.580  1.00  0.00     0.000 A 
ENDBRANCH   7  10
ENDBRANCH   6   7
BRANCH   6  16
ATOM     16  C   UNL A   1      30.728  27.660  23.257  1.00  0.00    -0.043 A 
ATOM     17  C   UNL A   1      31.166  28.697  22.425  1.00  0.00     0.004 A 
ATOM     18  C   UNL A   1      29.341  27.569  23.501  1.00  0.00     0.004 A 
ATOM     19  C   UNL A   1      30.270  29.638  21.910  1.00  0.00     0.000 A 
ATOM     20  C   UNL A   1      28.447  28.518  23.002  1.00  0.00     0.000 A 
ATOM     21  C   UNL A   1      28.915  29.559  22.212  1.00  0.00     0.000 A 
ENDBRANCH   6  16
ENDBRANCH   5   6
ENDBRANCH   3   5
ENDBRANCH   2   3
ENDBRANCH   1   2
BRANCH   1  22
ATOM     22  C   UNL A   1      37.366  23.460  25.228  1.00  0.00     0.275 C 
BRANCH  22  23
ATOM     23  O   UNL A   1      38.349  22.421  25.560  1.00  0.00    -0.458 OA
BRANCH  23  24
ATOM     24  C   UNL A   1      39.484  22.843  26.194  1.00  0.00     0.338 C 
ATOM     25  O   UNL A   1      40.549  22.242  26.217  1.00  0.00    -0.246 OA
BRANCH  24  26
ATOM     26  C   UNL A   1      39.414  24.252  26.689  1.00  0.00     0.060 A 
ATOM     27  C   UNL A   1      40.258  25.253  26.163  1.00  0.00     0.016 A 
ATOM     28  C   UNL A   1      38.747  24.506  27.884  1.00  0.00     0.016 A 
ATOM     29  C   UNL A   1      40.501  26.444  26.851  1.00  0.00     0.010 A 
ATOM     30  C   UNL A   1      38.963  25.719  28.557  1.00  0.00     0.010 A 
ATOM     31  C   UNL A   1      39.883  26.672  28.076  1.00  0.00    -0.014 A 
BRANCH  31  32
ATOM     32  C   UNL A   1      40.282  27.819  28.935  1.00  0.00     0.031 A 
ATOM     33  C   UNL A   1      41.537  27.706  29.762  1.00  0.00     0.074 A 
ATOM     34  C   UNL A   1      39.525  28.929  29.010  1.00  0.00     0.049 A 
ATOM     35  N   UNL A   1      41.957  28.460  30.744  1.00  0.00    -0.248 NA
ATOM     36  C   UNL A   1      42.428  26.577  29.449  1.00  0.00     0.031 C 
ATOM     37  C   UNL A   1      38.331  29.198  28.209  1.00  0.00     0.029 A 
ATOM     38  N   UNL A   1      39.630  30.026  29.830  1.00  0.00    -0.354 N 
ATOM     39  C   UNL A   1      43.135  27.873  31.197  1.00  0.00     0.074 A 
ATOM     40  C   UNL A   1      43.353  26.691  30.390  1.00  0.00     0.031 C 
ATOM     41  C   UNL A   1      37.792  30.363  28.604  1.00  0.00     0.029 A 
ATOM     42  C   UNL A   1      38.571  30.897  29.719  1.00  0.00     0.049 A 
ATOM     43  H   UNL A   1      40.390  30.175  30.439  1.00  0.00     0.167 HD
ATOM     44  C   UNL A   1      43.955  28.282  32.196  1.00  0.00     0.037 A 
ATOM     45  C   UNL A   1      38.239  31.973  30.461  1.00  0.00     0.037 A 
ATOM     46  C   UNL A   1      43.729  29.469  32.982  1.00  0.00     0.049 A 
ATOM     47  C   UNL A   1      39.130  32.375  31.610  1.00  0.00     0.074 A 
ATOM     48  C   UNL A   1      44.503  29.984  34.007  1.00  0.00     0.029 A 
ATOM     49  N   UNL A   1      42.648  30.328  32.831  1.00  0.00    -0.354 N 
ATOM     50  N   UNL A   1      40.231  31.806  32.041  1.00  0.00    -0.248 NA
ATOM     51  C   UNL A   1      38.735  33.570  32.368  1.00  0.00     0.031 C 
ATOM     52  C   UNL A   1      43.861  31.117  34.516  1.00  0.00     0.029 A 
ATOM     53  C   UNL A   1      42.724  31.356  33.758  1.00  0.00     0.049 A 
ATOM     54  H   UNL A   1      41.932  30.223  32.163  1.00  0.00     0.167 HD
ATOM     55  C   UNL A   1      40.683  32.599  33.093  1.00  0.00     0.074 A 
ATOM     56  C   UNL A   1      39.738  33.688  33.228  1.00  0.00     0.031 C 
ATOM     57  C   UNL A   1      41.784  32.444  33.871  1.00  0.00     0.037 A 
BRANCH  44  58
ATOM     58  C   UNL A   1      45.149  27.423  32.527  1.00  0.00     0.058 A 
ATOM     59  C   UNL A   1      46.385  27.579  31.878  1.00  0.00     0.135 A 
ATOM     60  C   UNL A   1      45.067  26.452  33.541  1.00  0.00     0.135 A 
ATOM     61  F   UNL A   1      46.523  28.480  30.892  1.00  0.00    -0.206 F 
ATOM     62  C   UNL A   1      47.484  26.787  32.201  1.00  0.00     0.059 A 
ATOM     63  C   UNL A   1      46.162  25.673  33.904  1.00  0.00     0.059 A 
ATOM     64  F   UNL A   1      43.912  26.257  34.197  1.00  0.00    -0.206 F 
ATOM     65  C   UNL A   1      47.362  25.837  33.216  1.00  0.00     0.060 A 
BRANCH  65  66
ATOM     66  S   UNL A   1      48.801  24.826  33.628  1.00  0.00     0.124 S 
ATOM     67  O   UNL A   1      48.171  23.563  34.004  1.00  0.00    -0.237 OA
ATOM     68  O   UNL A   1      49.542  24.815  32.372  1.00  0.00    -0.237 OA
ATOM     69  O   UNL A   1      49.432  25.558  34.721  1.00  0.00    -0.744 OA
ENDBRANCH  65  66
ENDBRANCH  44  58
BRANCH  45  70
ATOM     70  C   UNL A   1      37.001  32.739  30.152  1.00  0.00     0.058 A 
ATOM     71  C   UNL A   1      37.012  33.776  29.206  1.00  0.00     0.135 A 
ATOM     72  C   UNL A   1      35.782  32.451  30.787  1.00  0.00     0.135 A 
ATOM     73  F   UNL A   1      38.152  34.100  28.580  1.00  0.00    -0.206 F 
ATOM     74  C   UNL A   1      35.866  34.508  28.913  1.00  0.00     0.059 A 
ATOM     75  C   UNL A   1      34.616  33.148  30.487  1.00  0.00     0.059 A 
ATOM     76  F   UNL A   1      35.712  31.463  31.693  1.00  0.00    -0.206 F 
ATOM     77  C   UNL A   1      34.670  34.183  29.555  1.00  0.00     0.060 A 
BRANCH  77  78
ATOM     78  S   UNL A   1      33.180  35.108  29.125  1.00  0.00     0.124 S 
ATOM     79  O   UNL A   1      32.533  34.202  28.182  1.00  0.00    -0.237 OA
ATOM     80  O   UNL A   1      32.528  35.254  30.423  1.00  0.00    -0.237 OA
ATOM     81  O   UNL A   1      33.704  36.344  28.553  1.00  0.00    -0.744 OA
ENDBRANCH  77  78
ENDBRANCH  45  70
BRANCH  57  82
ATOM     82  C   UNL A   1      42.073  33.513  34.893  1.00  0.00     0.058 A 
ATOM     83  C   UNL A   1      41.565  33.459  36.200  1.00  0.00     0.135 A 
ATOM     84  C   UNL A   1      42.910  34.592  34.563  1.00  0.00     0.135 A 
ATOM     85  F   UNL A   1      40.756  32.454  36.571  1.00  0.00    -0.206 F 
ATOM     86  C   UNL A   1      41.850  34.452  37.133  1.00  0.00     0.059 A 
ATOM     87  C   UNL A   1      43.237  35.578  35.490  1.00  0.00     0.059 A 
ATOM     88  F   UNL A   1      43.434  34.691  33.331  1.00  0.00    -0.206 F 
ATOM     89  C   UNL A   1      42.689  35.508  36.769  1.00  0.00     0.060 A 
BRANCH  89  90
ATOM     90  S   UNL A   1      43.067  36.778  37.994  1.00  0.00     0.124 S 
ATOM     91  O   UNL A   1      44.039  36.092  38.839  1.00  0.00    -0.237 OA
ATOM     92  O   UNL A   1      43.595  37.859  37.167  1.00  0.00    -0.237 OA
ATOM     93  O   UNL A   1      41.774  37.048  38.617  1.00  0.00    -0.744 OA
ENDBRANCH  89  90
ENDBRANCH  57  82
ENDBRANCH  31  32
ENDBRANCH  24  26
ENDBRANCH  23  24
ENDBRANCH  22  23
ENDBRANCH   1  22
TORSDOF 19
ENDMDL
MODEL 3
REMARK VINA RESULT:     -11.7      3.824      9.878
REMARK SMILES N#C[C@@H](c1ccccc1)[C@H](CC(=O)OCCOC(=O)c1ccc(-c2c3nc(c(-c4c(F)cc(S(=O)(=O)[O-])cc4F)c4ccc([nH]4)c(-c4c(F)cc(S(=O)(=O)[O-])cc4F)c4nc(c(-c5c(F)cc(S(=O)(=O)[O-])cc5F)c5ccc2[nH]5)C=C4)C=C3)cc1)c1ccccc1
REMARK SMILES IDX 15 1 14 2 12 3 13 4 11 5 10 6 3 7 2 8 1 9 4 10 5 11 9 12
REMARK SMILES IDX 6 13 8 14 7 15 86 16 87 17 91 18 88 19 90 20 89 21 16 22
REMARK SMILES IDX 17 23 18 24 19 25 20 26 21 27 85 28 22 29 84 30 23 31 24 32
REMARK SMILES IDX 25 33 78 34 26 35 83 36 77 37 79 38 27 39 82 40 76 41 75 42
REMARK SMILES IDX 28 44 62 45 41 46 61 47 42 48 45 49 60 50 80 51 43 52 44 53
REMARK SMILES IDX 59 55 81 56 46 57 29 58 30 59 39 60 31 61 32 62 38 63 40 64
REMARK SMILES IDX 33 65 34 66 35 67 36 68 37 69 63 70 64 71 73 72 65 73 66 74
REMARK SMILES IDX 72 75 74 76 67 77 68 78 69 79 70 80 71 81 47 82 48 83 57 84
REMARK SMILES IDX 49 85 50 86 56 87 58 88 51 89 52 90 53 91 54 92 55 93
REMARK H PARENT 79 43 45 54
REMARK Flexibility Score: inf
ROOT
ATOM      1  C   UNL A   1      37.048  23.225  24.069  1.00  0.00     0.274 C 
ENDROOT
BRANCH   1   2
ATOM      2  O   UNL A   1      35.201  23.820  23.516  1.00  0.00    -0.462 OA
BRANCH   2   3
ATOM      3  C   UNL A   1      34.002  24.070  22.834  1.00  0.00     0.306 C 
ATOM      4  O   UNL A   1      33.605  23.255  21.990  1.00  0.00    -0.252 OA
BRANCH   3   5
ATOM      5  C   UNL A   1      33.102  25.318  23.108  1.00  0.00     0.132 C 
BRANCH   5   6
ATOM      6  C   UNL A   1      31.911  25.441  24.140  1.00  0.00     0.052 C 
BRANCH   6   7
ATOM      7  C   UNL A   1      32.463  25.606  25.578  1.00  0.00     0.130 C 
BRANCH   7   8
ATOM      8  C   UNL A   1      31.691  26.452  26.495  1.00  0.00     0.071 C 
ATOM      9  N   UNL A   1      31.131  27.150  27.234  1.00  0.00    -0.198 NA
ENDBRANCH   7   8
BRANCH   7  10
ATOM     10  C   UNL A   1      32.492  24.192  26.116  1.00  0.00    -0.030 A 
ATOM     11  C   UNL A   1      34.069  23.561  26.712  1.00  0.00     0.005 A 
ATOM     12  C   UNL A   1      31.301  23.047  25.353  1.00  0.00     0.005 A 
ATOM     13  C   UNL A   1      34.435  21.819  26.575  1.00  0.00     0.000 A 
ATOM     14  C   UNL A   1      31.712  21.277  25.187  1.00  0.00     0.000 A 
ATOM     15  C   UNL A   1      33.282  20.680  25.804  1.00  0.00     0.000 A 
ENDBRANCH   7  10
ENDBRANCH   6   7
BRANCH   6  16
ATOM     16  C   UNL A   1      30.813  26.442  23.753  1.00  0.00    -0.043 A 
ATOM     17  C   UNL A   1      29.449  26.214  23.972  1.00  0.00     0.004 A 
ATOM     18  C   UNL A   1      31.183  27.697  23.226  1.00  0.00     0.004 A 
ATOM     19  C   UNL A   1      28.492  27.171  23.621  1.00  0.00     0.000 A 
ATOM     20  C   UNL A   1      30.228  28.646  22.859  1.00  0.00     0.000 A 
ATOM     21  C   UNL A   1      28.879  28.378  23.050  1.00  0.00     0.000 A 
ENDBRANCH   6  16
ENDBRANCH   5   6
ENDBRANCH   3   5
ENDBRANCH   2   3
ENDBRANCH   1   2
BRANCH   1  22
ATOM     22  C   UNL A   1      37.732  23.109  25.654  1.00  0.00     0.275 C 
BRANCH  22  23
ATOM     23  O   UNL A   1      38.877  22.231  25.924  1.00  0.00    -0.458 OA
BRANCH  23  24
ATOM     24  C   UNL A   1      40.056  22.852  26.231  1.00  0.00     0.338 C 
ATOM     25  O   UNL A   1      41.170  22.440  25.942  1.00  0.00    -0.246 OA
BRANCH  24  26
ATOM     26  C   UNL A   1      39.890  24.239  26.764  1.00  0.00     0.060 A 
ATOM     27  C   UNL A   1      40.658  25.310  26.260  1.00  0.00     0.016 A 
ATOM     28  C   UNL A   1      39.215  24.413  27.968  1.00  0.00     0.016 A 
ATOM     29  C   UNL A   1      40.822  26.497  26.979  1.00  0.00     0.010 A 
ATOM     30  C   UNL A   1      39.349  25.621  28.672  1.00  0.00     0.010 A 
ATOM     31  C   UNL A   1      40.197  26.648  28.213  1.00  0.00    -0.014 A 
BRANCH  31  32
ATOM     32  C   UNL A   1      40.519  27.797  29.100  1.00  0.00     0.031 A 
ATOM     33  C   UNL A   1      41.729  27.707  29.996  1.00  0.00     0.074 A 
ATOM     34  C   UNL A   1      39.734  28.889  29.139  1.00  0.00     0.049 A 
ATOM     35  N   UNL A   1      42.075  28.463  31.005  1.00  0.00    -0.248 NA
ATOM     36  C   UNL A   1      42.663  26.601  29.726  1.00  0.00     0.031 C 
ATOM     37  C   UNL A   1      38.580  29.136  28.274  1.00  0.00     0.029 A 
ATOM     38  N   UNL A   1      39.767  29.982  29.971  1.00  0.00    -0.354 N 
ATOM     39  C   UNL A   1      43.239  27.900  31.519  1.00  0.00     0.074 A 
ATOM     40  C   UNL A   1      43.530  26.730  30.719  1.00  0.00     0.031 C 
ATOM     41  C   UNL A   1      37.993  30.285  28.646  1.00  0.00     0.029 A 
ATOM     42  C   UNL A   1      38.695  30.828  29.806  1.00  0.00     0.049 A 
ATOM     43  H   UNL A   1      40.488  30.143  30.622  1.00  0.00     0.167 HD
ATOM     44  C   UNL A   1      43.991  28.320  32.566  1.00  0.00     0.037 A 
ATOM     45  C   UNL A   1      38.297  31.891  30.535  1.00  0.00     0.037 A 
ATOM     46  C   UNL A   1      43.693  29.496  33.345  1.00  0.00     0.049 A 
ATOM     47  C   UNL A   1      39.112  32.305  31.735  1.00  0.00     0.074 A 
ATOM     48  C   UNL A   1      44.397  30.021  34.415  1.00  0.00     0.029 A 
ATOM     49  N   UNL A   1      42.603  30.330  33.139  1.00  0.00    -0.354 N 
ATOM     50  N   UNL A   1      40.200  31.758  32.224  1.00  0.00    -0.248 NA
ATOM     51  C   UNL A   1      38.647  33.484  32.477  1.00  0.00     0.031 C 
ATOM     52  C   UNL A   1      43.700  31.135  34.894  1.00  0.00     0.029 A 
ATOM     53  C   UNL A   1      42.603  31.352  34.075  1.00  0.00     0.049 A 
ATOM     54  H   UNL A   1      41.929  30.214  32.431  1.00  0.00     0.167 HD
ATOM     55  C   UNL A   1      40.573  32.553  33.305  1.00  0.00     0.074 A 
ATOM     56  C   UNL A   1      39.597  33.619  33.393  1.00  0.00     0.031 C 
ATOM     57  C   UNL A   1      41.633  32.418  34.142  1.00  0.00     0.037 A 
BRANCH  44  58
ATOM     58  C   UNL A   1      45.185  27.487  32.957  1.00  0.00     0.058 A 
ATOM     59  C   UNL A   1      45.101  26.463  33.915  1.00  0.00     0.135 A 
ATOM     60  C   UNL A   1      46.428  27.689  32.331  1.00  0.00     0.135 A 
ATOM     61  F   UNL A   1      43.945  26.230  34.557  1.00  0.00    -0.206 F 
ATOM     62  C   UNL A   1      46.209  25.693  34.260  1.00  0.00     0.059 A 
ATOM     63  C   UNL A   1      47.540  26.909  32.636  1.00  0.00     0.059 A 
ATOM     64  F   UNL A   1      46.571  28.652  31.408  1.00  0.00    -0.206 F 
ATOM     65  C   UNL A   1      47.424  25.923  33.613  1.00  0.00     0.060 A 
BRANCH  65  66
ATOM     66  S   UNL A   1      48.848  24.908  34.065  1.00  0.00     0.124 S 
ATOM     67  O   UNL A   1      49.292  25.559  35.294  1.00  0.00    -0.237 OA
ATOM     68  O   UNL A   1      48.249  23.588  34.229  1.00  0.00    -0.237 OA
ATOM     69  O   UNL A   1      49.745  25.049  32.923  1.00  0.00    -0.744 OA
ENDBRANCH  65  66
ENDBRANCH  44  58
BRANCH  45  70
ATOM     70  C   UNL A   1      37.060  32.631  30.161  1.00  0.00     0.058 A 
ATOM     71  C   UNL A   1      35.830  32.330  30.765  1.00  0.00     0.135 A 
ATOM     72  C   UNL A   1      37.080  33.655  29.201  1.00  0.00     0.135 A 
ATOM     73  F   UNL A   1      35.753  31.352  31.679  1.00  0.00    -0.206 F 
ATOM     74  C   UNL A   1      34.663  33.004  30.420  1.00  0.00     0.059 A 
ATOM     75  C   UNL A   1      35.933  34.366  28.862  1.00  0.00     0.059 A 
ATOM     76  F   UNL A   1      38.232  33.991  28.599  1.00  0.00    -0.206 F 
ATOM     77  C   UNL A   1      34.726  34.025  29.470  1.00  0.00     0.060 A 
BRANCH  77  78
ATOM     78  S   UNL A   1      33.213  34.927  29.071  1.00  0.00     0.124 S 
ATOM     79  O   UNL A   1      32.630  34.080  28.036  1.00  0.00    -0.237 OA
ATOM     80  O   UNL A   1      32.519  34.940  30.354  1.00  0.00    -0.237 OA
ATOM     81  O   UNL A   1      33.704  36.225  28.619  1.00  0.00    -0.744 OA
ENDBRANCH  77  78
ENDBRANCH  45  70
BRANCH  57  82
ATOM     82  C   UNL A   1      41.838  33.485  35.186  1.00  0.00     0.058 A 
ATOM     83  C   UNL A   1      41.383  33.342  36.506  1.00  0.00     0.135 A 
ATOM     84  C   UNL A   1      42.542  34.657  34.862  1.00  0.00     0.135 A 
ATOM     85  F   UNL A   1      40.700  32.246  36.872  1.00  0.00    -0.206 F 
ATOM     86  C   UNL A   1      41.590  34.337  37.458  1.00  0.00     0.059 A 
ATOM     87  C   UNL A   1      42.792  35.648  35.807  1.00  0.00     0.059 A 
ATOM     88  F   UNL A   1      43.011  34.844  33.618  1.00  0.00    -0.206 F 
ATOM     89  C   UNL A   1      42.297  35.486  37.099  1.00  0.00     0.060 A 
BRANCH  89  90
ATOM     90  S   UNL A   1      42.576  36.758  38.349  1.00  0.00     0.124 S 
ATOM     91  O   UNL A   1      43.512  37.644  37.664  1.00  0.00    -0.237 OA
ATOM     92  O   UNL A   1      41.233  37.292  38.554  1.00  0.00    -0.237 OA
ATOM     93  O   UNL A   1      43.128  36.014  39.477  1.00  0.00    -0.744 OA
ENDBRANCH  89  90
ENDBRANCH  57  82
ENDBRANCH  31  32
ENDBRANCH  24  26
ENDBRANCH  23  24
ENDBRANCH  22  23
ENDBRANCH   1  22
TORSDOF 19
ENDMDL
