MODEL 1
REMARK VINA RESULT:     -12.3      0.000      0.000
REMARK SMILES CCN1C(=O)[C@H](CC(=O)Nc2ccc(C(=O)OCCOC(=O)c3ccc(-c4c5nc(c(-c6c(F)cc(S(=O)(=O)[O-])cc6F)c6ccc([nH]6)c(-c6c(F)cc(S(=O)(=O)[O-])cc6F)c6nc(c(-c7c(F)cc(S(=O)(=O)[O-])cc7F)c7ccc4[nH]7)C=C6)C=C5)cc3)cc2)S/C1=[NH+]\c1ccc(Cl)cc1
REMARK SMILES IDX 18 1 17 2 15 3 16 4 14 5 11 6 12 7 90 8 13 9 89 10 10 11
REMARK SMILES IDX 8 12 9 13 7 15 6 16 3 17 4 18 92 19 5 20 91 21 93 22 2 24
REMARK SMILES IDX 1 25 94 26 95 27 100 28 96 29 99 30 97 31 98 32 19 33 20 34
REMARK SMILES IDX 21 35 22 36 23 37 24 38 88 39 25 40 87 41 26 42 27 43 28 44
REMARK SMILES IDX 81 45 29 46 86 47 80 48 82 49 30 50 85 51 79 52 78 53 31 55
REMARK SMILES IDX 65 56 44 57 64 58 45 59 48 60 63 61 83 62 46 63 47 64 62 66
REMARK SMILES IDX 84 67 49 68 32 69 33 70 42 71 34 72 35 73 41 74 43 75 36 76
REMARK SMILES IDX 37 77 38 78 39 79 40 80 66 81 67 82 76 83 68 84 69 85 75 86
REMARK SMILES IDX 77 87 70 88 71 89 72 90 73 91 74 92 50 93 51 94 60 95 52 96
REMARK SMILES IDX 53 97 59 98 61 99 54 100 55 101 56 102 57 103 58 104
REMARK H PARENT 10 14 93 23 82 54 48 65
REMARK Flexibility Score: inf
ROOT
ATOM      1  C   UNL A   1      39.357  21.620  26.106  1.00  0.00     0.275 C 
ENDROOT
BRANCH   1   2
ATOM      2  O   UNL A   1      38.018  22.081  25.820  1.00  0.00    -0.458 OA
BRANCH   2   3
ATOM      3  C   UNL A   1      37.141  21.177  25.324  1.00  0.00     0.338 C 
ATOM      4  O   UNL A   1      37.382  20.185  24.660  1.00  0.00    -0.246 OA
BRANCH   3   5
ATOM      5  C   UNL A   1      35.784  21.607  25.702  1.00  0.00     0.060 A 
ATOM      6  C   UNL A   1      33.247  22.382  26.622  1.00  0.00     0.041 A 
ATOM      7  C   UNL A   1      33.416  21.178  25.933  1.00  0.00     0.027 A 
ATOM      8  C   UNL A   1      34.344  23.236  26.749  1.00  0.00     0.027 A 
ATOM      9  C   UNL A   1      34.679  20.782  25.495  1.00  0.00     0.018 A 
ATOM     10  C   UNL A   1      35.613  22.851  26.300  1.00  0.00     0.018 A 
BRANCH   6  11
ATOM     11  N   UNL A   1      31.968  22.592  27.159  1.00  0.00    -0.326 N 
ATOM     12  C   UNL A   1      30.800  23.074  26.659  1.00  0.00     0.226 C 
ATOM     13  O   UNL A   1      29.831  23.158  27.420  1.00  0.00    -0.275 OA
ATOM     14  H   UNL A   1      31.902  22.334  28.107  1.00  0.00     0.169 HD
BRANCH  12  15
ATOM     15  C   UNL A   1      30.649  23.530  25.233  1.00  0.00     0.128 C 
BRANCH  15  16
ATOM     16  C   UNL A   1      31.483  24.735  24.814  1.00  0.00     0.183 C 
ATOM     17  N   UNL A   1      32.192  25.716  22.729  1.00  0.00    -0.190 N 
ATOM     18  C   UNL A   1      32.388  24.654  23.596  1.00  0.00     0.324 C 
ATOM     19  C   UNL A   1      31.212  26.620  23.046  1.00  0.00     0.319 C 
ATOM     20  O   UNL A   1      33.262  23.803  23.465  1.00  0.00    -0.245 OA
ATOM     21  S   UNL A   1      30.423  26.186  24.542  1.00  0.00    -0.022 SA
ATOM     22  N   UNL A   1      30.961  27.657  22.315  1.00  0.00    -0.235 N 
ATOM     23  H   UNL A   1      31.422  27.766  21.453  1.00  0.00     0.313 HD
BRANCH  17  24
ATOM     24  C   UNL A   1      33.108  25.924  21.609  1.00  0.00     0.243 C 
ATOM     25  C   UNL A   1      32.648  25.261  20.325  1.00  0.00     0.054 C 
ENDBRANCH  17  24
BRANCH  22  26
ATOM     26  C   UNL A   1      30.040  28.627  22.734  1.00  0.00     0.125 A 
ATOM     27  C   UNL A   1      28.702  28.564  22.333  1.00  0.00     0.053 A 
ATOM     28  C   UNL A   1      30.474  29.724  23.489  1.00  0.00     0.053 A 
ATOM     29  C   UNL A   1      27.804  29.569  22.711  1.00  0.00     0.025 A 
ATOM     30  C   UNL A   1      29.580  30.724  23.876  1.00  0.00     0.025 A 
ATOM     31  C   UNL A   1      28.247  30.642  23.484  1.00  0.00     0.041 A 
ATOM     32  Cl  UNL A   1      27.147  31.883  23.945  1.00  0.00    -0.084 Cl
ENDBRANCH  22  26
ENDBRANCH  15  16
ENDBRANCH  12  15
ENDBRANCH   6  11
ENDBRANCH   3   5
ENDBRANCH   2   3
ENDBRANCH   1   2
BRANCH   1  33
ATOM     33  C   UNL A   1      40.041  22.592  27.065  1.00  0.00     0.275 C 
BRANCH  33  34
ATOM     34  O   UNL A   1      39.394  23.865  26.924  1.00  0.00    -0.458 OA
BRANCH  34  35
ATOM     35  C   UNL A   1      40.167  24.895  26.513  1.00  0.00     0.338 C 
ATOM     36  O   UNL A   1      40.575  25.109  25.385  1.00  0.00    -0.246 OA
BRANCH  35  37
ATOM     37  C   UNL A   1      40.357  25.811  27.657  1.00  0.00     0.060 A 
ATOM     38  C   UNL A   1      39.449  25.755  28.710  1.00  0.00     0.016 A 
ATOM     39  C   UNL A   1      41.338  26.797  27.647  1.00  0.00     0.016 A 
ATOM     40  C   UNL A   1      39.419  26.756  29.673  1.00  0.00     0.010 A 
ATOM     41  C   UNL A   1      41.403  27.714  28.708  1.00  0.00     0.010 A 
ATOM     42  C   UNL A   1      40.415  27.737  29.713  1.00  0.00    -0.014 A 
BRANCH  42  43
ATOM     43  C   UNL A   1      40.388  28.796  30.770  1.00  0.00     0.031 A 
ATOM     44  C   UNL A   1      41.410  28.782  31.882  1.00  0.00     0.074 A 
ATOM     45  C   UNL A   1      39.481  29.797  30.730  1.00  0.00     0.049 A 
ATOM     46  N   UNL A   1      41.425  29.462  33.001  1.00  0.00    -0.248 NA
ATOM     47  C   UNL A   1      42.552  27.866  31.727  1.00  0.00     0.031 C 
ATOM     48  C   UNL A   1      38.460  29.983  29.693  1.00  0.00     0.029 A 
ATOM     49  N   UNL A   1      39.280  30.864  31.573  1.00  0.00    -0.354 N 
ATOM     50  C   UNL A   1      42.524  28.994  33.717  1.00  0.00     0.074 A 
ATOM     51  C   UNL A   1      43.156  27.981  32.901  1.00  0.00     0.031 C 
ATOM     52  C   UNL A   1      37.797  31.127  29.919  1.00  0.00     0.029 A 
ATOM     53  C   UNL A   1      38.253  31.693  31.182  1.00  0.00     0.049 A 
ATOM     54  H   UNL A   1      39.820  31.020  32.381  1.00  0.00     0.167 HD
ATOM     55  C   UNL A   1      42.957  29.372  34.944  1.00  0.00     0.037 A 
ATOM     56  C   UNL A   1      37.694  32.759  31.790  1.00  0.00     0.037 A 
ATOM     57  C   UNL A   1      42.373  30.441  35.711  1.00  0.00     0.049 A 
ATOM     58  C   UNL A   1      38.194  33.165  33.147  1.00  0.00     0.074 A 
ATOM     59  C   UNL A   1      42.736  30.905  36.964  1.00  0.00     0.029 A 
ATOM     60  N   UNL A   1      41.319  31.236  35.285  1.00  0.00    -0.354 N 
ATOM     61  N   UNL A   1      39.163  32.639  33.857  1.00  0.00    -0.248 NA
ATOM     62  C   UNL A   1      37.503  34.285  33.799  1.00  0.00     0.031 C 
ATOM     63  C   UNL A   1      41.887  31.964  37.304  1.00  0.00     0.029 A 
ATOM     64  C   UNL A   1      41.019  32.185  36.248  1.00  0.00     0.049 A 
ATOM     65  H   UNL A   1      40.852  31.139  34.424  1.00  0.00     0.167 HD
ATOM     66  C   UNL A   1      39.196  33.362  35.043  1.00  0.00     0.074 A 
ATOM     67  C   UNL A   1      38.170  34.381  34.941  1.00  0.00     0.031 C 
ATOM     68  C   UNL A   1      39.993  33.190  36.126  1.00  0.00     0.037 A 
BRANCH  55  69
ATOM     69  C   UNL A   1      44.093  28.594  35.553  1.00  0.00     0.058 A 
ATOM     70  C   UNL A   1      43.882  27.462  36.357  1.00  0.00     0.135 A 
ATOM     71  C   UNL A   1      45.420  28.984  35.311  1.00  0.00     0.135 A 
ATOM     72  F   UNL A   1      42.635  27.055  36.638  1.00  0.00    -0.206 F 
ATOM     73  C   UNL A   1      44.947  26.764  36.923  1.00  0.00     0.059 A 
ATOM     74  C   UNL A   1      46.500  28.286  35.844  1.00  0.00     0.059 A 
ATOM     75  F   UNL A   1      45.680  30.058  34.549  1.00  0.00    -0.206 F 
ATOM     76  C   UNL A   1      46.252  27.187  36.664  1.00  0.00     0.060 A 
BRANCH  76  77
ATOM     77  S   UNL A   1      47.624  26.280  37.411  1.00  0.00     0.124 S 
ATOM     78  O   UNL A   1      46.916  25.371  38.307  1.00  0.00    -0.237 OA
ATOM     79  O   UNL A   1      48.258  25.660  36.252  1.00  0.00    -0.237 OA
ATOM     80  O   UNL A   1      48.405  27.326  38.065  1.00  0.00    -0.744 OA
ENDBRANCH  76  77
ENDBRANCH  55  69
BRANCH  56  81
ATOM     81  C   UNL A   1      36.558  33.473  31.146  1.00  0.00     0.058 A 
ATOM     82  C   UNL A   1      36.745  34.236  29.985  1.00  0.00     0.135 A 
ATOM     83  C   UNL A   1      35.256  33.386  31.666  1.00  0.00     0.135 A 
ATOM     84  F   UNL A   1      37.972  34.364  29.456  1.00  0.00    -0.206 F 
ATOM     85  C   UNL A   1      35.684  34.889  29.362  1.00  0.00     0.059 A 
ATOM     86  C   UNL A   1      34.176  34.003  31.045  1.00  0.00     0.059 A 
ATOM     87  F   UNL A   1      35.019  32.661  32.771  1.00  0.00    -0.206 F 
ATOM     88  C   UNL A   1      34.401  34.760  29.897  1.00  0.00     0.060 A 
BRANCH  88  89
ATOM     89  S   UNL A   1      33.017  35.551  29.047  1.00  0.00     0.124 S 
ATOM     90  O   UNL A   1      32.614  34.507  28.111  1.00  0.00    -0.237 OA
ATOM     91  O   UNL A   1      32.091  35.818  30.143  1.00  0.00    -0.237 OA
ATOM     92  O   UNL A   1      33.626  36.735  28.449  1.00  0.00    -0.744 OA
ENDBRANCH  88  89
ENDBRANCH  56  81
BRANCH  68  93
ATOM     93  C   UNL A   1      39.798  34.141  37.272  1.00  0.00     0.058 A 
ATOM     94  C   UNL A   1      39.000  33.804  38.376  1.00  0.00     0.135 A 
ATOM     95  C   UNL A   1      40.426  35.395  37.270  1.00  0.00     0.135 A 
ATOM     96  F   UNL A   1      38.371  32.618  38.419  1.00  0.00    -0.206 F 
ATOM     97  C   UNL A   1      38.808  34.691  39.429  1.00  0.00     0.059 A 
ATOM     98  C   UNL A   1      40.267  36.289  38.324  1.00  0.00     0.059 A 
ATOM     99  F   UNL A   1      41.206  35.760  36.241  1.00  0.00    -0.206 F 
ATOM    100  C   UNL A   1      39.442  35.935  39.391  1.00  0.00     0.060 A 
BRANCH 100 101
ATOM    101  S   UNL A   1      39.195  37.078  40.766  1.00  0.00     0.124 S 
ATOM    102  O   UNL A   1      38.431  38.143  40.126  1.00  0.00    -0.237 OA
ATOM    103  O   UNL A   1      38.462  36.260  41.728  1.00  0.00    -0.237 OA
ATOM    104  O   UNL A   1      40.555  37.430  41.161  1.00  0.00    -0.744 OA
ENDBRANCH 100 101
ENDBRANCH  68  93
ENDBRANCH  42  43
ENDBRANCH  35  37
ENDBRANCH  34  35
ENDBRANCH  33  34
ENDBRANCH   1  33
TORSDOF 19
ENDMDL
MODEL 2
REMARK VINA RESULT:     -12.3      6.638     12.228
REMARK SMILES CCN1C(=O)[C@H](CC(=O)Nc2ccc(C(=O)OCCOC(=O)c3ccc(-c4c5nc(c(-c6c(F)cc(S(=O)(=O)[O-])cc6F)c6ccc([nH]6)c(-c6c(F)cc(S(=O)(=O)[O-])cc6F)c6nc(c(-c7c(F)cc(S(=O)(=O)[O-])cc7F)c7ccc4[nH]7)C=C6)C=C5)cc3)cc2)S/C1=[NH+]\c1ccc(Cl)cc1
REMARK SMILES IDX 18 1 17 2 15 3 16 4 14 5 11 6 12 7 90 8 13 9 89 10 10 11
REMARK SMILES IDX 8 12 9 13 7 15 6 16 3 17 4 18 92 19 5 20 91 21 93 22 2 24
REMARK SMILES IDX 1 25 94 26 95 27 100 28 96 29 99 30 97 31 98 32 19 33 20 34
REMARK SMILES IDX 21 35 22 36 23 37 24 38 88 39 25 40 87 41 26 42 27 43 28 44
REMARK SMILES IDX 81 45 29 46 86 47 80 48 82 49 30 50 85 51 79 52 78 53 31 55
REMARK SMILES IDX 65 56 44 57 64 58 45 59 48 60 63 61 83 62 46 63 47 64 62 66
REMARK SMILES IDX 84 67 49 68 32 69 33 70 42 71 34 72 35 73 41 74 43 75 36 76
REMARK SMILES IDX 37 77 38 78 39 79 40 80 66 81 67 82 76 83 68 84 69 85 75 86
REMARK SMILES IDX 77 87 70 88 71 89 72 90 73 91 74 92 50 93 51 94 60 95 52 96
REMARK SMILES IDX 53 97 59 98 61 99 54 100 55 101 56 102 57 103 58 104
REMARK H PARENT 10 14 93 23 82 54 48 65
REMARK Flexibility Score: inf
ROOT
ATOM      1  C   UNL A   1      33.437  31.151  27.608  1.00  0.00     0.275 C 
ENDROOT
BRANCH   1   2
ATOM      2  O   UNL A   1      32.410  30.250  27.141  1.00  0.00    -0.458 OA
BRANCH   2   3
ATOM      3  C   UNL A   1      31.728  30.606  26.027  1.00  0.00     0.338 C 
ATOM      4  O   UNL A   1      30.975  31.551  25.880  1.00  0.00    -0.246 OA
BRANCH   3   5
ATOM      5  C   UNL A   1      32.026  29.618  24.977  1.00  0.00     0.060 A 
ATOM      6  C   UNL A   1      32.709  27.883  22.877  1.00  0.00     0.041 A 
ATOM      7  C   UNL A   1      31.420  28.416  22.968  1.00  0.00     0.027 A 
ATOM      8  C   UNL A   1      33.613  28.147  23.907  1.00  0.00     0.027 A 
ATOM      9  C   UNL A   1      31.087  29.295  23.998  1.00  0.00     0.018 A 
ATOM     10  C   UNL A   1      33.282  29.019  24.952  1.00  0.00     0.018 A 
BRANCH   6  11
ATOM     11  N   UNL A   1      32.974  27.150  21.710  1.00  0.00    -0.326 N 
ATOM     12  C   UNL A   1      32.652  25.901  21.285  1.00  0.00     0.226 C 
ATOM     13  O   UNL A   1      33.072  25.534  20.183  1.00  0.00    -0.275 OA
ATOM     14  H   UNL A   1      33.512  27.651  21.056  1.00  0.00     0.169 HD
BRANCH  12  15
ATOM     15  C   UNL A   1      31.832  24.944  22.107  1.00  0.00     0.128 C 
BRANCH  15  16
ATOM     16  C   UNL A   1      32.496  24.382  23.359  1.00  0.00     0.183 C 
ATOM     17  N   UNL A   1      31.752  23.360  25.410  1.00  0.00    -0.190 N 
ATOM     18  C   UNL A   1      31.840  24.556  24.718  1.00  0.00     0.324 C 
ATOM     19  C   UNL A   1      32.195  22.227  24.778  1.00  0.00     0.319 C 
ATOM     20  O   UNL A   1      31.532  25.649  25.180  1.00  0.00    -0.245 OA
ATOM     21  S   UNL A   1      32.795  22.598  23.181  1.00  0.00    -0.022 SA
ATOM     22  N   UNL A   1      32.174  21.063  25.342  1.00  0.00    -0.235 N 
ATOM     23  H   UNL A   1      31.748  20.959  26.223  1.00  0.00     0.313 HD
BRANCH  17  24
ATOM     24  C   UNL A   1      31.340  23.356  26.814  1.00  0.00     0.243 C 
ATOM     25  C   UNL A   1      29.858  23.099  27.005  1.00  0.00     0.054 C 
ENDBRANCH  17  24
BRANCH  22  26
ATOM     26  C   UNL A   1      32.751  19.950  24.717  1.00  0.00     0.125 A 
ATOM     27  C   UNL A   1      32.042  19.222  23.755  1.00  0.00     0.053 A 
ATOM     28  C   UNL A   1      34.016  19.500  25.115  1.00  0.00     0.053 A 
ATOM     29  C   UNL A   1      32.606  18.079  23.178  1.00  0.00     0.025 A 
ATOM     30  C   UNL A   1      34.586  18.365  24.535  1.00  0.00     0.025 A 
ATOM     31  C   UNL A   1      33.877  17.658  23.568  1.00  0.00     0.041 A 
ATOM     32  Cl  UNL A   1      34.572  16.249  22.865  1.00  0.00    -0.084 Cl
ENDBRANCH  22  26
ENDBRANCH  15  16
ENDBRANCH  12  15
ENDBRANCH   6  11
ENDBRANCH   3   5
ENDBRANCH   2   3
ENDBRANCH   1   2
BRANCH   1  33
ATOM     33  C   UNL A   1      34.670  30.353  28.027  1.00  0.00     0.275 C 
BRANCH  33  34
ATOM     34  O   UNL A   1      35.632  31.284  28.543  1.00  0.00    -0.458 OA
BRANCH  34  35
ATOM     35  C   UNL A   1      36.252  30.939  29.694  1.00  0.00     0.338 C 
ATOM     36  O   UNL A   1      35.819  31.046  30.828  1.00  0.00    -0.246 OA
BRANCH  35  37
ATOM     37  C   UNL A   1      37.533  30.290  29.348  1.00  0.00     0.060 A 
ATOM     38  C   UNL A   1      38.362  29.866  30.383  1.00  0.00     0.016 A 
ATOM     39  C   UNL A   1      37.979  30.207  28.033  1.00  0.00     0.016 A 
ATOM     40  C   UNL A   1      39.678  29.497  30.130  1.00  0.00     0.010 A 
ATOM     41  C   UNL A   1      39.254  29.684  27.771  1.00  0.00     0.010 A 
ATOM     42  C   UNL A   1      40.142  29.366  28.818  1.00  0.00    -0.014 A 
BRANCH  42  43
ATOM     43  C   UNL A   1      41.554  28.943  28.557  1.00  0.00     0.031 A 
ATOM     44  C   UNL A   1      42.681  29.938  28.704  1.00  0.00     0.074 A 
ATOM     45  C   UNL A   1      41.849  27.667  28.225  1.00  0.00     0.049 A 
ATOM     46  N   UNL A   1      43.927  29.840  28.316  1.00  0.00    -0.248 NA
ATOM     47  C   UNL A   1      42.359  31.219  29.352  1.00  0.00     0.031 C 
ATOM     48  C   UNL A   1      40.880  26.573  28.093  1.00  0.00     0.029 A 
ATOM     49  N   UNL A   1      43.054  27.062  27.955  1.00  0.00    -0.354 N 
ATOM     50  C   UNL A   1      44.511  31.073  28.592  1.00  0.00     0.074 A 
ATOM     51  C   UNL A   1      43.486  31.898  29.191  1.00  0.00     0.031 C 
ATOM     52  C   UNL A   1      41.532  25.427  27.845  1.00  0.00     0.029 A 
ATOM     53  C   UNL A   1      42.948  25.719  27.672  1.00  0.00     0.049 A 
ATOM     54  H   UNL A   1      43.912  27.545  27.964  1.00  0.00     0.167 HD
ATOM     55  C   UNL A   1      45.783  31.478  28.359  1.00  0.00     0.037 A 
ATOM     56  C   UNL A   1      43.871  24.825  27.262  1.00  0.00     0.037 A 
ATOM     57  C   UNL A   1      46.820  30.623  27.842  1.00  0.00     0.049 A 
ATOM     58  C   UNL A   1      45.276  25.294  27.016  1.00  0.00     0.074 A 
ATOM     59  C   UNL A   1      48.142  30.933  27.570  1.00  0.00     0.029 A 
ATOM     60  N   UNL A   1      46.659  29.276  27.546  1.00  0.00    -0.354 N 
ATOM     61  N   UNL A   1      45.784  26.492  27.178  1.00  0.00    -0.248 NA
ATOM     62  C   UNL A   1      46.225  24.298  26.499  1.00  0.00     0.031 C 
ATOM     63  C   UNL A   1      48.773  29.781  27.088  1.00  0.00     0.029 A 
ATOM     64  C   UNL A   1      47.856  28.743  27.095  1.00  0.00     0.049 A 
ATOM     65  H   UNL A   1      45.819  28.774  27.642  1.00  0.00     0.167 HD
ATOM     66  C   UNL A   1      47.112  26.397  26.780  1.00  0.00     0.074 A 
ATOM     67  C   UNL A   1      47.336  25.016  26.398  1.00  0.00     0.031 C 
ATOM     68  C   UNL A   1      48.057  27.367  26.720  1.00  0.00     0.037 A 
BRANCH  55  69
ATOM     69  C   UNL A   1      46.115  32.923  28.620  1.00  0.00     0.058 A 
ATOM     70  C   UNL A   1      45.967  33.917  27.639  1.00  0.00     0.135 A 
ATOM     71  C   UNL A   1      46.575  33.320  29.886  1.00  0.00     0.135 A 
ATOM     72  F   UNL A   1      45.550  33.592  26.405  1.00  0.00    -0.206 F 
ATOM     73  C   UNL A   1      46.292  35.247  27.897  1.00  0.00     0.059 A 
ATOM     74  C   UNL A   1      46.881  34.647  30.174  1.00  0.00     0.059 A 
ATOM     75  F   UNL A   1      46.734  32.412  30.862  1.00  0.00    -0.206 F 
ATOM     76  C   UNL A   1      46.753  35.600  29.166  1.00  0.00     0.060 A 
BRANCH  76  77
ATOM     77  S   UNL A   1      47.181  37.326  29.486  1.00  0.00     0.124 S 
ATOM     78  O   UNL A   1      47.972  37.652  28.303  1.00  0.00    -0.237 OA
ATOM     79  O   UNL A   1      45.871  37.965  29.566  1.00  0.00    -0.237 OA
ATOM     80  O   UNL A   1      47.923  37.264  30.741  1.00  0.00    -0.744 OA
ENDBRANCH  76  77
ENDBRANCH  55  69
BRANCH  56  81
ATOM     81  C   UNL A   1      43.476  23.415  26.999  1.00  0.00     0.058 A 
ATOM     82  C   UNL A   1      43.293  22.504  28.049  1.00  0.00     0.135 A 
ATOM     83  C   UNL A   1      43.248  22.955  25.691  1.00  0.00     0.135 A 
ATOM     84  F   UNL A   1      43.513  22.888  29.316  1.00  0.00    -0.206 F 
ATOM     85  C   UNL A   1      42.901  21.188  27.815  1.00  0.00     0.059 A 
ATOM     86  C   UNL A   1      42.826  21.655  25.434  1.00  0.00     0.059 A 
ATOM     87  F   UNL A   1      43.399  23.788  24.649  1.00  0.00    -0.206 F 
ATOM     88  C   UNL A   1      42.664  20.776  26.502  1.00  0.00     0.060 A 
BRANCH  88  89
ATOM     89  S   UNL A   1      42.088  19.090  26.207  1.00  0.00     0.124 S 
ATOM     90  O   UNL A   1      43.014  18.640  25.175  1.00  0.00    -0.237 OA
ATOM     91  O   UNL A   1      42.246  18.473  27.520  1.00  0.00    -0.237 OA
ATOM     92  O   UNL A   1      40.706  19.280  25.777  1.00  0.00    -0.744 OA
ENDBRANCH  88  89
ENDBRANCH  56  81
BRANCH  68  93
ATOM     93  C   UNL A   1      49.422  26.957  26.246  1.00  0.00     0.058 A 
ATOM     94  C   UNL A   1      50.341  26.336  27.107  1.00  0.00     0.135 A 
ATOM     95  C   UNL A   1      49.807  27.174  24.914  1.00  0.00     0.135 A 
ATOM     96  F   UNL A   1      50.021  26.115  28.392  1.00  0.00    -0.206 F 
ATOM     97  C   UNL A   1      51.609  25.971  26.669  1.00  0.00     0.059 A 
ATOM     98  C   UNL A   1      51.062  26.795  24.450  1.00  0.00     0.059 A 
ATOM     99  F   UNL A   1      48.961  27.756  24.051  1.00  0.00    -0.206 F 
ATOM    100  C   UNL A   1      51.962  26.209  25.340  1.00  0.00     0.060 A 
BRANCH 100 101
ATOM    101  S   UNL A   1      53.608  25.723  24.779  1.00  0.00     0.124 S 
ATOM    102  O   UNL A   1      54.375  26.936  25.041  1.00  0.00    -0.237 OA
ATOM    103  O   UNL A   1      53.910  24.582  25.637  1.00  0.00    -0.237 OA
ATOM    104  O   UNL A   1      53.403  25.402  23.370  1.00  0.00    -0.744 OA
ENDBRANCH 100 101
ENDBRANCH  68  93
ENDBRANCH  42  43
ENDBRANCH  35  37
ENDBRANCH  34  35
ENDBRANCH  33  34
ENDBRANCH   1  33
TORSDOF 19
ENDMDL
MODEL 3
REMARK VINA RESULT:     -12.1      2.186      3.504
REMARK SMILES CCN1C(=O)[C@H](CC(=O)Nc2ccc(C(=O)OCCOC(=O)c3ccc(-c4c5nc(c(-c6c(F)cc(S(=O)(=O)[O-])cc6F)c6ccc([nH]6)c(-c6c(F)cc(S(=O)(=O)[O-])cc6F)c6nc(c(-c7c(F)cc(S(=O)(=O)[O-])cc7F)c7ccc4[nH]7)C=C6)C=C5)cc3)cc2)S/C1=[NH+]\c1ccc(Cl)cc1
REMARK SMILES IDX 18 1 17 2 15 3 16 4 14 5 11 6 12 7 90 8 13 9 89 10 10 11
REMARK SMILES IDX 8 12 9 13 7 15 6 16 3 17 4 18 92 19 5 20 91 21 93 22 2 24
REMARK SMILES IDX 1 25 94 26 95 27 100 28 96 29 99 30 97 31 98 32 19 33 20 34
REMARK SMILES IDX 21 35 22 36 23 37 24 38 88 39 25 40 87 41 26 42 27 43 28 44
REMARK SMILES IDX 81 45 29 46 86 47 80 48 82 49 30 50 85 51 79 52 78 53 31 55
REMARK SMILES IDX 65 56 44 57 64 58 45 59 48 60 63 61 83 62 46 63 47 64 62 66
REMARK SMILES IDX 84 67 49 68 32 69 33 70 42 71 34 72 35 73 41 74 43 75 36 76
REMARK SMILES IDX 37 77 38 78 39 79 40 80 66 81 67 82 76 83 68 84 69 85 75 86
REMARK SMILES IDX 77 87 70 88 71 89 72 90 73 91 74 92 50 93 51 94 60 95 52 96
REMARK SMILES IDX 53 97 59 98 61 99 54 100 55 101 56 102 57 103 58 104
REMARK H PARENT 10 14 93 23 82 54 48 65
REMARK Flexibility Score: inf
ROOT
ATOM      1  C   UNL A   1      38.611  21.586  25.635  1.00  0.00     0.275 C 
ENDROOT
BRANCH   1   2
ATOM      2  O   UNL A   1      37.518  22.526  25.558  1.00  0.00    -0.458 OA
BRANCH   2   3
ATOM      3  C   UNL A   1      36.262  22.020  25.550  1.00  0.00     0.338 C 
ATOM      4  O   UNL A   1      35.924  20.855  25.460  1.00  0.00    -0.246 OA
BRANCH   3   5
ATOM      5  C   UNL A   1      35.319  23.148  25.644  1.00  0.00     0.060 A 
ATOM      6  C   UNL A   1      33.681  25.416  25.890  1.00  0.00     0.041 A 
ATOM      7  C   UNL A   1      33.592  24.371  26.814  1.00  0.00     0.027 A 
ATOM      8  C   UNL A   1      34.523  25.260  24.787  1.00  0.00     0.027 A 
ATOM      9  C   UNL A   1      34.420  23.255  26.705  1.00  0.00     0.018 A 
ATOM     10  C   UNL A   1      35.349  24.135  24.664  1.00  0.00     0.018 A 
BRANCH   6  11
ATOM     11  N   UNL A   1      32.922  26.555  26.197  1.00  0.00    -0.326 N 
ATOM     12  C   UNL A   1      31.595  26.790  26.365  1.00  0.00     0.226 C 
ATOM     13  O   UNL A   1      31.234  27.945  26.613  1.00  0.00    -0.275 OA
ATOM     14  H   UNL A   1      33.473  27.363  26.317  1.00  0.00     0.169 HD
BRANCH  12  15
ATOM     15  C   UNL A   1      30.552  25.712  26.237  1.00  0.00     0.128 C 
BRANCH  15  16
ATOM     16  C   UNL A   1      30.291  25.184  24.831  1.00  0.00     0.183 C 
ATOM     17  N   UNL A   1      31.480  25.167  22.735  1.00  0.00    -0.190 N 
ATOM     18  C   UNL A   1      30.772  25.963  23.619  1.00  0.00     0.324 C 
ATOM     19  C   UNL A   1      31.690  23.859  23.088  1.00  0.00     0.319 C 
ATOM     20  O   UNL A   1      30.465  27.132  23.408  1.00  0.00    -0.245 OA
ATOM     21  S   UNL A   1      30.970  23.509  24.640  1.00  0.00    -0.022 SA
ATOM     22  N   UNL A   1      32.322  23.027  22.326  1.00  0.00    -0.235 N 
ATOM     23  H   UNL A   1      32.748  23.352  21.501  1.00  0.00     0.313 HD
BRANCH  17  24
ATOM     24  C   UNL A   1      31.845  25.684  21.416  1.00  0.00     0.243 C 
ATOM     25  C   UNL A   1      33.193  26.377  21.394  1.00  0.00     0.054 C 
ENDBRANCH  17  24
BRANCH  22  26
ATOM     26  C   UNL A   1      32.409  21.669  22.660  1.00  0.00     0.125 A 
ATOM     27  C   UNL A   1      31.973  20.683  21.769  1.00  0.00     0.053 A 
ATOM     28  C   UNL A   1      32.855  21.288  23.932  1.00  0.00     0.053 A 
ATOM     29  C   UNL A   1      32.013  19.333  22.135  1.00  0.00     0.025 A 
ATOM     30  C   UNL A   1      32.905  19.942  24.299  1.00  0.00     0.025 A 
ATOM     31  C   UNL A   1      32.482  18.969  23.397  1.00  0.00     0.041 A 
ATOM     32  Cl  UNL A   1      32.526  17.310  23.854  1.00  0.00    -0.084 Cl
ENDBRANCH  22  26
ENDBRANCH  15  16
ENDBRANCH  12  15
ENDBRANCH   6  11
ENDBRANCH   3   5
ENDBRANCH   2   3
ENDBRANCH   1   2
BRANCH   1  33
ATOM     33  C   UNL A   1      39.673  22.111  26.600  1.00  0.00     0.275 C 
BRANCH  33  34
ATOM     34  O   UNL A   1      39.520  23.535  26.677  1.00  0.00    -0.458 OA
BRANCH  34  35
ATOM     35  C   UNL A   1      40.656  24.266  26.716  1.00  0.00     0.338 C 
ATOM     36  O   UNL A   1      41.677  24.081  26.077  1.00  0.00    -0.246 OA
BRANCH  35  37
ATOM     37  C   UNL A   1      40.426  25.426  27.602  1.00  0.00     0.060 A 
ATOM     38  C   UNL A   1      41.260  26.534  27.474  1.00  0.00     0.016 A 
ATOM     39  C   UNL A   1      39.489  25.386  28.628  1.00  0.00     0.016 A 
ATOM     40  C   UNL A   1      41.265  27.532  28.441  1.00  0.00     0.010 A 
ATOM     41  C   UNL A   1      39.390  26.472  29.512  1.00  0.00     0.010 A 
ATOM     42  C   UNL A   1      40.308  27.540  29.462  1.00  0.00    -0.014 A 
BRANCH  42  43
ATOM     43  C   UNL A   1      40.307  28.633  30.484  1.00  0.00     0.031 A 
ATOM     44  C   UNL A   1      41.351  28.650  31.575  1.00  0.00     0.074 A 
ATOM     45  C   UNL A   1      39.404  29.637  30.428  1.00  0.00     0.049 A 
ATOM     46  N   UNL A   1      41.393  29.367  32.669  1.00  0.00    -0.248 NA
ATOM     47  C   UNL A   1      42.486  27.724  31.427  1.00  0.00     0.031 C 
ATOM     48  C   UNL A   1      38.363  29.794  29.407  1.00  0.00     0.029 A 
ATOM     49  N   UNL A   1      39.225  30.733  31.239  1.00  0.00    -0.354 N 
ATOM     50  C   UNL A   1      42.503  28.917  33.378  1.00  0.00     0.074 A 
ATOM     51  C   UNL A   1      43.114  27.874  32.585  1.00  0.00     0.031 C 
ATOM     52  C   UNL A   1      37.711  30.949  29.608  1.00  0.00     0.029 A 
ATOM     53  C   UNL A   1      38.195  31.555  30.841  1.00  0.00     0.049 A 
ATOM     54  H   UNL A   1      39.783  30.913  32.031  1.00  0.00     0.167 HD
ATOM     55  C   UNL A   1      42.963  29.333  34.583  1.00  0.00     0.037 A 
ATOM     56  C   UNL A   1      37.654  32.643  31.425  1.00  0.00     0.037 A 
ATOM     57  C   UNL A   1      42.400  30.430  35.327  1.00  0.00     0.049 A 
ATOM     58  C   UNL A   1      38.183  33.090  32.757  1.00  0.00     0.074 A 
ATOM     59  C   UNL A   1      42.791  30.934  36.556  1.00  0.00     0.029 A 
ATOM     60  N   UNL A   1      41.341  31.216  34.895  1.00  0.00    -0.354 N 
ATOM     61  N   UNL A   1      39.164  32.583  33.465  1.00  0.00    -0.248 NA
ATOM     62  C   UNL A   1      37.510  34.235  33.386  1.00  0.00     0.031 C 
ATOM     63  C   UNL A   1      41.954  32.008  36.877  1.00  0.00     0.029 A 
ATOM     64  C   UNL A   1      41.065  32.199  35.832  1.00  0.00     0.049 A 
ATOM     65  H   UNL A   1      40.856  31.094  34.047  1.00  0.00     0.167 HD
ATOM     66  C   UNL A   1      39.224  33.345  34.626  1.00  0.00     0.074 A 
ATOM     67  C   UNL A   1      38.201  34.366  34.510  1.00  0.00     0.031 C 
ATOM     68  C   UNL A   1      40.042  33.204  35.697  1.00  0.00     0.037 A 
BRANCH  55  69
ATOM     69  C   UNL A   1      44.107  28.569  35.196  1.00  0.00     0.058 A 
ATOM     70  C   UNL A   1      45.448  28.929  34.988  1.00  0.00     0.135 A 
ATOM     71  C   UNL A   1      43.849  27.463  36.022  1.00  0.00     0.135 A 
ATOM     72  F   UNL A   1      45.754  29.965  34.192  1.00  0.00    -0.206 F 
ATOM     73  C   UNL A   1      46.492  28.200  35.552  1.00  0.00     0.059 A 
ATOM     74  C   UNL A   1      44.875  26.736  36.618  1.00  0.00     0.059 A 
ATOM     75  F   UNL A   1      42.585  27.075  36.256  1.00  0.00    -0.206 F 
ATOM     76  C   UNL A   1      46.195  27.103  36.363  1.00  0.00     0.060 A 
BRANCH  76  77
ATOM     77  S   UNL A   1      47.557  26.160  37.082  1.00  0.00     0.124 S 
ATOM     78  O   UNL A   1      48.393  25.917  35.910  1.00  0.00    -0.237 OA
ATOM     79  O   UNL A   1      48.101  27.092  38.064  1.00  0.00    -0.237 OA
ATOM     80  O   UNL A   1      46.898  24.982  37.638  1.00  0.00    -0.744 OA
ENDBRANCH  76  77
ENDBRANCH  55  69
BRANCH  56  81
ATOM     81  C   UNL A   1      36.508  33.341  30.781  1.00  0.00     0.058 A 
ATOM     82  C   UNL A   1      35.219  33.282  31.331  1.00  0.00     0.135 A 
ATOM     83  C   UNL A   1      36.684  34.103  29.614  1.00  0.00     0.135 A 
ATOM     84  F   UNL A   1      34.995  32.554  32.436  1.00  0.00    -0.206 F 
ATOM     85  C   UNL A   1      34.146  33.950  30.749  1.00  0.00     0.059 A 
ATOM     86  C   UNL A   1      35.634  34.806  29.032  1.00  0.00     0.059 A 
ATOM     87  F   UNL A   1      37.898  34.202  29.051  1.00  0.00    -0.206 F 
ATOM     88  C   UNL A   1      34.366  34.716  29.602  1.00  0.00     0.060 A 
BRANCH  88  89
ATOM     89  S   UNL A   1      32.986  35.639  28.890  1.00  0.00     0.124 S 
ATOM     90  O   UNL A   1      32.339  34.616  28.076  1.00  0.00    -0.237 OA
ATOM     91  O   UNL A   1      32.254  36.068  30.077  1.00  0.00    -0.237 OA
ATOM     92  O   UNL A   1      33.647  36.710  28.150  1.00  0.00    -0.744 OA
ENDBRANCH  88  89
ENDBRANCH  56  81
BRANCH  68  93
ATOM     93  C   UNL A   1      39.874  34.194  36.815  1.00  0.00     0.058 A 
ATOM     94  C   UNL A   1      39.022  33.936  37.900  1.00  0.00     0.135 A 
ATOM     95  C   UNL A   1      40.584  35.405  36.805  1.00  0.00     0.135 A 
ATOM     96  F   UNL A   1      38.316  32.796  37.949  1.00  0.00    -0.206 F 
ATOM     97  C   UNL A   1      38.857  34.860  38.926  1.00  0.00     0.059 A 
ATOM     98  C   UNL A   1      40.451  36.332  37.832  1.00  0.00     0.059 A 
ATOM     99  F   UNL A   1      41.417  35.693  35.793  1.00  0.00    -0.206 F 
ATOM    100  C   UNL A   1      39.573  36.059  38.881  1.00  0.00     0.060 A 
BRANCH 100 101
ATOM    101  S   UNL A   1      39.359  37.249  40.220  1.00  0.00     0.124 S 
ATOM    102  O   UNL A   1      38.556  38.279  39.570  1.00  0.00    -0.237 OA
ATOM    103  O   UNL A   1      38.674  36.458  41.238  1.00  0.00    -0.237 OA
ATOM    104  O   UNL A   1      40.727  37.634  40.552  1.00  0.00    -0.744 OA
ENDBRANCH 100 101
ENDBRANCH  68  93
ENDBRANCH  42  43
ENDBRANCH  35  37
ENDBRANCH  34  35
ENDBRANCH  33  34
ENDBRANCH   1  33
TORSDOF 19
ENDMDL
