MODEL 1
REMARK VINA RESULT:     -11.7      0.000      0.000
REMARK SMILES COC(=O)c1c(NC(=O)[C@@H]2[C@H]3CC[C@H](CC3)[C@H]2C(=O)OCCOC(=O)c2ccc(-c3c4nc(c(-c5c(F)cc(S(=O)(=O)[O-])cc5F)c5ccc([nH]5)c(-c5c(F)cc(S(=O)(=O)[O-])cc5F)c5nc(c(-c6c(F)cc(S(=O)(=O)[O-])cc6F)c6ccc3[nH]6)C=C5)C=C4)cc2)sc(C)c1-c1ccc(C)cc1
REMARK SMILES IDX 21 1 20 2 18 3 19 4 17 5 10 6 11 7 12 8 16 9 14 10 13 11
REMARK SMILES IDX 15 12 8 13 7 14 9 16 6 17 5 18 95 19 92 20 93 21 94 22 3 23
REMARK SMILES IDX 4 24 2 25 1 26 96 27 97 28 102 29 98 30 101 31 99 32 100 33
REMARK SMILES IDX 22 34 23 35 24 36 25 37 26 38 27 39 91 40 28 41 90 42 29 43
REMARK SMILES IDX 30 44 31 45 84 46 32 47 89 48 83 49 85 50 33 51 88 52 82 53
REMARK SMILES IDX 81 54 34 56 68 57 47 58 67 59 48 60 51 61 66 62 86 63 49 64
REMARK SMILES IDX 50 65 65 67 87 68 52 69 35 70 36 71 45 72 37 73 38 74 44 75
REMARK SMILES IDX 46 76 39 77 40 78 41 79 42 80 43 81 69 82 70 83 79 84 71 85
REMARK SMILES IDX 72 86 78 87 80 88 73 89 74 90 75 91 76 92 77 93 53 94 54 95
REMARK SMILES IDX 63 96 55 97 56 98 62 99 64 100 57 101 58 102 59 103 60 104
REMARK SMILES IDX 61 105
REMARK H PARENT 7 15 85 55 51 66
REMARK Flexibility Score: inf
ROOT
ATOM      1  C   UNL A   1      35.241  23.450  24.067  1.00  0.00     0.274 C 
ENDROOT
BRANCH   1   2
ATOM      2  O   UNL A   1      34.855  24.789  23.698  1.00  0.00    -0.462 OA
BRANCH   2   3
ATOM      3  C   UNL A   1      34.258  25.515  24.674  1.00  0.00     0.310 C 
ATOM      4  O   UNL A   1      34.729  25.682  25.796  1.00  0.00    -0.252 OA
BRANCH   3   5
ATOM      5  C   UNL A   1      32.876  26.046  24.306  1.00  0.00     0.115 C 
ATOM      6  C   UNL A   1      31.870  26.252  25.448  1.00  0.00     0.096 C 
ATOM      7  C   UNL A   1      31.433  27.748  25.468  1.00  0.00     0.002 C 
ATOM      8  C   UNL A   1      32.701  28.636  25.581  1.00  0.00     0.005 C 
ATOM      9  C   UNL A   1      30.734  28.128  24.157  1.00  0.00     0.005 C 
ATOM     10  C   UNL A   1      33.032  27.340  23.462  1.00  0.00     0.004 C 
ATOM     11  C   UNL A   1      33.599  28.461  24.345  1.00  0.00     0.005 C 
ATOM     12  C   UNL A   1      31.666  27.853  22.975  1.00  0.00     0.005 C 
BRANCH   6  13
ATOM     13  C   UNL A   1      30.651  25.303  25.680  1.00  0.00     0.229 C 
ATOM     14  N   UNL A   1      30.405  24.050  25.201  1.00  0.00    -0.317 N 
ATOM     15  H   UNL A   1      29.449  23.819  25.245  1.00  0.00     0.170 HD
ATOM     16  O   UNL A   1      29.656  25.819  26.223  1.00  0.00    -0.274 OA
BRANCH  14  17
ATOM     17  C   UNL A   1      31.163  23.030  24.670  1.00  0.00     0.111 A 
ATOM     18  C   UNL A   1      31.952  22.074  25.310  1.00  0.00     0.102 A 
ATOM     19  C   UNL A   1      32.356  21.045  24.353  1.00  0.00     0.012 A 
ATOM     20  S   UNL A   1      31.627  23.065  23.043  1.00  0.00    -0.122 S 
ATOM     21  C   UNL A   1      31.974  21.398  23.066  1.00  0.00     0.012 A 
ATOM     22  C   UNL A   1      31.877  20.616  21.797  1.00  0.00     0.057 C 
BRANCH  18  23
ATOM     23  C   UNL A   1      32.254  22.105  26.737  1.00  0.00     0.341 C 
ATOM     24  O   UNL A   1      31.502  22.598  27.575  1.00  0.00    -0.246 OA
BRANCH  23  25
ATOM     25  O   UNL A   1      33.486  21.596  27.010  1.00  0.00    -0.465 OA
ATOM     26  C   UNL A   1      34.430  22.502  27.578  1.00  0.00     0.282 C 
ENDBRANCH  23  25
ENDBRANCH  18  23
BRANCH  19  27
ATOM     27  C   UNL A   1      33.052  19.786  24.600  1.00  0.00    -0.016 A 
ATOM     28  C   UNL A   1      34.439  19.664  24.471  1.00  0.00     0.009 A 
ATOM     29  C   UNL A   1      32.299  18.656  24.945  1.00  0.00     0.009 A 
ATOM     30  C   UNL A   1      35.054  18.421  24.670  1.00  0.00     0.004 A 
ATOM     31  C   UNL A   1      32.913  17.428  25.174  1.00  0.00     0.004 A 
ATOM     32  C   UNL A   1      34.296  17.298  25.025  1.00  0.00    -0.051 A 
ATOM     33  C   UNL A   1      34.940  15.953  25.180  1.00  0.00     0.044 C 
ENDBRANCH  19  27
ENDBRANCH  14  17
ENDBRANCH   6  13
ENDBRANCH   3   5
ENDBRANCH   2   3
ENDBRANCH   1   2
BRANCH   1  34
ATOM     34  C   UNL A   1      36.751  23.322  24.288  1.00  0.00     0.275 C 
BRANCH  34  35
ATOM     35  O   UNL A   1      37.117  23.502  25.668  1.00  0.00    -0.458 OA
BRANCH  35  36
ATOM     36  C   UNL A   1      38.403  23.186  25.947  1.00  0.00     0.338 C 
ATOM     37  O   UNL A   1      39.019  22.214  25.548  1.00  0.00    -0.246 OA
BRANCH  36  38
ATOM     38  C   UNL A   1      39.030  24.254  26.735  1.00  0.00     0.060 A 
ATOM     39  C   UNL A   1      38.631  24.422  28.063  1.00  0.00     0.016 A 
ATOM     40  C   UNL A   1      39.918  25.149  26.140  1.00  0.00     0.016 A 
ATOM     41  C   UNL A   1      39.102  25.504  28.801  1.00  0.00     0.010 A 
ATOM     42  C   UNL A   1      40.404  26.225  26.887  1.00  0.00     0.010 A 
ATOM     43  C   UNL A   1      39.987  26.419  28.216  1.00  0.00    -0.014 A 
BRANCH  43  44
ATOM     44  C   UNL A   1      40.451  27.602  28.981  1.00  0.00     0.031 A 
ATOM     45  C   UNL A   1      41.780  27.564  29.682  1.00  0.00     0.074 A 
ATOM     46  C   UNL A   1      39.672  28.698  29.055  1.00  0.00     0.049 A 
ATOM     47  N   UNL A   1      42.308  28.437  30.502  1.00  0.00    -0.248 NA
ATOM     48  C   UNL A   1      42.623  26.383  29.438  1.00  0.00     0.031 C 
ATOM     49  C   UNL A   1      38.379  28.860  28.387  1.00  0.00     0.029 A 
ATOM     50  N   UNL A   1      39.844  29.877  29.737  1.00  0.00    -0.354 N 
ATOM     51  C   UNL A   1      43.531  27.902  30.891  1.00  0.00     0.074 A 
ATOM     52  C   UNL A   1      43.657  26.619  30.234  1.00  0.00     0.031 C 
ATOM     53  C   UNL A   1      37.872  30.064  28.698  1.00  0.00     0.029 A 
ATOM     54  C   UNL A   1      38.774  30.733  29.629  1.00  0.00     0.049 A 
ATOM     55  H   UNL A   1      40.655  30.088  30.253  1.00  0.00     0.167 HD
ATOM     56  C   UNL A   1      44.461  28.438  31.717  1.00  0.00     0.037 A 
ATOM     57  C   UNL A   1      38.531  31.908  30.243  1.00  0.00     0.037 A 
ATOM     58  C   UNL A   1      44.325  29.726  32.350  1.00  0.00     0.049 A 
ATOM     59  C   UNL A   1      39.554  32.456  31.202  1.00  0.00     0.074 A 
ATOM     60  C   UNL A   1      45.220  30.373  33.183  1.00  0.00     0.029 A 
ATOM     61  N   UNL A   1      43.223  30.561  32.226  1.00  0.00    -0.354 N 
ATOM     62  N   UNL A   1      40.713  31.948  31.551  1.00  0.00    -0.248 NA
ATOM     63  C   UNL A   1      39.240  33.735  31.851  1.00  0.00     0.031 C 
ATOM     64  C   UNL A   1      44.636  31.572  33.609  1.00  0.00     0.029 A 
ATOM     65  C   UNL A   1      43.404  31.704  32.988  1.00  0.00     0.049 A 
ATOM     66  H   UNL A   1      42.428  30.369  31.676  1.00  0.00     0.167 HD
ATOM     67  C   UNL A   1      41.278  32.858  32.437  1.00  0.00     0.074 A 
ATOM     68  C   UNL A   1      40.339  33.956  32.559  1.00  0.00     0.031 C 
ATOM     69  C   UNL A   1      42.464  32.794  33.089  1.00  0.00     0.037 A 
BRANCH  56  70
ATOM     70  C   UNL A   1      45.697  27.630  32.009  1.00  0.00     0.058 A 
ATOM     71  C   UNL A   1      46.835  27.688  31.191  1.00  0.00     0.135 A 
ATOM     72  C   UNL A   1      45.761  26.826  33.160  1.00  0.00     0.135 A 
ATOM     73  F   UNL A   1      46.827  28.428  30.071  1.00  0.00    -0.206 F 
ATOM     74  C   UNL A   1      47.987  26.963  31.491  1.00  0.00     0.059 A 
ATOM     75  C   UNL A   1      46.911  26.116  33.497  1.00  0.00     0.059 A 
ATOM     76  F   UNL A   1      44.702  26.732  33.980  1.00  0.00    -0.206 F 
ATOM     77  C   UNL A   1      48.015  26.183  32.649  1.00  0.00     0.060 A 
BRANCH  77  78
ATOM     78  S   UNL A   1      49.524  25.270  33.037  1.00  0.00     0.124 S 
ATOM     79  O   UNL A   1      50.239  26.227  33.875  1.00  0.00    -0.237 OA
ATOM     80  O   UNL A   1      49.005  24.091  33.725  1.00  0.00    -0.237 OA
ATOM     81  O   UNL A   1      50.117  25.017  31.728  1.00  0.00    -0.744 OA
ENDBRANCH  77  78
ENDBRANCH  56  70
BRANCH  57  82
ATOM     82  C   UNL A   1      37.255  32.631  29.990  1.00  0.00     0.058 A 
ATOM     83  C   UNL A   1      37.194  33.702  29.086  1.00  0.00     0.135 A 
ATOM     84  C   UNL A   1      36.069  32.267  30.648  1.00  0.00     0.135 A 
ATOM     85  F   UNL A   1      38.302  34.095  28.438  1.00  0.00    -0.206 F 
ATOM     86  C   UNL A   1      36.013  34.400  28.859  1.00  0.00     0.059 A 
ATOM     87  C   UNL A   1      34.867  32.929  30.414  1.00  0.00     0.059 A 
ATOM     88  F   UNL A   1      36.066  31.242  31.515  1.00  0.00    -0.206 F 
ATOM     89  C   UNL A   1      34.852  34.003  29.527  1.00  0.00     0.060 A 
BRANCH  89  90
ATOM     90  S   UNL A   1      33.317  34.895  29.198  1.00  0.00     0.124 S 
ATOM     91  O   UNL A   1      32.658  34.005  28.248  1.00  0.00    -0.237 OA
ATOM     92  O   UNL A   1      32.716  34.969  30.526  1.00  0.00    -0.237 OA
ATOM     93  O   UNL A   1      33.778  36.168  28.654  1.00  0.00    -0.744 OA
ENDBRANCH  89  90
ENDBRANCH  57  82
BRANCH  69  94
ATOM     94  C   UNL A   1      42.842  33.963  33.959  1.00  0.00     0.058 A 
ATOM     95  C   UNL A   1      42.491  34.024  35.316  1.00  0.00     0.135 A 
ATOM     96  C   UNL A   1      43.614  35.014  33.435  1.00  0.00     0.135 A 
ATOM     97  F   UNL A   1      41.748  33.051  35.867  1.00  0.00    -0.206 F 
ATOM     98  C   UNL A   1      42.870  35.096  36.117  1.00  0.00     0.059 A 
ATOM     99  C   UNL A   1      44.032  36.080  34.226  1.00  0.00     0.059 A 
ATOM    100  F   UNL A   1      43.987  35.002  32.145  1.00  0.00    -0.206 F 
ATOM    101  C   UNL A   1      43.644  36.118  35.563  1.00  0.00     0.060 A 
BRANCH 101 102
ATOM    102  S   UNL A   1      44.160  37.485  36.624  1.00  0.00     0.124 S 
ATOM    103  O   UNL A   1      43.154  37.432  37.681  1.00  0.00    -0.237 OA
ATOM    104  O   UNL A   1      45.509  37.087  37.013  1.00  0.00    -0.237 OA
ATOM    105  O   UNL A   1      44.083  38.647  35.744  1.00  0.00    -0.744 OA
ENDBRANCH 101 102
ENDBRANCH  69  94
ENDBRANCH  43  44
ENDBRANCH  36  38
ENDBRANCH  35  36
ENDBRANCH  34  35
ENDBRANCH   1  34
TORSDOF 19
ENDMDL
MODEL 2
REMARK VINA RESULT:     -11.3      2.686      5.205
REMARK SMILES COC(=O)c1c(NC(=O)[C@@H]2[C@H]3CC[C@H](CC3)[C@H]2C(=O)OCCOC(=O)c2ccc(-c3c4nc(c(-c5c(F)cc(S(=O)(=O)[O-])cc5F)c5ccc([nH]5)c(-c5c(F)cc(S(=O)(=O)[O-])cc5F)c5nc(c(-c6c(F)cc(S(=O)(=O)[O-])cc6F)c6ccc3[nH]6)C=C5)C=C4)cc2)sc(C)c1-c1ccc(C)cc1
REMARK SMILES IDX 21 1 20 2 18 3 19 4 17 5 10 6 11 7 12 8 16 9 14 10 13 11
REMARK SMILES IDX 15 12 8 13 7 14 9 16 6 17 5 18 95 19 92 20 93 21 94 22 3 23
REMARK SMILES IDX 4 24 2 25 1 26 96 27 97 28 102 29 98 30 101 31 99 32 100 33
REMARK SMILES IDX 22 34 23 35 24 36 25 37 26 38 27 39 91 40 28 41 90 42 29 43
REMARK SMILES IDX 30 44 31 45 84 46 32 47 89 48 83 49 85 50 33 51 88 52 82 53
REMARK SMILES IDX 81 54 34 56 68 57 47 58 67 59 48 60 51 61 66 62 86 63 49 64
REMARK SMILES IDX 50 65 65 67 87 68 52 69 35 70 36 71 45 72 37 73 38 74 44 75
REMARK SMILES IDX 46 76 39 77 40 78 41 79 42 80 43 81 69 82 70 83 79 84 71 85
REMARK SMILES IDX 72 86 78 87 80 88 73 89 74 90 75 91 76 92 77 93 53 94 54 95
REMARK SMILES IDX 63 96 55 97 56 98 62 99 64 100 57 101 58 102 59 103 60 104
REMARK SMILES IDX 61 105
REMARK H PARENT 7 15 85 55 51 66
REMARK Flexibility Score: inf
ROOT
ATOM      1  C   UNL A   1      37.247  24.130  25.796  1.00  0.00     0.274 C 
ENDROOT
BRANCH   1   2
ATOM      2  O   UNL A   1      36.387  23.164  25.161  1.00  0.00    -0.462 OA
BRANCH   2   3
ATOM      3  C   UNL A   1      35.250  23.662  24.615  1.00  0.00     0.310 C 
ATOM      4  O   UNL A   1      35.189  24.721  23.996  1.00  0.00    -0.252 OA
BRANCH   3   5
ATOM      5  C   UNL A   1      33.998  22.843  24.915  1.00  0.00     0.115 C 
ATOM      6  C   UNL A   1      33.403  22.015  23.767  1.00  0.00     0.096 C 
ATOM      7  C   UNL A   1      33.375  20.516  24.191  1.00  0.00     0.002 C 
ATOM      8  C   UNL A   1      34.809  20.085  24.597  1.00  0.00     0.005 C 
ATOM      9  C   UNL A   1      32.481  20.316  25.421  1.00  0.00     0.005 C 
ATOM     10  C   UNL A   1      34.251  21.959  26.165  1.00  0.00     0.004 C 
ATOM     11  C   UNL A   1      35.287  20.877  25.826  1.00  0.00     0.005 C 
ATOM     12  C   UNL A   1      32.979  21.194  26.571  1.00  0.00     0.005 C 
BRANCH   6  13
ATOM     13  C   UNL A   1      32.087  22.420  23.029  1.00  0.00     0.229 C 
ATOM     14  N   UNL A   1      31.472  23.632  22.923  1.00  0.00    -0.317 N 
ATOM     15  H   UNL A   1      30.523  23.545  22.678  1.00  0.00     0.170 HD
ATOM     16  O   UNL A   1      31.374  21.478  22.632  1.00  0.00    -0.274 OA
BRANCH  14  17
ATOM     17  C   UNL A   1      31.851  24.948  23.074  1.00  0.00     0.111 A 
ATOM     18  C   UNL A   1      31.697  25.805  24.164  1.00  0.00     0.102 A 
ATOM     19  C   UNL A   1      32.482  27.020  23.953  1.00  0.00     0.012 A 
ATOM     20  S   UNL A   1      32.182  25.905  21.718  1.00  0.00    -0.122 S 
ATOM     21  C   UNL A   1      33.022  27.037  22.673  1.00  0.00     0.012 A 
ATOM     22  C   UNL A   1      34.099  27.861  22.049  1.00  0.00     0.057 C 
BRANCH  18  23
ATOM     23  C   UNL A   1      30.906  25.472  25.343  1.00  0.00     0.341 C 
ATOM     24  O   UNL A   1      29.937  26.131  25.714  1.00  0.00    -0.246 OA
BRANCH  23  25
ATOM     25  O   UNL A   1      31.412  24.401  26.013  1.00  0.00    -0.465 OA
ATOM     26  C   UNL A   1      30.463  23.555  26.658  1.00  0.00     0.282 C 
ENDBRANCH  23  25
ENDBRANCH  18  23
BRANCH  19  27
ATOM     27  C   UNL A   1      32.742  28.117  24.881  1.00  0.00    -0.016 A 
ATOM     28  C   UNL A   1      33.875  28.146  25.700  1.00  0.00     0.009 A 
ATOM     29  C   UNL A   1      31.805  29.155  24.976  1.00  0.00     0.009 A 
ATOM     30  C   UNL A   1      34.053  29.196  26.610  1.00  0.00     0.004 A 
ATOM     31  C   UNL A   1      31.998  30.214  25.858  1.00  0.00     0.004 A 
ATOM     32  C   UNL A   1      33.118  30.237  26.692  1.00  0.00    -0.051 A 
ATOM     33  C   UNL A   1      33.272  31.331  27.706  1.00  0.00     0.044 C 
ENDBRANCH  19  27
ENDBRANCH  14  17
ENDBRANCH   6  13
ENDBRANCH   3   5
ENDBRANCH   2   3
ENDBRANCH   1   2
BRANCH   1  34
ATOM     34  C   UNL A   1      38.586  23.523  26.223  1.00  0.00     0.275 C 
BRANCH  34  35
ATOM     35  O   UNL A   1      39.652  24.489  26.204  1.00  0.00    -0.458 OA
BRANCH  35  36
ATOM     36  C   UNL A   1      40.514  24.385  27.243  1.00  0.00     0.338 C 
ATOM     37  O   UNL A   1      41.343  23.509  27.419  1.00  0.00    -0.246 OA
BRANCH  36  38
ATOM     38  C   UNL A   1      40.402  25.559  28.117  1.00  0.00     0.060 A 
ATOM     39  C   UNL A   1      41.485  26.438  28.192  1.00  0.00     0.016 A 
ATOM     40  C   UNL A   1      39.289  25.731  28.937  1.00  0.00     0.016 A 
ATOM     41  C   UNL A   1      41.472  27.486  29.107  1.00  0.00     0.010 A 
ATOM     42  C   UNL A   1      39.268  26.795  29.843  1.00  0.00     0.010 A 
ATOM     43  C   UNL A   1      40.365  27.668  29.946  1.00  0.00    -0.014 A 
BRANCH  43  44
ATOM     44  C   UNL A   1      40.366  28.752  30.959  1.00  0.00     0.031 A 
ATOM     45  C   UNL A   1      41.297  28.675  32.136  1.00  0.00     0.074 A 
ATOM     46  C   UNL A   1      39.520  29.792  30.826  1.00  0.00     0.049 A 
ATOM     47  N   UNL A   1      41.362  29.447  33.191  1.00  0.00    -0.248 NA
ATOM     48  C   UNL A   1      42.277  27.577  32.133  1.00  0.00     0.031 C 
ATOM     49  C   UNL A   1      38.596  29.988  29.707  1.00  0.00     0.029 A 
ATOM     50  N   UNL A   1      39.287  30.870  31.642  1.00  0.00    -0.354 N 
ATOM     51  C   UNL A   1      42.371  28.917  33.988  1.00  0.00     0.074 A 
ATOM     52  C   UNL A   1      42.875  27.744  33.305  1.00  0.00     0.031 C 
ATOM     53  C   UNL A   1      37.892  31.114  29.911  1.00  0.00     0.029 A 
ATOM     54  C   UNL A   1      38.273  31.685  31.199  1.00  0.00     0.049 A 
ATOM     55  H   UNL A   1      39.798  31.042  32.467  1.00  0.00     0.167 HD
ATOM     56  C   UNL A   1      42.833  29.372  35.177  1.00  0.00     0.037 A 
ATOM     57  C   UNL A   1      37.690  32.750  31.783  1.00  0.00     0.037 A 
ATOM     58  C   UNL A   1      42.329  30.551  35.835  1.00  0.00     0.049 A 
ATOM     59  C   UNL A   1      38.183  33.203  33.132  1.00  0.00     0.074 A 
ATOM     60  C   UNL A   1      42.746  31.114  37.028  1.00  0.00     0.029 A 
ATOM     61  N   UNL A   1      41.295  31.347  35.360  1.00  0.00    -0.354 N 
ATOM     62  N   UNL A   1      39.147  32.702  33.869  1.00  0.00    -0.248 NA
ATOM     63  C   UNL A   1      37.512  34.364  33.730  1.00  0.00     0.031 C 
ATOM     64  C   UNL A   1      41.927  32.215  37.304  1.00  0.00     0.029 A 
ATOM     65  C   UNL A   1      41.042  32.379  36.250  1.00  0.00     0.049 A 
ATOM     66  H   UNL A   1      40.812  31.199  34.515  1.00  0.00     0.167 HD
ATOM     67  C   UNL A   1      39.216  33.504  35.002  1.00  0.00     0.074 A 
ATOM     68  C   UNL A   1      38.206  34.531  34.847  1.00  0.00     0.031 C 
ATOM     69  C   UNL A   1      40.040  33.402  36.074  1.00  0.00     0.037 A 
BRANCH  56  70
ATOM     70  C   UNL A   1      43.919  28.586  35.861  1.00  0.00     0.058 A 
ATOM     71  C   UNL A   1      43.633  27.529  36.739  1.00  0.00     0.135 A 
ATOM     72  C   UNL A   1      45.270  28.860  35.590  1.00  0.00     0.135 A 
ATOM     73  F   UNL A   1      42.360  27.231  37.047  1.00  0.00    -0.206 F 
ATOM     74  C   UNL A   1      44.646  26.785  37.340  1.00  0.00     0.059 A 
ATOM     75  C   UNL A   1      46.299  28.111  36.154  1.00  0.00     0.059 A 
ATOM     76  F   UNL A   1      45.604  29.860  34.758  1.00  0.00    -0.206 F 
ATOM     77  C   UNL A   1      45.976  27.081  37.037  1.00  0.00     0.060 A 
BRANCH  77  78
ATOM     78  S   UNL A   1      47.277  26.090  37.803  1.00  0.00     0.124 S 
ATOM     79  O   UNL A   1      46.585  25.549  38.968  1.00  0.00    -0.237 OA
ATOM     80  O   UNL A   1      47.595  25.128  36.752  1.00  0.00    -0.237 OA
ATOM     81  O   UNL A   1      48.324  27.065  38.093  1.00  0.00    -0.744 OA
ENDBRANCH  77  78
ENDBRANCH  56  70
BRANCH  57  82
ATOM     82  C   UNL A   1      36.561  33.445  31.108  1.00  0.00     0.058 A 
ATOM     83  C   UNL A   1      36.768  34.219  29.957  1.00  0.00     0.135 A 
ATOM     84  C   UNL A   1      35.249  33.351  31.601  1.00  0.00     0.135 A 
ATOM     85  F   UNL A   1      38.004  34.348  29.450  1.00  0.00    -0.206 F 
ATOM     86  C   UNL A   1      35.724  34.892  29.331  1.00  0.00     0.059 A 
ATOM     87  C   UNL A   1      34.182  33.988  30.975  1.00  0.00     0.059 A 
ATOM     88  F   UNL A   1      34.991  32.614  32.693  1.00  0.00    -0.206 F 
ATOM     89  C   UNL A   1      34.432  34.768  29.848  1.00  0.00     0.060 A 
BRANCH  89  90
ATOM     90  S   UNL A   1      33.079  35.617  29.006  1.00  0.00     0.124 S 
ATOM     91  O   UNL A   1      32.545  34.555  28.161  1.00  0.00    -0.237 OA
ATOM     92  O   UNL A   1      32.235  36.028  30.124  1.00  0.00    -0.237 OA
ATOM     93  O   UNL A   1      33.750  36.706  28.304  1.00  0.00    -0.744 OA
ENDBRANCH  89  90
ENDBRANCH  57  82
BRANCH  69  94
ATOM     94  C   UNL A   1      39.920  34.453  37.145  1.00  0.00     0.058 A 
ATOM     95  C   UNL A   1      40.672  35.637  37.111  1.00  0.00     0.135 A 
ATOM     96  C   UNL A   1      38.998  34.292  38.193  1.00  0.00     0.135 A 
ATOM     97  F   UNL A   1      41.573  35.839  36.136  1.00  0.00    -0.206 F 
ATOM     98  C   UNL A   1      40.533  36.614  38.092  1.00  0.00     0.059 A 
ATOM     99  C   UNL A   1      38.819  35.270  39.166  1.00  0.00     0.059 A 
ATOM    100  F   UNL A   1      38.246  33.183  38.269  1.00  0.00    -0.206 F 
ATOM    101  C   UNL A   1      39.600  36.422  39.114  1.00  0.00     0.060 A 
BRANCH 101 102
ATOM    102  S   UNL A   1      39.404  37.716  40.359  1.00  0.00     0.124 S 
ATOM    103  O   UNL A   1      39.326  36.931  41.588  1.00  0.00    -0.237 OA
ATOM    104  O   UNL A   1      40.621  38.502  40.186  1.00  0.00    -0.237 OA
ATOM    105  O   UNL A   1      38.169  38.385  39.963  1.00  0.00    -0.744 OA
ENDBRANCH 101 102
ENDBRANCH  69  94
ENDBRANCH  43  44
ENDBRANCH  36  38
ENDBRANCH  35  36
ENDBRANCH  34  35
ENDBRANCH   1  34
TORSDOF 19
ENDMDL
MODEL 3
REMARK VINA RESULT:     -11.1      2.620      7.952
REMARK SMILES COC(=O)c1c(NC(=O)[C@@H]2[C@H]3CC[C@H](CC3)[C@H]2C(=O)OCCOC(=O)c2ccc(-c3c4nc(c(-c5c(F)cc(S(=O)(=O)[O-])cc5F)c5ccc([nH]5)c(-c5c(F)cc(S(=O)(=O)[O-])cc5F)c5nc(c(-c6c(F)cc(S(=O)(=O)[O-])cc6F)c6ccc3[nH]6)C=C5)C=C4)cc2)sc(C)c1-c1ccc(C)cc1
REMARK SMILES IDX 21 1 20 2 18 3 19 4 17 5 10 6 11 7 12 8 16 9 14 10 13 11
REMARK SMILES IDX 15 12 8 13 7 14 9 16 6 17 5 18 95 19 92 20 93 21 94 22 3 23
REMARK SMILES IDX 4 24 2 25 1 26 96 27 97 28 102 29 98 30 101 31 99 32 100 33
REMARK SMILES IDX 22 34 23 35 24 36 25 37 26 38 27 39 91 40 28 41 90 42 29 43
REMARK SMILES IDX 30 44 31 45 84 46 32 47 89 48 83 49 85 50 33 51 88 52 82 53
REMARK SMILES IDX 81 54 34 56 68 57 47 58 67 59 48 60 51 61 66 62 86 63 49 64
REMARK SMILES IDX 50 65 65 67 87 68 52 69 35 70 36 71 45 72 37 73 38 74 44 75
REMARK SMILES IDX 46 76 39 77 40 78 41 79 42 80 43 81 69 82 70 83 79 84 71 85
REMARK SMILES IDX 72 86 78 87 80 88 73 89 74 90 75 91 76 92 77 93 53 94 54 95
REMARK SMILES IDX 63 96 55 97 56 98 62 99 64 100 57 101 58 102 59 103 60 104
REMARK SMILES IDX 61 105
REMARK H PARENT 7 15 85 55 51 66
REMARK Flexibility Score: inf
ROOT
ATOM      1  C   UNL A   1      35.215  23.451  24.182  1.00  0.00     0.274 C 
ENDROOT
BRANCH   1   2
ATOM      2  O   UNL A   1      34.984  24.850  23.930  1.00  0.00    -0.462 OA
BRANCH   2   3
ATOM      3  C   UNL A   1      34.282  25.509  24.883  1.00  0.00     0.310 C 
ATOM      4  O   UNL A   1      34.656  25.646  26.045  1.00  0.00    -0.252 OA
BRANCH   3   5
ATOM      5  C   UNL A   1      32.911  25.999  24.428  1.00  0.00     0.115 C 
ATOM      6  C   UNL A   1      31.852  26.247  25.512  1.00  0.00     0.096 C 
ATOM      7  C   UNL A   1      31.395  27.735  25.437  1.00  0.00     0.002 C 
ATOM      8  C   UNL A   1      32.645  28.648  25.559  1.00  0.00     0.005 C 
ATOM      9  C   UNL A   1      30.750  28.038  24.078  1.00  0.00     0.005 C 
ATOM     10  C   UNL A   1      33.087  27.251  23.526  1.00  0.00     0.004 C 
ATOM     11  C   UNL A   1      33.599  28.424  24.375  1.00  0.00     0.005 C 
ATOM     12  C   UNL A   1      31.737  27.718  22.954  1.00  0.00     0.005 C 
BRANCH   6  13
ATOM     13  C   UNL A   1      30.637  25.293  25.738  1.00  0.00     0.229 C 
ATOM     14  N   UNL A   1      30.393  24.043  25.250  1.00  0.00    -0.317 N 
ATOM     15  H   UNL A   1      29.439  23.807  25.294  1.00  0.00     0.170 HD
ATOM     16  O   UNL A   1      29.641  25.801  26.288  1.00  0.00    -0.274 OA
BRANCH  14  17
ATOM     17  C   UNL A   1      31.154  23.029  24.710  1.00  0.00     0.111 A 
ATOM     18  C   UNL A   1      31.949  22.072  25.341  1.00  0.00     0.102 A 
ATOM     19  C   UNL A   1      32.354  21.051  24.376  1.00  0.00     0.012 A 
ATOM     20  S   UNL A   1      31.612  23.077  23.082  1.00  0.00    -0.122 S 
ATOM     21  C   UNL A   1      31.966  21.412  23.092  1.00  0.00     0.012 A 
ATOM     22  C   UNL A   1      31.869  20.638  21.818  1.00  0.00     0.057 C 
BRANCH  18  23
ATOM     23  C   UNL A   1      32.255  22.094  26.767  1.00  0.00     0.341 C 
ATOM     24  O   UNL A   1      31.505  22.580  27.610  1.00  0.00    -0.246 OA
BRANCH  23  25
ATOM     25  O   UNL A   1      33.489  21.586  27.033  1.00  0.00    -0.465 OA
ATOM     26  C   UNL A   1      34.432  22.489  27.607  1.00  0.00     0.282 C 
ENDBRANCH  23  25
ENDBRANCH  18  23
BRANCH  19  27
ATOM     27  C   UNL A   1      33.057  19.793  24.612  1.00  0.00    -0.016 A 
ATOM     28  C   UNL A   1      34.443  19.677  24.473  1.00  0.00     0.009 A 
ATOM     29  C   UNL A   1      32.309  18.658  24.955  1.00  0.00     0.009 A 
ATOM     30  C   UNL A   1      35.063  18.436  24.662  1.00  0.00     0.004 A 
ATOM     31  C   UNL A   1      32.929  17.432  25.173  1.00  0.00     0.004 A 
ATOM     32  C   UNL A   1      34.311  17.307  25.016  1.00  0.00    -0.051 A 
ATOM     33  C   UNL A   1      34.961  15.964  25.160  1.00  0.00     0.044 C 
ENDBRANCH  19  27
ENDBRANCH  14  17
ENDBRANCH   6  13
ENDBRANCH   3   5
ENDBRANCH   2   3
ENDBRANCH   1   2
BRANCH   1  34
ATOM     34  C   UNL A   1      36.692  23.144  24.448  1.00  0.00     0.275 C 
BRANCH  34  35
ATOM     35  O   UNL A   1      37.190  23.834  25.608  1.00  0.00    -0.458 OA
BRANCH  35  36
ATOM     36  C   UNL A   1      38.308  23.287  26.141  1.00  0.00     0.338 C 
ATOM     37  O   UNL A   1      38.627  22.112  26.121  1.00  0.00    -0.246 OA
BRANCH  36  38
ATOM     38  C   UNL A   1      39.183  24.338  26.675  1.00  0.00     0.060 A 
ATOM     39  C   UNL A   1      39.194  24.557  28.055  1.00  0.00     0.016 A 
ATOM     40  C   UNL A   1      39.899  25.171  25.818  1.00  0.00     0.016 A 
ATOM     41  C   UNL A   1      39.905  25.628  28.586  1.00  0.00     0.010 A 
ATOM     42  C   UNL A   1      40.628  26.236  26.354  1.00  0.00     0.010 A 
ATOM     43  C   UNL A   1      40.622  26.482  27.739  1.00  0.00    -0.014 A 
BRANCH  43  44
ATOM     44  C   UNL A   1      41.340  27.655  28.293  1.00  0.00     0.031 A 
ATOM     45  C   UNL A   1      40.563  28.791  28.897  1.00  0.00     0.074 A 
ATOM     46  C   UNL A   1      42.685  27.704  28.237  1.00  0.00     0.049 A 
ATOM     47  N   UNL A   1      40.989  29.954  29.317  1.00  0.00    -0.248 NA
ATOM     48  C   UNL A   1      39.111  28.596  29.039  1.00  0.00     0.031 C 
ATOM     49  C   UNL A   1      43.545  26.645  27.703  1.00  0.00     0.029 A 
ATOM     50  N   UNL A   1      43.564  28.686  28.616  1.00  0.00    -0.354 N 
ATOM     51  C   UNL A   1      39.859  30.640  29.749  1.00  0.00     0.074 A 
ATOM     52  C   UNL A   1      38.725  29.770  29.521  1.00  0.00     0.031 C 
ATOM     53  C   UNL A   1      44.826  27.039  27.783  1.00  0.00     0.029 A 
ATOM     54  C   UNL A   1      44.874  28.395  28.319  1.00  0.00     0.049 A 
ATOM     55  H   UNL A   1      43.283  29.520  29.060  1.00  0.00     0.167 HD
ATOM     56  C   UNL A   1      39.781  31.880  30.290  1.00  0.00     0.037 A 
ATOM     57  C   UNL A   1      45.984  29.152  28.429  1.00  0.00     0.037 A 
ATOM     58  C   UNL A   1      40.924  32.726  30.525  1.00  0.00     0.049 A 
ATOM     59  C   UNL A   1      45.863  30.548  28.980  1.00  0.00     0.074 A 
ATOM     60  C   UNL A   1      40.957  33.988  31.092  1.00  0.00     0.029 A 
ATOM     61  N   UNL A   1      42.235  32.402  30.201  1.00  0.00    -0.354 N 
ATOM     62  N   UNL A   1      44.792  31.180  29.398  1.00  0.00    -0.248 NA
ATOM     63  C   UNL A   1      47.099  31.336  29.074  1.00  0.00     0.031 C 
ATOM     64  C   UNL A   1      42.278  34.449  31.059  1.00  0.00     0.029 A 
ATOM     65  C   UNL A   1      43.079  33.449  30.532  1.00  0.00     0.049 A 
ATOM     66  H   UNL A   1      42.521  31.551  29.796  1.00  0.00     0.167 HD
ATOM     67  C   UNL A   1      45.229  32.427  29.831  1.00  0.00     0.074 A 
ATOM     68  C   UNL A   1      46.665  32.454  29.637  1.00  0.00     0.031 C 
ATOM     69  C   UNL A   1      44.510  33.455  30.344  1.00  0.00     0.037 A 
BRANCH  56  70
ATOM     70  C   UNL A   1      38.418  32.412  30.643  1.00  0.00     0.058 A 
ATOM     71  C   UNL A   1      37.810  32.143  31.878  1.00  0.00     0.135 A 
ATOM     72  C   UNL A   1      37.733  33.253  29.748  1.00  0.00     0.135 A 
ATOM     73  F   UNL A   1      38.411  31.335  32.767  1.00  0.00    -0.206 F 
ATOM     74  C   UNL A   1      36.564  32.671  32.208  1.00  0.00     0.059 A 
ATOM     75  C   UNL A   1      36.501  33.816  30.068  1.00  0.00     0.059 A 
ATOM     76  F   UNL A   1      38.266  33.545  28.551  1.00  0.00    -0.206 F 
ATOM     77  C   UNL A   1      35.919  33.510  31.297  1.00  0.00     0.060 A 
BRANCH  77  78
ATOM     78  S   UNL A   1      34.316  34.207  31.750  1.00  0.00     0.124 S 
ATOM     79  O   UNL A   1      33.650  34.278  30.454  1.00  0.00    -0.237 OA
ATOM     80  O   UNL A   1      33.793  33.206  32.676  1.00  0.00    -0.237 OA
ATOM     81  O   UNL A   1      34.658  35.492  32.350  1.00  0.00    -0.744 OA
ENDBRANCH  77  78
ENDBRANCH  56  70
BRANCH  57  82
ATOM     82  C   UNL A   1      47.300  28.615  27.987  1.00  0.00     0.058 A 
ATOM     83  C   UNL A   1      47.721  28.734  26.655  1.00  0.00     0.135 A 
ATOM     84  C   UNL A   1      48.163  27.970  28.888  1.00  0.00     0.135 A 
ATOM     85  F   UNL A   1      46.930  29.334  25.753  1.00  0.00    -0.206 F 
ATOM     86  C   UNL A   1      48.938  28.215  26.225  1.00  0.00     0.059 A 
ATOM     87  C   UNL A   1      49.399  27.471  28.490  1.00  0.00     0.059 A 
ATOM     88  F   UNL A   1      47.815  27.838  30.178  1.00  0.00    -0.206 F 
ATOM     89  C   UNL A   1      49.773  27.587  27.152  1.00  0.00     0.060 A 
BRANCH  89  90
ATOM     90  S   UNL A   1      51.365  26.949  26.590  1.00  0.00     0.124 S 
ATOM     91  O   UNL A   1      51.915  28.106  25.891  1.00  0.00    -0.237 OA
ATOM     92  O   UNL A   1      52.015  26.597  27.849  1.00  0.00    -0.237 OA
ATOM     93  O   UNL A   1      50.995  25.818  25.745  1.00  0.00    -0.744 OA
ENDBRANCH  89  90
ENDBRANCH  57  82
BRANCH  69  94
ATOM     94  C   UNL A   1      45.265  34.683  30.777  1.00  0.00     0.058 A 
ATOM     95  C   UNL A   1      45.799  34.809  32.069  1.00  0.00     0.135 A 
ATOM     96  C   UNL A   1      45.502  35.726  29.866  1.00  0.00     0.135 A 
ATOM     97  F   UNL A   1      45.597  33.846  32.982  1.00  0.00    -0.206 F 
ATOM     98  C   UNL A   1      46.520  35.937  32.449  1.00  0.00     0.059 A 
ATOM     99  C   UNL A   1      46.248  36.847  30.215  1.00  0.00     0.059 A 
ATOM    100  F   UNL A   1      45.023  35.653  28.614  1.00  0.00    -0.206 F 
ATOM    101  C   UNL A   1      46.742  36.949  31.514  1.00  0.00     0.060 A 
BRANCH 101 102
ATOM    102  S   UNL A   1      47.710  38.389  32.011  1.00  0.00     0.124 S 
ATOM    103  O   UNL A   1      47.436  38.447  33.444  1.00  0.00    -0.237 OA
ATOM    104  O   UNL A   1      49.066  37.997  31.641  1.00  0.00    -0.237 OA
ATOM    105  O   UNL A   1      47.138  39.474  31.220  1.00  0.00    -0.744 OA
ENDBRANCH 101 102
ENDBRANCH  69  94
ENDBRANCH  43  44
ENDBRANCH  36  38
ENDBRANCH  35  36
ENDBRANCH  34  35
ENDBRANCH   1  34
TORSDOF 19
ENDMDL
