MODEL 1
REMARK VINA RESULT:     -10.5      0.000      0.000
REMARK SMILES CC(C)[C@H](/N=C1\C(=O)C(=O)[C@H]1[NH+]1CCCC1)C(=O)OCCOC(=O)c1ccc(-c2c3nc(c(-c4c(F)cc(S(=O)(=O)[O-])cc4F)c4ccc([nH]4)c(-c4c(F)cc(S(=O)(=O)[O-])cc4F)c4nc(c(-c5c(F)cc(S(=O)(=O)[O-])cc5F)c5ccc2[nH]5)C=C4)C=C3)cc1
REMARK SMILES IDX 21 1 20 2 19 3 17 4 18 5 4 6 2 7 1 8 3 9 5 10 6 11 7 12
REMARK SMILES IDX 11 13 8 14 9 15 10 16 12 17 13 18 16 19 14 21 15 22 22 23
REMARK SMILES IDX 23 24 24 25 25 26 26 27 90 28 27 29 89 30 28 31 29 32 30 33
REMARK SMILES IDX 83 34 31 35 88 36 82 37 84 38 32 39 87 40 81 41 80 42 33 44
REMARK SMILES IDX 67 45 46 46 66 47 47 48 50 49 65 50 85 51 48 52 49 53 64 55
REMARK SMILES IDX 86 56 51 57 34 58 35 59 44 60 36 61 37 62 43 63 45 64 38 65
REMARK SMILES IDX 39 66 40 67 41 68 42 69 68 70 69 71 78 72 70 73 71 74 77 75
REMARK SMILES IDX 79 76 72 77 73 78 74 79 75 80 76 81 52 82 53 83 62 84 54 85
REMARK SMILES IDX 55 86 61 87 63 88 56 89 57 90 58 91 59 92 60 93
REMARK H PARENT 12 20 84 43 50 54
REMARK Flexibility Score: inf
ROOT
ATOM      1  C   UNL A   1      34.607  32.035  28.937  1.00  0.00     0.275 C 
ENDROOT
BRANCH   1   2
ATOM      2  C   UNL A   1      34.765  33.288  28.066  1.00  0.00     0.274 C 
BRANCH   2   3
ATOM      3  O   UNL A   1      34.742  34.502  28.842  1.00  0.00    -0.460 OA
BRANCH   3   4
ATOM      4  C   UNL A   1      33.659  34.660  29.649  1.00  0.00     0.331 C 
ATOM      5  O   UNL A   1      32.501  34.663  29.238  1.00  0.00    -0.250 OA
BRANCH   4   6
ATOM      6  C   UNL A   1      33.998  34.799  31.145  1.00  0.00     0.218 C 
BRANCH   6   7
ATOM      7  C   UNL A   1      33.429  36.103  31.751  1.00  0.00     0.019 C 
ATOM      8  C   UNL A   1      33.289  37.213  30.697  1.00  0.00     0.010 C 
ATOM      9  C   UNL A   1      32.044  35.861  32.368  1.00  0.00     0.010 C 
ENDBRANCH   6   7
BRANCH   6  10
ATOM     10  N   UNL A   1      35.467  34.729  31.370  1.00  0.00    -0.264 NA
ATOM     11  C   UNL A   1      35.887  34.032  32.366  1.00  0.00     0.153 C 
ATOM     12  C   UNL A   1      35.228  33.317  33.491  1.00  0.00     0.255 C 
ATOM     13  C   UNL A   1      37.289  33.829  32.968  1.00  0.00     0.314 C 
ATOM     14  O   UNL A   1      34.099  33.203  33.852  1.00  0.00    -0.283 OA
ATOM     15  C   UNL A   1      36.562  33.070  34.138  1.00  0.00     0.268 C 
ATOM     16  O   UNL A   1      36.790  32.510  35.176  1.00  0.00    -0.283 OA
BRANCH  13  17
ATOM     17  N   UNL A   1      38.309  33.034  32.246  1.00  0.00    -0.321 N 
ATOM     18  C   UNL A   1      39.563  32.938  33.000  1.00  0.00     0.263 C 
ATOM     19  C   UNL A   1      38.605  33.478  30.878  1.00  0.00     0.263 C 
ATOM     20  H   UNL A   1      37.873  32.115  32.164  1.00  0.00     0.349 HD
ATOM     21  C   UNL A   1      40.609  33.639  32.158  1.00  0.00     0.067 C 
ATOM     22  C   UNL A   1      40.118  33.419  30.743  1.00  0.00     0.067 C 
ENDBRANCH  13  17
ENDBRANCH   6  10
ENDBRANCH   4   6
ENDBRANCH   3   4
ENDBRANCH   2   3
ENDBRANCH   1   2
BRANCH   1  23
ATOM     23  O   UNL A   1      35.646  31.059  28.726  1.00  0.00    -0.458 OA
BRANCH  23  24
ATOM     24  C   UNL A   1      36.387  30.787  29.821  1.00  0.00     0.338 C 
ATOM     25  O   UNL A   1      36.067  30.948  30.988  1.00  0.00    -0.246 OA
BRANCH  24  26
ATOM     26  C   UNL A   1      37.661  30.153  29.489  1.00  0.00     0.060 A 
ATOM     27  C   UNL A   1      38.500  29.819  30.552  1.00  0.00     0.016 A 
ATOM     28  C   UNL A   1      38.113  30.088  28.172  1.00  0.00     0.016 A 
ATOM     29  C   UNL A   1      39.815  29.452  30.312  1.00  0.00     0.010 A 
ATOM     30  C   UNL A   1      39.427  29.676  27.928  1.00  0.00     0.010 A 
ATOM     31  C   UNL A   1      40.286  29.371  28.998  1.00  0.00    -0.014 A 
BRANCH  31  32
ATOM     32  C   UNL A   1      41.681  28.940  28.759  1.00  0.00     0.031 A 
ATOM     33  C   UNL A   1      42.809  29.917  28.892  1.00  0.00     0.074 A 
ATOM     34  C   UNL A   1      41.913  27.653  28.445  1.00  0.00     0.049 A 
ATOM     35  N   UNL A   1      44.070  29.761  28.588  1.00  0.00    -0.248 NA
ATOM     36  C   UNL A   1      42.478  31.246  29.432  1.00  0.00     0.031 C 
ATOM     37  C   UNL A   1      40.887  26.611  28.348  1.00  0.00     0.029 A 
ATOM     38  N   UNL A   1      43.081  27.000  28.151  1.00  0.00    -0.354 N 
ATOM     39  C   UNL A   1      44.680  30.978  28.863  1.00  0.00     0.074 A 
ATOM     40  C   UNL A   1      43.650  31.864  29.365  1.00  0.00     0.031 C 
ATOM     41  C   UNL A   1      41.473  25.448  28.025  1.00  0.00     0.029 A 
ATOM     42  C   UNL A   1      42.900  25.678  27.830  1.00  0.00     0.049 A 
ATOM     43  H   UNL A   1      43.963  27.437  28.169  1.00  0.00     0.167 HD
ATOM     44  C   UNL A   1      45.981  31.318  28.701  1.00  0.00     0.037 A 
ATOM     45  C   UNL A   1      43.780  24.762  27.385  1.00  0.00     0.037 A 
ATOM     46  C   UNL A   1      46.995  30.409  28.232  1.00  0.00     0.049 A 
ATOM     47  C   UNL A   1      45.209  25.172  27.184  1.00  0.00     0.074 A 
ATOM     48  C   UNL A   1      48.344  30.647  28.039  1.00  0.00     0.029 A 
ATOM     49  N   UNL A   1      46.769  29.082  27.892  1.00  0.00    -0.354 N 
ATOM     50  N   UNL A   1      45.765  26.341  27.398  1.00  0.00    -0.248 NA
ATOM     51  C   UNL A   1      46.125  24.151  26.663  1.00  0.00     0.031 C 
ATOM     52  C   UNL A   1      48.930  29.470  27.557  1.00  0.00     0.029 A 
ATOM     53  C   UNL A   1      47.951  28.492  27.476  1.00  0.00     0.049 A 
ATOM     54  H   UNL A   1      45.898  28.627  27.939  1.00  0.00     0.167 HD
ATOM     55  C   UNL A   1      47.096  26.199  27.034  1.00  0.00     0.074 A 
ATOM     56  C   UNL A   1      47.267  24.824  26.606  1.00  0.00     0.031 C 
ATOM     57  C   UNL A   1      48.087  27.124  27.046  1.00  0.00     0.037 A 
BRANCH  44  58
ATOM     58  C   UNL A   1      46.372  32.738  28.993  1.00  0.00     0.058 A 
ATOM     59  C   UNL A   1      46.313  33.742  28.016  1.00  0.00     0.135 A 
ATOM     60  C   UNL A   1      46.781  33.105  30.287  1.00  0.00     0.135 A 
ATOM     61  F   UNL A   1      45.944  33.441  26.760  1.00  0.00    -0.206 F 
ATOM     62  C   UNL A   1      46.665  35.058  28.303  1.00  0.00     0.059 A 
ATOM     63  C   UNL A   1      47.119  34.417  30.601  1.00  0.00     0.059 A 
ATOM     64  F   UNL A   1      46.858  32.181  31.258  1.00  0.00    -0.206 F 
ATOM     65  C   UNL A   1      47.071  35.385  29.599  1.00  0.00     0.060 A 
BRANCH  65  66
ATOM     66  S   UNL A   1      47.521  37.095  29.968  1.00  0.00     0.124 S 
ATOM     67  O   UNL A   1      46.447  37.828  29.305  1.00  0.00    -0.237 OA
ATOM     68  O   UNL A   1      47.499  37.122  31.428  1.00  0.00    -0.237 OA
ATOM     69  O   UNL A   1      48.842  37.235  29.365  1.00  0.00    -0.744 OA
ENDBRANCH  65  66
ENDBRANCH  44  58
BRANCH  45  70
ATOM     70  C   UNL A   1      43.307  23.394  27.059  1.00  0.00     0.058 A 
ATOM     71  C   UNL A   1      43.094  22.998  25.732  1.00  0.00     0.135 A 
ATOM     72  C   UNL A   1      43.118  22.437  28.069  1.00  0.00     0.135 A 
ATOM     73  F   UNL A   1      43.258  23.881  24.735  1.00  0.00    -0.206 F 
ATOM     74  C   UNL A   1      42.712  21.698  25.414  1.00  0.00     0.059 A 
ATOM     75  C   UNL A   1      42.757  21.127  27.775  1.00  0.00     0.059 A 
ATOM     76  F   UNL A   1      43.324  22.765  29.354  1.00  0.00    -0.206 F 
ATOM     77  C   UNL A   1      42.552  20.768  26.443  1.00  0.00     0.060 A 
BRANCH  77  78
ATOM     78  S   UNL A   1      42.139  19.061  26.024  1.00  0.00     0.124 S 
ATOM     79  O   UNL A   1      40.704  19.156  25.790  1.00  0.00    -0.237 OA
ATOM     80  O   UNL A   1      42.963  18.819  24.843  1.00  0.00    -0.237 OA
ATOM     81  O   UNL A   1      42.539  18.320  27.217  1.00  0.00    -0.744 OA
ENDBRANCH  77  78
ENDBRANCH  45  70
BRANCH  57  82
ATOM     82  C   UNL A   1      49.439  26.672  26.579  1.00  0.00     0.058 A 
ATOM     83  C   UNL A   1      50.315  25.998  27.443  1.00  0.00     0.135 A 
ATOM     84  C   UNL A   1      49.842  26.874  25.252  1.00  0.00     0.135 A 
ATOM     85  F   UNL A   1      49.975  25.790  28.725  1.00  0.00    -0.206 F 
ATOM     86  C   UNL A   1      51.557  25.551  27.007  1.00  0.00     0.059 A 
ATOM     87  C   UNL A   1      51.073  26.421  24.790  1.00  0.00     0.059 A 
ATOM     88  F   UNL A   1      49.032  27.510  24.389  1.00  0.00    -0.206 F 
ATOM     89  C   UNL A   1      51.927  25.768  25.678  1.00  0.00     0.060 A 
BRANCH  89  90
ATOM     90  S   UNL A   1      53.527  25.154  25.110  1.00  0.00     0.124 S 
ATOM     91  O   UNL A   1      53.544  25.619  23.727  1.00  0.00    -0.237 OA
ATOM     92  O   UNL A   1      54.461  25.819  26.013  1.00  0.00    -0.237 OA
ATOM     93  O   UNL A   1      53.416  23.710  25.289  1.00  0.00    -0.744 OA
ENDBRANCH  89  90
ENDBRANCH  57  82
ENDBRANCH  31  32
ENDBRANCH  24  26
ENDBRANCH  23  24
ENDBRANCH   1  23
TORSDOF 17
ENDMDL
MODEL 2
REMARK VINA RESULT:     -10.3      4.226      6.682
REMARK SMILES CC(C)[C@H](/N=C1\C(=O)C(=O)[C@H]1[NH+]1CCCC1)C(=O)OCCOC(=O)c1ccc(-c2c3nc(c(-c4c(F)cc(S(=O)(=O)[O-])cc4F)c4ccc([nH]4)c(-c4c(F)cc(S(=O)(=O)[O-])cc4F)c4nc(c(-c5c(F)cc(S(=O)(=O)[O-])cc5F)c5ccc2[nH]5)C=C4)C=C3)cc1
REMARK SMILES IDX 21 1 20 2 19 3 17 4 18 5 4 6 2 7 1 8 3 9 5 10 6 11 7 12
REMARK SMILES IDX 11 13 8 14 9 15 10 16 12 17 13 18 16 19 14 21 15 22 22 23
REMARK SMILES IDX 23 24 24 25 25 26 26 27 90 28 27 29 89 30 28 31 29 32 30 33
REMARK SMILES IDX 83 34 31 35 88 36 82 37 84 38 32 39 87 40 81 41 80 42 33 44
REMARK SMILES IDX 67 45 46 46 66 47 47 48 50 49 65 50 85 51 48 52 49 53 64 55
REMARK SMILES IDX 86 56 51 57 34 58 35 59 44 60 36 61 37 62 43 63 45 64 38 65
REMARK SMILES IDX 39 66 40 67 41 68 42 69 68 70 69 71 78 72 70 73 71 74 77 75
REMARK SMILES IDX 79 76 72 77 73 78 74 79 75 80 76 81 52 82 53 83 62 84 54 85
REMARK SMILES IDX 55 86 61 87 63 88 56 89 57 90 58 91 59 92 60 93
REMARK H PARENT 12 20 84 43 50 54
REMARK Flexibility Score: inf
ROOT
ATOM      1  C   UNL A   1      33.592  28.566  26.274  1.00  0.00     0.275 C 
ENDROOT
BRANCH   1   2
ATOM      2  C   UNL A   1      33.409  27.082  25.929  1.00  0.00     0.274 C 
BRANCH   2   3
ATOM      3  O   UNL A   1      32.035  26.662  26.034  1.00  0.00    -0.460 OA
BRANCH   3   4
ATOM      4  C   UNL A   1      31.842  25.325  26.195  1.00  0.00     0.331 C 
ATOM      5  O   UNL A   1      31.399  24.822  27.226  1.00  0.00    -0.250 OA
BRANCH   4   6
ATOM      6  C   UNL A   1      32.188  24.481  24.954  1.00  0.00     0.218 C 
BRANCH   6   7
ATOM      7  C   UNL A   1      30.925  23.904  24.274  1.00  0.00     0.019 C 
ATOM      8  C   UNL A   1      30.165  24.972  23.471  1.00  0.00     0.010 C 
ATOM      9  C   UNL A   1      31.292  22.764  23.313  1.00  0.00     0.010 C 
ENDBRANCH   6   7
BRANCH   6  10
ATOM     10  N   UNL A   1      33.130  23.382  25.299  1.00  0.00    -0.264 NA
ATOM     11  C   UNL A   1      34.205  23.276  24.601  1.00  0.00     0.153 C 
ATOM     12  C   UNL A   1      34.731  23.951  23.385  1.00  0.00     0.255 C 
ATOM     13  C   UNL A   1      35.328  22.223  24.585  1.00  0.00     0.314 C 
ATOM     14  O   UNL A   1      34.298  24.776  22.643  1.00  0.00    -0.283 OA
ATOM     15  C   UNL A   1      35.863  22.965  23.306  1.00  0.00     0.268 C 
ATOM     16  O   UNL A   1      36.738  22.905  22.486  1.00  0.00    -0.283 OA
BRANCH  13  17
ATOM     17  N   UNL A   1      36.292  22.135  25.706  1.00  0.00    -0.321 N 
ATOM     18  C   UNL A   1      36.639  23.457  26.235  1.00  0.00     0.263 C 
ATOM     19  C   UNL A   1      37.527  21.393  25.421  1.00  0.00     0.263 C 
ATOM     20  H   UNL A   1      35.785  21.594  26.407  1.00  0.00     0.349 HD
ATOM     21  C   UNL A   1      38.120  23.635  25.974  1.00  0.00     0.067 C 
ATOM     22  C   UNL A   1      38.652  22.218  26.024  1.00  0.00     0.067 C 
ENDBRANCH  13  17
ENDBRANCH   6  10
ENDBRANCH   4   6
ENDBRANCH   3   4
ENDBRANCH   2   3
ENDBRANCH   1   2
BRANCH   1  23
ATOM     23  O   UNL A   1      33.845  28.798  27.675  1.00  0.00    -0.458 OA
BRANCH  23  24
ATOM     24  C   UNL A   1      34.388  30.002  27.952  1.00  0.00     0.338 C 
ATOM     25  O   UNL A   1      33.813  31.077  28.005  1.00  0.00    -0.246 OA
BRANCH  24  26
ATOM     26  C   UNL A   1      35.804  29.907  28.300  1.00  0.00     0.060 A 
ATOM     27  C   UNL A   1      36.726  30.077  27.267  1.00  0.00     0.016 A 
ATOM     28  C   UNL A   1      36.211  29.450  29.553  1.00  0.00     0.016 A 
ATOM     29  C   UNL A   1      38.059  29.755  27.462  1.00  0.00     0.010 A 
ATOM     30  C   UNL A   1      37.563  29.167  29.763  1.00  0.00     0.010 A 
ATOM     31  C   UNL A   1      38.490  29.305  28.714  1.00  0.00    -0.014 A 
BRANCH  31  32
ATOM     32  C   UNL A   1      39.923  29.003  28.916  1.00  0.00     0.031 A 
ATOM     33  C   UNL A   1      40.851  30.053  29.446  1.00  0.00     0.074 A 
ATOM     34  C   UNL A   1      40.366  27.763  28.639  1.00  0.00     0.049 A 
ATOM     35  N   UNL A   1      42.153  30.019  29.556  1.00  0.00    -0.248 NA
ATOM     36  C   UNL A   1      40.240  31.309  29.908  1.00  0.00     0.031 C 
ATOM     37  C   UNL A   1      39.530  26.654  28.173  1.00  0.00     0.029 A 
ATOM     38  N   UNL A   1      41.625  27.227  28.707  1.00  0.00    -0.354 N 
ATOM     39  C   UNL A   1      42.524  31.256  30.064  1.00  0.00     0.074 A 
ATOM     40  C   UNL A   1      41.307  32.021  30.247  1.00  0.00     0.031 C 
ATOM     41  C   UNL A   1      40.297  25.567  28.005  1.00  0.00     0.029 A 
ATOM     42  C   UNL A   1      41.684  25.921  28.288  1.00  0.00     0.049 A 
ATOM     43  H   UNL A   1      42.410  27.729  29.025  1.00  0.00     0.167 HD
ATOM     44  C   UNL A   1      43.769  31.708  30.342  1.00  0.00     0.037 A 
ATOM     45  C   UNL A   1      42.744  25.111  28.109  1.00  0.00     0.037 A 
ATOM     46  C   UNL A   1      44.963  30.917  30.184  1.00  0.00     0.049 A 
ATOM     47  C   UNL A   1      44.116  25.645  28.395  1.00  0.00     0.074 A 
ATOM     48  C   UNL A   1      46.275  31.273  30.445  1.00  0.00     0.029 A 
ATOM     49  N   UNL A   1      44.986  29.605  29.733  1.00  0.00    -0.354 N 
ATOM     50  N   UNL A   1      44.460  26.835  28.826  1.00  0.00    -0.248 NA
ATOM     51  C   UNL A   1      45.245  24.739  28.152  1.00  0.00     0.031 C 
ATOM     52  C   UNL A   1      47.094  30.184  30.125  1.00  0.00     0.029 A 
ATOM     53  C   UNL A   1      46.290  29.141  29.693  1.00  0.00     0.049 A 
ATOM     54  H   UNL A   1      44.193  29.081  29.479  1.00  0.00     0.167 HD
ATOM     55  C   UNL A   1      45.846  26.825  28.902  1.00  0.00     0.074 A 
ATOM     56  C   UNL A   1      46.275  25.501  28.493  1.00  0.00     0.031 C 
ATOM     57  C   UNL A   1      46.688  27.821  29.270  1.00  0.00     0.037 A 
BRANCH  44  58
ATOM     58  C   UNL A   1      43.908  33.130  30.805  1.00  0.00     0.058 A 
ATOM     59  C   UNL A   1      44.106  34.189  29.907  1.00  0.00     0.135 A 
ATOM     60  C   UNL A   1      43.809  33.439  32.172  1.00  0.00     0.135 A 
ATOM     61  F   UNL A   1      44.225  33.945  28.592  1.00  0.00    -0.206 F 
ATOM     62  C   UNL A   1      44.219  35.504  30.348  1.00  0.00     0.059 A 
ATOM     63  C   UNL A   1      43.900  34.748  32.633  1.00  0.00     0.059 A 
ATOM     64  F   UNL A   1      43.623  32.462  33.073  1.00  0.00    -0.206 F 
ATOM     65  C   UNL A   1      44.119  35.774  31.715  1.00  0.00     0.060 A 
BRANCH  65  66
ATOM     66  S   UNL A   1      44.260  37.483  32.281  1.00  0.00     0.124 S 
ATOM     67  O   UNL A   1      43.761  38.216  31.122  1.00  0.00    -0.237 OA
ATOM     68  O   UNL A   1      43.400  37.501  33.460  1.00  0.00    -0.237 OA
ATOM     69  O   UNL A   1      45.687  37.632  32.551  1.00  0.00    -0.744 OA
ENDBRANCH  65  66
ENDBRANCH  44  58
BRANCH  45  70
ATOM     70  C   UNL A   1      42.533  23.737  27.590  1.00  0.00     0.058 A 
ATOM     71  C   UNL A   1      42.517  23.477  26.214  1.00  0.00     0.135 A 
ATOM     72  C   UNL A   1      42.405  22.648  28.467  1.00  0.00     0.135 A 
ATOM     73  F   UNL A   1      42.632  24.489  25.339  1.00  0.00    -0.206 F 
ATOM     74  C   UNL A   1      42.384  22.183  25.721  1.00  0.00     0.059 A 
ATOM     75  C   UNL A   1      42.291  21.344  27.999  1.00  0.00     0.059 A 
ATOM     76  F   UNL A   1      42.430  22.845  29.794  1.00  0.00    -0.206 F 
ATOM     77  C   UNL A   1      42.278  21.121  26.622  1.00  0.00     0.060 A 
BRANCH  77  78
ATOM     78  S   UNL A   1      42.190  19.435  25.982  1.00  0.00     0.124 S 
ATOM     79  O   UNL A   1      43.092  19.508  24.840  1.00  0.00    -0.237 OA
ATOM     80  O   UNL A   1      42.658  18.644  27.117  1.00  0.00    -0.237 OA
ATOM     81  O   UNL A   1      40.774  19.276  25.663  1.00  0.00    -0.744 OA
ENDBRANCH  77  78
ENDBRANCH  45  70
BRANCH  57  82
ATOM     82  C   UNL A   1      48.154  27.511  29.243  1.00  0.00     0.058 A 
ATOM     83  C   UNL A   1      48.943  27.833  28.128  1.00  0.00     0.135 A 
ATOM     84  C   UNL A   1      48.783  26.929  30.353  1.00  0.00     0.135 A 
ATOM     85  F   UNL A   1      48.381  28.384  27.040  1.00  0.00    -0.206 F 
ATOM     86  C   UNL A   1      50.308  27.574  28.110  1.00  0.00     0.059 A 
ATOM     87  C   UNL A   1      50.150  26.676  30.363  1.00  0.00     0.059 A 
ATOM     88  F   UNL A   1      48.068  26.609  31.444  1.00  0.00    -0.206 F 
ATOM     89  C   UNL A   1      50.903  26.994  29.233  1.00  0.00     0.060 A 
BRANCH  89  90
ATOM     90  S   UNL A   1      52.682  26.693  29.215  1.00  0.00     0.124 S 
ATOM     91  O   UNL A   1      52.864  25.939  30.451  1.00  0.00    -0.237 OA
ATOM     92  O   UNL A   1      52.865  25.938  27.980  1.00  0.00    -0.237 OA
ATOM     93  O   UNL A   1      53.252  28.037  29.208  1.00  0.00    -0.744 OA
ENDBRANCH  89  90
ENDBRANCH  57  82
ENDBRANCH  31  32
ENDBRANCH  24  26
ENDBRANCH  23  24
ENDBRANCH   1  23
TORSDOF 17
ENDMDL
MODEL 3
REMARK VINA RESULT:     -10.2      4.673      6.623
REMARK SMILES CC(C)[C@H](/N=C1\C(=O)C(=O)[C@H]1[NH+]1CCCC1)C(=O)OCCOC(=O)c1ccc(-c2c3nc(c(-c4c(F)cc(S(=O)(=O)[O-])cc4F)c4ccc([nH]4)c(-c4c(F)cc(S(=O)(=O)[O-])cc4F)c4nc(c(-c5c(F)cc(S(=O)(=O)[O-])cc5F)c5ccc2[nH]5)C=C4)C=C3)cc1
REMARK SMILES IDX 21 1 20 2 19 3 17 4 18 5 4 6 2 7 1 8 3 9 5 10 6 11 7 12
REMARK SMILES IDX 11 13 8 14 9 15 10 16 12 17 13 18 16 19 14 21 15 22 22 23
REMARK SMILES IDX 23 24 24 25 25 26 26 27 90 28 27 29 89 30 28 31 29 32 30 33
REMARK SMILES IDX 83 34 31 35 88 36 82 37 84 38 32 39 87 40 81 41 80 42 33 44
REMARK SMILES IDX 67 45 46 46 66 47 47 48 50 49 65 50 85 51 48 52 49 53 64 55
REMARK SMILES IDX 86 56 51 57 34 58 35 59 44 60 36 61 37 62 43 63 45 64 38 65
REMARK SMILES IDX 39 66 40 67 41 68 42 69 68 70 69 71 78 72 70 73 71 74 77 75
REMARK SMILES IDX 79 76 72 77 73 78 74 79 75 80 76 81 52 82 53 83 62 84 54 85
REMARK SMILES IDX 55 86 61 87 63 88 56 89 57 90 58 91 59 92 60 93
REMARK H PARENT 12 20 84 43 50 54
REMARK Flexibility Score: inf
ROOT
ATOM      1  C   UNL A   1      32.671  28.954  27.282  1.00  0.00     0.275 C 
ENDROOT
BRANCH   1   2
ATOM      2  C   UNL A   1      32.398  29.329  25.819  1.00  0.00     0.274 C 
BRANCH   2   3
ATOM      3  O   UNL A   1      32.869  28.325  24.900  1.00  0.00    -0.460 OA
BRANCH   3   4
ATOM      4  C   UNL A   1      32.713  28.618  23.580  1.00  0.00     0.331 C 
ATOM      5  O   UNL A   1      33.495  29.321  22.944  1.00  0.00    -0.250 OA
BRANCH   4   6
ATOM      6  C   UNL A   1      31.484  27.960  22.927  1.00  0.00     0.218 C 
BRANCH   6   7
ATOM      7  C   UNL A   1      30.213  28.827  23.077  1.00  0.00     0.019 C 
ATOM      8  C   UNL A   1      30.009  29.762  21.874  1.00  0.00     0.010 C 
ATOM      9  C   UNL A   1      28.961  27.947  23.208  1.00  0.00     0.010 C 
ENDBRANCH   6   7
BRANCH   6  10
ATOM     10  N   UNL A   1      31.244  26.600  23.484  1.00  0.00    -0.264 NA
ATOM     11  C   UNL A   1      31.980  25.639  23.049  1.00  0.00     0.153 C 
ATOM     12  C   UNL A   1      33.005  25.510  21.980  1.00  0.00     0.255 C 
ATOM     13  C   UNL A   1      31.946  24.119  23.295  1.00  0.00     0.314 C 
ATOM     14  O   UNL A   1      33.439  26.251  21.154  1.00  0.00    -0.283 OA
ATOM     15  C   UNL A   1      33.037  24.018  22.167  1.00  0.00     0.268 C 
ATOM     16  O   UNL A   1      33.693  23.210  21.567  1.00  0.00    -0.283 OA
BRANCH  13  17
ATOM     17  N   UNL A   1      32.349  23.561  24.606  1.00  0.00    -0.321 N 
ATOM     18  C   UNL A   1      31.559  22.380  24.965  1.00  0.00     0.263 C 
ATOM     19  C   UNL A   1      32.332  24.508  25.729  1.00  0.00     0.263 C 
ATOM     20  H   UNL A   1      33.326  23.304  24.460  1.00  0.00     0.349 HD
ATOM     21  C   UNL A   1      30.790  22.756  26.214  1.00  0.00     0.067 C 
ATOM     22  C   UNL A   1      31.701  23.759  26.891  1.00  0.00     0.067 C 
ENDBRANCH  13  17
ENDBRANCH   6  10
ENDBRANCH   4   6
ENDBRANCH   3   4
ENDBRANCH   2   3
ENDBRANCH   1   2
BRANCH   1  23
ATOM     23  O   UNL A   1      34.074  28.911  27.606  1.00  0.00    -0.458 OA
BRANCH  23  24
ATOM     24  C   UNL A   1      34.587  30.088  28.025  1.00  0.00     0.338 C 
ATOM     25  O   UNL A   1      33.986  31.137  28.192  1.00  0.00    -0.246 OA
BRANCH  24  26
ATOM     26  C   UNL A   1      36.001  29.986  28.379  1.00  0.00     0.060 A 
ATOM     27  C   UNL A   1      36.927  30.155  27.350  1.00  0.00     0.016 A 
ATOM     28  C   UNL A   1      36.400  29.523  29.632  1.00  0.00     0.016 A 
ATOM     29  C   UNL A   1      38.259  29.826  27.550  1.00  0.00     0.010 A 
ATOM     30  C   UNL A   1      37.750  29.233  29.846  1.00  0.00     0.010 A 
ATOM     31  C   UNL A   1      38.682  29.370  28.802  1.00  0.00    -0.014 A 
BRANCH  31  32
ATOM     32  C   UNL A   1      40.113  29.061  29.009  1.00  0.00     0.031 A 
ATOM     33  C   UNL A   1      41.039  30.098  29.569  1.00  0.00     0.074 A 
ATOM     34  C   UNL A   1      40.556  27.827  28.708  1.00  0.00     0.049 A 
ATOM     35  N   UNL A   1      42.339  30.058  29.689  1.00  0.00    -0.248 NA
ATOM     36  C   UNL A   1      40.425  31.345  30.054  1.00  0.00     0.031 C 
ATOM     37  C   UNL A   1      39.722  26.730  28.212  1.00  0.00     0.029 A 
ATOM     38  N   UNL A   1      41.813  27.287  28.775  1.00  0.00    -0.354 N 
ATOM     39  C   UNL A   1      42.708  31.284  30.227  1.00  0.00     0.074 A 
ATOM     40  C   UNL A   1      41.492  32.046  30.417  1.00  0.00     0.031 C 
ATOM     41  C   UNL A   1      40.489  25.645  28.026  1.00  0.00     0.029 A 
ATOM     42  C   UNL A   1      41.874  25.991  28.327  1.00  0.00     0.049 A 
ATOM     43  H   UNL A   1      42.597  27.781  29.110  1.00  0.00     0.167 HD
ATOM     44  C   UNL A   1      43.952  31.728  30.526  1.00  0.00     0.037 A 
ATOM     45  C   UNL A   1      42.934  25.183  28.140  1.00  0.00     0.037 A 
ATOM     46  C   UNL A   1      45.146  30.938  30.360  1.00  0.00     0.049 A 
ATOM     47  C   UNL A   1      44.305  25.708  28.448  1.00  0.00     0.074 A 
ATOM     48  C   UNL A   1      46.456  31.286  30.639  1.00  0.00     0.029 A 
ATOM     49  N   UNL A   1      45.170  29.635  29.881  1.00  0.00    -0.354 N 
ATOM     50  N   UNL A   1      44.647  26.888  28.908  1.00  0.00    -0.248 NA
ATOM     51  C   UNL A   1      45.434  24.805  28.195  1.00  0.00     0.031 C 
ATOM     52  C   UNL A   1      47.275  30.202  30.303  1.00  0.00     0.029 A 
ATOM     53  C   UNL A   1      46.474  29.170  29.840  1.00  0.00     0.049 A 
ATOM     54  H   UNL A   1      44.378  29.119  29.608  1.00  0.00     0.167 HD
ATOM     55  C   UNL A   1      46.032  26.873  28.996  1.00  0.00     0.074 A 
ATOM     56  C   UNL A   1      46.463  25.558  28.561  1.00  0.00     0.031 C 
ATOM     57  C   UNL A   1      46.872  27.860  29.393  1.00  0.00     0.037 A 
BRANCH  44  58
ATOM     58  C   UNL A   1      44.090  33.138  31.021  1.00  0.00     0.058 A 
ATOM     59  C   UNL A   1      44.063  33.453  32.387  1.00  0.00     0.135 A 
ATOM     60  C   UNL A   1      44.285  34.190  30.109  1.00  0.00     0.135 A 
ATOM     61  F   UNL A   1      43.864  32.488  33.298  1.00  0.00    -0.206 F 
ATOM     62  C   UNL A   1      44.207  34.763  32.834  1.00  0.00     0.059 A 
ATOM     63  C   UNL A   1      44.448  35.504  30.534  1.00  0.00     0.059 A 
ATOM     64  F   UNL A   1      44.314  33.943  28.790  1.00  0.00    -0.206 F 
ATOM     65  C   UNL A   1      44.395  35.784  31.898  1.00  0.00     0.060 A 
BRANCH  65  66
ATOM     66  S   UNL A   1      44.586  37.482  32.484  1.00  0.00     0.124 S 
ATOM     67  O   UNL A   1      44.564  38.227  31.230  1.00  0.00    -0.237 OA
ATOM     68  O   UNL A   1      43.418  37.655  33.343  1.00  0.00    -0.237 OA
ATOM     69  O   UNL A   1      45.869  37.457  33.179  1.00  0.00    -0.744 OA
ENDBRANCH  65  66
ENDBRANCH  44  58
BRANCH  45  70
ATOM     70  C   UNL A   1      42.725  23.821  27.589  1.00  0.00     0.058 A 
ATOM     71  C   UNL A   1      42.772  23.583  26.210  1.00  0.00     0.135 A 
ATOM     72  C   UNL A   1      42.535  22.721  28.441  1.00  0.00     0.135 A 
ATOM     73  F   UNL A   1      42.947  24.605  25.358  1.00  0.00    -0.206 F 
ATOM     74  C   UNL A   1      42.641  22.299  25.690  1.00  0.00     0.059 A 
ATOM     75  C   UNL A   1      42.422  21.426  27.947  1.00  0.00     0.059 A 
ATOM     76  F   UNL A   1      42.498  22.897  29.771  1.00  0.00    -0.206 F 
ATOM     77  C   UNL A   1      42.473  21.226  26.568  1.00  0.00     0.060 A 
BRANCH  77  78
ATOM     78  S   UNL A   1      42.387  19.551  25.897  1.00  0.00     0.124 S 
ATOM     79  O   UNL A   1      40.998  19.481  25.461  1.00  0.00    -0.237 OA
ATOM     80  O   UNL A   1      43.389  19.586  24.836  1.00  0.00    -0.237 OA
ATOM     81  O   UNL A   1      42.733  18.717  27.044  1.00  0.00    -0.744 OA
ENDBRANCH  77  78
ENDBRANCH  45  70
BRANCH  57  82
ATOM     82  C   UNL A   1      48.339  27.547  29.370  1.00  0.00     0.058 A 
ATOM     83  C   UNL A   1      49.121  27.821  28.238  1.00  0.00     0.135 A 
ATOM     84  C   UNL A   1      48.973  27.013  30.501  1.00  0.00     0.135 A 
ATOM     85  F   UNL A   1      48.554  28.324  27.130  1.00  0.00    -0.206 F 
ATOM     86  C   UNL A   1      50.486  27.560  28.224  1.00  0.00     0.059 A 
ATOM     87  C   UNL A   1      50.341  26.760  30.514  1.00  0.00     0.059 A 
ATOM     88  F   UNL A   1      48.264  26.741  31.609  1.00  0.00    -0.206 F 
ATOM     89  C   UNL A   1      51.087  27.028  29.367  1.00  0.00     0.060 A 
BRANCH  89  90
ATOM     90  S   UNL A   1      52.866  26.726  29.352  1.00  0.00     0.124 S 
ATOM     91  O   UNL A   1      53.025  25.859  30.516  1.00  0.00    -0.237 OA
ATOM     92  O   UNL A   1      53.069  26.088  28.055  1.00  0.00    -0.237 OA
ATOM     93  O   UNL A   1      53.437  28.063  29.480  1.00  0.00    -0.744 OA
ENDBRANCH  89  90
ENDBRANCH  57  82
ENDBRANCH  31  32
ENDBRANCH  24  26
ENDBRANCH  23  24
ENDBRANCH   1  23
TORSDOF 17
ENDMDL
