MODEL 1
REMARK VINA RESULT:     -11.6      0.000      0.000
REMARK SMILES CC(C)CSc1cc2c(cc1Cl)C=C(C(=O)OCCOC(=O)c1ccc(-c3c4nc(c(-c5c(F)cc(S(=O)(=O)[O-])cc5F)c5ccc([nH]5)c(-c5c(F)cc(S(=O)(=O)[O-])cc5F)c5nc(c(-c6c(F)cc(S(=O)(=O)[O-])cc6F)c6ccc3[nH]6)C=C5)C=C4)cc1)[C@@H](C(F)(F)F)O2
REMARK SMILES IDX 18 1 17 2 15 3 16 4 14 5 6 6 7 7 11 8 8 9 10 10 12 11 9 12
REMARK SMILES IDX 94 13 13 14 89 15 5 16 4 17 2 18 1 19 3 20 90 21 91 22 92 23
REMARK SMILES IDX 93 24 19 25 20 26 21 27 22 28 23 29 24 30 88 31 25 32 87 33
REMARK SMILES IDX 26 34 27 35 28 36 81 37 29 38 86 39 80 40 82 41 30 42 85 43
REMARK SMILES IDX 79 44 78 45 31 47 65 48 44 49 64 50 45 51 48 52 63 53 83 54
REMARK SMILES IDX 46 55 47 56 62 58 84 59 49 60 32 61 33 62 42 63 34 64 35 65
REMARK SMILES IDX 41 66 43 67 36 68 37 69 38 70 39 71 40 72 66 73 67 74 76 75
REMARK SMILES IDX 68 76 69 77 75 78 77 79 70 80 71 81 72 82 73 83 74 84 50 85
REMARK SMILES IDX 51 86 60 87 52 88 53 89 59 90 61 91 54 92 55 93 56 94 57 95
REMARK SMILES IDX 58 96
REMARK H PARENT 82 46 48 57
REMARK Flexibility Score: inf
ROOT
ATOM      1  C   UNL A   1      38.902  22.014  26.171  1.00  0.00     0.275 C 
ENDROOT
BRANCH   1   2
ATOM      2  O   UNL A   1      37.694  22.696  25.769  1.00  0.00    -0.459 OA
BRANCH   2   3
ATOM      3  C   UNL A   1      37.075  22.178  24.684  1.00  0.00     0.338 C 
ATOM      4  O   UNL A   1      37.532  21.341  23.921  1.00  0.00    -0.246 OA
BRANCH   3   5
ATOM      5  C   UNL A   1      35.727  22.753  24.510  1.00  0.00     0.087 C 
ATOM      6  C   UNL A   1      31.648  25.632  25.087  1.00  0.00     0.030 A 
ATOM      7  C   UNL A   1      31.861  24.302  24.681  1.00  0.00     0.063 A 
ATOM      8  C   UNL A   1      32.760  26.433  25.398  1.00  0.00     0.055 A 
ATOM      9  C   UNL A   1      33.152  23.789  24.556  1.00  0.00     0.129 A 
ATOM     10  C   UNL A   1      34.049  25.919  25.274  1.00  0.00     0.033 A 
ATOM     11  Cl  UNL A   1      32.618  28.079  25.912  1.00  0.00    -0.083 Cl
ATOM     12  C   UNL A   1      34.241  24.598  24.858  1.00  0.00     0.019 A 
ATOM     13  O   UNL A   1      33.271  22.500  24.114  1.00  0.00    -0.475 OA
ATOM     14  C   UNL A   1      35.575  24.048  24.799  1.00  0.00     0.027 C 
ATOM     15  C   UNL A   1      34.574  21.846  24.195  1.00  0.00     0.316 C 
BRANCH   6  16
ATOM     16  S   UNL A   1      29.977  26.265  25.196  1.00  0.00    -0.124 SA
BRANCH  16  17
ATOM     17  C   UNL A   1      29.717  26.945  23.521  1.00  0.00     0.078 C 
BRANCH  17  18
ATOM     18  C   UNL A   1      29.675  28.481  23.411  1.00  0.00    -0.007 C 
ATOM     19  C   UNL A   1      30.774  29.075  22.528  1.00  0.00     0.008 C 
ATOM     20  C   UNL A   1      28.313  28.888  22.835  1.00  0.00     0.008 C 
ENDBRANCH  17  18
ENDBRANCH  16  17
ENDBRANCH   6  16
BRANCH  15  21
ATOM     21  C   UNL A   1      34.471  20.682  25.193  1.00  0.00     0.430 C 
ATOM     22  F   UNL A   1      35.296  19.664  24.841  1.00  0.00    -0.167 F 
ATOM     23  F   UNL A   1      34.839  21.057  26.442  1.00  0.00    -0.167 F 
ATOM     24  F   UNL A   1      33.219  20.181  25.268  1.00  0.00    -0.167 F 
ENDBRANCH  15  21
ENDBRANCH   3   5
ENDBRANCH   2   3
ENDBRANCH   1   2
BRANCH   1  25
ATOM     25  C   UNL A   1      40.023  22.994  26.524  1.00  0.00     0.275 C 
BRANCH  25  26
ATOM     26  O   UNL A   1      39.572  24.355  26.416  1.00  0.00    -0.458 OA
BRANCH  26  27
ATOM     27  C   UNL A   1      40.554  25.275  26.290  1.00  0.00     0.338 C 
ATOM     28  O   UNL A   1      41.215  25.519  25.294  1.00  0.00    -0.246 OA
BRANCH  27  29
ATOM     29  C   UNL A   1      40.663  26.063  27.525  1.00  0.00     0.060 A 
ATOM     30  C   UNL A   1      41.527  27.144  27.626  1.00  0.00     0.016 A 
ATOM     31  C   UNL A   1      39.741  25.811  28.533  1.00  0.00     0.016 A 
ATOM     32  C   UNL A   1      41.449  27.971  28.755  1.00  0.00     0.010 A 
ATOM     33  C   UNL A   1      39.552  26.727  29.561  1.00  0.00     0.010 A 
ATOM     34  C   UNL A   1      40.426  27.804  29.713  1.00  0.00    -0.014 A 
BRANCH  34  35
ATOM     35  C   UNL A   1      40.267  28.736  30.868  1.00  0.00     0.031 A 
ATOM     36  C   UNL A   1      41.165  28.629  32.082  1.00  0.00     0.074 A 
ATOM     37  C   UNL A   1      39.279  29.656  30.850  1.00  0.00     0.049 A 
ATOM     38  N   UNL A   1      41.157  29.342  33.181  1.00  0.00    -0.248 NA
ATOM     39  C   UNL A   1      42.173  27.555  32.089  1.00  0.00     0.031 C 
ATOM     40  C   UNL A   1      38.276  29.801  29.792  1.00  0.00     0.029 A 
ATOM     41  N   UNL A   1      38.962  30.654  31.739  1.00  0.00    -0.354 N 
ATOM     42  C   UNL A   1      42.135  28.791  34.004  1.00  0.00     0.074 A 
ATOM     43  C   UNL A   1      42.658  27.633  33.318  1.00  0.00     0.031 C 
ATOM     44  C   UNL A   1      37.513  30.875  30.048  1.00  0.00     0.029 A 
ATOM     45  C   UNL A   1      37.936  31.467  31.312  1.00  0.00     0.049 A 
ATOM     46  H   UNL A   1      39.425  30.777  32.598  1.00  0.00     0.167 HD
ATOM     47  C   UNL A   1      42.595  29.232  35.199  1.00  0.00     0.037 A 
ATOM     48  C   UNL A   1      37.404  32.575  31.867  1.00  0.00     0.037 A 
ATOM     49  C   UNL A   1      42.115  30.422  35.851  1.00  0.00     0.049 A 
ATOM     50  C   UNL A   1      37.965  33.078  33.168  1.00  0.00     0.074 A 
ATOM     51  C   UNL A   1      42.560  30.997  37.028  1.00  0.00     0.029 A 
ATOM     52  N   UNL A   1      41.093  31.228  35.373  1.00  0.00    -0.354 N 
ATOM     53  N   UNL A   1      38.932  32.576  33.897  1.00  0.00    -0.248 NA
ATOM     54  C   UNL A   1      37.366  34.301  33.720  1.00  0.00     0.031 C 
ATOM     55  C   UNL A   1      41.786  32.135  37.278  1.00  0.00     0.029 A 
ATOM     56  C   UNL A   1      40.890  32.293  36.233  1.00  0.00     0.049 A 
ATOM     57  H   UNL A   1      40.588  31.067  34.544  1.00  0.00     0.167 HD
ATOM     58  C   UNL A   1      39.071  33.431  34.983  1.00  0.00     0.074 A 
ATOM     59  C   UNL A   1      38.102  34.493  34.805  1.00  0.00     0.031 C 
ATOM     60  C   UNL A   1      39.922  33.344  36.036  1.00  0.00     0.037 A 
BRANCH  47  61
ATOM     61  C   UNL A   1      43.705  28.454  35.859  1.00  0.00     0.058 A 
ATOM     62  C   UNL A   1      45.054  28.790  35.660  1.00  0.00     0.135 A 
ATOM     63  C   UNL A   1      43.421  27.395  36.738  1.00  0.00     0.135 A 
ATOM     64  F   UNL A   1      45.387  29.783  34.819  1.00  0.00    -0.206 F 
ATOM     65  C   UNL A   1      46.081  28.091  36.284  1.00  0.00     0.059 A 
ATOM     66  C   UNL A   1      44.433  26.701  37.399  1.00  0.00     0.059 A 
ATOM     67  F   UNL A   1      42.151  27.030  36.969  1.00  0.00    -0.206 F 
ATOM     68  C   UNL A   1      45.761  27.049  37.156  1.00  0.00     0.060 A 
BRANCH  68  69
ATOM     69  S   UNL A   1      47.109  26.172  37.975  1.00  0.00     0.124 S 
ATOM     70  O   UNL A   1      48.248  26.540  37.138  1.00  0.00    -0.237 OA
ATOM     71  O   UNL A   1      47.092  26.756  39.312  1.00  0.00    -0.237 OA
ATOM     72  O   UNL A   1      46.703  24.773  37.899  1.00  0.00    -0.744 OA
ENDBRANCH  68  69
ENDBRANCH  47  61
BRANCH  48  73
ATOM     73  C   UNL A   1      36.326  33.314  31.154  1.00  0.00     0.058 A 
ATOM     74  C   UNL A   1      35.012  33.313  31.645  1.00  0.00     0.135 A 
ATOM     75  C   UNL A   1      36.592  34.069  30.002  1.00  0.00     0.135 A 
ATOM     76  F   UNL A   1      34.706  32.603  32.742  1.00  0.00    -0.206 F 
ATOM     77  C   UNL A   1      33.997  34.027  31.017  1.00  0.00     0.059 A 
ATOM     78  C   UNL A   1      35.599  34.812  29.369  1.00  0.00     0.059 A 
ATOM     79  F   UNL A   1      37.837  34.118  29.503  1.00  0.00    -0.206 F 
ATOM     80  C   UNL A   1      34.303  34.781  29.882  1.00  0.00     0.060 A 
BRANCH  80  81
ATOM     81  S   UNL A   1      32.991  35.759  29.117  1.00  0.00     0.124 S 
ATOM     82  O   UNL A   1      32.376  34.781  28.226  1.00  0.00    -0.237 OA
ATOM     83  O   UNL A   1      32.195  36.159  30.273  1.00  0.00    -0.237 OA
ATOM     84  O   UNL A   1      33.718  36.842  28.460  1.00  0.00    -0.744 OA
ENDBRANCH  80  81
ENDBRANCH  48  73
BRANCH  60  85
ATOM     85  C   UNL A   1      39.864  34.436  37.067  1.00  0.00     0.058 A 
ATOM     86  C   UNL A   1      40.606  35.617  36.928  1.00  0.00     0.135 A 
ATOM     87  C   UNL A   1      39.010  34.321  38.176  1.00  0.00     0.135 A 
ATOM     88  F   UNL A   1      41.440  35.773  35.887  1.00  0.00    -0.206 F 
ATOM     89  C   UNL A   1      40.523  36.640  37.866  1.00  0.00     0.059 A 
ATOM     90  C   UNL A   1      38.889  35.343  39.112  1.00  0.00     0.059 A 
ATOM     91  F   UNL A   1      38.268  33.215  38.348  1.00  0.00    -0.206 F 
ATOM     92  C   UNL A   1      39.660  36.494  38.954  1.00  0.00     0.060 A 
BRANCH  92  93
ATOM     93  S   UNL A   1      39.542  37.843  40.148  1.00  0.00     0.124 S 
ATOM     94  O   UNL A   1      38.452  38.636  39.588  1.00  0.00    -0.237 OA
ATOM     95  O   UNL A   1      39.239  37.134  41.389  1.00  0.00    -0.237 OA
ATOM     96  O   UNL A   1      40.862  38.463  40.093  1.00  0.00    -0.744 OA
ENDBRANCH  92  93
ENDBRANCH  60  85
ENDBRANCH  34  35
ENDBRANCH  27  29
ENDBRANCH  26  27
ENDBRANCH  25  26
ENDBRANCH   1  25
TORSDOF 18
ENDMDL
MODEL 2
REMARK VINA RESULT:     -11.3      5.345      6.925
REMARK SMILES CC(C)CSc1cc2c(cc1Cl)C=C(C(=O)OCCOC(=O)c1ccc(-c3c4nc(c(-c5c(F)cc(S(=O)(=O)[O-])cc5F)c5ccc([nH]5)c(-c5c(F)cc(S(=O)(=O)[O-])cc5F)c5nc(c(-c6c(F)cc(S(=O)(=O)[O-])cc6F)c6ccc3[nH]6)C=C5)C=C4)cc1)[C@@H](C(F)(F)F)O2
REMARK SMILES IDX 18 1 17 2 15 3 16 4 14 5 6 6 7 7 11 8 8 9 10 10 12 11 9 12
REMARK SMILES IDX 94 13 13 14 89 15 5 16 4 17 2 18 1 19 3 20 90 21 91 22 92 23
REMARK SMILES IDX 93 24 19 25 20 26 21 27 22 28 23 29 24 30 88 31 25 32 87 33
REMARK SMILES IDX 26 34 27 35 28 36 81 37 29 38 86 39 80 40 82 41 30 42 85 43
REMARK SMILES IDX 79 44 78 45 31 47 65 48 44 49 64 50 45 51 48 52 63 53 83 54
REMARK SMILES IDX 46 55 47 56 62 58 84 59 49 60 32 61 33 62 42 63 34 64 35 65
REMARK SMILES IDX 41 66 43 67 36 68 37 69 38 70 39 71 40 72 66 73 67 74 76 75
REMARK SMILES IDX 68 76 69 77 75 78 77 79 70 80 71 81 72 82 73 83 74 84 50 85
REMARK SMILES IDX 51 86 60 87 52 88 53 89 59 90 61 91 54 92 55 93 56 94 57 95
REMARK SMILES IDX 58 96
REMARK H PARENT 82 46 48 57
REMARK Flexibility Score: inf
ROOT
ATOM      1  C   UNL A   1      36.648  20.252  25.051  1.00  0.00     0.275 C 
ENDROOT
BRANCH   1   2
ATOM      2  O   UNL A   1      35.291  20.514  24.628  1.00  0.00    -0.459 OA
BRANCH   2   3
ATOM      3  C   UNL A   1      34.591  21.349  25.430  1.00  0.00     0.338 C 
ATOM      4  O   UNL A   1      34.236  21.124  26.576  1.00  0.00    -0.246 OA
BRANCH   3   5
ATOM      5  C   UNL A   1      34.288  22.620  24.745  1.00  0.00     0.087 C 
ATOM      6  C   UNL A   1      32.995  27.402  23.894  1.00  0.00     0.030 A 
ATOM      7  C   UNL A   1      32.867  26.206  23.164  1.00  0.00     0.063 A 
ATOM      8  C   UNL A   1      33.638  27.370  25.143  1.00  0.00     0.055 A 
ATOM      9  C   UNL A   1      33.396  25.011  23.650  1.00  0.00     0.129 A 
ATOM     10  C   UNL A   1      34.164  26.174  25.628  1.00  0.00     0.033 A 
ATOM     11  Cl  UNL A   1      33.848  28.776  26.129  1.00  0.00    -0.083 Cl
ATOM     12  C   UNL A   1      34.037  24.998  24.882  1.00  0.00     0.019 A 
ATOM     13  O   UNL A   1      33.265  23.904  22.857  1.00  0.00    -0.475 OA
ATOM     14  C   UNL A   1      34.521  23.749  25.421  1.00  0.00     0.027 C 
ATOM     15  C   UNL A   1      33.584  22.594  23.419  1.00  0.00     0.316 C 
BRANCH   6  16
ATOM     16  S   UNL A   1      32.339  28.924  23.216  1.00  0.00    -0.124 SA
BRANCH  16  17
ATOM     17  C   UNL A   1      30.743  29.074  24.091  1.00  0.00     0.078 C 
BRANCH  17  18
ATOM     18  C   UNL A   1      29.530  29.469  23.228  1.00  0.00    -0.007 C 
ATOM     19  C   UNL A   1      29.891  29.927  21.813  1.00  0.00     0.008 C 
ATOM     20  C   UNL A   1      28.593  28.259  23.126  1.00  0.00     0.008 C 
ENDBRANCH  17  18
ENDBRANCH  16  17
ENDBRANCH   6  16
BRANCH  15  21
ATOM     21  C   UNL A   1      32.294  21.762  23.472  1.00  0.00     0.430 C 
ATOM     22  F   UNL A   1      31.742  21.797  24.711  1.00  0.00    -0.167 F 
ATOM     23  F   UNL A   1      31.353  22.238  22.621  1.00  0.00    -0.167 F 
ATOM     24  F   UNL A   1      32.508  20.465  23.162  1.00  0.00    -0.167 F 
ENDBRANCH  15  21
ENDBRANCH   3   5
ENDBRANCH   2   3
ENDBRANCH   1   2
BRANCH   1  25
ATOM     25  C   UNL A   1      37.579  21.427  24.744  1.00  0.00     0.275 C 
BRANCH  25  26
ATOM     26  O   UNL A   1      37.949  22.121  25.948  1.00  0.00    -0.458 OA
BRANCH  26  27
ATOM     27  C   UNL A   1      39.229  21.938  26.343  1.00  0.00     0.338 C 
ATOM     28  O   UNL A   1      39.935  20.966  26.133  1.00  0.00    -0.246 OA
BRANCH  27  29
ATOM     29  C   UNL A   1      39.730  23.156  26.993  1.00  0.00     0.060 A 
ATOM     30  C   UNL A   1      40.748  23.112  27.936  1.00  0.00     0.016 A 
ATOM     31  C   UNL A   1      39.286  24.378  26.504  1.00  0.00     0.016 A 
ATOM     32  C   UNL A   1      41.315  24.316  28.378  1.00  0.00     0.010 A 
ATOM     33  C   UNL A   1      39.962  25.551  26.814  1.00  0.00     0.010 A 
ATOM     34  C   UNL A   1      40.965  25.548  27.786  1.00  0.00    -0.014 A 
BRANCH  34  35
ATOM     35  C   UNL A   1      41.630  26.827  28.174  1.00  0.00     0.031 A 
ATOM     36  C   UNL A   1      43.089  27.073  27.854  1.00  0.00     0.074 A 
ATOM     37  C   UNL A   1      40.934  27.757  28.862  1.00  0.00     0.049 A 
ATOM     38  N   UNL A   1      43.831  28.117  28.130  1.00  0.00    -0.248 NA
ATOM     39  C   UNL A   1      43.827  25.993  27.176  1.00  0.00     0.031 C 
ATOM     40  C   UNL A   1      39.553  27.607  29.329  1.00  0.00     0.029 A 
ATOM     41  N   UNL A   1      41.282  29.019  29.276  1.00  0.00    -0.354 N 
ATOM     42  C   UNL A   1      45.112  27.808  27.682  1.00  0.00     0.074 A 
ATOM     43  C   UNL A   1      45.070  26.449  27.194  1.00  0.00     0.031 C 
ATOM     44  C   UNL A   1      39.146  28.758  29.886  1.00  0.00     0.029 A 
ATOM     45  C   UNL A   1      40.249  29.713  29.864  1.00  0.00     0.049 A 
ATOM     46  H   UNL A   1      42.185  29.392  29.162  1.00  0.00     0.167 HD
ATOM     47  C   UNL A   1      46.213  28.594  27.632  1.00  0.00     0.037 A 
ATOM     48  C   UNL A   1      40.188  30.979  30.321  1.00  0.00     0.037 A 
ATOM     49  C   UNL A   1      46.235  29.967  28.062  1.00  0.00     0.049 A 
ATOM     50  C   UNL A   1      41.406  31.853  30.208  1.00  0.00     0.074 A 
ATOM     51  C   UNL A   1      47.278  30.874  27.990  1.00  0.00     0.029 A 
ATOM     52  N   UNL A   1      45.161  30.636  28.628  1.00  0.00    -0.354 N 
ATOM     53  N   UNL A   1      42.588  31.558  29.722  1.00  0.00    -0.248 NA
ATOM     54  C   UNL A   1      41.283  33.232  30.699  1.00  0.00     0.031 C 
ATOM     55  C   UNL A   1      46.843  32.084  28.542  1.00  0.00     0.029 A 
ATOM     56  C   UNL A   1      45.516  31.943  28.914  1.00  0.00     0.049 A 
ATOM     57  H   UNL A   1      44.276  30.241  28.799  1.00  0.00     0.167 HD
ATOM     58  C   UNL A   1      43.344  32.720  29.832  1.00  0.00     0.074 A 
ATOM     59  C   UNL A   1      42.478  33.727  30.411  1.00  0.00     0.031 C 
ATOM     60  C   UNL A   1      44.638  32.933  29.488  1.00  0.00     0.037 A 
BRANCH  47  61
ATOM     61  C   UNL A   1      47.473  28.007  27.050  1.00  0.00     0.058 A 
ATOM     62  C   UNL A   1      47.740  28.062  25.672  1.00  0.00     0.135 A 
ATOM     63  C   UNL A   1      48.450  27.428  27.879  1.00  0.00     0.135 A 
ATOM     64  F   UNL A   1      46.837  28.589  24.830  1.00  0.00    -0.206 F 
ATOM     65  C   UNL A   1      48.911  27.542  25.133  1.00  0.00     0.059 A 
ATOM     66  C   UNL A   1      49.646  26.930  27.364  1.00  0.00     0.059 A 
ATOM     67  F   UNL A   1      48.253  27.349  29.203  1.00  0.00    -0.206 F 
ATOM     68  C   UNL A   1      49.862  26.982  25.988  1.00  0.00     0.060 A 
BRANCH  68  69
ATOM     69  S   UNL A   1      51.386  26.337  25.268  1.00  0.00     0.124 S 
ATOM     70  O   UNL A   1      51.034  26.263  23.853  1.00  0.00    -0.237 OA
ATOM     71  O   UNL A   1      52.357  27.366  25.625  1.00  0.00    -0.237 OA
ATOM     72  O   UNL A   1      51.564  25.053  25.937  1.00  0.00    -0.744 OA
ENDBRANCH  68  69
ENDBRANCH  47  61
BRANCH  48  73
ATOM     73  C   UNL A   1      38.907  31.510  30.861  1.00  0.00     0.058 A 
ATOM     74  C   UNL A   1      38.666  31.529  32.243  1.00  0.00     0.135 A 
ATOM     75  C   UNL A   1      37.921  32.047  30.019  1.00  0.00     0.135 A 
ATOM     76  F   UNL A   1      39.576  31.023  33.090  1.00  0.00    -0.206 F 
ATOM     77  C   UNL A   1      37.491  32.054  32.773  1.00  0.00     0.059 A 
ATOM     78  C   UNL A   1      36.749  32.601  30.527  1.00  0.00     0.059 A 
ATOM     79  F   UNL A   1      38.111  32.069  28.692  1.00  0.00    -0.206 F 
ATOM     80  C   UNL A   1      36.541  32.596  31.906  1.00  0.00     0.060 A 
BRANCH  80  81
ATOM     81  S   UNL A   1      35.053  33.337  32.611  1.00  0.00     0.124 S 
ATOM     82  O   UNL A   1      34.000  32.595  31.926  1.00  0.00    -0.237 OA
ATOM     83  O   UNL A   1      35.214  33.051  34.033  1.00  0.00    -0.237 OA
ATOM     84  O   UNL A   1      35.172  34.746  32.245  1.00  0.00    -0.744 OA
ENDBRANCH  80  81
ENDBRANCH  48  73
BRANCH  60  85
ATOM     85  C   UNL A   1      45.194  34.312  29.703  1.00  0.00     0.058 A 
ATOM     86  C   UNL A   1      45.110  35.301  28.713  1.00  0.00     0.135 A 
ATOM     87  C   UNL A   1      45.766  34.663  30.938  1.00  0.00     0.135 A 
ATOM     88  F   UNL A   1      44.576  35.015  27.515  1.00  0.00    -0.206 F 
ATOM     89  C   UNL A   1      45.595  36.587  28.930  1.00  0.00     0.059 A 
ATOM     90  C   UNL A   1      46.232  35.950  31.186  1.00  0.00     0.059 A 
ATOM     91  F   UNL A   1      45.859  33.755  31.923  1.00  0.00    -0.206 F 
ATOM     92  C   UNL A   1      46.152  36.901  30.171  1.00  0.00     0.060 A 
BRANCH  92  93
ATOM     93  S   UNL A   1      46.752  38.582  30.445  1.00  0.00     0.124 S 
ATOM     94  O   UNL A   1      45.527  39.360  30.285  1.00  0.00    -0.237 OA
ATOM     95  O   UNL A   1      47.281  38.505  31.804  1.00  0.00    -0.237 OA
ATOM     96  O   UNL A   1      47.751  38.762  29.397  1.00  0.00    -0.744 OA
ENDBRANCH  92  93
ENDBRANCH  60  85
ENDBRANCH  34  35
ENDBRANCH  27  29
ENDBRANCH  26  27
ENDBRANCH  25  26
ENDBRANCH   1  25
TORSDOF 18
ENDMDL
MODEL 3
REMARK VINA RESULT:     -11.3      3.536      9.449
REMARK SMILES CC(C)CSc1cc2c(cc1Cl)C=C(C(=O)OCCOC(=O)c1ccc(-c3c4nc(c(-c5c(F)cc(S(=O)(=O)[O-])cc5F)c5ccc([nH]5)c(-c5c(F)cc(S(=O)(=O)[O-])cc5F)c5nc(c(-c6c(F)cc(S(=O)(=O)[O-])cc6F)c6ccc3[nH]6)C=C5)C=C4)cc1)[C@@H](C(F)(F)F)O2
REMARK SMILES IDX 18 1 17 2 15 3 16 4 14 5 6 6 7 7 11 8 8 9 10 10 12 11 9 12
REMARK SMILES IDX 94 13 13 14 89 15 5 16 4 17 2 18 1 19 3 20 90 21 91 22 92 23
REMARK SMILES IDX 93 24 19 25 20 26 21 27 22 28 23 29 24 30 88 31 25 32 87 33
REMARK SMILES IDX 26 34 27 35 28 36 81 37 29 38 86 39 80 40 82 41 30 42 85 43
REMARK SMILES IDX 79 44 78 45 31 47 65 48 44 49 64 50 45 51 48 52 63 53 83 54
REMARK SMILES IDX 46 55 47 56 62 58 84 59 49 60 32 61 33 62 42 63 34 64 35 65
REMARK SMILES IDX 41 66 43 67 36 68 37 69 38 70 39 71 40 72 66 73 67 74 76 75
REMARK SMILES IDX 68 76 69 77 75 78 77 79 70 80 71 81 72 82 73 83 74 84 50 85
REMARK SMILES IDX 51 86 60 87 52 88 53 89 59 90 61 91 54 92 55 93 56 94 57 95
REMARK SMILES IDX 58 96
REMARK H PARENT 82 46 48 57
REMARK Flexibility Score: inf
ROOT
ATOM      1  C   UNL A   1      31.731  30.084  25.459  1.00  0.00     0.275 C 
ENDROOT
BRANCH   1   2
ATOM      2  O   UNL A   1      32.869  29.541  24.753  1.00  0.00    -0.459 OA
BRANCH   2   3
ATOM      3  C   UNL A   1      32.576  28.590  23.836  1.00  0.00     0.338 C 
ATOM      4  O   UNL A   1      32.326  28.775  22.655  1.00  0.00    -0.246 OA
BRANCH   3   5
ATOM      5  C   UNL A   1      32.592  27.243  24.438  1.00  0.00     0.087 C 
ATOM      6  C   UNL A   1      33.600  22.389  25.265  1.00  0.00     0.030 A 
ATOM      7  C   UNL A   1      32.494  23.220  25.524  1.00  0.00     0.063 A 
ATOM      8  C   UNL A   1      34.743  22.946  24.668  1.00  0.00     0.055 A 
ATOM      9  C   UNL A   1      32.536  24.581  25.227  1.00  0.00     0.129 A 
ATOM     10  C   UNL A   1      34.783  24.307  24.370  1.00  0.00     0.033 A 
ATOM     11  Cl  UNL A   1      36.157  22.020  24.299  1.00  0.00    -0.083 Cl
ATOM     12  C   UNL A   1      33.678  25.119  24.646  1.00  0.00     0.019 A 
ATOM     13  O   UNL A   1      31.435  25.325  25.550  1.00  0.00    -0.475 OA
ATOM     14  C   UNL A   1      33.699  26.513  24.271  1.00  0.00     0.027 C 
ATOM     15  C   UNL A   1      31.336  26.692  25.046  1.00  0.00     0.316 C 
BRANCH   6  16
ATOM     16  S   UNL A   1      33.520  20.654  25.699  1.00  0.00    -0.124 SA
BRANCH  16  17
ATOM     17  C   UNL A   1      32.691  19.933  24.241  1.00  0.00     0.078 C 
BRANCH  17  18
ATOM     18  C   UNL A   1      32.527  18.401  24.240  1.00  0.00    -0.007 C 
ATOM     19  C   UNL A   1      33.621  17.656  23.472  1.00  0.00     0.008 C 
ATOM     20  C   UNL A   1      32.532  17.913  25.694  1.00  0.00     0.008 C 
ENDBRANCH  17  18
ENDBRANCH  16  17
ENDBRANCH   6  16
BRANCH  15  21
ATOM     21  C   UNL A   1      30.149  26.766  24.074  1.00  0.00     0.430 C 
ATOM     22  F   UNL A   1      30.501  26.325  22.841  1.00  0.00    -0.167 F 
ATOM     23  F   UNL A   1      29.118  25.984  24.479  1.00  0.00    -0.167 F 
ATOM     24  F   UNL A   1      29.678  28.024  23.935  1.00  0.00    -0.167 F 
ENDBRANCH  15  21
ENDBRANCH   3   5
ENDBRANCH   2   3
ENDBRANCH   1   2
BRANCH   1  25
ATOM     25  C   UNL A   1      32.128  30.681  26.811  1.00  0.00     0.275 C 
BRANCH  25  26
ATOM     26  O   UNL A   1      33.522  30.455  27.086  1.00  0.00    -0.458 OA
BRANCH  26  27
ATOM     27  C   UNL A   1      34.175  31.508  27.625  1.00  0.00     0.338 C 
ATOM     28  O   UNL A   1      33.740  32.632  27.811  1.00  0.00    -0.246 OA
BRANCH  27  29
ATOM     29  C   UNL A   1      35.504  31.087  28.089  1.00  0.00     0.060 A 
ATOM     30  C   UNL A   1      36.524  32.003  28.310  1.00  0.00     0.016 A 
ATOM     31  C   UNL A   1      35.662  29.763  28.479  1.00  0.00     0.016 A 
ATOM     32  C   UNL A   1      37.702  31.569  28.931  1.00  0.00     0.010 A 
ATOM     33  C   UNL A   1      36.755  29.378  29.245  1.00  0.00     0.010 A 
ATOM     34  C   UNL A   1      37.814  30.263  29.454  1.00  0.00    -0.014 A 
BRANCH  34  35
ATOM     35  C   UNL A   1      39.023  29.815  30.206  1.00  0.00     0.031 A 
ATOM     36  C   UNL A   1      39.299  30.322  31.605  1.00  0.00     0.074 A 
ATOM     37  C   UNL A   1      39.905  28.982  29.614  1.00  0.00     0.049 A 
ATOM     38  N   UNL A   1      40.307  30.051  32.398  1.00  0.00    -0.248 NA
ATOM     39  C   UNL A   1      38.350  31.293  32.176  1.00  0.00     0.031 C 
ATOM     40  C   UNL A   1      39.818  28.499  28.233  1.00  0.00     0.029 A 
ATOM     41  N   UNL A   1      41.041  28.381  30.098  1.00  0.00    -0.354 N 
ATOM     42  C   UNL A   1      40.120  30.829  33.537  1.00  0.00     0.074 A 
ATOM     43  C   UNL A   1      38.953  31.646  33.301  1.00  0.00     0.031 C 
ATOM     44  C   UNL A   1      40.802  27.614  28.010  1.00  0.00     0.029 A 
ATOM     45  C   UNL A   1      41.622  27.502  29.211  1.00  0.00     0.049 A 
ATOM     46  H   UNL A   1      41.404  28.560  30.994  1.00  0.00     0.167 HD
ATOM     47  C   UNL A   1      40.822  30.833  34.695  1.00  0.00     0.037 A 
ATOM     48  C   UNL A   1      42.685  26.686  29.352  1.00  0.00     0.037 A 
ATOM     49  C   UNL A   1      41.946  29.973  34.951  1.00  0.00     0.049 A 
ATOM     50  C   UNL A   1      43.418  26.666  30.664  1.00  0.00     0.074 A 
ATOM     51  C   UNL A   1      42.685  29.845  36.114  1.00  0.00     0.029 A 
ATOM     52  N   UNL A   1      42.485  29.082  34.035  1.00  0.00    -0.354 N 
ATOM     53  N   UNL A   1      43.184  27.364  31.749  1.00  0.00    -0.248 NA
ATOM     54  C   UNL A   1      44.556  25.743  30.774  1.00  0.00     0.031 C 
ATOM     55  C   UNL A   1      43.690  28.899  35.891  1.00  0.00     0.029 A 
ATOM     56  C   UNL A   1      43.550  28.404  34.605  1.00  0.00     0.049 A 
ATOM     57  H   UNL A   1      42.159  28.951  33.116  1.00  0.00     0.167 HD
ATOM     58  C   UNL A   1      44.133  26.953  32.677  1.00  0.00     0.074 A 
ATOM     59  C   UNL A   1      44.931  25.930  32.032  1.00  0.00     0.031 C 
ATOM     60  C   UNL A   1      44.329  27.385  33.947  1.00  0.00     0.037 A 
BRANCH  47  61
ATOM     61  C   UNL A   1      40.366  31.759  35.793  1.00  0.00     0.058 A 
ATOM     62  C   UNL A   1      39.212  31.491  36.548  1.00  0.00     0.135 A 
ATOM     63  C   UNL A   1      41.113  32.900  36.133  1.00  0.00     0.135 A 
ATOM     64  F   UNL A   1      38.449  30.424  36.260  1.00  0.00    -0.206 F 
ATOM     65  C   UNL A   1      38.800  32.329  37.577  1.00  0.00     0.059 A 
ATOM     66  C   UNL A   1      40.737  33.737  37.181  1.00  0.00     0.059 A 
ATOM     67  F   UNL A   1      42.226  33.207  35.450  1.00  0.00    -0.206 F 
ATOM     68  C   UNL A   1      39.572  33.449  37.890  1.00  0.00     0.060 A 
BRANCH  68  69
ATOM     69  S   UNL A   1      39.031  34.510  39.248  1.00  0.00     0.124 S 
ATOM     70  O   UNL A   1      38.904  35.800  38.578  1.00  0.00    -0.237 OA
ATOM     71  O   UNL A   1      37.778  33.881  39.652  1.00  0.00    -0.237 OA
ATOM     72  O   UNL A   1      40.120  34.409  40.213  1.00  0.00    -0.744 OA
ENDBRANCH  68  69
ENDBRANCH  47  61
BRANCH  48  73
ATOM     73  C   UNL A   1      43.070  25.776  28.239  1.00  0.00     0.058 A 
ATOM     74  C   UNL A   1      44.154  26.085  27.403  1.00  0.00     0.135 A 
ATOM     75  C   UNL A   1      42.399  24.564  28.016  1.00  0.00     0.135 A 
ATOM     76  F   UNL A   1      44.825  27.234  27.573  1.00  0.00    -0.206 F 
ATOM     77  C   UNL A   1      44.555  25.231  26.381  1.00  0.00     0.059 A 
ATOM     78  C   UNL A   1      42.797  23.681  27.016  1.00  0.00     0.059 A 
ATOM     79  F   UNL A   1      41.368  24.213  28.799  1.00  0.00    -0.206 F 
ATOM     80  C   UNL A   1      43.874  24.026  26.200  1.00  0.00     0.060 A 
BRANCH  80  81
ATOM     81  S   UNL A   1      44.449  22.895  24.914  1.00  0.00     0.124 S 
ATOM     82  O   UNL A   1      43.199  22.541  24.251  1.00  0.00    -0.237 OA
ATOM     83  O   UNL A   1      45.361  23.740  24.150  1.00  0.00    -0.237 OA
ATOM     84  O   UNL A   1      45.088  21.821  25.672  1.00  0.00    -0.744 OA
ENDBRANCH  80  81
ENDBRANCH  48  73
BRANCH  60  85
ATOM     85  C   UNL A   1      45.432  26.739  34.737  1.00  0.00     0.058 A 
ATOM     86  C   UNL A   1      46.727  27.278  34.766  1.00  0.00     0.135 A 
ATOM     87  C   UNL A   1      45.175  25.601  35.519  1.00  0.00     0.135 A 
ATOM     88  F   UNL A   1      47.025  28.361  34.033  1.00  0.00    -0.206 F 
ATOM     89  C   UNL A   1      47.736  26.697  35.527  1.00  0.00     0.059 A 
ATOM     90  C   UNL A   1      46.161  25.021  36.309  1.00  0.00     0.059 A 
ATOM     91  F   UNL A   1      43.948  25.055  35.536  1.00  0.00    -0.206 F 
ATOM     92  C   UNL A   1      47.443  25.569  36.296  1.00  0.00     0.060 A 
BRANCH  92  93
ATOM     93  S   UNL A   1      48.757  24.844  37.298  1.00  0.00     0.124 S 
ATOM     94  O   UNL A   1      48.526  25.481  38.591  1.00  0.00    -0.237 OA
ATOM     95  O   UNL A   1      48.449  23.418  37.231  1.00  0.00    -0.237 OA
ATOM     96  O   UNL A   1      49.976  25.250  36.608  1.00  0.00    -0.744 OA
ENDBRANCH  92  93
ENDBRANCH  60  85
ENDBRANCH  34  35
ENDBRANCH  27  29
ENDBRANCH  26  27
ENDBRANCH  25  26
ENDBRANCH   1  25
TORSDOF 18
ENDMDL
