MODEL 1
REMARK VINA RESULT:     -11.9      0.000      0.000
REMARK SMILES Cc1ccc(SCC[N@H+]2CC[C@@H](C(=O)OCCOC(=O)c3ccc(-c4c5nc(c(-c6c(F)cc(S(=O)(=O)[O-])cc6F)c6ccc([nH]6)c(-c6c(F)cc(S(=O)(=O)[O-])cc6F)c6nc(c(-c7c(F)cc(S(=O)(=O)[O-])cc7F)c7ccc4[nH]7)C=C6)C=C5)cc3)[C@@H]2C)cc1
REMARK SMILES IDX 16 1 15 2 13 3 14 4 12 5 9 6 10 7 87 8 11 10 88 11 8 12 7 13
REMARK SMILES IDX 6 14 5 15 1 16 2 17 3 18 90 19 4 20 89 21 17 22 18 23 19 24
REMARK SMILES IDX 20 25 21 26 22 27 86 28 23 29 85 30 24 31 25 32 26 33 79 34
REMARK SMILES IDX 27 35 84 36 78 37 80 38 28 39 83 40 77 41 76 42 29 44 63 45
REMARK SMILES IDX 42 46 62 47 43 48 46 49 61 50 81 51 44 52 45 53 60 55 82 56
REMARK SMILES IDX 47 57 30 58 31 59 40 60 32 61 33 62 39 63 41 64 34 65 35 66
REMARK SMILES IDX 36 67 37 68 38 69 64 70 65 71 74 72 66 73 67 74 73 75 75 76
REMARK SMILES IDX 68 77 69 78 70 79 71 80 72 81 48 82 49 83 58 84 50 85 51 86
REMARK SMILES IDX 57 87 59 88 52 89 53 90 54 91 55 92 56 93
REMARK H PARENT 9 9 80 43 46 54
REMARK Flexibility Score: inf
ROOT
ATOM      1  C   UNL A   1      33.701  30.790  27.435  1.00  0.00     0.274 C 
ENDROOT
BRANCH   1   2
ATOM      2  O   UNL A   1      33.243  30.307  26.173  1.00  0.00    -0.462 OA
BRANCH   2   3
ATOM      3  C   UNL A   1      32.217  29.425  26.254  1.00  0.00     0.315 C 
ATOM      4  O   UNL A   1      31.559  29.222  27.264  1.00  0.00    -0.252 OA
BRANCH   3   5
ATOM      5  C   UNL A   1      32.128  28.672  24.954  1.00  0.00     0.162 C 
ATOM      6  N   UNL A   1      31.562  26.366  24.763  1.00  0.00    -0.331 N 
ATOM      7  C   UNL A   1      30.715  27.126  23.834  1.00  0.00     0.263 C 
ATOM      8  C   UNL A   1      32.685  27.262  25.099  1.00  0.00     0.195 C 
ATOM      9  H   UNL A   1      31.881  25.497  24.334  1.00  0.00     0.348 HD
ATOM     10  C   UNL A   1      30.735  28.543  24.369  1.00  0.00     0.083 C 
ATOM     11  C   UNL A   1      33.858  27.043  24.144  1.00  0.00     0.076 C 
BRANCH   6  12
ATOM     12  C   UNL A   1      30.830  25.962  25.976  1.00  0.00     0.273 C 
BRANCH  12  13
ATOM     13  C   UNL A   1      30.550  24.454  25.986  1.00  0.00     0.136 C 
BRANCH  13  14
ATOM     14  S   UNL A   1      31.785  23.426  26.893  1.00  0.00    -0.120 SA
BRANCH  14  15
ATOM     15  C   UNL A   1      33.219  23.407  25.820  1.00  0.00     0.007 A 
ATOM     16  C   UNL A   1      36.577  23.026  23.118  1.00  0.00     0.044 C 
ATOM     17  C   UNL A   1      35.408  23.207  24.041  1.00  0.00    -0.051 A 
ATOM     18  C   UNL A   1      34.101  23.034  23.577  1.00  0.00     0.004 A 
ATOM     19  C   UNL A   1      35.608  23.549  25.381  1.00  0.00     0.004 A 
ATOM     20  C   UNL A   1      33.017  23.126  24.461  1.00  0.00     0.015 A 
ATOM     21  C   UNL A   1      34.522  23.659  26.258  1.00  0.00     0.015 A 
ENDBRANCH  14  15
ENDBRANCH  13  14
ENDBRANCH  12  13
ENDBRANCH   6  12
ENDBRANCH   3   5
ENDBRANCH   2   3
ENDBRANCH   1   2
BRANCH   1  22
ATOM     22  C   UNL A   1      34.977  30.064  27.939  1.00  0.00     0.275 C 
BRANCH  22  23
ATOM     23  O   UNL A   1      35.632  30.602  29.128  1.00  0.00    -0.458 OA
BRANCH  23  24
ATOM     24  C   UNL A   1      36.556  30.010  29.972  1.00  0.00     0.338 C 
ATOM     25  O   UNL A   1      36.288  29.783  31.132  1.00  0.00    -0.246 OA
BRANCH  24  26
ATOM     26  C   UNL A   1      37.626  29.239  29.290  1.00  0.00     0.060 A 
ATOM     27  C   UNL A   1      38.422  29.856  28.302  1.00  0.00     0.016 A 
ATOM     28  C   UNL A   1      38.024  28.051  29.849  1.00  0.00     0.016 A 
ATOM     29  C   UNL A   1      39.715  29.378  28.061  1.00  0.00     0.010 A 
ATOM     30  C   UNL A   1      39.356  27.756  29.817  1.00  0.00     0.010 A 
ATOM     31  C   UNL A   1      40.204  28.370  28.895  1.00  0.00    -0.014 A 
BRANCH  31  32
ATOM     32  C   UNL A   1      41.496  27.700  28.766  1.00  0.00     0.031 A 
ATOM     33  C   UNL A   1      41.617  26.311  28.318  1.00  0.00     0.074 A 
ATOM     34  C   UNL A   1      42.557  28.471  29.094  1.00  0.00     0.049 A 
ATOM     35  N   UNL A   1      42.284  25.392  28.923  1.00  0.00    -0.248 NA
ATOM     36  C   UNL A   1      40.987  25.855  27.082  1.00  0.00     0.031 C 
ATOM     37  C   UNL A   1      43.970  28.182  29.196  1.00  0.00     0.029 A 
ATOM     38  N   UNL A   1      42.444  29.748  29.667  1.00  0.00    -0.354 N 
ATOM     39  C   UNL A   1      42.463  24.373  28.005  1.00  0.00     0.074 A 
ATOM     40  C   UNL A   1      41.491  24.621  26.963  1.00  0.00     0.031 C 
ATOM     41  C   UNL A   1      44.477  29.016  30.134  1.00  0.00     0.029 A 
ATOM     42  C   UNL A   1      43.380  29.816  30.688  1.00  0.00     0.049 A 
ATOM     43  H   UNL A   1      41.820  30.460  29.396  1.00  0.00     0.167 HD
ATOM     44  C   UNL A   1      43.580  23.586  28.064  1.00  0.00     0.037 A 
ATOM     45  C   UNL A   1      42.846  29.799  31.949  1.00  0.00     0.037 A 
ATOM     46  C   UNL A   1      44.499  24.107  29.083  1.00  0.00     0.049 A 
ATOM     47  C   UNL A   1      43.093  28.462  32.617  1.00  0.00     0.074 A 
ATOM     48  C   UNL A   1      45.638  24.894  29.009  1.00  0.00     0.029 A 
ATOM     49  N   UNL A   1      44.088  24.172  30.404  1.00  0.00    -0.354 N 
ATOM     50  N   UNL A   1      43.564  27.417  31.985  1.00  0.00    -0.248 NA
ATOM     51  C   UNL A   1      42.867  28.188  34.033  1.00  0.00     0.031 C 
ATOM     52  C   UNL A   1      45.861  25.485  30.288  1.00  0.00     0.029 A 
ATOM     53  C   UNL A   1      44.857  25.057  31.138  1.00  0.00     0.049 A 
ATOM     54  H   UNL A   1      43.341  23.652  30.776  1.00  0.00     0.167 HD
ATOM     55  C   UNL A   1      43.841  26.424  32.874  1.00  0.00     0.074 A 
ATOM     56  C   UNL A   1      43.337  26.931  34.140  1.00  0.00     0.031 C 
ATOM     57  C   UNL A   1      44.511  25.285  32.531  1.00  0.00     0.037 A 
BRANCH  44  58
ATOM     58  C   UNL A   1      43.983  22.606  26.973  1.00  0.00     0.058 A 
ATOM     59  C   UNL A   1      43.178  21.492  26.648  1.00  0.00     0.135 A 
ATOM     60  C   UNL A   1      45.163  22.714  26.205  1.00  0.00     0.135 A 
ATOM     61  F   UNL A   1      41.965  21.321  27.190  1.00  0.00    -0.206 F 
ATOM     62  C   UNL A   1      43.572  20.501  25.746  1.00  0.00     0.059 A 
ATOM     63  C   UNL A   1      45.602  21.712  25.328  1.00  0.00     0.059 A 
ATOM     64  F   UNL A   1      45.919  23.823  26.254  1.00  0.00    -0.206 F 
ATOM     65  C   UNL A   1      44.804  20.598  25.114  1.00  0.00     0.060 A 
BRANCH  65  66
ATOM     66  S   UNL A   1      45.318  19.268  24.008  1.00  0.00     0.124 S 
ATOM     67  O   UNL A   1      44.538  19.549  22.806  1.00  0.00    -0.237 OA
ATOM     68  O   UNL A   1      46.754  19.500  23.902  1.00  0.00    -0.237 OA
ATOM     69  O   UNL A   1      44.930  18.058  24.728  1.00  0.00    -0.744 OA
ENDBRANCH  65  66
ENDBRANCH  44  58
BRANCH  45  70
ATOM     70  C   UNL A   1      41.660  30.733  32.099  1.00  0.00     0.058 A 
ATOM     71  C   UNL A   1      41.884  32.111  31.839  1.00  0.00     0.135 A 
ATOM     72  C   UNL A   1      40.314  30.344  32.188  1.00  0.00     0.135 A 
ATOM     73  F   UNL A   1      43.140  32.583  31.763  1.00  0.00    -0.206 F 
ATOM     74  C   UNL A   1      40.861  33.009  31.536  1.00  0.00     0.059 A 
ATOM     75  C   UNL A   1      39.259  31.244  31.919  1.00  0.00     0.059 A 
ATOM     76  F   UNL A   1      39.994  29.071  32.458  1.00  0.00    -0.206 F 
ATOM     77  C   UNL A   1      39.550  32.556  31.536  1.00  0.00     0.060 A 
BRANCH  77  78
ATOM     78  S   UNL A   1      38.288  33.681  30.876  1.00  0.00     0.124 S 
ATOM     79  O   UNL A   1      37.986  33.082  29.580  1.00  0.00    -0.237 OA
ATOM     80  O   UNL A   1      37.232  33.567  31.884  1.00  0.00    -0.237 OA
ATOM     81  O   UNL A   1      38.969  34.964  30.833  1.00  0.00    -0.744 OA
ENDBRANCH  77  78
ENDBRANCH  45  70
BRANCH  57  82
ATOM     82  C   UNL A   1      44.955  24.277  33.538  1.00  0.00     0.058 A 
ATOM     83  C   UNL A   1      44.173  23.159  33.866  1.00  0.00     0.135 A 
ATOM     84  C   UNL A   1      46.115  24.492  34.310  1.00  0.00     0.135 A 
ATOM     85  F   UNL A   1      43.013  22.922  33.233  1.00  0.00    -0.206 F 
ATOM     86  C   UNL A   1      44.557  22.265  34.860  1.00  0.00     0.059 A 
ATOM     87  C   UNL A   1      46.484  23.647  35.344  1.00  0.00     0.059 A 
ATOM     88  F   UNL A   1      46.940  25.519  34.064  1.00  0.00    -0.206 F 
ATOM     89  C   UNL A   1      45.719  22.515  35.588  1.00  0.00     0.060 A 
BRANCH  89  90
ATOM     90  S   UNL A   1      46.243  21.354  36.856  1.00  0.00     0.124 S 
ATOM     91  O   UNL A   1      45.647  21.909  38.067  1.00  0.00    -0.237 OA
ATOM     92  O   UNL A   1      45.646  20.113  36.370  1.00  0.00    -0.237 OA
ATOM     93  O   UNL A   1      47.699  21.421  36.793  1.00  0.00    -0.744 OA
ENDBRANCH  89  90
ENDBRANCH  57  82
ENDBRANCH  31  32
ENDBRANCH  24  26
ENDBRANCH  23  24
ENDBRANCH  22  23
ENDBRANCH   1  22
TORSDOF 18
ENDMDL
MODEL 2
REMARK VINA RESULT:     -11.5      1.457      2.096
REMARK SMILES Cc1ccc(SCC[N@H+]2CC[C@@H](C(=O)OCCOC(=O)c3ccc(-c4c5nc(c(-c6c(F)cc(S(=O)(=O)[O-])cc6F)c6ccc([nH]6)c(-c6c(F)cc(S(=O)(=O)[O-])cc6F)c6nc(c(-c7c(F)cc(S(=O)(=O)[O-])cc7F)c7ccc4[nH]7)C=C6)C=C5)cc3)[C@@H]2C)cc1
REMARK SMILES IDX 16 1 15 2 13 3 14 4 12 5 9 6 10 7 87 8 11 10 88 11 8 12 7 13
REMARK SMILES IDX 6 14 5 15 1 16 2 17 3 18 90 19 4 20 89 21 17 22 18 23 19 24
REMARK SMILES IDX 20 25 21 26 22 27 86 28 23 29 85 30 24 31 25 32 26 33 79 34
REMARK SMILES IDX 27 35 84 36 78 37 80 38 28 39 83 40 77 41 76 42 29 44 63 45
REMARK SMILES IDX 42 46 62 47 43 48 46 49 61 50 81 51 44 52 45 53 60 55 82 56
REMARK SMILES IDX 47 57 30 58 31 59 40 60 32 61 33 62 39 63 41 64 34 65 35 66
REMARK SMILES IDX 36 67 37 68 38 69 64 70 65 71 74 72 66 73 67 74 73 75 75 76
REMARK SMILES IDX 68 77 69 78 70 79 71 80 72 81 48 82 49 83 58 84 50 85 51 86
REMARK SMILES IDX 57 87 59 88 52 89 53 90 54 91 55 92 56 93
REMARK H PARENT 9 9 80 43 46 54
REMARK Flexibility Score: inf
ROOT
ATOM      1  C   UNL A   1      34.007  29.105  26.716  1.00  0.00     0.274 C 
ENDROOT
BRANCH   1   2
ATOM      2  O   UNL A   1      32.607  29.290  26.511  1.00  0.00    -0.462 OA
BRANCH   2   3
ATOM      3  C   UNL A   1      31.875  28.154  26.626  1.00  0.00     0.315 C 
ATOM      4  O   UNL A   1      31.334  27.782  27.657  1.00  0.00    -0.252 OA
BRANCH   3   5
ATOM      5  C   UNL A   1      31.959  27.397  25.328  1.00  0.00     0.162 C 
ATOM      6  N   UNL A   1      31.502  25.071  25.088  1.00  0.00    -0.331 N 
ATOM      7  C   UNL A   1      30.737  25.798  24.066  1.00  0.00     0.263 C 
ATOM      8  C   UNL A   1      32.547  26.008  25.542  1.00  0.00     0.195 C 
ATOM      9  H   UNL A   1      31.898  24.214  24.702  1.00  0.00     0.348 HD
ATOM     10  C   UNL A   1      30.645  27.217  24.592  1.00  0.00     0.083 C 
ATOM     11  C   UNL A   1      33.827  25.831  24.725  1.00  0.00     0.076 C 
BRANCH   6  12
ATOM     12  C   UNL A   1      30.654  24.643  26.213  1.00  0.00     0.273 C 
BRANCH  12  13
ATOM     13  C   UNL A   1      30.772  23.134  26.462  1.00  0.00     0.136 C 
BRANCH  13  14
ATOM     14  S   UNL A   1      32.494  22.487  26.606  1.00  0.00    -0.120 SA
BRANCH  14  15
ATOM     15  C   UNL A   1      32.578  21.176  25.390  1.00  0.00     0.007 A 
ATOM     16  C   UNL A   1      32.429  18.081  22.369  1.00  0.00     0.044 C 
ATOM     17  C   UNL A   1      32.528  19.166  23.400  1.00  0.00    -0.051 A 
ATOM     18  C   UNL A   1      32.178  20.482  23.086  1.00  0.00     0.004 A 
ATOM     19  C   UNL A   1      32.969  18.877  24.695  1.00  0.00     0.004 A 
ATOM     20  C   UNL A   1      32.196  21.476  24.075  1.00  0.00     0.015 A 
ATOM     21  C   UNL A   1      33.005  19.876  25.676  1.00  0.00     0.015 A 
ENDBRANCH  14  15
ENDBRANCH  13  14
ENDBRANCH  12  13
ENDBRANCH   6  12
ENDBRANCH   3   5
ENDBRANCH   2   3
ENDBRANCH   1   2
BRANCH   1  22
ATOM     22  C   UNL A   1      34.679  30.299  27.445  1.00  0.00     0.275 C 
BRANCH  22  23
ATOM     23  O   UNL A   1      36.016  30.086  27.996  1.00  0.00    -0.458 OA
BRANCH  23  24
ATOM     24  C   UNL A   1      36.572  30.559  29.171  1.00  0.00     0.338 C 
ATOM     25  O   UNL A   1      35.900  31.144  29.991  1.00  0.00    -0.246 OA
BRANCH  24  26
ATOM     26  C   UNL A   1      37.833  29.890  29.582  1.00  0.00     0.060 A 
ATOM     27  C   UNL A   1      37.800  28.578  30.101  1.00  0.00     0.016 A 
ATOM     28  C   UNL A   1      39.021  30.431  29.159  1.00  0.00     0.016 A 
ATOM     29  C   UNL A   1      38.927  27.759  29.974  1.00  0.00     0.010 A 
ATOM     30  C   UNL A   1      40.010  29.567  28.790  1.00  0.00     0.010 A 
ATOM     31  C   UNL A   1      40.007  28.244  29.233  1.00  0.00    -0.014 A 
BRANCH  31  32
ATOM     32  C   UNL A   1      41.288  27.568  29.040  1.00  0.00     0.031 A 
ATOM     33  C   UNL A   1      41.382  26.188  28.561  1.00  0.00     0.074 A 
ATOM     34  C   UNL A   1      42.367  28.327  29.340  1.00  0.00     0.049 A 
ATOM     35  N   UNL A   1      42.066  25.254  29.122  1.00  0.00    -0.248 NA
ATOM     36  C   UNL A   1      40.700  25.760  27.343  1.00  0.00     0.031 C 
ATOM     37  C   UNL A   1      43.780  28.027  29.380  1.00  0.00     0.029 A 
ATOM     38  N   UNL A   1      42.285  29.594  29.941  1.00  0.00    -0.354 N 
ATOM     39  C   UNL A   1      42.202  24.251  28.178  1.00  0.00     0.074 A 
ATOM     40  C   UNL A   1      41.191  24.525  27.180  1.00  0.00     0.031 C 
ATOM     41  C   UNL A   1      44.330  28.840  30.313  1.00  0.00     0.029 A 
ATOM     42  C   UNL A   1      43.261  29.636  30.926  1.00  0.00     0.049 A 
ATOM     43  H   UNL A   1      41.655  30.314  29.709  1.00  0.00     0.167 HD
ATOM     44  C   UNL A   1      43.315  23.456  28.178  1.00  0.00     0.037 A 
ATOM     45  C   UNL A   1      42.777  29.598  32.206  1.00  0.00     0.037 A 
ATOM     46  C   UNL A   1      44.277  23.952  29.170  1.00  0.00     0.049 A 
ATOM     47  C   UNL A   1      43.041  28.247  32.838  1.00  0.00     0.074 A 
ATOM     48  C   UNL A   1      45.418  24.733  29.065  1.00  0.00     0.029 A 
ATOM     49  N   UNL A   1      43.919  23.994  30.507  1.00  0.00    -0.354 N 
ATOM     50  N   UNL A   1      43.480  27.212  32.169  1.00  0.00    -0.248 NA
ATOM     51  C   UNL A   1      42.869  27.947  34.257  1.00  0.00     0.031 C 
ATOM     52  C   UNL A   1      45.695  25.299  30.345  1.00  0.00     0.029 A 
ATOM     53  C   UNL A   1      44.723  24.860  31.226  1.00  0.00     0.049 A 
ATOM     54  H   UNL A   1      43.183  23.472  30.898  1.00  0.00     0.167 HD
ATOM     55  C   UNL A   1      43.785  26.200  33.027  1.00  0.00     0.074 A 
ATOM     56  C   UNL A   1      43.335  26.685  34.321  1.00  0.00     0.031 C 
ATOM     57  C   UNL A   1      44.433  25.064  32.636  1.00  0.00     0.037 A 
BRANCH  44  58
ATOM     58  C   UNL A   1      43.668  22.495  27.053  1.00  0.00     0.058 A 
ATOM     59  C   UNL A   1      42.910  21.327  26.816  1.00  0.00     0.135 A 
ATOM     60  C   UNL A   1      44.753  22.675  26.167  1.00  0.00     0.135 A 
ATOM     61  F   UNL A   1      41.775  21.081  27.482  1.00  0.00    -0.206 F 
ATOM     62  C   UNL A   1      43.275  20.356  25.881  1.00  0.00     0.059 A 
ATOM     63  C   UNL A   1      45.165  21.696  25.251  1.00  0.00     0.059 A 
ATOM     64  F   UNL A   1      45.433  23.832  26.134  1.00  0.00    -0.206 F 
ATOM     65  C   UNL A   1      44.425  20.529  25.124  1.00  0.00     0.060 A 
BRANCH  65  66
ATOM     66  S   UNL A   1      44.911  19.226  23.974  1.00  0.00     0.124 S 
ATOM     67  O   UNL A   1      46.360  19.182  24.152  1.00  0.00    -0.237 OA
ATOM     68  O   UNL A   1      44.173  18.078  24.487  1.00  0.00    -0.237 OA
ATOM     69  O   UNL A   1      44.463  19.732  22.679  1.00  0.00    -0.744 OA
ENDBRANCH  65  66
ENDBRANCH  44  58
BRANCH  45  70
ATOM     70  C   UNL A   1      41.604  30.536  32.421  1.00  0.00     0.058 A 
ATOM     71  C   UNL A   1      40.345  29.942  32.706  1.00  0.00     0.135 A 
ATOM     72  C   UNL A   1      41.688  31.918  32.649  1.00  0.00     0.135 A 
ATOM     73  F   UNL A   1      40.160  28.629  32.494  1.00  0.00    -0.206 F 
ATOM     74  C   UNL A   1      39.296  30.630  33.315  1.00  0.00     0.059 A 
ATOM     75  C   UNL A   1      40.626  32.643  33.233  1.00  0.00     0.059 A 
ATOM     76  F   UNL A   1      42.824  32.579  32.385  1.00  0.00    -0.206 F 
ATOM     77  C   UNL A   1      39.460  31.974  33.616  1.00  0.00     0.060 A 
BRANCH  77  78
ATOM     78  S   UNL A   1      38.184  32.753  34.645  1.00  0.00     0.124 S 
ATOM     79  O   UNL A   1      37.519  31.599  35.241  1.00  0.00    -0.237 OA
ATOM     80  O   UNL A   1      38.992  33.557  35.562  1.00  0.00    -0.237 OA
ATOM     81  O   UNL A   1      37.394  33.509  33.687  1.00  0.00    -0.744 OA
ENDBRANCH  77  78
ENDBRANCH  45  70
BRANCH  57  82
ATOM     82  C   UNL A   1      44.910  24.033  33.605  1.00  0.00     0.058 A 
ATOM     83  C   UNL A   1      44.038  23.104  34.192  1.00  0.00     0.135 A 
ATOM     84  C   UNL A   1      46.236  24.052  34.083  1.00  0.00     0.135 A 
ATOM     85  F   UNL A   1      42.739  23.070  33.851  1.00  0.00    -0.206 F 
ATOM     86  C   UNL A   1      44.474  22.197  35.152  1.00  0.00     0.059 A 
ATOM     87  C   UNL A   1      46.677  23.199  35.081  1.00  0.00     0.059 A 
ATOM     88  F   UNL A   1      47.152  24.889  33.574  1.00  0.00    -0.206 F 
ATOM     89  C   UNL A   1      45.798  22.248  35.584  1.00  0.00     0.060 A 
BRANCH  89  90
ATOM     90  S   UNL A   1      46.384  21.065  36.803  1.00  0.00     0.124 S 
ATOM     91  O   UNL A   1      45.970  19.786  36.235  1.00  0.00    -0.237 OA
ATOM     92  O   UNL A   1      47.820  21.328  36.787  1.00  0.00    -0.237 OA
ATOM     93  O   UNL A   1      45.683  21.461  38.020  1.00  0.00    -0.744 OA
ENDBRANCH  89  90
ENDBRANCH  57  82
ENDBRANCH  31  32
ENDBRANCH  24  26
ENDBRANCH  23  24
ENDBRANCH  22  23
ENDBRANCH   1  22
TORSDOF 18
ENDMDL
MODEL 3
REMARK VINA RESULT:     -11.4      1.284      2.157
REMARK SMILES Cc1ccc(SCC[N@H+]2CC[C@@H](C(=O)OCCOC(=O)c3ccc(-c4c5nc(c(-c6c(F)cc(S(=O)(=O)[O-])cc6F)c6ccc([nH]6)c(-c6c(F)cc(S(=O)(=O)[O-])cc6F)c6nc(c(-c7c(F)cc(S(=O)(=O)[O-])cc7F)c7ccc4[nH]7)C=C6)C=C5)cc3)[C@@H]2C)cc1
REMARK SMILES IDX 16 1 15 2 13 3 14 4 12 5 9 6 10 7 87 8 11 10 88 11 8 12 7 13
REMARK SMILES IDX 6 14 5 15 1 16 2 17 3 18 90 19 4 20 89 21 17 22 18 23 19 24
REMARK SMILES IDX 20 25 21 26 22 27 86 28 23 29 85 30 24 31 25 32 26 33 79 34
REMARK SMILES IDX 27 35 84 36 78 37 80 38 28 39 83 40 77 41 76 42 29 44 63 45
REMARK SMILES IDX 42 46 62 47 43 48 46 49 61 50 81 51 44 52 45 53 60 55 82 56
REMARK SMILES IDX 47 57 30 58 31 59 40 60 32 61 33 62 39 63 41 64 34 65 35 66
REMARK SMILES IDX 36 67 37 68 38 69 64 70 65 71 74 72 66 73 67 74 73 75 75 76
REMARK SMILES IDX 68 77 69 78 70 79 71 80 72 81 48 82 49 83 58 84 50 85 51 86
REMARK SMILES IDX 57 87 59 88 52 89 53 90 54 91 55 92 56 93
REMARK H PARENT 9 9 80 43 46 54
REMARK Flexibility Score: inf
ROOT
ATOM      1  C   UNL A   1      35.063  29.862  27.250  1.00  0.00     0.274 C 
ENDROOT
BRANCH   1   2
ATOM      2  O   UNL A   1      33.748  29.629  27.751  1.00  0.00    -0.462 OA
BRANCH   2   3
ATOM      3  C   UNL A   1      32.773  30.291  27.080  1.00  0.00     0.315 C 
ATOM      4  O   UNL A   1      32.720  31.506  26.960  1.00  0.00    -0.252 OA
BRANCH   3   5
ATOM      5  C   UNL A   1      31.733  29.296  26.640  1.00  0.00     0.162 C 
ATOM      6  N   UNL A   1      32.200  27.305  25.418  1.00  0.00    -0.331 N 
ATOM      7  C   UNL A   1      31.364  26.951  26.574  1.00  0.00     0.263 C 
ATOM      8  C   UNL A   1      32.043  28.762  25.247  1.00  0.00     0.195 C 
ATOM      9  H   UNL A   1      31.908  26.789  24.588  1.00  0.00     0.348 HD
ATOM     10  C   UNL A   1      31.553  28.096  27.548  1.00  0.00     0.083 C 
ATOM     11  C   UNL A   1      30.900  29.076  24.281  1.00  0.00     0.076 C 
BRANCH   6  12
ATOM     12  C   UNL A   1      33.613  26.949  25.627  1.00  0.00     0.273 C 
BRANCH  12  13
ATOM     13  C   UNL A   1      33.805  25.428  25.689  1.00  0.00     0.136 C 
BRANCH  13  14
ATOM     14  S   UNL A   1      34.080  24.598  24.064  1.00  0.00    -0.120 SA
BRANCH  14  15
ATOM     15  C   UNL A   1      33.770  22.865  24.394  1.00  0.00     0.007 A 
ATOM     16  C   UNL A   1      32.841  18.785  25.496  1.00  0.00     0.044 C 
ATOM     17  C   UNL A   1      33.153  20.188  25.064  1.00  0.00    -0.051 A 
ATOM     18  C   UNL A   1      32.137  21.141  24.949  1.00  0.00     0.004 A 
ATOM     19  C   UNL A   1      34.468  20.566  24.775  1.00  0.00     0.004 A 
ATOM     20  C   UNL A   1      32.445  22.469  24.624  1.00  0.00     0.015 A 
ATOM     21  C   UNL A   1      34.770  21.889  24.431  1.00  0.00     0.015 A 
ENDBRANCH  14  15
ENDBRANCH  13  14
ENDBRANCH  12  13
ENDBRANCH   6  12
ENDBRANCH   3   5
ENDBRANCH   2   3
ENDBRANCH   1   2
BRANCH   1  22
ATOM     22  C   UNL A   1      35.842  30.935  28.056  1.00  0.00     0.275 C 
BRANCH  22  23
ATOM     23  O   UNL A   1      35.868  30.798  29.510  1.00  0.00    -0.458 OA
BRANCH  23  24
ATOM     24  C   UNL A   1      36.686  30.018  30.309  1.00  0.00     0.338 C 
ATOM     25  O   UNL A   1      36.326  29.655  31.407  1.00  0.00    -0.246 OA
BRANCH  24  26
ATOM     26  C   UNL A   1      37.737  29.261  29.582  1.00  0.00     0.060 A 
ATOM     27  C   UNL A   1      38.547  29.914  28.630  1.00  0.00     0.016 A 
ATOM     28  C   UNL A   1      38.107  28.034  30.072  1.00  0.00     0.016 A 
ATOM     29  C   UNL A   1      39.828  29.420  28.361  1.00  0.00     0.010 A 
ATOM     30  C   UNL A   1      39.431  27.709  30.022  1.00  0.00     0.010 A 
ATOM     31  C   UNL A   1      40.293  28.354  29.135  1.00  0.00    -0.014 A 
BRANCH  31  32
ATOM     32  C   UNL A   1      41.569  27.661  28.965  1.00  0.00     0.031 A 
ATOM     33  C   UNL A   1      41.653  26.282  28.481  1.00  0.00     0.074 A 
ATOM     34  C   UNL A   1      42.651  28.403  29.293  1.00  0.00     0.049 A 
ATOM     35  N   UNL A   1      42.311  25.335  29.052  1.00  0.00    -0.248 NA
ATOM     36  C   UNL A   1      40.992  25.871  27.247  1.00  0.00     0.031 C 
ATOM     37  C   UNL A   1      44.059  28.083  29.362  1.00  0.00     0.029 A 
ATOM     38  N   UNL A   1      42.575  29.667  29.899  1.00  0.00    -0.354 N 
ATOM     39  C   UNL A   1      42.453  24.336  28.106  1.00  0.00     0.074 A 
ATOM     40  C   UNL A   1      41.468  24.630  27.088  1.00  0.00     0.031 C 
ATOM     41  C   UNL A   1      44.600  28.882  30.311  1.00  0.00     0.029 A 
ATOM     42  C   UNL A   1      43.529  29.691  30.905  1.00  0.00     0.049 A 
ATOM     43  H   UNL A   1      41.960  30.398  29.658  1.00  0.00     0.167 HD
ATOM     44  C   UNL A   1      43.554  23.525  28.125  1.00  0.00     0.037 A 
ATOM     45  C   UNL A   1      43.018  29.653  32.174  1.00  0.00     0.037 A 
ATOM     46  C   UNL A   1      44.502  24.002  29.140  1.00  0.00     0.049 A 
ATOM     47  C   UNL A   1      43.248  28.295  32.805  1.00  0.00     0.074 A 
ATOM     48  C   UNL A   1      45.655  24.767  29.064  1.00  0.00     0.029 A 
ATOM     49  N   UNL A   1      44.116  24.042  30.469  1.00  0.00    -0.354 N 
ATOM     50  N   UNL A   1      43.687  27.257  32.139  1.00  0.00    -0.248 NA
ATOM     51  C   UNL A   1      43.042  27.990  34.217  1.00  0.00     0.031 C 
ATOM     52  C   UNL A   1      45.913  25.322  30.353  1.00  0.00     0.029 A 
ATOM     53  C   UNL A   1      44.916  24.893  31.210  1.00  0.00     0.049 A 
ATOM     54  H   UNL A   1      43.364  23.528  30.842  1.00  0.00     0.167 HD
ATOM     55  C   UNL A   1      43.959  26.236  32.998  1.00  0.00     0.074 A 
ATOM     56  C   UNL A   1      43.488  26.722  34.285  1.00  0.00     0.031 C 
ATOM     57  C   UNL A   1      44.599  25.093  32.614  1.00  0.00     0.037 A 
BRANCH  44  58
ATOM     58  C   UNL A   1      43.917  22.565  27.003  1.00  0.00     0.058 A 
ATOM     59  C   UNL A   1      43.085  21.475  26.667  1.00  0.00     0.135 A 
ATOM     60  C   UNL A   1      45.085  22.669  26.215  1.00  0.00     0.135 A 
ATOM     61  F   UNL A   1      41.880  21.314  27.228  1.00  0.00    -0.206 F 
ATOM     62  C   UNL A   1      43.443  20.499  25.733  1.00  0.00     0.059 A 
ATOM     63  C   UNL A   1      45.488  21.682  25.306  1.00  0.00     0.059 A 
ATOM     64  F   UNL A   1      45.863  23.762  26.277  1.00  0.00    -0.206 F 
ATOM     65  C   UNL A   1      44.664  20.588  25.081  1.00  0.00     0.060 A 
BRANCH  65  66
ATOM     66  S   UNL A   1      45.132  19.276  23.933  1.00  0.00     0.124 S 
ATOM     67  O   UNL A   1      44.536  18.096  24.554  1.00  0.00    -0.237 OA
ATOM     68  O   UNL A   1      44.510  19.723  22.692  1.00  0.00    -0.237 OA
ATOM     69  O   UNL A   1      46.592  19.313  23.951  1.00  0.00    -0.744 OA
ENDBRANCH  65  66
ENDBRANCH  44  58
BRANCH  45  70
ATOM     70  C   UNL A   1      41.854  30.606  32.369  1.00  0.00     0.058 A 
ATOM     71  C   UNL A   1      40.583  30.030  32.636  1.00  0.00     0.135 A 
ATOM     72  C   UNL A   1      41.952  31.988  32.595  1.00  0.00     0.135 A 
ATOM     73  F   UNL A   1      40.384  28.719  32.424  1.00  0.00    -0.206 F 
ATOM     74  C   UNL A   1      39.534  30.733  33.227  1.00  0.00     0.059 A 
ATOM     75  C   UNL A   1      40.891  32.728  33.161  1.00  0.00     0.059 A 
ATOM     76  F   UNL A   1      43.100  32.633  32.347  1.00  0.00    -0.206 F 
ATOM     77  C   UNL A   1      39.710  32.075  33.528  1.00  0.00     0.060 A 
BRANCH  77  78
ATOM     78  S   UNL A   1      38.429  32.873  34.535  1.00  0.00     0.124 S 
ATOM     79  O   UNL A   1      37.720  31.729  35.097  1.00  0.00    -0.237 OA
ATOM     80  O   UNL A   1      39.234  33.643  35.484  1.00  0.00    -0.237 OA
ATOM     81  O   UNL A   1      37.683  33.662  33.568  1.00  0.00    -0.744 OA
ENDBRANCH  77  78
ENDBRANCH  45  70
BRANCH  57  82
ATOM     82  C   UNL A   1      45.040  24.051  33.588  1.00  0.00     0.058 A 
ATOM     83  C   UNL A   1      46.336  24.037  34.125  1.00  0.00     0.135 A 
ATOM     84  C   UNL A   1      44.213  22.950  33.890  1.00  0.00     0.135 A 
ATOM     85  F   UNL A   1      47.215  25.006  33.826  1.00  0.00    -0.206 F 
ATOM     86  C   UNL A   1      46.765  23.019  34.972  1.00  0.00     0.059 A 
ATOM     87  C   UNL A   1      44.640  21.897  34.682  1.00  0.00     0.059 A 
ATOM     88  F   UNL A   1      42.951  22.878  33.442  1.00  0.00    -0.206 F 
ATOM     89  C   UNL A   1      45.906  21.958  35.250  1.00  0.00     0.060 A 
BRANCH  89  90
ATOM     90  S   UNL A   1      46.436  20.651  36.364  1.00  0.00     0.124 S 
ATOM     91  O   UNL A   1      46.286  21.267  37.678  1.00  0.00    -0.237 OA
ATOM     92  O   UNL A   1      45.473  19.599  36.046  1.00  0.00    -0.237 OA
ATOM     93  O   UNL A   1      47.811  20.394  35.951  1.00  0.00    -0.744 OA
ENDBRANCH  89  90
ENDBRANCH  57  82
ENDBRANCH  31  32
ENDBRANCH  24  26
ENDBRANCH  23  24
ENDBRANCH  22  23
ENDBRANCH   1  22
TORSDOF 18
ENDMDL
