MODEL 1
REMARK VINA RESULT:     -11.9      0.000      0.000
REMARK SMILES CO[C@@H]1C[NH2+][C@@H](O[C@@H]2C[C@@H](C(=O)OCCOC(=O)c3ccc(-c4c5nc(c(-c6c(F)cc(S(=O)(=O)[O-])cc6F)c6ccc([nH]6)c(-c6c(F)cc(S(=O)(=O)[O-])cc6F)c6nc(c(-c7c(F)cc(S(=O)(=O)[O-])cc7F)c7ccc4[nH]7)C=C6)C=C5)cc3)N(C(=O)OC(C)(C)C)C2)c2cc(Cl)ccc21
REMARK SMILES IDX 14 1 13 2 11 3 12 4 10 5 8 6 9 7 93 8 85 9 7 10 6 11 3 12
REMARK SMILES IDX 4 13 100 14 5 15 94 16 99 17 95 20 98 21 96 22 97 23 2 24
REMARK SMILES IDX 1 25 86 26 87 27 88 28 89 29 90 30 91 31 92 32 15 33 16 34
REMARK SMILES IDX 17 35 18 36 19 37 20 38 84 39 21 40 83 41 22 42 23 43 24 44
REMARK SMILES IDX 77 45 25 46 82 47 76 48 78 49 26 50 81 51 75 52 74 53 27 55
REMARK SMILES IDX 61 56 40 57 60 58 41 59 44 60 59 61 79 62 42 63 43 64 58 66
REMARK SMILES IDX 80 67 45 68 28 69 29 70 38 71 30 72 31 73 37 74 39 75 32 76
REMARK SMILES IDX 33 77 34 78 35 79 36 80 62 81 63 82 72 83 64 84 65 85 71 86
REMARK SMILES IDX 73 87 66 88 67 89 68 90 69 91 70 92 46 93 47 94 56 95 48 96
REMARK SMILES IDX 49 97 55 98 57 99 50 100 51 101 52 102 53 103 54 104
REMARK H PARENT 5 18 5 19 78 54 44 65
REMARK Flexibility Score: inf
ROOT
ATOM      1  C   UNL A   1      31.792  29.004  27.133  1.00  0.00     0.274 C 
ENDROOT
BRANCH   1   2
ATOM      2  O   UNL A   1      31.686  28.144  25.981  1.00  0.00    -0.461 OA
BRANCH   2   3
ATOM      3  C   UNL A   1      32.749  27.302  25.731  1.00  0.00     0.329 C 
ATOM      4  O   UNL A   1      33.706  27.146  26.475  1.00  0.00    -0.250 OA
BRANCH   3   5
ATOM      5  C   UNL A   1      32.482  26.530  24.421  1.00  0.00     0.201 C 
ATOM      6  C   UNL A   1      33.408  25.792  22.281  1.00  0.00     0.147 C 
ATOM      7  C   UNL A   1      33.804  26.169  23.710  1.00  0.00     0.071 C 
ATOM      8  C   UNL A   1      32.161  26.662  22.035  1.00  0.00     0.156 C 
ATOM      9  N   UNL A   1      31.598  26.976  23.349  1.00  0.00    -0.292 N 
BRANCH   6  10
ATOM     10  O   UNL A   1      33.379  24.454  21.788  1.00  0.00    -0.320 OA
BRANCH  10  11
ATOM     11  C   UNL A   1      33.226  23.196  22.445  1.00  0.00     0.354 C 
ATOM     12  C   UNL A   1      31.657  23.398  24.904  1.00  0.00     0.203 C 
ATOM     13  C   UNL A   1      31.051  23.414  23.483  1.00  0.00     0.300 C 
ATOM     14  C   UNL A   1      33.197  23.277  24.938  1.00  0.00    -0.002 A 
ATOM     15  N   UNL A   1      31.845  22.750  22.461  1.00  0.00    -0.315 N 
ATOM     16  C   UNL A   1      33.914  23.011  23.769  1.00  0.00     0.046 A 
ATOM     17  C   UNL A   1      33.972  23.583  26.070  1.00  0.00     0.009 A 
ATOM     18  H   UNL A   1      31.430  22.943  21.549  1.00  0.00     0.349 HD
ATOM     19  H   UNL A   1      31.848  21.753  22.674  1.00  0.00     0.349 HD
ATOM     20  C   UNL A   1      35.292  22.705  23.831  1.00  0.00     0.033 A 
ATOM     21  C   UNL A   1      35.350  23.355  26.136  1.00  0.00     0.021 A 
ATOM     22  C   UNL A   1      35.994  22.839  25.026  1.00  0.00     0.041 A 
ATOM     23  Cl  UNL A   1      37.666  22.462  25.111  1.00  0.00    -0.084 Cl
BRANCH  12  24
ATOM     24  O   UNL A   1      31.017  22.346  25.641  1.00  0.00    -0.371 OA
ATOM     25  C   UNL A   1      30.147  22.821  26.675  1.00  0.00     0.196 C 
ENDBRANCH  12  24
ENDBRANCH  10  11
ENDBRANCH   6  10
BRANCH   9  26
ATOM     26  C   UNL A   1      30.232  27.198  23.443  1.00  0.00     0.411 C 
ATOM     27  O   UNL A   1      29.569  26.772  24.372  1.00  0.00    -0.224 OA
BRANCH  26  28
ATOM     28  O   UNL A   1      29.727  27.962  22.430  1.00  0.00    -0.444 OA
BRANCH  28  29
ATOM     29  C   UNL A   1      29.259  29.323  22.702  1.00  0.00     0.106 C 
ATOM     30  C   UNL A   1      27.739  29.331  22.899  1.00  0.00     0.056 C 
ATOM     31  C   UNL A   1      29.955  30.001  23.896  1.00  0.00     0.056 C 
ATOM     32  C   UNL A   1      29.580  30.145  21.440  1.00  0.00     0.056 C 
ENDBRANCH  28  29
ENDBRANCH  26  28
ENDBRANCH   9  26
ENDBRANCH   3   5
ENDBRANCH   2   3
ENDBRANCH   1   2
BRANCH   1  33
ATOM     33  C   UNL A   1      32.427  30.361  26.758  1.00  0.00     0.275 C 
BRANCH  33  34
ATOM     34  O   UNL A   1      33.856  30.413  27.030  1.00  0.00    -0.458 OA
BRANCH  34  35
ATOM     35  C   UNL A   1      34.304  31.523  27.686  1.00  0.00     0.338 C 
ATOM     36  O   UNL A   1      33.620  32.481  28.015  1.00  0.00    -0.246 OA
BRANCH  35  37
ATOM     37  C   UNL A   1      35.668  31.310  28.242  1.00  0.00     0.060 A 
ATOM     38  C   UNL A   1      36.740  32.187  28.270  1.00  0.00     0.016 A 
ATOM     39  C   UNL A   1      35.819  30.097  28.887  1.00  0.00     0.016 A 
ATOM     40  C   UNL A   1      37.952  31.781  28.894  1.00  0.00     0.010 A 
ATOM     41  C   UNL A   1      37.011  29.649  29.441  1.00  0.00     0.010 A 
ATOM     42  C   UNL A   1      38.106  30.492  29.451  1.00  0.00    -0.014 A 
BRANCH  42  43
ATOM     43  C   UNL A   1      39.300  30.028  30.202  1.00  0.00     0.031 A 
ATOM     44  C   UNL A   1      39.709  30.641  31.514  1.00  0.00     0.074 A 
ATOM     45  C   UNL A   1      40.152  29.190  29.580  1.00  0.00     0.049 A 
ATOM     46  N   UNL A   1      40.606  30.227  32.373  1.00  0.00    -0.248 NA
ATOM     47  C   UNL A   1      39.058  31.904  31.895  1.00  0.00     0.031 C 
ATOM     48  C   UNL A   1      40.016  28.737  28.194  1.00  0.00     0.029 A 
ATOM     49  N   UNL A   1      41.306  28.591  30.014  1.00  0.00    -0.354 N 
ATOM     50  C   UNL A   1      40.581  31.139  33.426  1.00  0.00     0.074 A 
ATOM     51  C   UNL A   1      39.653  32.183  33.050  1.00  0.00     0.031 C 
ATOM     52  C   UNL A   1      41.018  27.891  27.909  1.00  0.00     0.029 A 
ATOM     53  C   UNL A   1      41.844  27.718  29.099  1.00  0.00     0.049 A 
ATOM     54  H   UNL A   1      41.709  28.768  30.895  1.00  0.00     0.167 HD
ATOM     55  C   UNL A   1      41.244  31.073  34.607  1.00  0.00     0.037 A 
ATOM     56  C   UNL A   1      42.847  26.830  29.231  1.00  0.00     0.037 A 
ATOM     57  C   UNL A   1      42.209  30.043  34.911  1.00  0.00     0.049 A 
ATOM     58  C   UNL A   1      43.508  26.690  30.575  1.00  0.00     0.074 A 
ATOM     59  C   UNL A   1      42.866  29.789  36.103  1.00  0.00     0.029 A 
ATOM     60  N   UNL A   1      42.676  29.110  33.994  1.00  0.00    -0.354 N 
ATOM     61  N   UNL A   1      43.308  27.389  31.668  1.00  0.00    -0.248 NA
ATOM     62  C   UNL A   1      44.501  25.618  30.719  1.00  0.00     0.031 C 
ATOM     63  C   UNL A   1      43.760  28.733  35.892  1.00  0.00     0.029 A 
ATOM     64  C   UNL A   1      43.624  28.291  34.585  1.00  0.00     0.049 A 
ATOM     65  H   UNL A   1      42.377  29.041  33.059  1.00  0.00     0.167 HD
ATOM     66  C   UNL A   1      44.132  26.830  32.636  1.00  0.00     0.074 A 
ATOM     67  C   UNL A   1      44.818  25.720  32.004  1.00  0.00     0.031 C 
ATOM     68  C   UNL A   1      44.304  27.199  33.930  1.00  0.00     0.037 A 
BRANCH  55  69
ATOM     69  C   UNL A   1      40.900  32.077  35.683  1.00  0.00     0.058 A 
ATOM     70  C   UNL A   1      41.711  33.208  35.894  1.00  0.00     0.135 A 
ATOM     71  C   UNL A   1      39.716  31.987  36.435  1.00  0.00     0.135 A 
ATOM     72  F   UNL A   1      42.851  33.360  35.202  1.00  0.00    -0.206 F 
ATOM     73  C   UNL A   1      41.374  34.193  36.817  1.00  0.00     0.059 A 
ATOM     74  C   UNL A   1      39.345  32.977  37.346  1.00  0.00     0.059 A 
ATOM     75  F   UNL A   1      38.892  30.940  36.276  1.00  0.00    -0.206 F 
ATOM     76  C   UNL A   1      40.185  34.074  37.535  1.00  0.00     0.060 A 
BRANCH  76  77
ATOM     77  S   UNL A   1      39.754  35.387  38.700  1.00  0.00     0.124 S 
ATOM     78  O   UNL A   1      39.386  36.473  37.796  1.00  0.00    -0.237 OA
ATOM     79  O   UNL A   1      38.654  34.789  39.449  1.00  0.00    -0.237 OA
ATOM     80  O   UNL A   1      40.986  35.593  39.456  1.00  0.00    -0.744 OA
ENDBRANCH  76  77
ENDBRANCH  55  69
BRANCH  56  81
ATOM     81  C   UNL A   1      43.147  25.903  28.108  1.00  0.00     0.058 A 
ATOM     82  C   UNL A   1      44.208  26.174  27.229  1.00  0.00     0.135 A 
ATOM     83  C   UNL A   1      42.453  24.695  27.940  1.00  0.00     0.135 A 
ATOM     84  F   UNL A   1      44.908  27.312  27.355  1.00  0.00    -0.206 F 
ATOM     85  C   UNL A   1      44.565  25.288  26.220  1.00  0.00     0.059 A 
ATOM     86  C   UNL A   1      42.807  23.781  26.950  1.00  0.00     0.059 A 
ATOM     87  F   UNL A   1      41.452  24.373  28.773  1.00  0.00    -0.206 F 
ATOM     88  C   UNL A   1      43.863  24.088  26.092  1.00  0.00     0.060 A 
BRANCH  88  89
ATOM     89  S   UNL A   1      44.385  22.919  24.818  1.00  0.00     0.124 S 
ATOM     90  O   UNL A   1      44.911  21.822  25.622  1.00  0.00    -0.237 OA
ATOM     91  O   UNL A   1      43.132  22.654  24.118  1.00  0.00    -0.237 OA
ATOM     92  O   UNL A   1      45.375  23.672  24.054  1.00  0.00    -0.744 OA
ENDBRANCH  88  89
ENDBRANCH  56  81
BRANCH  68  93
ATOM     93  C   UNL A   1      45.280  26.401  34.751  1.00  0.00     0.058 A 
ATOM     94  C   UNL A   1      44.880  25.253  35.452  1.00  0.00     0.135 A 
ATOM     95  C   UNL A   1      46.640  26.751  34.783  1.00  0.00     0.135 A 
ATOM     96  F   UNL A   1      43.591  24.880  35.460  1.00  0.00    -0.206 F 
ATOM     97  C   UNL A   1      45.791  24.488  36.172  1.00  0.00     0.059 A 
ATOM     98  C   UNL A   1      47.573  25.983  35.470  1.00  0.00     0.059 A 
ATOM     99  F   UNL A   1      47.076  27.835  34.121  1.00  0.00    -0.206 F 
ATOM    100  C   UNL A   1      47.138  24.858  36.169  1.00  0.00     0.060 A 
BRANCH 100 101
ATOM    101  S   UNL A   1      48.312  23.830  37.076  1.00  0.00     0.124 S 
ATOM    102  O   UNL A   1      49.573  24.187  36.435  1.00  0.00    -0.237 OA
ATOM    103  O   UNL A   1      48.142  24.303  38.446  1.00  0.00    -0.237 OA
ATOM    104  O   UNL A   1      47.843  22.472  36.822  1.00  0.00    -0.744 OA
ENDBRANCH 100 101
ENDBRANCH  68  93
ENDBRANCH  42  43
ENDBRANCH  35  37
ENDBRANCH  34  35
ENDBRANCH  33  34
ENDBRANCH   1  33
TORSDOF 20
ENDMDL
MODEL 2
REMARK VINA RESULT:     -11.2      4.980     10.387
REMARK SMILES CO[C@@H]1C[NH2+][C@@H](O[C@@H]2C[C@@H](C(=O)OCCOC(=O)c3ccc(-c4c5nc(c(-c6c(F)cc(S(=O)(=O)[O-])cc6F)c6ccc([nH]6)c(-c6c(F)cc(S(=O)(=O)[O-])cc6F)c6nc(c(-c7c(F)cc(S(=O)(=O)[O-])cc7F)c7ccc4[nH]7)C=C6)C=C5)cc3)N(C(=O)OC(C)(C)C)C2)c2cc(Cl)ccc21
REMARK SMILES IDX 14 1 13 2 11 3 12 4 10 5 8 6 9 7 93 8 85 9 7 10 6 11 3 12
REMARK SMILES IDX 4 13 100 14 5 15 94 16 99 17 95 20 98 21 96 22 97 23 2 24
REMARK SMILES IDX 1 25 86 26 87 27 88 28 89 29 90 30 91 31 92 32 15 33 16 34
REMARK SMILES IDX 17 35 18 36 19 37 20 38 84 39 21 40 83 41 22 42 23 43 24 44
REMARK SMILES IDX 77 45 25 46 82 47 76 48 78 49 26 50 81 51 75 52 74 53 27 55
REMARK SMILES IDX 61 56 40 57 60 58 41 59 44 60 59 61 79 62 42 63 43 64 58 66
REMARK SMILES IDX 80 67 45 68 28 69 29 70 38 71 30 72 31 73 37 74 39 75 32 76
REMARK SMILES IDX 33 77 34 78 35 79 36 80 62 81 63 82 72 83 64 84 65 85 71 86
REMARK SMILES IDX 73 87 66 88 67 89 68 90 69 91 70 92 46 93 47 94 56 95 48 96
REMARK SMILES IDX 49 97 55 98 57 99 50 100 51 101 52 102 53 103 54 104
REMARK H PARENT 5 18 5 19 78 54 44 65
REMARK Flexibility Score: inf
ROOT
ATOM      1  C   UNL A   1      36.998  21.222  25.191  1.00  0.00     0.274 C 
ENDROOT
BRANCH   1   2
ATOM      2  O   UNL A   1      35.587  21.395  24.947  1.00  0.00    -0.461 OA
BRANCH   2   3
ATOM      3  C   UNL A   1      34.809  21.760  26.026  1.00  0.00     0.329 C 
ATOM      4  O   UNL A   1      35.172  21.728  27.192  1.00  0.00    -0.250 OA
BRANCH   3   5
ATOM      5  C   UNL A   1      33.456  22.298  25.510  1.00  0.00     0.201 C 
ATOM      6  C   UNL A   1      31.449  23.586  26.054  1.00  0.00     0.147 C 
ATOM      7  C   UNL A   1      32.928  23.431  26.416  1.00  0.00     0.071 C 
ATOM      8  C   UNL A   1      31.053  22.157  25.635  1.00  0.00     0.156 C 
ATOM      9  N   UNL A   1      32.283  21.480  25.221  1.00  0.00    -0.292 N 
BRANCH   6  10
ATOM     10  O   UNL A   1      30.927  24.663  25.279  1.00  0.00    -0.320 OA
BRANCH  10  11
ATOM     11  C   UNL A   1      30.309  25.895  25.648  1.00  0.00     0.354 C 
ATOM     12  C   UNL A   1      29.852  27.650  23.354  1.00  0.00     0.203 C 
ATOM     13  C   UNL A   1      28.985  26.417  23.690  1.00  0.00     0.300 C 
ATOM     14  C   UNL A   1      31.020  27.893  24.336  1.00  0.00    -0.002 A 
ATOM     15  N   UNL A   1      28.975  26.027  25.091  1.00  0.00    -0.315 N 
ATOM     16  C   UNL A   1      31.123  27.152  25.514  1.00  0.00     0.046 A 
ATOM     17  C   UNL A   1      32.116  28.725  24.043  1.00  0.00     0.009 A 
ATOM     18  H   UNL A   1      28.496  25.130  25.177  1.00  0.00     0.349 HD
ATOM     19  H   UNL A   1      28.498  26.762  25.611  1.00  0.00     0.349 HD
ATOM     20  C   UNL A   1      32.070  27.507  26.501  1.00  0.00     0.033 A 
ATOM     21  C   UNL A   1      33.106  29.039  24.978  1.00  0.00     0.021 A 
ATOM     22  C   UNL A   1      33.032  28.480  26.241  1.00  0.00     0.041 A 
ATOM     23  Cl  UNL A   1      34.181  28.922  27.436  1.00  0.00    -0.084 Cl
BRANCH  12  24
ATOM     24  O   UNL A   1      28.980  28.785  23.262  1.00  0.00    -0.371 OA
ATOM     25  C   UNL A   1      29.247  29.620  22.128  1.00  0.00     0.196 C 
ENDBRANCH  12  24
ENDBRANCH  10  11
ENDBRANCH   6  10
BRANCH   9  26
ATOM     26  C   UNL A   1      32.191  20.472  24.274  1.00  0.00     0.411 C 
ATOM     27  O   UNL A   1      32.309  20.691  23.081  1.00  0.00    -0.224 OA
BRANCH  26  28
ATOM     28  O   UNL A   1      31.998  19.229  24.808  1.00  0.00    -0.444 OA
BRANCH  28  29
ATOM     29  C   UNL A   1      32.776  18.091  24.312  1.00  0.00     0.106 C 
ATOM     30  C   UNL A   1      32.510  16.852  25.175  1.00  0.00     0.056 C 
ATOM     31  C   UNL A   1      32.539  17.767  22.826  1.00  0.00     0.056 C 
ATOM     32  C   UNL A   1      34.257  18.480  24.481  1.00  0.00     0.056 C 
ENDBRANCH  28  29
ENDBRANCH  26  28
ENDBRANCH   9  26
ENDBRANCH   3   5
ENDBRANCH   2   3
ENDBRANCH   1   2
BRANCH   1  33
ATOM     33  C   UNL A   1      37.762  22.551  25.006  1.00  0.00     0.275 C 
BRANCH  33  34
ATOM     34  O   UNL A   1      38.045  23.222  26.267  1.00  0.00    -0.458 OA
BRANCH  34  35
ATOM     35  C   UNL A   1      39.310  23.074  26.757  1.00  0.00     0.338 C 
ATOM     36  O   UNL A   1      39.933  22.025  26.816  1.00  0.00    -0.246 OA
BRANCH  35  37
ATOM     37  C   UNL A   1      39.982  24.391  26.930  1.00  0.00     0.060 A 
ATOM     38  C   UNL A   1      40.245  25.362  25.978  1.00  0.00     0.016 A 
ATOM     39  C   UNL A   1      40.290  24.687  28.245  1.00  0.00     0.016 A 
ATOM     40  C   UNL A   1      40.872  26.575  26.378  1.00  0.00     0.010 A 
ATOM     41  C   UNL A   1      40.963  25.831  28.652  1.00  0.00     0.010 A 
ATOM     42  C   UNL A   1      41.269  26.800  27.716  1.00  0.00    -0.014 A 
BRANCH  42  43
ATOM     43  C   UNL A   1      41.837  28.071  28.230  1.00  0.00     0.031 A 
ATOM     44  C   UNL A   1      43.321  28.320  28.286  1.00  0.00     0.074 A 
ATOM     45  C   UNL A   1      41.009  28.925  28.863  1.00  0.00     0.049 A 
ATOM     46  N   UNL A   1      43.960  29.436  28.530  1.00  0.00    -0.248 NA
ATOM     47  C   UNL A   1      44.203  27.161  28.082  1.00  0.00     0.031 C 
ATOM     48  C   UNL A   1      39.590  28.672  29.126  1.00  0.00     0.029 A 
ATOM     49  N   UNL A   1      41.236  30.157  29.418  1.00  0.00    -0.354 N 
ATOM     50  C   UNL A   1      45.316  29.130  28.443  1.00  0.00     0.074 A 
ATOM     51  C   UNL A   1      45.408  27.703  28.225  1.00  0.00     0.031 C 
ATOM     52  C   UNL A   1      39.062  29.738  29.745  1.00  0.00     0.029 A 
ATOM     53  C   UNL A   1      40.094  30.759  29.892  1.00  0.00     0.049 A 
ATOM     54  H   UNL A   1      42.128  30.571  29.471  1.00  0.00     0.167 HD
ATOM     55  C   UNL A   1      46.372  29.980  28.499  1.00  0.00     0.037 A 
ATOM     56  C   UNL A   1      39.893  32.016  30.330  1.00  0.00     0.037 A 
ATOM     57  C   UNL A   1      46.233  31.389  28.783  1.00  0.00     0.049 A 
ATOM     58  C   UNL A   1      41.046  32.982  30.290  1.00  0.00     0.074 A 
ATOM     59  C   UNL A   1      47.198  32.381  28.756  1.00  0.00     0.029 A 
ATOM     60  N   UNL A   1      45.049  31.997  29.175  1.00  0.00    -0.354 N 
ATOM     61  N   UNL A   1      42.296  32.758  29.960  1.00  0.00    -0.248 NA
ATOM     62  C   UNL A   1      40.756  34.378  30.645  1.00  0.00     0.031 C 
ATOM     63  C   UNL A   1      46.605  33.578  29.175  1.00  0.00     0.029 A 
ATOM     64  C   UNL A   1      45.259  33.346  29.411  1.00  0.00     0.049 A 
ATOM     65  H   UNL A   1      44.184  31.537  29.271  1.00  0.00     0.167 HD
ATOM     66  C   UNL A   1      42.939  33.987  30.043  1.00  0.00     0.074 A 
ATOM     67  C   UNL A   1      41.932  34.954  30.436  1.00  0.00     0.031 C 
ATOM     68  C   UNL A   1      44.242  34.288  29.815  1.00  0.00     0.037 A 
BRANCH  55  69
ATOM     69  C   UNL A   1      47.747  29.443  28.174  1.00  0.00     0.058 A 
ATOM     70  C   UNL A   1      48.646  29.105  29.201  1.00  0.00     0.135 A 
ATOM     71  C   UNL A   1      48.142  29.157  26.856  1.00  0.00     0.135 A 
ATOM     72  F   UNL A   1      48.327  29.343  30.484  1.00  0.00    -0.206 F 
ATOM     73  C   UNL A   1      49.885  28.529  28.936  1.00  0.00     0.059 A 
ATOM     74  C   UNL A   1      49.367  28.554  26.568  1.00  0.00     0.059 A 
ATOM     75  F   UNL A   1      47.327  29.444  25.828  1.00  0.00    -0.206 F 
ATOM     76  C   UNL A   1      50.236  28.249  27.615  1.00  0.00     0.060 A 
BRANCH  76  77
ATOM     77  S   UNL A   1      51.834  27.466  27.303  1.00  0.00     0.124 S 
ATOM     78  O   UNL A   1      52.496  28.468  26.472  1.00  0.00    -0.237 OA
ATOM     79  O   UNL A   1      52.370  27.307  28.651  1.00  0.00    -0.237 OA
ATOM     80  O   UNL A   1      51.480  26.224  26.622  1.00  0.00    -0.744 OA
ENDBRANCH  76  77
ENDBRANCH  55  69
BRANCH  56  81
ATOM     81  C   UNL A   1      38.513  32.454  30.667  1.00  0.00     0.058 A 
ATOM     82  C   UNL A   1      38.042  32.358  31.986  1.00  0.00     0.135 A 
ATOM     83  C   UNL A   1      37.673  33.054  29.717  1.00  0.00     0.135 A 
ATOM     84  F   UNL A   1      38.811  31.800  32.934  1.00  0.00    -0.206 F 
ATOM     85  C   UNL A   1      36.787  32.833  32.351  1.00  0.00     0.059 A 
ATOM     86  C   UNL A   1      36.421  33.557  30.062  1.00  0.00     0.059 A 
ATOM     87  F   UNL A   1      38.088  33.198  28.449  1.00  0.00    -0.206 F 
ATOM     88  C   UNL A   1      35.985  33.439  31.382  1.00  0.00     0.060 A 
BRANCH  88  89
ATOM     89  S   UNL A   1      34.387  34.110  31.888  1.00  0.00     0.124 S 
ATOM     90  O   UNL A   1      33.853  33.021  32.701  1.00  0.00    -0.237 OA
ATOM     91  O   UNL A   1      34.779  35.314  32.613  1.00  0.00    -0.237 OA
ATOM     92  O   UNL A   1      33.702  34.344  30.621  1.00  0.00    -0.744 OA
ENDBRANCH  88  89
ENDBRANCH  56  81
BRANCH  68  93
ATOM     93  C   UNL A   1      44.660  35.722  29.991  1.00  0.00     0.058 A 
ATOM     94  C   UNL A   1      45.164  36.193  31.213  1.00  0.00     0.135 A 
ATOM     95  C   UNL A   1      44.617  36.616  28.909  1.00  0.00     0.135 A 
ATOM     96  F   UNL A   1      45.220  35.381  32.280  1.00  0.00    -0.206 F 
ATOM     97  C   UNL A   1      45.595  37.507  31.362  1.00  0.00     0.059 A 
ATOM     98  C   UNL A   1      45.073  37.925  29.027  1.00  0.00     0.059 A 
ATOM     99  F   UNL A   1      44.153  36.213  27.715  1.00  0.00    -0.206 F 
ATOM    100  C   UNL A   1      45.551  38.364  30.260  1.00  0.00     0.060 A 
BRANCH 100 101
ATOM    101  S   UNL A   1      46.153  40.053  30.462  1.00  0.00     0.124 S 
ATOM    102  O   UNL A   1      44.925  40.825  30.297  1.00  0.00    -0.237 OA
ATOM    103  O   UNL A   1      46.706  40.025  31.812  1.00  0.00    -0.237 OA
ATOM    104  O   UNL A   1      47.132  40.198  29.390  1.00  0.00    -0.744 OA
ENDBRANCH 100 101
ENDBRANCH  68  93
ENDBRANCH  42  43
ENDBRANCH  35  37
ENDBRANCH  34  35
ENDBRANCH  33  34
ENDBRANCH   1  33
TORSDOF 20
ENDMDL
MODEL 3
REMARK VINA RESULT:     -11.0      3.056      7.779
REMARK SMILES CO[C@@H]1C[NH2+][C@@H](O[C@@H]2C[C@@H](C(=O)OCCOC(=O)c3ccc(-c4c5nc(c(-c6c(F)cc(S(=O)(=O)[O-])cc6F)c6ccc([nH]6)c(-c6c(F)cc(S(=O)(=O)[O-])cc6F)c6nc(c(-c7c(F)cc(S(=O)(=O)[O-])cc7F)c7ccc4[nH]7)C=C6)C=C5)cc3)N(C(=O)OC(C)(C)C)C2)c2cc(Cl)ccc21
REMARK SMILES IDX 14 1 13 2 11 3 12 4 10 5 8 6 9 7 93 8 85 9 7 10 6 11 3 12
REMARK SMILES IDX 4 13 100 14 5 15 94 16 99 17 95 20 98 21 96 22 97 23 2 24
REMARK SMILES IDX 1 25 86 26 87 27 88 28 89 29 90 30 91 31 92 32 15 33 16 34
REMARK SMILES IDX 17 35 18 36 19 37 20 38 84 39 21 40 83 41 22 42 23 43 24 44
REMARK SMILES IDX 77 45 25 46 82 47 76 48 78 49 26 50 81 51 75 52 74 53 27 55
REMARK SMILES IDX 61 56 40 57 60 58 41 59 44 60 59 61 79 62 42 63 43 64 58 66
REMARK SMILES IDX 80 67 45 68 28 69 29 70 38 71 30 72 31 73 37 74 39 75 32 76
REMARK SMILES IDX 33 77 34 78 35 79 36 80 62 81 63 82 72 83 64 84 65 85 71 86
REMARK SMILES IDX 73 87 66 88 67 89 68 90 69 91 70 92 46 93 47 94 56 95 48 96
REMARK SMILES IDX 49 97 55 98 57 99 50 100 51 101 52 102 53 103 54 104
REMARK H PARENT 5 18 5 19 78 54 44 65
REMARK Flexibility Score: inf
ROOT
ATOM      1  C   UNL A   1      36.846  21.518  25.165  1.00  0.00     0.274 C 
ENDROOT
BRANCH   1   2
ATOM      2  O   UNL A   1      35.476  21.089  25.296  1.00  0.00    -0.461 OA
BRANCH   2   3
ATOM      3  C   UNL A   1      34.732  21.676  26.298  1.00  0.00     0.329 C 
ATOM      4  O   UNL A   1      35.096  21.799  27.458  1.00  0.00    -0.250 OA
BRANCH   3   5
ATOM      5  C   UNL A   1      33.423  22.228  25.693  1.00  0.00     0.201 C 
ATOM      6  C   UNL A   1      31.404  23.549  26.099  1.00  0.00     0.147 C 
ATOM      7  C   UNL A   1      32.855  23.376  26.555  1.00  0.00     0.071 C 
ATOM      8  C   UNL A   1      31.015  22.123  25.666  1.00  0.00     0.156 C 
ATOM      9  N   UNL A   1      32.258  21.425  25.336  1.00  0.00    -0.292 N 
BRANCH   6  10
ATOM     10  O   UNL A   1      30.947  24.626  25.284  1.00  0.00    -0.320 OA
BRANCH  10  11
ATOM     11  C   UNL A   1      30.335  25.875  25.605  1.00  0.00     0.354 C 
ATOM     12  C   UNL A   1      29.906  27.551  23.247  1.00  0.00     0.203 C 
ATOM     13  C   UNL A   1      29.028  26.335  23.620  1.00  0.00     0.300 C 
ATOM     14  C   UNL A   1      31.069  27.821  24.229  1.00  0.00    -0.002 A 
ATOM     15  N   UNL A   1      29.006  25.995  25.034  1.00  0.00    -0.315 N 
ATOM     16  C   UNL A   1      31.158  27.121  25.433  1.00  0.00     0.046 A 
ATOM     17  C   UNL A   1      32.172  28.635  23.915  1.00  0.00     0.009 A 
ATOM     18  H   UNL A   1      28.521  25.105  25.148  1.00  0.00     0.349 HD
ATOM     19  H   UNL A   1      28.530  26.752  25.525  1.00  0.00     0.349 HD
ATOM     20  C   UNL A   1      32.101  27.505  26.414  1.00  0.00     0.033 A 
ATOM     21  C   UNL A   1      33.157  28.975  24.846  1.00  0.00     0.021 A 
ATOM     22  C   UNL A   1      33.071  28.462  26.126  1.00  0.00     0.041 A 
ATOM     23  Cl  UNL A   1      34.214  28.939  27.314  1.00  0.00    -0.084 Cl
BRANCH  12  24
ATOM     24  O   UNL A   1      29.042  28.687  23.109  1.00  0.00    -0.371 OA
ATOM     25  C   UNL A   1      29.659  29.923  23.492  1.00  0.00     0.196 C 
ENDBRANCH  12  24
ENDBRANCH  10  11
ENDBRANCH   6  10
BRANCH   9  26
ATOM     26  C   UNL A   1      32.212  20.410  24.392  1.00  0.00     0.411 C 
ATOM     27  O   UNL A   1      32.320  20.630  23.199  1.00  0.00    -0.224 OA
BRANCH  26  28
ATOM     28  O   UNL A   1      32.077  19.162  24.930  1.00  0.00    -0.444 OA
BRANCH  28  29
ATOM     29  C   UNL A   1      32.842  18.041  24.380  1.00  0.00     0.106 C 
ATOM     30  C   UNL A   1      34.341  18.362  24.400  1.00  0.00     0.056 C 
ATOM     31  C   UNL A   1      32.575  16.695  25.078  1.00  0.00     0.056 C 
ATOM     32  C   UNL A   1      32.404  17.906  22.910  1.00  0.00     0.056 C 
ENDBRANCH  28  29
ENDBRANCH  26  28
ENDBRANCH   9  26
ENDBRANCH   3   5
ENDBRANCH   2   3
ENDBRANCH   1   2
BRANCH   1  33
ATOM     33  C   UNL A   1      36.929  22.970  24.647  1.00  0.00     0.275 C 
BRANCH  33  34
ATOM     34  O   UNL A   1      37.510  23.887  25.617  1.00  0.00    -0.458 OA
BRANCH  34  35
ATOM     35  C   UNL A   1      38.708  23.514  26.154  1.00  0.00     0.338 C 
ATOM     36  O   UNL A   1      39.309  22.480  25.906  1.00  0.00    -0.246 OA
BRANCH  35  37
ATOM     37  C   UNL A   1      39.369  24.653  26.848  1.00  0.00     0.060 A 
ATOM     38  C   UNL A   1      40.281  25.566  26.343  1.00  0.00     0.016 A 
ATOM     39  C   UNL A   1      38.921  24.849  28.141  1.00  0.00     0.016 A 
ATOM     40  C   UNL A   1      40.759  26.608  27.184  1.00  0.00     0.010 A 
ATOM     41  C   UNL A   1      39.423  25.813  29.005  1.00  0.00     0.010 A 
ATOM     42  C   UNL A   1      40.359  26.714  28.535  1.00  0.00    -0.014 A 
BRANCH  42  43
ATOM     43  C   UNL A   1      40.735  27.824  29.447  1.00  0.00     0.031 A 
ATOM     44  C   UNL A   1      39.901  29.070  29.578  1.00  0.00     0.074 A 
ATOM     45  C   UNL A   1      41.964  27.800  29.999  1.00  0.00     0.049 A 
ATOM     46  N   UNL A   1      39.995  30.034  30.459  1.00  0.00    -0.248 NA
ATOM     47  C   UNL A   1      38.854  29.286  28.568  1.00  0.00     0.031 C 
ATOM     48  C   UNL A   1      42.982  26.782  29.729  1.00  0.00     0.029 A 
ATOM     49  N   UNL A   1      42.576  28.658  30.876  1.00  0.00    -0.354 N 
ATOM     50  C   UNL A   1      38.978  30.936  30.151  1.00  0.00     0.074 A 
ATOM     51  C   UNL A   1      38.347  30.455  28.942  1.00  0.00     0.031 C 
ATOM     52  C   UNL A   1      44.072  27.046  30.465  1.00  0.00     0.029 A 
ATOM     53  C   UNL A   1      43.817  28.229  31.280  1.00  0.00     0.049 A 
ATOM     54  H   UNL A   1      42.166  29.498  31.186  1.00  0.00     0.167 HD
ATOM     55  C   UNL A   1      38.594  32.034  30.848  1.00  0.00     0.037 A 
ATOM     56  C   UNL A   1      44.626  28.699  32.249  1.00  0.00     0.037 A 
ATOM     57  C   UNL A   1      39.296  32.511  32.016  1.00  0.00     0.049 A 
ATOM     58  C   UNL A   1      44.145  29.853  33.087  1.00  0.00     0.074 A 
ATOM     59  C   UNL A   1      38.952  33.536  32.880  1.00  0.00     0.029 A 
ATOM     60  N   UNL A   1      40.509  32.004  32.463  1.00  0.00    -0.354 N 
ATOM     61  N   UNL A   1      43.047  30.560  32.960  1.00  0.00    -0.248 NA
ATOM     62  C   UNL A   1      44.990  30.249  34.220  1.00  0.00     0.031 C 
ATOM     63  C   UNL A   1      39.979  33.675  33.822  1.00  0.00     0.029 A 
ATOM     64  C   UNL A   1      40.938  32.704  33.579  1.00  0.00     0.049 A 
ATOM     65  H   UNL A   1      40.995  31.256  32.047  1.00  0.00     0.167 HD
ATOM     66  C   UNL A   1      43.055  31.471  34.010  1.00  0.00     0.074 A 
ATOM     67  C   UNL A   1      44.260  31.209  34.774  1.00  0.00     0.031 C 
ATOM     68  C   UNL A   1      42.150  32.434  34.315  1.00  0.00     0.037 A 
BRANCH  55  69
ATOM     69  C   UNL A   1      37.328  32.746  30.429  1.00  0.00     0.058 A 
ATOM     70  C   UNL A   1      37.342  33.670  29.368  1.00  0.00     0.135 A 
ATOM     71  C   UNL A   1      36.079  32.441  30.997  1.00  0.00     0.135 A 
ATOM     72  F   UNL A   1      38.501  33.999  28.774  1.00  0.00    -0.206 F 
ATOM     73  C   UNL A   1      36.179  34.276  28.904  1.00  0.00     0.059 A 
ATOM     74  C   UNL A   1      34.896  33.016  30.529  1.00  0.00     0.059 A 
ATOM     75  F   UNL A   1      35.992  31.561  32.007  1.00  0.00    -0.206 F 
ATOM     76  C   UNL A   1      34.957  33.939  29.485  1.00  0.00     0.060 A 
BRANCH  76  77
ATOM     77  S   UNL A   1      33.459  34.712  28.837  1.00  0.00     0.124 S 
ATOM     78  O   UNL A   1      33.979  35.974  28.317  1.00  0.00    -0.237 OA
ATOM     79  O   UNL A   1      33.021  33.748  27.833  1.00  0.00    -0.237 OA
ATOM     80  O   UNL A   1      32.597  34.827  30.009  1.00  0.00    -0.744 OA
ENDBRANCH  76  77
ENDBRANCH  55  69
BRANCH  56  81
ATOM     81  C   UNL A   1      45.874  27.960  32.573  1.00  0.00     0.058 A 
ATOM     82  C   UNL A   1      45.849  26.895  33.488  1.00  0.00     0.135 A 
ATOM     83  C   UNL A   1      47.086  28.231  31.921  1.00  0.00     0.135 A 
ATOM     84  F   UNL A   1      44.712  26.590  34.131  1.00  0.00    -0.206 F 
ATOM     85  C   UNL A   1      46.981  26.131  33.752  1.00  0.00     0.059 A 
ATOM     86  C   UNL A   1      48.227  27.466  32.152  1.00  0.00     0.059 A 
ATOM     87  F   UNL A   1      47.155  29.217  31.015  1.00  0.00    -0.206 F 
ATOM     88  C   UNL A   1      48.165  26.420  33.073  1.00  0.00     0.060 A 
BRANCH  88  89
ATOM     89  S   UNL A   1      49.606  25.375  33.379  1.00  0.00     0.124 S 
ATOM     90  O   UNL A   1      50.290  26.116  34.433  1.00  0.00    -0.237 OA
ATOM     91  O   UNL A   1      48.988  24.116  33.782  1.00  0.00    -0.237 OA
ATOM     92  O   UNL A   1      50.284  25.347  32.087  1.00  0.00    -0.744 OA
ENDBRANCH  88  89
ENDBRANCH  56  81
BRANCH  68  93
ATOM     93  C   UNL A   1      42.429  33.285  35.524  1.00  0.00     0.058 A 
ATOM     94  C   UNL A   1      42.082  32.859  36.815  1.00  0.00     0.135 A 
ATOM     95  C   UNL A   1      43.108  34.507  35.394  1.00  0.00     0.135 A 
ATOM     96  F   UNL A   1      41.426  31.701  36.992  1.00  0.00    -0.206 F 
ATOM     97  C   UNL A   1      42.383  33.623  37.936  1.00  0.00     0.059 A 
ATOM     98  C   UNL A   1      43.447  35.273  36.505  1.00  0.00     0.059 A 
ATOM     99  F   UNL A   1      43.471  34.956  34.182  1.00  0.00    -0.206 F 
ATOM    100  C   UNL A   1      43.072  34.827  37.771  1.00  0.00     0.060 A 
BRANCH 100 101
ATOM    101  S   UNL A   1      43.489  35.786  39.242  1.00  0.00     0.124 S 
ATOM    102  O   UNL A   1      42.235  36.485  39.504  1.00  0.00    -0.237 OA
ATOM    103  O   UNL A   1      43.845  34.744  40.199  1.00  0.00    -0.237 OA
ATOM    104  O   UNL A   1      44.595  36.629  38.798  1.00  0.00    -0.744 OA
ENDBRANCH 100 101
ENDBRANCH  68  93
ENDBRANCH  42  43
ENDBRANCH  35  37
ENDBRANCH  34  35
ENDBRANCH  33  34
ENDBRANCH   1  33
TORSDOF 20
ENDMDL
