MODEL 1
REMARK VINA RESULT:      -9.7      0.000      0.000
REMARK SMILES COCCN(C(=O)N1CC[C@H](C(=O)OCCOC(=O)c2ccc(-c3c4nc(c(-c5c(F)cc(S(=O)(=O)[O-])cc5F)c5ccc([nH]5)c(-c5c(F)cc(S(=O)(=O)[O-])cc5F)c5nc(c(-c6c(F)cc(S(=O)(=O)[O-])cc6F)c6ccc3[nH]6)C=C5)C=C4)cc2)[C@H]1C)[C@@H](C)COC
REMARK SMILES IDX 15 1 14 2 12 3 13 4 11 5 8 6 9 7 86 8 10 9 87 10 6 11 7 12
REMARK SMILES IDX 5 13 4 14 3 15 2 16 1 17 88 18 89 19 90 20 91 21 92 22 16 23
REMARK SMILES IDX 17 24 18 25 19 26 20 27 21 28 85 29 22 30 84 31 23 32 24 33
REMARK SMILES IDX 25 34 78 35 26 36 83 37 77 38 79 39 27 40 82 41 76 42 75 43
REMARK SMILES IDX 28 45 62 46 41 47 61 48 42 49 45 50 60 51 80 52 43 53 44 54
REMARK SMILES IDX 59 56 81 57 46 58 29 59 30 60 39 61 31 62 32 63 38 64 40 65
REMARK SMILES IDX 33 66 34 67 35 68 36 69 37 70 63 71 64 72 73 73 65 74 66 75
REMARK SMILES IDX 72 76 74 77 67 78 68 79 69 80 70 81 71 82 47 83 48 84 57 85
REMARK SMILES IDX 49 86 50 87 56 88 58 89 51 90 52 91 53 92 54 93 55 94
REMARK H PARENT 79 44 45 55
REMARK Flexibility Score: inf
ROOT
ATOM      1  C   UNL A   1      32.273  27.735  25.966  1.00  0.00     0.274 C 
ENDROOT
BRANCH   1   2
ATOM      2  O   UNL A   1      31.743  26.531  26.550  1.00  0.00    -0.462 OA
BRANCH   2   3
ATOM      3  C   UNL A   1      32.280  25.371  26.101  1.00  0.00     0.311 C 
ATOM      4  O   UNL A   1      33.057  25.279  25.155  1.00  0.00    -0.252 OA
BRANCH   3   5
ATOM      5  C   UNL A   1      31.920  24.168  26.942  1.00  0.00     0.123 C 
ATOM      6  N   UNL A   1      32.117  22.152  25.699  1.00  0.00    -0.321 N 
ATOM      7  C   UNL A   1      30.697  22.522  25.734  1.00  0.00     0.122 C 
ATOM      8  C   UNL A   1      32.872  23.004  26.638  1.00  0.00     0.098 C 
ATOM      9  C   UNL A   1      30.532  23.566  26.815  1.00  0.00     0.039 C 
ATOM     10  C   UNL A   1      33.205  22.315  27.969  1.00  0.00     0.032 C 
BRANCH   6  11
ATOM     11  C   UNL A   1      32.608  21.884  24.426  1.00  0.00     0.320 C 
ATOM     12  O   UNL A   1      32.113  22.436  23.443  1.00  0.00    -0.248 OA
BRANCH  11  13
ATOM     13  N   UNL A   1      33.567  20.883  24.294  1.00  0.00    -0.317 N 
BRANCH  13  14
ATOM     14  C   UNL A   1      33.271  19.447  24.196  1.00  0.00     0.150 C 
BRANCH  14  15
ATOM     15  C   UNL A   1      32.827  18.769  25.499  1.00  0.00     0.181 C 
BRANCH  15  16
ATOM     16  O   UNL A   1      32.778  17.341  25.375  1.00  0.00    -0.383 OA
ATOM     17  C   UNL A   1      33.283  16.863  24.138  1.00  0.00     0.194 C 
ENDBRANCH  15  16
ENDBRANCH  14  15
ENDBRANCH  13  14
BRANCH  13  18
ATOM     18  C   UNL A   1      34.981  21.343  24.202  1.00  0.00     0.109 C 
ATOM     19  C   UNL A   1      35.100  22.813  23.776  1.00  0.00     0.033 C 
BRANCH  18  20
ATOM     20  C   UNL A   1      35.810  21.098  25.488  1.00  0.00     0.184 C 
BRANCH  20  21
ATOM     21  O   UNL A   1      36.566  22.219  25.951  1.00  0.00    -0.383 OA
ATOM     22  C   UNL A   1      37.962  22.118  25.726  1.00  0.00     0.194 C 
ENDBRANCH  20  21
ENDBRANCH  18  20
ENDBRANCH  13  18
ENDBRANCH  11  13
ENDBRANCH   6  11
ENDBRANCH   3   5
ENDBRANCH   2   3
ENDBRANCH   1   2
BRANCH   1  23
ATOM     23  C   UNL A   1      32.539  28.786  27.046  1.00  0.00     0.275 C 
BRANCH  23  24
ATOM     24  O   UNL A   1      33.925  28.800  27.442  1.00  0.00    -0.458 OA
BRANCH  24  25
ATOM     25  C   UNL A   1      34.388  30.005  27.843  1.00  0.00     0.338 C 
ATOM     26  O   UNL A   1      33.756  31.040  27.966  1.00  0.00    -0.246 OA
BRANCH  25  27
ATOM     27  C   UNL A   1      35.809  29.907  28.198  1.00  0.00     0.060 A 
ATOM     28  C   UNL A   1      36.763  30.105  27.201  1.00  0.00     0.016 A 
ATOM     29  C   UNL A   1      36.190  29.464  29.463  1.00  0.00     0.016 A 
ATOM     30  C   UNL A   1      38.095  29.780  27.432  1.00  0.00     0.010 A 
ATOM     31  C   UNL A   1      37.541  29.213  29.718  1.00  0.00     0.010 A 
ATOM     32  C   UNL A   1      38.501  29.340  28.696  1.00  0.00    -0.014 A 
BRANCH  32  33
ATOM     33  C   UNL A   1      39.921  28.991  28.953  1.00  0.00     0.031 A 
ATOM     34  C   UNL A   1      40.859  30.029  29.503  1.00  0.00     0.074 A 
ATOM     35  C   UNL A   1      40.368  27.747  28.687  1.00  0.00     0.049 A 
ATOM     36  N   UNL A   1      42.163  30.000  29.592  1.00  0.00    -0.248 NA
ATOM     37  C   UNL A   1      40.248  31.267  30.013  1.00  0.00     0.031 C 
ATOM     38  C   UNL A   1      39.544  26.632  28.214  1.00  0.00     0.029 A 
ATOM     39  N   UNL A   1      41.629  27.214  28.768  1.00  0.00    -0.354 N 
ATOM     40  C   UNL A   1      42.534  31.230  30.123  1.00  0.00     0.074 A 
ATOM     41  C   UNL A   1      41.316  31.982  30.339  1.00  0.00     0.031 C 
ATOM     42  C   UNL A   1      40.318  25.548  28.055  1.00  0.00     0.029 A 
ATOM     43  C   UNL A   1      41.703  25.911  28.336  1.00  0.00     0.049 A 
ATOM     44  H   UNL A   1      42.407  27.716  29.103  1.00  0.00     0.167 HD
ATOM     45  C   UNL A   1      43.780  31.687  30.395  1.00  0.00     0.037 A 
ATOM     46  C   UNL A   1      42.769  25.113  28.136  1.00  0.00     0.037 A 
ATOM     47  C   UNL A   1      44.978  30.914  30.204  1.00  0.00     0.049 A 
ATOM     48  C   UNL A   1      44.145  25.657  28.400  1.00  0.00     0.074 A 
ATOM     49  C   UNL A   1      46.292  31.287  30.428  1.00  0.00     0.029 A 
ATOM     50  N   UNL A   1      45.008  29.600  29.758  1.00  0.00    -0.354 N 
ATOM     51  N   UNL A   1      44.489  26.847  28.831  1.00  0.00    -0.248 NA
ATOM     52  C   UNL A   1      45.278  24.761  28.132  1.00  0.00     0.031 C 
ATOM     53  C   UNL A   1      47.117  30.207  30.096  1.00  0.00     0.029 A 
ATOM     54  C   UNL A   1      46.314  29.149  29.698  1.00  0.00     0.049 A 
ATOM     55  H   UNL A   1      44.215  29.068  29.518  1.00  0.00     0.167 HD
ATOM     56  C   UNL A   1      45.877  26.837  28.907  1.00  0.00     0.074 A 
ATOM     57  C   UNL A   1      46.308  25.520  28.481  1.00  0.00     0.031 C 
ATOM     58  C   UNL A   1      46.717  27.826  29.292  1.00  0.00     0.037 A 
BRANCH  45  59
ATOM     59  C   UNL A   1      43.911  33.098  30.894  1.00  0.00     0.058 A 
ATOM     60  C   UNL A   1      43.960  34.193  30.018  1.00  0.00     0.135 A 
ATOM     61  C   UNL A   1      43.958  33.360  32.274  1.00  0.00     0.135 A 
ATOM     62  F   UNL A   1      43.939  33.997  28.690  1.00  0.00    -0.206 F 
ATOM     63  C   UNL A   1      44.072  35.497  30.492  1.00  0.00     0.059 A 
ATOM     64  C   UNL A   1      44.047  34.656  32.770  1.00  0.00     0.059 A 
ATOM     65  F   UNL A   1      43.915  32.348  33.155  1.00  0.00    -0.206 F 
ATOM     66  C   UNL A   1      44.119  35.719  31.869  1.00  0.00     0.060 A 
BRANCH  66  67
ATOM     67  S   UNL A   1      44.265  37.414  32.472  1.00  0.00     0.124 S 
ATOM     68  O   UNL A   1      45.620  37.414  33.013  1.00  0.00    -0.237 OA
ATOM     69  O   UNL A   1      44.068  38.199  31.257  1.00  0.00    -0.237 OA
ATOM     70  O   UNL A   1      43.195  37.517  33.460  1.00  0.00    -0.744 OA
ENDBRANCH  66  67
ENDBRANCH  45  59
BRANCH  46  71
ATOM     71  C   UNL A   1      42.575  23.733  27.621  1.00  0.00     0.058 A 
ATOM     72  C   UNL A   1      42.564  23.473  26.244  1.00  0.00     0.135 A 
ATOM     73  C   UNL A   1      42.420  22.646  28.495  1.00  0.00     0.135 A 
ATOM     74  F   UNL A   1      42.698  24.481  25.369  1.00  0.00    -0.206 F 
ATOM     75  C   UNL A   1      42.398  22.183  25.749  1.00  0.00     0.059 A 
ATOM     76  C   UNL A   1      42.278  21.345  28.026  1.00  0.00     0.059 A 
ATOM     77  F   UNL A   1      42.438  22.842  29.823  1.00  0.00    -0.206 F 
ATOM     78  C   UNL A   1      42.258  21.125  26.649  1.00  0.00     0.060 A 
BRANCH  78  79
ATOM     79  S   UNL A   1      42.101  19.445  26.003  1.00  0.00     0.124 S 
ATOM     80  O   UNL A   1      40.667  19.362  25.754  1.00  0.00    -0.237 OA
ATOM     81  O   UNL A   1      42.953  19.487  24.819  1.00  0.00    -0.237 OA
ATOM     82  O   UNL A   1      42.603  18.619  27.097  1.00  0.00    -0.744 OA
ENDBRANCH  78  79
ENDBRANCH  46  71
BRANCH  58  83
ATOM     83  C   UNL A   1      48.184  27.513  29.320  1.00  0.00     0.058 A 
ATOM     84  C   UNL A   1      49.023  27.834  28.243  1.00  0.00     0.135 A 
ATOM     85  C   UNL A   1      48.764  26.950  30.467  1.00  0.00     0.135 A 
ATOM     86  F   UNL A   1      48.512  28.366  27.122  1.00  0.00    -0.206 F 
ATOM     87  C   UNL A   1      50.394  27.602  28.302  1.00  0.00     0.059 A 
ATOM     88  C   UNL A   1      50.133  26.726  30.554  1.00  0.00     0.059 A 
ATOM     89  F   UNL A   1      48.000  26.632  31.524  1.00  0.00    -0.206 F 
ATOM     90  C   UNL A   1      50.939  27.051  29.463  1.00  0.00     0.060 A 
BRANCH  90  91
ATOM     91  S   UNL A   1      52.726  26.807  29.552  1.00  0.00     0.124 S 
ATOM     92  O   UNL A   1      52.988  26.101  28.303  1.00  0.00    -0.237 OA
ATOM     93  O   UNL A   1      53.227  28.176  29.624  1.00  0.00    -0.237 OA
ATOM     94  O   UNL A   1      52.900  26.019  30.769  1.00  0.00    -0.744 OA
ENDBRANCH  90  91
ENDBRANCH  58  83
ENDBRANCH  32  33
ENDBRANCH  25  27
ENDBRANCH  24  25
ENDBRANCH  23  24
ENDBRANCH   1  23
TORSDOF 22
ENDMDL
MODEL 2
REMARK VINA RESULT:      -9.6      1.464      2.771
REMARK SMILES COCCN(C(=O)N1CC[C@H](C(=O)OCCOC(=O)c2ccc(-c3c4nc(c(-c5c(F)cc(S(=O)(=O)[O-])cc5F)c5ccc([nH]5)c(-c5c(F)cc(S(=O)(=O)[O-])cc5F)c5nc(c(-c6c(F)cc(S(=O)(=O)[O-])cc6F)c6ccc3[nH]6)C=C5)C=C4)cc2)[C@H]1C)[C@@H](C)COC
REMARK SMILES IDX 15 1 14 2 12 3 13 4 11 5 8 6 9 7 86 8 10 9 87 10 6 11 7 12
REMARK SMILES IDX 5 13 4 14 3 15 2 16 1 17 88 18 89 19 90 20 91 21 92 22 16 23
REMARK SMILES IDX 17 24 18 25 19 26 20 27 21 28 85 29 22 30 84 31 23 32 24 33
REMARK SMILES IDX 25 34 78 35 26 36 83 37 77 38 79 39 27 40 82 41 76 42 75 43
REMARK SMILES IDX 28 45 62 46 41 47 61 48 42 49 45 50 60 51 80 52 43 53 44 54
REMARK SMILES IDX 59 56 81 57 46 58 29 59 30 60 39 61 31 62 32 63 38 64 40 65
REMARK SMILES IDX 33 66 34 67 35 68 36 69 37 70 63 71 64 72 73 73 65 74 66 75
REMARK SMILES IDX 72 76 74 77 67 78 68 79 69 80 70 81 71 82 47 83 48 84 57 85
REMARK SMILES IDX 49 86 50 87 56 88 58 89 51 90 52 91 53 92 54 93 55 94
REMARK H PARENT 79 44 45 55
REMARK Flexibility Score: inf
ROOT
ATOM      1  C   UNL A   1      31.948  29.966  26.840  1.00  0.00     0.274 C 
ENDROOT
BRANCH   1   2
ATOM      2  O   UNL A   1      32.224  28.681  26.251  1.00  0.00    -0.462 OA
BRANCH   2   3
ATOM      3  C   UNL A   1      32.203  28.635  24.898  1.00  0.00     0.311 C 
ATOM      4  O   UNL A   1      33.081  29.086  24.167  1.00  0.00    -0.252 OA
BRANCH   3   5
ATOM      5  C   UNL A   1      31.026  27.872  24.333  1.00  0.00     0.123 C 
ATOM      6  N   UNL A   1      31.722  25.843  23.308  1.00  0.00    -0.321 N 
ATOM      7  C   UNL A   1      31.507  26.834  22.246  1.00  0.00     0.122 C 
ATOM      8  C   UNL A   1      31.200  26.369  24.585  1.00  0.00     0.098 C 
ATOM      9  C   UNL A   1      30.722  27.975  22.850  1.00  0.00     0.039 C 
ATOM     10  C   UNL A   1      29.827  25.801  24.973  1.00  0.00     0.032 C 
BRANCH   6  11
ATOM     11  C   UNL A   1      32.953  25.199  23.253  1.00  0.00     0.320 C 
ATOM     12  O   UNL A   1      33.824  25.596  22.478  1.00  0.00    -0.248 OA
BRANCH  11  13
ATOM     13  N   UNL A   1      33.111  24.027  23.987  1.00  0.00    -0.317 N 
BRANCH  13  14
ATOM     14  C   UNL A   1      34.202  23.776  24.939  1.00  0.00     0.150 C 
BRANCH  14  15
ATOM     15  C   UNL A   1      35.430  23.055  24.366  1.00  0.00     0.181 C 
BRANCH  15  16
ATOM     16  O   UNL A   1      36.643  23.784  24.603  1.00  0.00    -0.383 OA
ATOM     17  C   UNL A   1      37.084  23.724  25.951  1.00  0.00     0.194 C 
ENDBRANCH  15  16
ENDBRANCH  14  15
ENDBRANCH  13  14
BRANCH  13  18
ATOM     18  C   UNL A   1      32.053  22.995  23.804  1.00  0.00     0.109 C 
ATOM     19  C   UNL A   1      32.233  22.183  22.514  1.00  0.00     0.033 C 
BRANCH  18  20
ATOM     20  C   UNL A   1      31.890  22.037  25.012  1.00  0.00     0.184 C 
BRANCH  20  21
ATOM     21  O   UNL A   1      32.288  20.685  24.777  1.00  0.00    -0.383 OA
ATOM     22  C   UNL A   1      33.231  20.180  25.708  1.00  0.00     0.194 C 
ENDBRANCH  20  21
ENDBRANCH  18  20
ENDBRANCH  13  18
ENDBRANCH  11  13
ENDBRANCH   6  11
ENDBRANCH   3   5
ENDBRANCH   2   3
ENDBRANCH   1   2
BRANCH   1  23
ATOM     23  C   UNL A   1      33.247  30.729  27.100  1.00  0.00     0.275 C 
BRANCH  23  24
ATOM     24  O   UNL A   1      34.167  29.956  27.895  1.00  0.00    -0.458 OA
BRANCH  24  25
ATOM     25  C   UNL A   1      35.003  30.687  28.666  1.00  0.00     0.338 C 
ATOM     26  O   UNL A   1      34.732  31.674  29.329  1.00  0.00    -0.246 OA
BRANCH  25  27
ATOM     27  C   UNL A   1      36.342  30.086  28.669  1.00  0.00     0.060 A 
ATOM     28  C   UNL A   1      36.866  29.623  29.876  1.00  0.00     0.016 A 
ATOM     29  C   UNL A   1      37.135  30.128  27.524  1.00  0.00     0.016 A 
ATOM     30  C   UNL A   1      38.211  29.280  29.969  1.00  0.00     0.010 A 
ATOM     31  C   UNL A   1      38.466  29.706  27.602  1.00  0.00     0.010 A 
ATOM     32  C   UNL A   1      39.023  29.308  28.832  1.00  0.00    -0.014 A 
BRANCH  32  33
ATOM     33  C   UNL A   1      40.459  28.943  28.922  1.00  0.00     0.031 A 
ATOM     34  C   UNL A   1      41.471  29.981  29.319  1.00  0.00     0.074 A 
ATOM     35  C   UNL A   1      40.854  27.684  28.643  1.00  0.00     0.049 A 
ATOM     36  N   UNL A   1      42.776  29.933  29.249  1.00  0.00    -0.248 NA
ATOM     37  C   UNL A   1      40.945  31.245  29.861  1.00  0.00     0.031 C 
ATOM     38  C   UNL A   1      39.964  26.570  28.311  1.00  0.00     0.029 A 
ATOM     39  N   UNL A   1      42.108  27.133  28.586  1.00  0.00    -0.354 N 
ATOM     40  C   UNL A   1      43.225  31.172  29.690  1.00  0.00     0.074 A 
ATOM     41  C   UNL A   1      42.054  31.951  30.030  1.00  0.00     0.031 C 
ATOM     42  C   UNL A   1      40.698  25.469  28.093  1.00  0.00     0.029 A 
ATOM     43  C   UNL A   1      42.111  25.816  28.190  1.00  0.00     0.049 A 
ATOM     44  H   UNL A   1      42.928  27.632  28.807  1.00  0.00     0.167 HD
ATOM     45  C   UNL A   1      44.501  31.616  29.792  1.00  0.00     0.037 A 
ATOM     46  C   UNL A   1      43.134  24.995  27.887  1.00  0.00     0.037 A 
ATOM     47  C   UNL A   1      45.657  30.817  29.481  1.00  0.00     0.049 A 
ATOM     48  C   UNL A   1      44.539  25.523  27.961  1.00  0.00     0.074 A 
ATOM     49  C   UNL A   1      46.993  31.175  29.530  1.00  0.00     0.029 A 
ATOM     50  N   UNL A   1      45.614  29.491  29.076  1.00  0.00    -0.354 N 
ATOM     51  N   UNL A   1      44.949  26.719  28.309  1.00  0.00    -0.248 NA
ATOM     52  C   UNL A   1      45.618  24.600  27.585  1.00  0.00     0.031 C 
ATOM     53  C   UNL A   1      47.757  30.071  29.133  1.00  0.00     0.029 A 
ATOM     54  C   UNL A   1      46.897  29.015  28.871  1.00  0.00     0.049 A 
ATOM     55  H   UNL A   1      44.791  28.964  28.953  1.00  0.00     0.167 HD
ATOM     56  C   UNL A   1      46.335  26.688  28.214  1.00  0.00     0.074 A 
ATOM     57  C   UNL A   1      46.693  25.353  27.781  1.00  0.00     0.031 C 
ATOM     58  C   UNL A   1      47.229  27.675  28.461  1.00  0.00     0.037 A 
BRANCH  45  59
ATOM     59  C   UNL A   1      44.712  33.039  30.227  1.00  0.00     0.058 A 
ATOM     60  C   UNL A   1      44.926  33.380  31.571  1.00  0.00     0.135 A 
ATOM     61  C   UNL A   1      44.733  34.073  29.277  1.00  0.00     0.135 A 
ATOM     62  F   UNL A   1      44.897  32.432  32.521  1.00  0.00    -0.206 F 
ATOM     63  C   UNL A   1      45.131  34.700  31.961  1.00  0.00     0.059 A 
ATOM     64  C   UNL A   1      44.957  35.397  29.642  1.00  0.00     0.059 A 
ATOM     65  F   UNL A   1      44.533  33.801  27.978  1.00  0.00    -0.206 F 
ATOM     66  C   UNL A   1      45.140  35.703  30.990  1.00  0.00     0.060 A 
BRANCH  66  67
ATOM     67  S   UNL A   1      45.406  37.412  31.508  1.00  0.00     0.124 S 
ATOM     68  O   UNL A   1      44.761  38.146  30.424  1.00  0.00    -0.237 OA
ATOM     69  O   UNL A   1      44.726  37.460  32.798  1.00  0.00    -0.237 OA
ATOM     70  O   UNL A   1      46.860  37.527  31.566  1.00  0.00    -0.744 OA
ENDBRANCH  66  67
ENDBRANCH  45  59
BRANCH  46  71
ATOM     71  C   UNL A   1      42.860  23.604  27.443  1.00  0.00     0.058 A 
ATOM     72  C   UNL A   1      42.787  23.282  26.081  1.00  0.00     0.135 A 
ATOM     73  C   UNL A   1      42.689  22.565  28.372  1.00  0.00     0.135 A 
ATOM     74  F   UNL A   1      42.934  24.242  25.156  1.00  0.00    -0.206 F 
ATOM     75  C   UNL A   1      42.546  21.981  25.653  1.00  0.00     0.059 A 
ATOM     76  C   UNL A   1      42.472  21.252  27.970  1.00  0.00     0.059 A 
ATOM     77  F   UNL A   1      42.764  22.821  29.688  1.00  0.00    -0.206 F 
ATOM     78  C   UNL A   1      42.392  20.972  26.606  1.00  0.00     0.060 A 
BRANCH  78  79
ATOM     79  S   UNL A   1      42.136  19.274  26.046  1.00  0.00     0.124 S 
ATOM     80  O   UNL A   1      42.978  19.229  24.855  1.00  0.00    -0.237 OA
ATOM     81  O   UNL A   1      42.606  18.496  27.188  1.00  0.00    -0.237 OA
ATOM     82  O   UNL A   1      40.698  19.214  25.807  1.00  0.00    -0.744 OA
ENDBRANCH  78  79
ENDBRANCH  46  71
BRANCH  58  83
ATOM     83  C   UNL A   1      48.684  27.337  28.318  1.00  0.00     0.058 A 
ATOM     84  C   UNL A   1      49.357  27.495  27.098  1.00  0.00     0.135 A 
ATOM     85  C   UNL A   1      49.426  26.921  29.434  1.00  0.00     0.135 A 
ATOM     86  F   UNL A   1      48.689  27.884  26.001  1.00  0.00    -0.206 F 
ATOM     87  C   UNL A   1      50.722  27.245  26.988  1.00  0.00     0.059 A 
ATOM     88  C   UNL A   1      50.792  26.682  29.352  1.00  0.00     0.059 A 
ATOM     89  F   UNL A   1      48.823  26.762  30.624  1.00  0.00    -0.206 F 
ATOM     90  C   UNL A   1      51.431  26.842  28.122  1.00  0.00     0.060 A 
BRANCH  90  91
ATOM     91  S   UNL A   1      53.211  26.575  27.983  1.00  0.00     0.124 S 
ATOM     92  O   UNL A   1      53.664  27.865  27.478  1.00  0.00    -0.237 OA
ATOM     93  O   UNL A   1      53.590  26.263  29.358  1.00  0.00    -0.237 OA
ATOM     94  O   UNL A   1      53.313  25.460  27.045  1.00  0.00    -0.744 OA
ENDBRANCH  90  91
ENDBRANCH  58  83
ENDBRANCH  32  33
ENDBRANCH  25  27
ENDBRANCH  24  25
ENDBRANCH  23  24
ENDBRANCH   1  23
TORSDOF 22
ENDMDL
MODEL 3
REMARK VINA RESULT:      -9.5      2.470      3.291
REMARK SMILES COCCN(C(=O)N1CC[C@H](C(=O)OCCOC(=O)c2ccc(-c3c4nc(c(-c5c(F)cc(S(=O)(=O)[O-])cc5F)c5ccc([nH]5)c(-c5c(F)cc(S(=O)(=O)[O-])cc5F)c5nc(c(-c6c(F)cc(S(=O)(=O)[O-])cc6F)c6ccc3[nH]6)C=C5)C=C4)cc2)[C@H]1C)[C@@H](C)COC
REMARK SMILES IDX 15 1 14 2 12 3 13 4 11 5 8 6 9 7 86 8 10 9 87 10 6 11 7 12
REMARK SMILES IDX 5 13 4 14 3 15 2 16 1 17 88 18 89 19 90 20 91 21 92 22 16 23
REMARK SMILES IDX 17 24 18 25 19 26 20 27 21 28 85 29 22 30 84 31 23 32 24 33
REMARK SMILES IDX 25 34 78 35 26 36 83 37 77 38 79 39 27 40 82 41 76 42 75 43
REMARK SMILES IDX 28 45 62 46 41 47 61 48 42 49 45 50 60 51 80 52 43 53 44 54
REMARK SMILES IDX 59 56 81 57 46 58 29 59 30 60 39 61 31 62 32 63 38 64 40 65
REMARK SMILES IDX 33 66 34 67 35 68 36 69 37 70 63 71 64 72 73 73 65 74 66 75
REMARK SMILES IDX 72 76 74 77 67 78 68 79 69 80 70 81 71 82 47 83 48 84 57 85
REMARK SMILES IDX 49 86 50 87 56 88 58 89 51 90 52 91 53 92 54 93 55 94
REMARK H PARENT 79 44 45 55
REMARK Flexibility Score: inf
ROOT
ATOM      1  C   UNL A   1      33.137  29.839  26.773  1.00  0.00     0.274 C 
ENDROOT
BRANCH   1   2
ATOM      2  O   UNL A   1      33.604  28.875  25.810  1.00  0.00    -0.462 OA
BRANCH   2   3
ATOM      3  C   UNL A   1      33.014  28.925  24.592  1.00  0.00     0.311 C 
ATOM      4  O   UNL A   1      33.494  29.471  23.602  1.00  0.00    -0.252 OA
BRANCH   3   5
ATOM      5  C   UNL A   1      31.723  28.144  24.509  1.00  0.00     0.123 C 
ATOM      6  N   UNL A   1      31.986  26.171  23.209  1.00  0.00    -0.321 N 
ATOM      7  C   UNL A   1      31.351  27.187  22.361  1.00  0.00     0.122 C 
ATOM      8  C   UNL A   1      32.006  26.639  24.609  1.00  0.00     0.098 C 
ATOM      9  C   UNL A   1      30.852  28.284  23.274  1.00  0.00     0.039 C 
ATOM     10  C   UNL A   1      30.910  26.016  25.486  1.00  0.00     0.032 C 
BRANCH   6  11
ATOM     11  C   UNL A   1      33.103  25.567  22.643  1.00  0.00     0.320 C 
ATOM     12  O   UNL A   1      33.653  26.077  21.665  1.00  0.00    -0.248 OA
BRANCH  11  13
ATOM     13  N   UNL A   1      33.486  24.319  23.125  1.00  0.00    -0.317 N 
BRANCH  13  14
ATOM     14  C   UNL A   1      32.692  23.089  22.989  1.00  0.00     0.150 C 
BRANCH  14  15
ATOM     15  C   UNL A   1      32.314  22.394  24.304  1.00  0.00     0.181 C 
BRANCH  15  16
ATOM     16  O   UNL A   1      31.012  22.781  24.764  1.00  0.00    -0.383 OA
ATOM     17  C   UNL A   1      30.796  22.515  26.141  1.00  0.00     0.194 C 
ENDBRANCH  15  16
ENDBRANCH  14  15
ENDBRANCH  13  14
BRANCH  13  18
ATOM     18  C   UNL A   1      34.823  24.253  23.778  1.00  0.00     0.109 C 
ATOM     19  C   UNL A   1      34.747  24.426  25.302  1.00  0.00     0.033 C 
BRANCH  18  20
ATOM     20  C   UNL A   1      35.634  22.979  23.432  1.00  0.00     0.184 C 
BRANCH  20  21
ATOM     21  O   UNL A   1      36.923  22.890  24.042  1.00  0.00    -0.383 OA
ATOM     22  C   UNL A   1      37.184  21.655  24.687  1.00  0.00     0.194 C 
ENDBRANCH  20  21
ENDBRANCH  18  20
ENDBRANCH  13  18
ENDBRANCH  11  13
ENDBRANCH   6  11
ENDBRANCH   3   5
ENDBRANCH   2   3
ENDBRANCH   1   2
BRANCH   1  23
ATOM     23  C   UNL A   1      34.312  30.622  27.363  1.00  0.00     0.275 C 
BRANCH  23  24
ATOM     24  O   UNL A   1      35.031  29.843  28.340  1.00  0.00    -0.458 OA
BRANCH  24  25
ATOM     25  C   UNL A   1      35.990  30.520  29.010  1.00  0.00     0.338 C 
ATOM     26  O   UNL A   1      35.846  31.487  29.739  1.00  0.00    -0.246 OA
BRANCH  25  27
ATOM     27  C   UNL A   1      37.296  29.883  28.802  1.00  0.00     0.060 A 
ATOM     28  C   UNL A   1      38.059  29.540  29.918  1.00  0.00     0.016 A 
ATOM     29  C   UNL A   1      37.831  29.776  27.520  1.00  0.00     0.016 A 
ATOM     30  C   UNL A   1      39.391  29.168  29.768  1.00  0.00     0.010 A 
ATOM     31  C   UNL A   1      39.146  29.325  27.366  1.00  0.00     0.010 A 
ATOM     32  C   UNL A   1      39.946  29.048  28.490  1.00  0.00    -0.014 A 
BRANCH  32  33
ATOM     33  C   UNL A   1      41.367  28.652  28.321  1.00  0.00     0.031 A 
ATOM     34  C   UNL A   1      42.448  29.693  28.405  1.00  0.00     0.074 A 
ATOM     35  C   UNL A   1      41.685  27.363  28.087  1.00  0.00     0.049 A 
ATOM     36  N   UNL A   1      43.710  29.602  28.075  1.00  0.00    -0.248 NA
ATOM     37  C   UNL A   1      42.056  31.014  28.922  1.00  0.00     0.031 C 
ATOM     38  C   UNL A   1      40.735  26.248  28.049  1.00  0.00     0.029 A 
ATOM     39  N   UNL A   1      42.896  26.773  27.828  1.00  0.00    -0.354 N 
ATOM     40  C   UNL A   1      44.252  30.862  28.298  1.00  0.00     0.074 A 
ATOM     41  C   UNL A   1      43.182  31.701  28.794  1.00  0.00     0.031 C 
ATOM     42  C   UNL A   1      41.399  25.112  27.791  1.00  0.00     0.029 A 
ATOM     43  C   UNL A   1      42.805  25.427  27.565  1.00  0.00     0.049 A 
ATOM     44  H   UNL A   1      43.748  27.267  27.830  1.00  0.00     0.167 HD
ATOM     45  C   UNL A   1      45.526  31.278  28.096  1.00  0.00     0.037 A 
ATOM     46  C   UNL A   1      43.737  24.553  27.138  1.00  0.00     0.037 A 
ATOM     47  C   UNL A   1      46.586  30.422  27.633  1.00  0.00     0.049 A 
ATOM     48  C   UNL A   1      45.132  25.046  26.876  1.00  0.00     0.074 A 
ATOM     49  C   UNL A   1      47.907  30.745  27.375  1.00  0.00     0.029 A 
ATOM     50  N   UNL A   1      46.449  29.066  27.371  1.00  0.00    -0.354 N 
ATOM     51  N   UNL A   1      45.616  26.257  27.019  1.00  0.00    -0.248 NA
ATOM     52  C   UNL A   1      46.103  24.063  26.377  1.00  0.00     0.031 C 
ATOM     53  C   UNL A   1      48.563  29.589  26.937  1.00  0.00     0.029 A 
ATOM     54  C   UNL A   1      47.658  28.538  26.956  1.00  0.00     0.049 A 
ATOM     55  H   UNL A   1      45.613  28.554  27.468  1.00  0.00     0.167 HD
ATOM     56  C   UNL A   1      46.952  26.178  26.648  1.00  0.00     0.074 A 
ATOM     57  C   UNL A   1      47.202  24.800  26.278  1.00  0.00     0.031 C 
ATOM     58  C   UNL A   1      47.887  27.157  26.614  1.00  0.00     0.037 A 
BRANCH  45  59
ATOM     59  C   UNL A   1      45.834  32.727  28.343  1.00  0.00     0.058 A 
ATOM     60  C   UNL A   1      45.835  33.672  27.305  1.00  0.00     0.135 A 
ATOM     61  C   UNL A   1      46.102  33.183  29.644  1.00  0.00     0.135 A 
ATOM     62  F   UNL A   1      45.604  33.286  26.041  1.00  0.00    -0.206 F 
ATOM     63  C   UNL A   1      46.112  35.015  27.546  1.00  0.00     0.059 A 
ATOM     64  C   UNL A   1      46.360  34.524  29.911  1.00  0.00     0.059 A 
ATOM     65  F   UNL A   1      46.114  32.320  30.673  1.00  0.00    -0.206 F 
ATOM     66  C   UNL A   1      46.377  35.431  28.852  1.00  0.00     0.060 A 
BRANCH  66  67
ATOM     67  S   UNL A   1      46.736  37.175  29.153  1.00  0.00     0.124 S 
ATOM     68  O   UNL A   1      47.831  37.410  28.218  1.00  0.00    -0.237 OA
ATOM     69  O   UNL A   1      45.469  37.819  28.820  1.00  0.00    -0.237 OA
ATOM     70  O   UNL A   1      47.099  37.208  30.566  1.00  0.00    -0.744 OA
ENDBRANCH  66  67
ENDBRANCH  45  59
BRANCH  46  71
ATOM     71  C   UNL A   1      43.364  23.136  26.893  1.00  0.00     0.058 A 
ATOM     72  C   UNL A   1      43.267  22.631  25.589  1.00  0.00     0.135 A 
ATOM     73  C   UNL A   1      43.122  22.253  27.957  1.00  0.00     0.135 A 
ATOM     74  F   UNL A   1      43.481  23.439  24.540  1.00  0.00    -0.206 F 
ATOM     75  C   UNL A   1      42.935  21.303  25.347  1.00  0.00     0.059 A 
ATOM     76  C   UNL A   1      42.813  20.915  27.742  1.00  0.00     0.059 A 
ATOM     77  F   UNL A   1      43.217  22.686  29.225  1.00  0.00    -0.206 F 
ATOM     78  C   UNL A   1      42.712  20.451  26.430  1.00  0.00     0.060 A 
BRANCH  78  79
ATOM     79  S   UNL A   1      42.337  18.713  26.112  1.00  0.00     0.124 S 
ATOM     80  O   UNL A   1      42.652  18.106  27.400  1.00  0.00    -0.237 OA
ATOM     81  O   UNL A   1      40.921  18.761  25.760  1.00  0.00    -0.237 OA
ATOM     82  O   UNL A   1      43.235  18.373  25.014  1.00  0.00    -0.744 OA
ENDBRANCH  78  79
ENDBRANCH  46  71
BRANCH  58  83
ATOM     83  C   UNL A   1      49.279  26.768  26.211  1.00  0.00     0.058 A 
ATOM     84  C   UNL A   1      49.728  26.916  24.891  1.00  0.00     0.135 A 
ATOM     85  C   UNL A   1      50.190  26.309  27.174  1.00  0.00     0.135 A 
ATOM     86  F   UNL A   1      48.890  27.344  23.934  1.00  0.00    -0.206 F 
ATOM     87  C   UNL A   1      51.040  26.617  24.537  1.00  0.00     0.059 A 
ATOM     88  C   UNL A   1      51.510  26.020  26.846  1.00  0.00     0.059 A 
ATOM     89  F   UNL A   1      49.805  26.157  28.451  1.00  0.00    -0.206 F 
ATOM     90  C   UNL A   1      51.924  26.173  25.523  1.00  0.00     0.060 A 
BRANCH  90  91
ATOM     91  S   UNL A   1      53.639  25.841  25.065  1.00  0.00     0.124 S 
ATOM     92  O   UNL A   1      53.863  24.541  25.686  1.00  0.00    -0.237 OA
ATOM     93  O   UNL A   1      53.582  25.846  23.607  1.00  0.00    -0.237 OA
ATOM     94  O   UNL A   1      54.369  26.957  25.660  1.00  0.00    -0.744 OA
ENDBRANCH  90  91
ENDBRANCH  58  83
ENDBRANCH  32  33
ENDBRANCH  25  27
ENDBRANCH  24  25
ENDBRANCH  23  24
ENDBRANCH   1  23
TORSDOF 22
ENDMDL
