MODEL 1
REMARK VINA RESULT:     -10.8      0.000      0.000
REMARK SMILES CCOc1cc(OCC)cc(-c2ccc([C@@H](C)C(=O)OCCOC(=O)c3ccc(-c4c5nc(c(-c6c(F)cc(S(=O)(=O)[O-])cc6F)c6ccc([nH]6)c(-c6c(F)cc(S(=O)(=O)[O-])cc6F)c6nc(c(-c7c(F)cc(S(=O)(=O)[O-])cc7F)c7ccc4[nH]7)C=C6)C=C5)cc3)cc2F)c1
REMARK SMILES IDX 21 1 20 2 18 3 19 4 16 5 17 6 15 7 12 8 13 9 93 10 14 11
REMARK SMILES IDX 92 12 94 13 11 14 4 15 5 16 95 17 6 18 10 19 3 20 2 21 1 22
REMARK SMILES IDX 7 23 8 24 9 25 22 26 23 27 24 28 25 29 26 30 27 31 91 32
REMARK SMILES IDX 28 33 90 34 29 35 30 36 31 37 84 38 32 39 89 40 83 41 85 42
REMARK SMILES IDX 33 43 88 44 82 45 81 46 34 48 68 49 47 50 67 51 48 52 51 53
REMARK SMILES IDX 66 54 86 55 49 56 50 57 65 59 87 60 52 61 35 62 36 63 45 64
REMARK SMILES IDX 37 65 38 66 44 67 46 68 39 69 40 70 41 71 42 72 43 73 69 74
REMARK SMILES IDX 70 75 79 76 71 77 72 78 78 79 80 80 73 81 74 82 75 83 76 84
REMARK SMILES IDX 77 85 53 86 54 87 63 88 55 89 56 90 62 91 64 92 57 93 58 94
REMARK SMILES IDX 59 95 60 96 61 97
REMARK H PARENT 85 47 51 58
REMARK Flexibility Score: inf
ROOT
ATOM      1  C   UNL A   1      43.647  23.014  25.450  1.00  0.00     0.274 C 
ENDROOT
BRANCH   1   2
ATOM      2  O   UNL A   1      42.713  21.919  25.506  1.00  0.00    -0.462 OA
BRANCH   2   3
ATOM      3  C   UNL A   1      42.337  21.493  26.742  1.00  0.00     0.313 C 
ATOM      4  O   UNL A   1      42.774  21.953  27.791  1.00  0.00    -0.252 OA
BRANCH   3   5
ATOM      5  C   UNL A   1      41.353  20.326  26.714  1.00  0.00     0.126 C 
ATOM      6  C   UNL A   1      41.997  19.122  26.028  1.00  0.00     0.025 C 
BRANCH   5   7
ATOM      7  C   UNL A   1      39.974  20.635  26.150  1.00  0.00    -0.031 A 
ATOM      8  C   UNL A   1      37.391  21.251  25.132  1.00  0.00     0.018 A 
ATOM      9  C   UNL A   1      37.950  19.971  24.976  1.00  0.00     0.012 A 
ATOM     10  C   UNL A   1      38.159  22.216  25.789  1.00  0.00     0.131 A 
ATOM     11  C   UNL A   1      39.215  19.666  25.480  1.00  0.00     0.005 A 
ATOM     12  C   UNL A   1      39.420  21.915  26.304  1.00  0.00     0.044 A 
ATOM     13  F   UNL A   1      37.677  23.453  25.981  1.00  0.00    -0.206 F 
BRANCH   8  14
ATOM     14  C   UNL A   1      36.025  21.525  24.666  1.00  0.00    -0.008 A 
ATOM     15  C   UNL A   1      33.646  21.058  24.622  1.00  0.00     0.123 A 
ATOM     16  C   UNL A   1      33.440  22.127  23.747  1.00  0.00     0.092 A 
ATOM     17  C   UNL A   1      34.932  20.743  25.059  1.00  0.00     0.055 A 
ATOM     18  C   UNL A   1      34.518  22.898  23.317  1.00  0.00     0.123 A 
ATOM     19  C   UNL A   1      35.797  22.596  23.786  1.00  0.00     0.055 A 
BRANCH  15  20
ATOM     20  O   UNL A   1      32.572  20.270  24.929  1.00  0.00    -0.494 OA
BRANCH  20  21
ATOM     21  C   UNL A   1      32.704  18.915  24.485  1.00  0.00     0.226 C 
ATOM     22  C   UNL A   1      32.435  18.778  22.995  1.00  0.00     0.049 C 
ENDBRANCH  20  21
ENDBRANCH  15  20
BRANCH  18  23
ATOM     23  O   UNL A   1      34.219  23.929  22.466  1.00  0.00    -0.494 OA
BRANCH  23  24
ATOM     24  C   UNL A   1      33.043  24.693  22.750  1.00  0.00     0.226 C 
ATOM     25  C   UNL A   1      32.592  25.481  21.531  1.00  0.00     0.049 C 
ENDBRANCH  23  24
ENDBRANCH  18  23
ENDBRANCH   8  14
ENDBRANCH   5   7
ENDBRANCH   3   5
ENDBRANCH   2   3
ENDBRANCH   1   2
BRANCH   1  26
ATOM     26  C   UNL A   1      42.925  24.342  25.217  1.00  0.00     0.275 C 
BRANCH  26  27
ATOM     27  O   UNL A   1      42.393  24.861  26.449  1.00  0.00    -0.458 OA
BRANCH  27  28
ATOM     28  C   UNL A   1      41.125  25.327  26.376  1.00  0.00     0.338 C 
ATOM     29  O   UNL A   1      40.248  24.971  25.608  1.00  0.00    -0.246 OA
BRANCH  28  30
ATOM     30  C   UNL A   1      40.887  26.266  27.483  1.00  0.00     0.060 A 
ATOM     31  C   UNL A   1      41.737  27.365  27.590  1.00  0.00     0.016 A 
ATOM     32  C   UNL A   1      39.901  26.038  28.443  1.00  0.00     0.016 A 
ATOM     33  C   UNL A   1      41.633  28.231  28.672  1.00  0.00     0.010 A 
ATOM     34  C   UNL A   1      39.780  26.923  29.523  1.00  0.00     0.010 A 
ATOM     35  C   UNL A   1      40.655  28.016  29.652  1.00  0.00    -0.014 A 
BRANCH  35  36
ATOM     36  C   UNL A   1      40.586  28.941  30.808  1.00  0.00     0.031 A 
ATOM     37  C   UNL A   1      39.553  30.032  30.847  1.00  0.00     0.074 A 
ATOM     38  C   UNL A   1      41.414  28.756  31.854  1.00  0.00     0.049 A 
ATOM     39  N   UNL A   1      39.331  30.925  31.777  1.00  0.00    -0.248 NA
ATOM     40  C   UNL A   1      38.653  30.133  29.688  1.00  0.00     0.031 C 
ATOM     41  C   UNL A   1      42.440  27.714  31.942  1.00  0.00     0.029 A 
ATOM     42  N   UNL A   1      41.516  29.426  33.046  1.00  0.00    -0.354 N 
ATOM     43  C   UNL A   1      38.276  31.703  31.314  1.00  0.00     0.074 A 
ATOM     44  C   UNL A   1      37.916  31.188  30.009  1.00  0.00     0.031 C 
ATOM     45  C   UNL A   1      43.052  27.802  33.133  1.00  0.00     0.029 A 
ATOM     46  C   UNL A   1      42.489  28.925  33.877  1.00  0.00     0.049 A 
ATOM     47  H   UNL A   1      40.945  30.192  33.285  1.00  0.00     0.167 HD
ATOM     48  C   UNL A   1      37.663  32.747  31.923  1.00  0.00     0.037 A 
ATOM     49  C   UNL A   1      42.888  29.331  35.098  1.00  0.00     0.037 A 
ATOM     50  C   UNL A   1      38.014  33.247  33.228  1.00  0.00     0.049 A 
ATOM     51  C   UNL A   1      42.200  30.499  35.746  1.00  0.00     0.074 A 
ATOM     52  C   UNL A   1      37.448  34.297  33.932  1.00  0.00     0.029 A 
ATOM     53  N   UNL A   1      39.021  32.730  34.029  1.00  0.00    -0.354 N 
ATOM     54  N   UNL A   1      41.211  31.230  35.288  1.00  0.00    -0.248 NA
ATOM     55  C   UNL A   1      42.682  30.898  37.074  1.00  0.00     0.031 C 
ATOM     56  C   UNL A   1      38.132  34.432  35.146  1.00  0.00     0.029 A 
ATOM     57  C   UNL A   1      39.102  33.445  35.215  1.00  0.00     0.049 A 
ATOM     58  H   UNL A   1      39.597  31.967  33.791  1.00  0.00     0.167 HD
ATOM     59  C   UNL A   1      40.946  32.171  36.276  1.00  0.00     0.074 A 
ATOM     60  C   UNL A   1      41.863  31.900  37.366  1.00  0.00     0.031 C 
ATOM     61  C   UNL A   1      40.029  33.170  36.281  1.00  0.00     0.037 A 
BRANCH  48  62
ATOM     62  C   UNL A   1      36.560  33.434  31.169  1.00  0.00     0.058 A 
ATOM     63  C   UNL A   1      36.824  34.280  30.081  1.00  0.00     0.135 A 
ATOM     64  C   UNL A   1      35.218  33.227  31.528  1.00  0.00     0.135 A 
ATOM     65  F   UNL A   1      38.090  34.526  29.708  1.00  0.00    -0.206 F 
ATOM     66  C   UNL A   1      35.798  34.917  29.390  1.00  0.00     0.059 A 
ATOM     67  C   UNL A   1      34.174  33.837  30.837  1.00  0.00     0.059 A 
ATOM     68  F   UNL A   1      34.911  32.428  32.562  1.00  0.00    -0.206 F 
ATOM     69  C   UNL A   1      34.475  34.693  29.779  1.00  0.00     0.060 A 
BRANCH  69  70
ATOM     70  S   UNL A   1      33.151  35.526  28.878  1.00  0.00     0.124 S 
ATOM     71  O   UNL A   1      32.389  36.125  29.971  1.00  0.00    -0.237 OA
ATOM     72  O   UNL A   1      33.883  36.462  28.030  1.00  0.00    -0.237 OA
ATOM     73  O   UNL A   1      32.483  34.437  28.171  1.00  0.00    -0.744 OA
ENDBRANCH  69  70
ENDBRANCH  48  62
BRANCH  49  74
ATOM     74  C   UNL A   1      43.999  28.622  35.784  1.00  0.00     0.058 A 
ATOM     75  C   UNL A   1      43.749  27.550  36.651  1.00  0.00     0.135 A 
ATOM     76  C   UNL A   1      45.335  28.999  35.574  1.00  0.00     0.135 A 
ATOM     77  F   UNL A   1      42.487  27.160  36.890  1.00  0.00    -0.206 F 
ATOM     78  C   UNL A   1      44.783  26.877  37.294  1.00  0.00     0.059 A 
ATOM     79  C   UNL A   1      46.388  28.328  36.187  1.00  0.00     0.059 A 
ATOM     80  F   UNL A   1      45.625  30.012  34.744  1.00  0.00    -0.206 F 
ATOM     81  C   UNL A   1      46.101  27.273  37.053  1.00  0.00     0.060 A 
BRANCH  81  82
ATOM     82  S   UNL A   1      47.444  26.359  37.842  1.00  0.00     0.124 S 
ATOM     83  O   UNL A   1      46.710  25.472  38.735  1.00  0.00    -0.237 OA
ATOM     84  O   UNL A   1      48.098  25.722  36.702  1.00  0.00    -0.237 OA
ATOM     85  O   UNL A   1      48.223  27.409  38.490  1.00  0.00    -0.744 OA
ENDBRANCH  81  82
ENDBRANCH  49  74
BRANCH  61  86
ATOM     86  C   UNL A   1      39.977  34.033  37.511  1.00  0.00     0.058 A 
ATOM     87  C   UNL A   1      40.790  35.169  37.644  1.00  0.00     0.135 A 
ATOM     88  C   UNL A   1      39.110  33.716  38.569  1.00  0.00     0.135 A 
ATOM     89  F   UNL A   1      41.639  35.511  36.663  1.00  0.00    -0.206 F 
ATOM     90  C   UNL A   1      40.776  35.940  38.803  1.00  0.00     0.059 A 
ATOM     91  C   UNL A   1      39.064  34.486  39.727  1.00  0.00     0.059 A 
ATOM     92  F   UNL A   1      38.304  32.645  38.486  1.00  0.00    -0.206 F 
ATOM     93  C   UNL A   1      39.916  35.583  39.843  1.00  0.00     0.060 A 
BRANCH  93  94
ATOM     94  S   UNL A   1      39.911  36.578  41.350  1.00  0.00     0.124 S 
ATOM     95  O   UNL A   1      41.303  37.009  41.420  1.00  0.00    -0.237 OA
ATOM     96  O   UNL A   1      38.939  37.623  41.039  1.00  0.00    -0.237 OA
ATOM     97  O   UNL A   1      39.491  35.630  42.378  1.00  0.00    -0.744 OA
ENDBRANCH  93  94
ENDBRANCH  61  86
ENDBRANCH  35  36
ENDBRANCH  28  30
ENDBRANCH  27  28
ENDBRANCH  26  27
ENDBRANCH   1  26
TORSDOF 20
ENDMDL
MODEL 2
REMARK VINA RESULT:     -10.7      0.623      2.271
REMARK SMILES CCOc1cc(OCC)cc(-c2ccc([C@@H](C)C(=O)OCCOC(=O)c3ccc(-c4c5nc(c(-c6c(F)cc(S(=O)(=O)[O-])cc6F)c6ccc([nH]6)c(-c6c(F)cc(S(=O)(=O)[O-])cc6F)c6nc(c(-c7c(F)cc(S(=O)(=O)[O-])cc7F)c7ccc4[nH]7)C=C6)C=C5)cc3)cc2F)c1
REMARK SMILES IDX 21 1 20 2 18 3 19 4 16 5 17 6 15 7 12 8 13 9 93 10 14 11
REMARK SMILES IDX 92 12 94 13 11 14 4 15 5 16 95 17 6 18 10 19 3 20 2 21 1 22
REMARK SMILES IDX 7 23 8 24 9 25 22 26 23 27 24 28 25 29 26 30 27 31 91 32
REMARK SMILES IDX 28 33 90 34 29 35 30 36 31 37 84 38 32 39 89 40 83 41 85 42
REMARK SMILES IDX 33 43 88 44 82 45 81 46 34 48 68 49 47 50 67 51 48 52 51 53
REMARK SMILES IDX 66 54 86 55 49 56 50 57 65 59 87 60 52 61 35 62 36 63 45 64
REMARK SMILES IDX 37 65 38 66 44 67 46 68 39 69 40 70 41 71 42 72 43 73 69 74
REMARK SMILES IDX 70 75 79 76 71 77 72 78 78 79 80 80 73 81 74 82 75 83 76 84
REMARK SMILES IDX 77 85 53 86 54 87 63 88 55 89 56 90 62 91 64 92 57 93 58 94
REMARK SMILES IDX 59 95 60 96 61 97
REMARK H PARENT 85 47 51 58
REMARK Flexibility Score: inf
ROOT
ATOM      1  C   UNL A   1      44.148  22.764  25.620  1.00  0.00     0.274 C 
ENDROOT
BRANCH   1   2
ATOM      2  O   UNL A   1      42.936  21.985  25.621  1.00  0.00    -0.462 OA
BRANCH   2   3
ATOM      3  C   UNL A   1      42.408  21.671  26.834  1.00  0.00     0.313 C 
ATOM      4  O   UNL A   1      42.720  22.221  27.884  1.00  0.00    -0.252 OA
BRANCH   3   5
ATOM      5  C   UNL A   1      41.420  20.508  26.788  1.00  0.00     0.126 C 
ATOM      6  C   UNL A   1      42.076  19.297  26.126  1.00  0.00     0.025 C 
BRANCH   5   7
ATOM      7  C   UNL A   1      40.056  20.819  26.189  1.00  0.00    -0.031 A 
ATOM      8  C   UNL A   1      37.503  21.440  25.102  1.00  0.00     0.018 A 
ATOM      9  C   UNL A   1      38.046  20.149  24.994  1.00  0.00     0.012 A 
ATOM     10  C   UNL A   1      38.271  22.412  25.748  1.00  0.00     0.131 A 
ATOM     11  C   UNL A   1      39.298  19.841  25.532  1.00  0.00     0.005 A 
ATOM     12  C   UNL A   1      39.517  22.109  26.295  1.00  0.00     0.044 A 
ATOM     13  F   UNL A   1      37.802  23.661  25.895  1.00  0.00    -0.206 F 
BRANCH   8  14
ATOM     14  C   UNL A   1      36.150  21.718  24.602  1.00  0.00    -0.008 A 
ATOM     15  C   UNL A   1      34.592  22.961  23.221  1.00  0.00     0.123 A 
ATOM     16  C   UNL A   1      33.536  22.172  23.680  1.00  0.00     0.092 A 
ATOM     17  C   UNL A   1      35.887  22.753  23.697  1.00  0.00     0.055 A 
ATOM     18  C   UNL A   1      33.770  21.158  24.607  1.00  0.00     0.123 A 
ATOM     19  C   UNL A   1      35.073  20.935  25.053  1.00  0.00     0.055 A 
BRANCH  15  20
ATOM     20  O   UNL A   1      34.293  24.008  22.394  1.00  0.00    -0.494 OA
BRANCH  20  21
ATOM     21  C   UNL A   1      32.900  24.113  22.077  1.00  0.00     0.226 C 
ATOM     22  C   UNL A   1      32.338  25.478  22.443  1.00  0.00     0.049 C 
ENDBRANCH  20  21
ENDBRANCH  15  20
BRANCH  18  23
ATOM     23  O   UNL A   1      32.675  20.431  24.993  1.00  0.00    -0.494 OA
BRANCH  23  24
ATOM     24  C   UNL A   1      32.529  19.121  24.440  1.00  0.00     0.226 C 
ATOM     25  C   UNL A   1      32.571  18.058  25.526  1.00  0.00     0.049 C 
ENDBRANCH  23  24
ENDBRANCH  18  23
ENDBRANCH   8  14
ENDBRANCH   5   7
ENDBRANCH   3   5
ENDBRANCH   2   3
ENDBRANCH   1   2
BRANCH   1  26
ATOM     26  C   UNL A   1      43.896  24.171  25.078  1.00  0.00     0.275 C 
BRANCH  26  27
ATOM     27  O   UNL A   1      43.427  25.047  26.119  1.00  0.00    -0.458 OA
BRANCH  27  28
ATOM     28  C   UNL A   1      42.193  25.567  25.920  1.00  0.00     0.338 C 
ATOM     29  O   UNL A   1      41.423  25.320  25.009  1.00  0.00    -0.246 OA
BRANCH  28  30
ATOM     30  C   UNL A   1      41.827  26.405  27.072  1.00  0.00     0.060 A 
ATOM     31  C   UNL A   1      42.503  27.614  27.230  1.00  0.00     0.016 A 
ATOM     32  C   UNL A   1      40.897  25.984  28.022  1.00  0.00     0.016 A 
ATOM     33  C   UNL A   1      42.279  28.402  28.353  1.00  0.00     0.010 A 
ATOM     34  C   UNL A   1      40.654  26.789  29.144  1.00  0.00     0.010 A 
ATOM     35  C   UNL A   1      41.355  27.995  29.324  1.00  0.00    -0.014 A 
BRANCH  35  36
ATOM     36  C   UNL A   1      41.158  28.843  30.524  1.00  0.00     0.031 A 
ATOM     37  C   UNL A   1      40.038  29.843  30.572  1.00  0.00     0.074 A 
ATOM     38  C   UNL A   1      41.952  28.664  31.598  1.00  0.00     0.049 A 
ATOM     39  N   UNL A   1      39.702  30.660  31.537  1.00  0.00    -0.248 NA
ATOM     40  C   UNL A   1      39.186  29.939  29.377  1.00  0.00     0.031 C 
ATOM     41  C   UNL A   1      43.055  27.703  31.679  1.00  0.00     0.029 A 
ATOM     42  N   UNL A   1      41.944  29.269  32.828  1.00  0.00    -0.354 N 
ATOM     43  C   UNL A   1      38.609  31.377  31.064  1.00  0.00     0.074 A 
ATOM     44  C   UNL A   1      38.351  30.912  29.718  1.00  0.00     0.031 C 
ATOM     45  C   UNL A   1      43.604  27.771  32.902  1.00  0.00     0.029 A 
ATOM     46  C   UNL A   1      42.917  28.800  33.678  1.00  0.00     0.049 A 
ATOM     47  H   UNL A   1      41.303  29.972  33.080  1.00  0.00     0.167 HD
ATOM     48  C   UNL A   1      37.885  32.332  31.699  1.00  0.00     0.037 A 
ATOM     49  C   UNL A   1      43.227  29.165  34.937  1.00  0.00     0.037 A 
ATOM     50  C   UNL A   1      38.135  32.781  33.045  1.00  0.00     0.049 A 
ATOM     51  C   UNL A   1      42.417  30.235  35.612  1.00  0.00     0.074 A 
ATOM     52  C   UNL A   1      37.453  33.740  33.775  1.00  0.00     0.029 A 
ATOM     53  N   UNL A   1      39.145  32.301  33.865  1.00  0.00    -0.354 N 
ATOM     54  N   UNL A   1      41.392  30.910  35.146  1.00  0.00    -0.248 NA
ATOM     55  C   UNL A   1      42.804  30.593  36.982  1.00  0.00     0.031 C 
ATOM     56  C   UNL A   1      38.069  33.859  35.027  1.00  0.00     0.029 A 
ATOM     57  C   UNL A   1      39.113  32.950  35.090  1.00  0.00     0.049 A 
ATOM     58  H   UNL A   1      39.791  31.601  33.615  1.00  0.00     0.167 HD
ATOM     59  C   UNL A   1      41.007  31.767  36.170  1.00  0.00     0.074 A 
ATOM     60  C   UNL A   1      41.894  31.508  37.287  1.00  0.00     0.031 C 
ATOM     61  C   UNL A   1      40.012  32.689  36.185  1.00  0.00     0.037 A 
BRANCH  48  62
ATOM     62  C   UNL A   1      36.764  32.972  30.929  1.00  0.00     0.058 A 
ATOM     63  C   UNL A   1      35.422  32.634  31.160  1.00  0.00     0.135 A 
ATOM     64  C   UNL A   1      37.036  33.952  29.961  1.00  0.00     0.135 A 
ATOM     65  F   UNL A   1      35.108  31.691  32.062  1.00  0.00    -0.206 F 
ATOM     66  C   UNL A   1      34.389  33.227  30.440  1.00  0.00     0.059 A 
ATOM     67  C   UNL A   1      36.018  34.574  29.244  1.00  0.00     0.059 A 
ATOM     68  F   UNL A   1      38.303  34.310  29.700  1.00  0.00    -0.206 F 
ATOM     69  C   UNL A   1      34.698  34.193  29.481  1.00  0.00     0.060 A 
BRANCH  69  70
ATOM     70  S   UNL A   1      33.352  34.955  28.549  1.00  0.00     0.124 S 
ATOM     71  O   UNL A   1      32.527  35.501  29.624  1.00  0.00    -0.237 OA
ATOM     72  O   UNL A   1      34.051  35.937  27.726  1.00  0.00    -0.237 OA
ATOM     73  O   UNL A   1      32.767  33.835  27.819  1.00  0.00    -0.744 OA
ENDBRANCH  69  70
ENDBRANCH  48  62
BRANCH  49  74
ATOM     74  C   UNL A   1      44.361  28.509  35.637  1.00  0.00     0.058 A 
ATOM     75  C   UNL A   1      45.672  28.983  35.496  1.00  0.00     0.135 A 
ATOM     76  C   UNL A   1      44.151  27.400  36.474  1.00  0.00     0.135 A 
ATOM     77  F   UNL A   1      45.923  30.034  34.700  1.00  0.00    -0.206 F 
ATOM     78  C   UNL A   1      46.740  28.379  36.152  1.00  0.00     0.059 A 
ATOM     79  C   UNL A   1      45.197  26.793  37.158  1.00  0.00     0.059 A 
ATOM     80  F   UNL A   1      42.911  26.917  36.650  1.00  0.00    -0.206 F 
ATOM     81  C   UNL A   1      46.491  27.285  36.984  1.00  0.00     0.060 A 
BRANCH  81  82
ATOM     82  S   UNL A   1      47.870  26.540  37.881  1.00  0.00     0.124 S 
ATOM     83  O   UNL A   1      47.177  25.614  38.768  1.00  0.00    -0.237 OA
ATOM     84  O   UNL A   1      48.649  25.934  36.806  1.00  0.00    -0.237 OA
ATOM     85  O   UNL A   1      48.501  27.686  38.529  1.00  0.00    -0.744 OA
ENDBRANCH  81  82
ENDBRANCH  49  74
BRANCH  61  86
ATOM     86  C   UNL A   1      39.834  33.471  37.455  1.00  0.00     0.058 A 
ATOM     87  C   UNL A   1      38.907  33.078  38.434  1.00  0.00     0.135 A 
ATOM     88  C   UNL A   1      40.592  34.629  37.694  1.00  0.00     0.135 A 
ATOM     89  F   UNL A   1      38.154  31.982  38.250  1.00  0.00    -0.206 F 
ATOM     90  C   UNL A   1      38.708  33.829  39.589  1.00  0.00     0.059 A 
ATOM     91  C   UNL A   1      40.425  35.382  38.852  1.00  0.00     0.059 A 
ATOM     92  F   UNL A   1      41.499  35.040  36.794  1.00  0.00    -0.206 F 
ATOM     93  C   UNL A   1      39.465  34.985  39.783  1.00  0.00     0.060 A 
BRANCH  93  94
ATOM     94  S   UNL A   1      39.195  35.965  41.275  1.00  0.00     0.124 S 
ATOM     95  O   UNL A   1      40.526  35.963  41.872  1.00  0.00    -0.237 OA
ATOM     96  O   UNL A   1      38.743  37.246  40.739  1.00  0.00    -0.237 OA
ATOM     97  O   UNL A   1      38.179  35.204  41.997  1.00  0.00    -0.744 OA
ENDBRANCH  93  94
ENDBRANCH  61  86
ENDBRANCH  35  36
ENDBRANCH  28  30
ENDBRANCH  27  28
ENDBRANCH  26  27
ENDBRANCH   1  26
TORSDOF 20
ENDMDL
MODEL 3
REMARK VINA RESULT:     -10.7      3.303      9.239
REMARK SMILES CCOc1cc(OCC)cc(-c2ccc([C@@H](C)C(=O)OCCOC(=O)c3ccc(-c4c5nc(c(-c6c(F)cc(S(=O)(=O)[O-])cc6F)c6ccc([nH]6)c(-c6c(F)cc(S(=O)(=O)[O-])cc6F)c6nc(c(-c7c(F)cc(S(=O)(=O)[O-])cc7F)c7ccc4[nH]7)C=C6)C=C5)cc3)cc2F)c1
REMARK SMILES IDX 21 1 20 2 18 3 19 4 16 5 17 6 15 7 12 8 13 9 93 10 14 11
REMARK SMILES IDX 92 12 94 13 11 14 4 15 5 16 95 17 6 18 10 19 3 20 2 21 1 22
REMARK SMILES IDX 7 23 8 24 9 25 22 26 23 27 24 28 25 29 26 30 27 31 91 32
REMARK SMILES IDX 28 33 90 34 29 35 30 36 31 37 84 38 32 39 89 40 83 41 85 42
REMARK SMILES IDX 33 43 88 44 82 45 81 46 34 48 68 49 47 50 67 51 48 52 51 53
REMARK SMILES IDX 66 54 86 55 49 56 50 57 65 59 87 60 52 61 35 62 36 63 45 64
REMARK SMILES IDX 37 65 38 66 44 67 46 68 39 69 40 70 41 71 42 72 43 73 69 74
REMARK SMILES IDX 70 75 79 76 71 77 72 78 78 79 80 80 73 81 74 82 75 83 76 84
REMARK SMILES IDX 77 85 53 86 54 87 63 88 55 89 56 90 62 91 64 92 57 93 58 94
REMARK SMILES IDX 59 95 60 96 61 97
REMARK H PARENT 85 47 51 58
REMARK Flexibility Score: inf
ROOT
ATOM      1  C   UNL A   1      31.643  28.966  26.003  1.00  0.00     0.274 C 
ENDROOT
BRANCH   1   2
ATOM      2  O   UNL A   1      30.954  28.838  24.744  1.00  0.00    -0.462 OA
BRANCH   2   3
ATOM      3  C   UNL A   1      30.810  27.580  24.247  1.00  0.00     0.313 C 
ATOM      4  O   UNL A   1      29.953  26.786  24.619  1.00  0.00    -0.252 OA
BRANCH   3   5
ATOM      5  C   UNL A   1      31.867  27.208  23.210  1.00  0.00     0.126 C 
ATOM      6  C   UNL A   1      31.235  27.161  21.820  1.00  0.00     0.025 C 
BRANCH   5   7
ATOM      7  C   UNL A   1      32.680  25.957  23.511  1.00  0.00    -0.031 A 
ATOM      8  C   UNL A   1      34.170  23.594  24.040  1.00  0.00     0.018 A 
ATOM      9  C   UNL A   1      34.151  24.663  24.952  1.00  0.00     0.012 A 
ATOM     10  C   UNL A   1      33.445  23.742  22.855  1.00  0.00     0.131 A 
ATOM     11  C   UNL A   1      33.416  25.822  24.696  1.00  0.00     0.005 A 
ATOM     12  C   UNL A   1      32.701  24.893  22.597  1.00  0.00     0.044 A 
ATOM     13  F   UNL A   1      33.413  22.752  21.950  1.00  0.00    -0.206 F 
BRANCH   8  14
ATOM     14  C   UNL A   1      34.883  22.352  24.370  1.00  0.00    -0.008 A 
ATOM     15  C   UNL A   1      36.899  21.125  24.926  1.00  0.00     0.123 A 
ATOM     16  C   UNL A   1      36.167  19.939  25.016  1.00  0.00     0.092 A 
ATOM     17  C   UNL A   1      36.266  22.319  24.581  1.00  0.00     0.055 A 
ATOM     18  C   UNL A   1      34.794  19.943  24.776  1.00  0.00     0.123 A 
ATOM     19  C   UNL A   1      34.164  21.148  24.465  1.00  0.00     0.055 A 
BRANCH  15  20
ATOM     20  O   UNL A   1      38.256  21.047  25.066  1.00  0.00    -0.494 OA
BRANCH  20  21
ATOM     21  C   UNL A   1      38.797  21.997  25.993  1.00  0.00     0.226 C 
ATOM     22  C   UNL A   1      40.106  21.516  26.597  1.00  0.00     0.049 C 
ENDBRANCH  20  21
ENDBRANCH  15  20
BRANCH  18  23
ATOM     23  O   UNL A   1      34.159  18.735  24.895  1.00  0.00    -0.494 OA
BRANCH  23  24
ATOM     24  C   UNL A   1      34.791  17.600  24.296  1.00  0.00     0.226 C 
ATOM     25  C   UNL A   1      33.942  17.028  23.172  1.00  0.00     0.049 C 
ENDBRANCH  23  24
ENDBRANCH  18  23
ENDBRANCH   8  14
ENDBRANCH   5   7
ENDBRANCH   3   5
ENDBRANCH   2   3
ENDBRANCH   1   2
BRANCH   1  26
ATOM     26  C   UNL A   1      32.905  29.816  25.855  1.00  0.00     0.275 C 
BRANCH  26  27
ATOM     27  O   UNL A   1      33.899  29.434  26.823  1.00  0.00    -0.458 OA
BRANCH  27  28
ATOM     28  C   UNL A   1      34.424  30.454  27.540  1.00  0.00     0.338 C 
ATOM     29  O   UNL A   1      33.883  31.504  27.841  1.00  0.00    -0.246 OA
BRANCH  28  30
ATOM     30  C   UNL A   1      35.746  30.060  28.050  1.00  0.00     0.060 A 
ATOM     31  C   UNL A   1      35.817  29.590  29.360  1.00  0.00     0.016 A 
ATOM     32  C   UNL A   1      36.905  30.219  27.291  1.00  0.00     0.016 A 
ATOM     33  C   UNL A   1      37.048  29.301  29.937  1.00  0.00     0.010 A 
ATOM     34  C   UNL A   1      38.146  29.907  27.864  1.00  0.00     0.010 A 
ATOM     35  C   UNL A   1      38.226  29.461  29.196  1.00  0.00    -0.014 A 
BRANCH  35  36
ATOM     36  C   UNL A   1      39.526  29.171  29.846  1.00  0.00     0.031 A 
ATOM     37  C   UNL A   1      39.944  29.925  31.077  1.00  0.00     0.074 A 
ATOM     38  C   UNL A   1      40.302  28.182  29.362  1.00  0.00     0.049 A 
ATOM     39  N   UNL A   1      41.034  29.801  31.790  1.00  0.00    -0.248 NA
ATOM     40  C   UNL A   1      39.015  30.953  31.570  1.00  0.00     0.031 C 
ATOM     41  C   UNL A   1      39.988  27.363  28.190  1.00  0.00     0.029 A 
ATOM     42  N   UNL A   1      41.502  27.687  29.804  1.00  0.00    -0.354 N 
ATOM     43  C   UNL A   1      40.932  30.742  32.808  1.00  0.00     0.074 A 
ATOM     44  C   UNL A   1      39.681  31.443  32.608  1.00  0.00     0.031 C 
ATOM     45  C   UNL A   1      40.962  26.455  28.017  1.00  0.00     0.029 A 
ATOM     46  C   UNL A   1      41.983  26.649  29.043  1.00  0.00     0.049 A 
ATOM     47  H   UNL A   1      41.975  28.042  30.592  1.00  0.00     0.167 HD
ATOM     48  C   UNL A   1      41.800  30.993  33.818  1.00  0.00     0.037 A 
ATOM     49  C   UNL A   1      43.122  25.939  29.154  1.00  0.00     0.037 A 
ATOM     50  C   UNL A   1      43.037  30.283  34.023  1.00  0.00     0.049 A 
ATOM     51  C   UNL A   1      44.073  26.247  30.276  1.00  0.00     0.074 A 
ATOM     52  C   UNL A   1      43.980  30.463  35.021  1.00  0.00     0.029 A 
ATOM     53  N   UNL A   1      43.502  29.255  33.218  1.00  0.00    -0.354 N 
ATOM     54  N   UNL A   1      43.965  27.148  31.224  1.00  0.00    -0.248 NA
ATOM     55  C   UNL A   1      45.300  25.443  30.343  1.00  0.00     0.031 C 
ATOM     56  C   UNL A   1      45.029  29.562  34.801  1.00  0.00     0.029 A 
ATOM     57  C   UNL A   1      44.724  28.797  33.687  1.00  0.00     0.049 A 
ATOM     58  H   UNL A   1      43.033  28.901  32.426  1.00  0.00     0.167 HD
ATOM     59  C   UNL A   1      45.106  27.014  32.006  1.00  0.00     0.074 A 
ATOM     60  C   UNL A   1      45.879  25.929  31.433  1.00  0.00     0.031 C 
ATOM     61  C   UNL A   1      45.484  27.725  33.097  1.00  0.00     0.037 A 
BRANCH  48  62
ATOM     62  C   UNL A   1      41.449  32.104  34.769  1.00  0.00     0.058 A 
ATOM     63  C   UNL A   1      41.862  33.426  34.546  1.00  0.00     0.135 A 
ATOM     64  C   UNL A   1      40.670  31.843  35.908  1.00  0.00     0.135 A 
ATOM     65  F   UNL A   1      42.623  33.726  33.482  1.00  0.00    -0.206 F 
ATOM     66  C   UNL A   1      41.537  34.448  35.433  1.00  0.00     0.059 A 
ATOM     67  C   UNL A   1      40.315  32.854  36.797  1.00  0.00     0.059 A 
ATOM     68  F   UNL A   1      40.250  30.595  36.168  1.00  0.00    -0.206 F 
ATOM     69  C   UNL A   1      40.767  34.151  36.559  1.00  0.00     0.060 A 
BRANCH  69  70
ATOM     70  S   UNL A   1      40.353  35.483  37.705  1.00  0.00     0.124 S 
ATOM     71  O   UNL A   1      40.139  36.599  36.789  1.00  0.00    -0.237 OA
ATOM     72  O   UNL A   1      39.158  34.970  38.369  1.00  0.00    -0.237 OA
ATOM     73  O   UNL A   1      41.539  35.583  38.551  1.00  0.00    -0.744 OA
ENDBRANCH  69  70
ENDBRANCH  48  62
BRANCH  49  74
ATOM     74  C   UNL A   1      43.422  24.867  28.170  1.00  0.00     0.058 A 
ATOM     75  C   UNL A   1      44.059  25.156  26.956  1.00  0.00     0.135 A 
ATOM     76  C   UNL A   1      43.089  23.529  28.434  1.00  0.00     0.135 A 
ATOM     77  F   UNL A   1      44.389  26.422  26.656  1.00  0.00    -0.206 F 
ATOM     78  C   UNL A   1      44.349  24.159  26.031  1.00  0.00     0.059 A 
ATOM     79  C   UNL A   1      43.389  22.511  27.536  1.00  0.00     0.059 A 
ATOM     80  F   UNL A   1      42.488  23.201  29.589  1.00  0.00    -0.206 F 
ATOM     81  C   UNL A   1      44.012  22.837  26.332  1.00  0.00     0.060 A 
BRANCH  81  82
ATOM     82  S   UNL A   1      44.444  21.538  25.156  1.00  0.00     0.124 S 
ATOM     83  O   UNL A   1      44.254  22.218  23.882  1.00  0.00    -0.237 OA
ATOM     84  O   UNL A   1      45.826  21.236  25.519  1.00  0.00    -0.237 OA
ATOM     85  O   UNL A   1      43.484  20.481  25.460  1.00  0.00    -0.744 OA
ENDBRANCH  81  82
ENDBRANCH  49  74
BRANCH  61  86
ATOM     86  C   UNL A   1      46.786  27.338  33.739  1.00  0.00     0.058 A 
ATOM     87  C   UNL A   1      46.844  26.367  34.750  1.00  0.00     0.135 A 
ATOM     88  C   UNL A   1      47.987  27.949  33.343  1.00  0.00     0.135 A 
ATOM     89  F   UNL A   1      45.723  25.758  35.167  1.00  0.00    -0.206 F 
ATOM     90  C   UNL A   1      48.044  26.043  35.378  1.00  0.00     0.059 A 
ATOM     91  C   UNL A   1      49.200  27.624  33.942  1.00  0.00     0.059 A 
ATOM     92  F   UNL A   1      47.987  28.877  32.372  1.00  0.00    -0.206 F 
ATOM     93  C   UNL A   1      49.214  26.685  34.973  1.00  0.00     0.060 A 
BRANCH  93  94
ATOM     94  S   UNL A   1      50.766  26.272  35.799  1.00  0.00     0.124 S 
ATOM     95  O   UNL A   1      50.566  24.860  36.108  1.00  0.00    -0.237 OA
ATOM     96  O   UNL A   1      51.762  26.560  34.770  1.00  0.00    -0.237 OA
ATOM     97  O   UNL A   1      50.786  27.173  36.947  1.00  0.00    -0.744 OA
ENDBRANCH  93  94
ENDBRANCH  61  86
ENDBRANCH  35  36
ENDBRANCH  28  30
ENDBRANCH  27  28
ENDBRANCH  26  27
ENDBRANCH   1  26
TORSDOF 20
ENDMDL
