MODEL 1
REMARK VINA RESULT:     -10.8      0.000      0.000
REMARK SMILES CC(C)C[C@H](NC(=O)[C@H](Cc1ccccc1)NC(=O)CNC(=O)C[NH3+])C(=O)OCCOC(=O)c1ccc(-c2c3nc(c(-c4c(F)cc(S(=O)(=O)[O-])cc4F)c4ccc([nH]4)c(-c4c(F)cc(S(=O)(=O)[O-])cc4F)c4nc(c(-c5c(F)cc(S(=O)(=O)[O-])cc5F)c5ccc2[nH]5)C=C4)C=C3)cc1
REMARK SMILES IDX 26 1 27 2 5 3 4 4 2 5 1 6 3 7 6 8 7 9 8 11 9 12 17 13 18 14
REMARK SMILES IDX 19 16 20 17 21 18 22 19 23 21 24 22 25 23 10 27 11 28 12 29
REMARK SMILES IDX 16 30 13 31 15 32 14 33 28 34 29 35 30 36 31 37 32 38 33 39
REMARK SMILES IDX 34 40 35 41 99 42 36 43 98 44 37 45 38 46 39 47 92 48 40 49
REMARK SMILES IDX 97 50 91 51 93 52 41 53 96 54 90 55 89 56 42 58 76 59 55 60
REMARK SMILES IDX 75 61 56 62 59 63 74 64 94 65 57 66 58 67 73 69 95 70 60 71
REMARK SMILES IDX 43 72 44 73 53 74 45 75 46 76 52 77 54 78 47 79 48 80 49 81
REMARK SMILES IDX 50 82 51 83 77 84 78 85 87 86 79 87 80 88 86 89 88 90 81 91
REMARK SMILES IDX 82 92 83 93 84 94 85 95 61 96 62 97 71 98 63 99 64 100
REMARK SMILES IDX 70 101 72 102 65 103 66 104 67 105 68 106 69 107
REMARK H PARENT 6 10 17 15 21 20 25 24 25 25 25 26 93 57 59 68
REMARK Flexibility Score: inf
ROOT
ATOM      1  C   UNL A   1      31.427  27.302  26.343  1.00  0.00     0.328 C 
ATOM      2  O   UNL A   1      30.987  27.446  27.477  1.00  0.00    -0.250 OA
ENDROOT
BRANCH   1   3
ATOM      3  C   UNL A   1      31.043  26.123  25.444  1.00  0.00     0.192 C 
BRANCH   3   4
ATOM      4  C   UNL A   1      29.773  26.452  24.662  1.00  0.00     0.040 C 
BRANCH   4   5
ATOM      5  C   UNL A   1      29.742  27.069  23.248  1.00  0.00    -0.015 C 
ATOM      6  C   UNL A   1      29.388  28.551  23.178  1.00  0.00     0.007 C 
ATOM      7  C   UNL A   1      31.144  26.882  22.637  1.00  0.00     0.007 C 
ENDBRANCH   4   5
ENDBRANCH   3   4
BRANCH   3   8
ATOM      8  N   UNL A   1      30.978  24.865  26.247  1.00  0.00    -0.341 N 
ATOM      9  C   UNL A   1      31.886  23.889  26.563  1.00  0.00     0.243 C 
ATOM     10  H   UNL A   1      30.088  24.702  26.636  1.00  0.00     0.164 HD
ATOM     11  O   UNL A   1      31.771  23.420  27.704  1.00  0.00    -0.273 OA
BRANCH   9  12
ATOM     12  C   UNL A   1      32.777  23.136  25.529  1.00  0.00     0.175 C 
BRANCH  12  13
ATOM     13  N   UNL A   1      32.161  22.163  24.637  1.00  0.00    -0.342 N 
ATOM     14  C   UNL A   1      32.513  20.851  24.458  1.00  0.00     0.240 C 
ATOM     15  H   UNL A   1      31.404  22.486  24.098  1.00  0.00     0.164 HD
ATOM     16  O   UNL A   1      32.165  20.267  23.431  1.00  0.00    -0.273 OA
BRANCH  14  17
ATOM     17  C   UNL A   1      33.350  20.147  25.524  1.00  0.00     0.216 C 
BRANCH  17  18
ATOM     18  N   UNL A   1      32.750  18.886  25.910  1.00  0.00    -0.342 N 
ATOM     19  C   UNL A   1      33.054  17.646  25.426  1.00  0.00     0.275 C 
ATOM     20  H   UNL A   1      32.044  18.929  26.596  1.00  0.00     0.164 HD
ATOM     21  O   UNL A   1      32.400  16.677  25.813  1.00  0.00    -0.268 OA
BRANCH  19  22
ATOM     22  C   UNL A   1      34.203  17.490  24.423  1.00  0.00     0.360 C 
BRANCH  22  23
ATOM     23  N   UNL A   1      35.477  17.252  25.113  1.00  0.00    -0.350 N 
ATOM     24  H   UNL A   1      35.766  16.285  24.968  1.00  0.00     0.344 HD
ATOM     25  H   UNL A   1      35.359  17.427  26.112  1.00  0.00     0.344 HD
ATOM     26  H   UNL A   1      36.188  17.880  24.740  1.00  0.00     0.344 HD
ENDBRANCH  22  23
ENDBRANCH  19  22
ENDBRANCH  17  18
ENDBRANCH  14  17
ENDBRANCH  12  13
BRANCH  12  27
ATOM     27  C   UNL A   1      33.792  24.073  24.774  1.00  0.00     0.070 C 
BRANCH  27  28
ATOM     28  C   UNL A   1      35.243  23.621  24.799  1.00  0.00    -0.045 A 
ATOM     29  C   UNL A   1      35.690  22.588  23.971  1.00  0.00     0.004 A 
ATOM     30  C   UNL A   1      36.139  24.167  25.735  1.00  0.00     0.004 A 
ATOM     31  C   UNL A   1      36.958  22.034  24.163  1.00  0.00     0.000 A 
ATOM     32  C   UNL A   1      37.377  23.572  25.969  1.00  0.00     0.000 A 
ATOM     33  C   UNL A   1      37.781  22.493  25.190  1.00  0.00     0.000 A 
ENDBRANCH  27  28
ENDBRANCH  12  27
ENDBRANCH   9  12
ENDBRANCH   3   8
ENDBRANCH   1   3
BRANCH   1  34
ATOM     34  O   UNL A   1      32.385  28.100  25.789  1.00  0.00    -0.461 OA
BRANCH  34  35
ATOM     35  C   UNL A   1      32.009  29.483  25.638  1.00  0.00     0.274 C 
BRANCH  35  36
ATOM     36  C   UNL A   1      32.545  30.391  26.753  1.00  0.00     0.275 C 
BRANCH  36  37
ATOM     37  O   UNL A   1      33.639  29.807  27.485  1.00  0.00    -0.458 OA
BRANCH  37  38
ATOM     38  C   UNL A   1      34.473  30.709  28.063  1.00  0.00     0.338 C 
ATOM     39  O   UNL A   1      34.141  31.762  28.585  1.00  0.00    -0.246 OA
BRANCH  38  40
ATOM     40  C   UNL A   1      35.840  30.161  28.180  1.00  0.00     0.060 A 
ATOM     41  C   UNL A   1      36.234  29.707  29.446  1.00  0.00     0.016 A 
ATOM     42  C   UNL A   1      36.738  30.122  27.110  1.00  0.00     0.016 A 
ATOM     43  C   UNL A   1      37.522  29.225  29.652  1.00  0.00     0.010 A 
ATOM     44  C   UNL A   1      38.041  29.652  27.322  1.00  0.00     0.010 A 
ATOM     45  C   UNL A   1      38.444  29.218  28.599  1.00  0.00    -0.014 A 
BRANCH  45  46
ATOM     46  C   UNL A   1      39.856  28.866  28.889  1.00  0.00     0.031 A 
ATOM     47  C   UNL A   1      40.738  29.877  29.569  1.00  0.00     0.074 A 
ATOM     48  C   UNL A   1      40.318  27.630  28.624  1.00  0.00     0.049 A 
ATOM     49  N   UNL A   1      42.000  29.786  29.898  1.00  0.00    -0.248 NA
ATOM     50  C   UNL A   1      40.111  31.158  29.930  1.00  0.00     0.031 C 
ATOM     51  C   UNL A   1      39.540  26.548  28.019  1.00  0.00     0.029 A 
ATOM     52  N   UNL A   1      41.554  27.073  28.838  1.00  0.00    -0.354 N 
ATOM     53  C   UNL A   1      42.321  30.997  30.503  1.00  0.00     0.074 A 
ATOM     54  C   UNL A   1      41.130  31.817  30.465  1.00  0.00     0.031 C 
ATOM     55  C   UNL A   1      40.319  25.459  27.906  1.00  0.00     0.029 A 
ATOM     56  C   UNL A   1      41.658  25.775  28.397  1.00  0.00     0.049 A 
ATOM     57  H   UNL A   1      42.297  27.557  29.267  1.00  0.00     0.167 HD
ATOM     58  C   UNL A   1      43.500  31.383  31.048  1.00  0.00     0.037 A 
ATOM     59  C   UNL A   1      42.720  24.946  28.370  1.00  0.00     0.037 A 
ATOM     60  C   UNL A   1      44.681  30.561  31.082  1.00  0.00     0.049 A 
ATOM     61  C   UNL A   1      44.038  25.423  28.925  1.00  0.00     0.074 A 
ATOM     62  C   UNL A   1      45.932  30.872  31.586  1.00  0.00     0.029 A 
ATOM     63  N   UNL A   1      44.757  29.263  30.599  1.00  0.00    -0.354 N 
ATOM     64  N   UNL A   1      44.334  26.580  29.471  1.00  0.00    -0.248 NA
ATOM     65  C   UNL A   1      45.164  24.482  28.866  1.00  0.00     0.031 C 
ATOM     66  C   UNL A   1      46.774  29.773  31.377  1.00  0.00     0.029 A 
ATOM     67  C   UNL A   1      46.034  28.761  30.785  1.00  0.00     0.049 A 
ATOM     68  H   UNL A   1      44.012  28.771  30.184  1.00  0.00     0.167 HD
ATOM     69  C   UNL A   1      45.674  26.496  29.835  1.00  0.00     0.074 A 
ATOM     70  C   UNL A   1      46.125  25.170  29.468  1.00  0.00     0.031 C 
ATOM     71  C   UNL A   1      46.462  27.434  30.418  1.00  0.00     0.037 A 
BRANCH  58  72
ATOM     72  C   UNL A   1      43.570  32.767  31.634  1.00  0.00     0.058 A 
ATOM     73  C   UNL A   1      43.245  33.016  32.977  1.00  0.00     0.135 A 
ATOM     74  C   UNL A   1      43.993  33.852  30.849  1.00  0.00     0.135 A 
ATOM     75  F   UNL A   1      42.816  32.018  33.765  1.00  0.00    -0.206 F 
ATOM     76  C   UNL A   1      43.315  34.298  33.515  1.00  0.00     0.059 A 
ATOM     77  C   UNL A   1      44.094  35.137  31.374  1.00  0.00     0.059 A 
ATOM     78  F   UNL A   1      44.312  33.670  29.558  1.00  0.00    -0.206 F 
ATOM     79  C   UNL A   1      43.739  35.352  32.705  1.00  0.00     0.060 A 
BRANCH  79  80
ATOM     80  S   UNL A   1      43.827  37.007  33.419  1.00  0.00     0.124 S 
ATOM     81  O   UNL A   1      42.627  37.032  34.248  1.00  0.00    -0.237 OA
ATOM     82  O   UNL A   1      45.095  36.970  34.141  1.00  0.00    -0.237 OA
ATOM     83  O   UNL A   1      43.800  37.884  32.252  1.00  0.00    -0.744 OA
ENDBRANCH  79  80
ENDBRANCH  58  72
BRANCH  59  84
ATOM     84  C   UNL A   1      42.596  23.592  27.766  1.00  0.00     0.058 A 
ATOM     85  C   UNL A   1      42.327  22.461  28.550  1.00  0.00     0.135 A 
ATOM     86  C   UNL A   1      42.768  23.401  26.384  1.00  0.00     0.135 A 
ATOM     87  F   UNL A   1      42.165  22.587  29.876  1.00  0.00    -0.206 F 
ATOM     88  C   UNL A   1      42.254  21.187  27.993  1.00  0.00     0.059 A 
ATOM     89  C   UNL A   1      42.672  22.143  25.800  1.00  0.00     0.059 A 
ATOM     90  F   UNL A   1      43.017  24.451  25.587  1.00  0.00    -0.206 F 
ATOM     91  C   UNL A   1      42.430  21.039  26.616  1.00  0.00     0.060 A 
BRANCH  91  92
ATOM     92  S   UNL A   1      42.306  19.388  25.894  1.00  0.00     0.124 S 
ATOM     93  O   UNL A   1      40.866  19.251  25.718  1.00  0.00    -0.237 OA
ATOM     94  O   UNL A   1      43.089  19.528  24.669  1.00  0.00    -0.237 OA
ATOM     95  O   UNL A   1      42.904  18.532  26.914  1.00  0.00    -0.744 OA
ENDBRANCH  91  92
ENDBRANCH  59  84
BRANCH  71  96
ATOM     96  C   UNL A   1      47.883  27.044  30.725  1.00  0.00     0.058 A 
ATOM     97  C   UNL A   1      48.252  26.524  31.975  1.00  0.00     0.135 A 
ATOM     98  C   UNL A   1      48.881  27.168  29.745  1.00  0.00     0.135 A 
ATOM     99  F   UNL A   1      47.337  26.389  32.947  1.00  0.00    -0.206 F 
ATOM    100  C   UNL A   1      49.569  26.170  32.254  1.00  0.00     0.059 A 
ATOM    101  C   UNL A   1      50.198  26.794  29.994  1.00  0.00     0.059 A 
ATOM    102  F   UNL A   1      48.579  27.647  28.528  1.00  0.00    -0.206 F 
ATOM    103  C   UNL A   1      50.536  26.312  31.257  1.00  0.00     0.060 A 
BRANCH 103 104
ATOM    104  S   UNL A   1      52.238  25.840  31.626  1.00  0.00     0.124 S 
ATOM    105  O   UNL A   1      52.079  24.443  32.013  1.00  0.00    -0.237 OA
ATOM    106  O   UNL A   1      52.912  26.073  30.353  1.00  0.00    -0.237 OA
ATOM    107  O   UNL A   1      52.616  26.751  32.703  1.00  0.00    -0.744 OA
ENDBRANCH 103 104
ENDBRANCH  71  96
ENDBRANCH  45  46
ENDBRANCH  38  40
ENDBRANCH  37  38
ENDBRANCH  36  37
ENDBRANCH  35  36
ENDBRANCH  34  35
ENDBRANCH   1  34
TORSDOF 25
ENDMDL
MODEL 2
REMARK VINA RESULT:     -10.4      2.367      3.132
REMARK SMILES CC(C)C[C@H](NC(=O)[C@H](Cc1ccccc1)NC(=O)CNC(=O)C[NH3+])C(=O)OCCOC(=O)c1ccc(-c2c3nc(c(-c4c(F)cc(S(=O)(=O)[O-])cc4F)c4ccc([nH]4)c(-c4c(F)cc(S(=O)(=O)[O-])cc4F)c4nc(c(-c5c(F)cc(S(=O)(=O)[O-])cc5F)c5ccc2[nH]5)C=C4)C=C3)cc1
REMARK SMILES IDX 26 1 27 2 5 3 4 4 2 5 1 6 3 7 6 8 7 9 8 11 9 12 17 13 18 14
REMARK SMILES IDX 19 16 20 17 21 18 22 19 23 21 24 22 25 23 10 27 11 28 12 29
REMARK SMILES IDX 16 30 13 31 15 32 14 33 28 34 29 35 30 36 31 37 32 38 33 39
REMARK SMILES IDX 34 40 35 41 99 42 36 43 98 44 37 45 38 46 39 47 92 48 40 49
REMARK SMILES IDX 97 50 91 51 93 52 41 53 96 54 90 55 89 56 42 58 76 59 55 60
REMARK SMILES IDX 75 61 56 62 59 63 74 64 94 65 57 66 58 67 73 69 95 70 60 71
REMARK SMILES IDX 43 72 44 73 53 74 45 75 46 76 52 77 54 78 47 79 48 80 49 81
REMARK SMILES IDX 50 82 51 83 77 84 78 85 87 86 79 87 80 88 86 89 88 90 81 91
REMARK SMILES IDX 82 92 83 93 84 94 85 95 61 96 62 97 71 98 63 99 64 100
REMARK SMILES IDX 70 101 72 102 65 103 66 104 67 105 68 106 69 107
REMARK H PARENT 6 10 17 15 21 20 25 24 25 25 25 26 93 57 59 68
REMARK Flexibility Score: inf
ROOT
ATOM      1  C   UNL A   1      31.297  26.165  25.685  1.00  0.00     0.328 C 
ATOM      2  O   UNL A   1      30.252  26.548  25.173  1.00  0.00    -0.250 OA
ENDROOT
BRANCH   1   3
ATOM      3  C   UNL A   1      32.156  25.047  25.087  1.00  0.00     0.192 C 
BRANCH   3   4
ATOM      4  C   UNL A   1      31.719  24.758  23.653  1.00  0.00     0.040 C 
BRANCH   4   5
ATOM      5  C   UNL A   1      32.512  25.159  22.391  1.00  0.00    -0.015 C 
ATOM      6  C   UNL A   1      31.780  26.068  21.408  1.00  0.00     0.007 C 
ATOM      7  C   UNL A   1      33.784  25.888  22.863  1.00  0.00     0.007 C 
ENDBRANCH   4   5
ENDBRANCH   3   4
BRANCH   3   8
ATOM      8  N   UNL A   1      32.157  23.859  25.995  1.00  0.00    -0.341 N 
ATOM      9  C   UNL A   1      33.053  22.855  26.247  1.00  0.00     0.243 C 
ATOM     10  H   UNL A   1      31.333  23.783  26.529  1.00  0.00     0.164 HD
ATOM     11  O   UNL A   1      33.098  22.481  27.428  1.00  0.00    -0.273 OA
BRANCH   9  12
ATOM     12  C   UNL A   1      33.728  21.970  25.155  1.00  0.00     0.175 C 
BRANCH  12  13
ATOM     13  N   UNL A   1      32.889  21.224  24.227  1.00  0.00    -0.342 N 
ATOM     14  C   UNL A   1      32.732  19.866  24.148  1.00  0.00     0.240 C 
ATOM     15  H   UNL A   1      32.376  21.759  23.580  1.00  0.00     0.164 HD
ATOM     16  O   UNL A   1      32.302  19.368  23.107  1.00  0.00    -0.273 OA
BRANCH  14  17
ATOM     17  C   UNL A   1      33.116  18.995  25.343  1.00  0.00     0.216 C 
BRANCH  17  18
ATOM     18  N   UNL A   1      34.001  17.921  24.942  1.00  0.00    -0.342 N 
ATOM     19  C   UNL A   1      33.801  16.581  25.110  1.00  0.00     0.275 C 
ATOM     20  H   UNL A   1      34.840  18.187  24.499  1.00  0.00     0.164 HD
ATOM     21  O   UNL A   1      34.687  15.796  24.770  1.00  0.00    -0.268 OA
BRANCH  19  22
ATOM     22  C   UNL A   1      32.479  16.086  25.710  1.00  0.00     0.360 C 
BRANCH  22  23
ATOM     23  N   UNL A   1      32.217  14.693  25.331  1.00  0.00    -0.350 N 
ATOM     24  H   UNL A   1      32.596  14.516  24.401  1.00  0.00     0.344 HD
ATOM     25  H   UNL A   1      31.210  14.526  25.326  1.00  0.00     0.344 HD
ATOM     26  H   UNL A   1      32.662  14.068  26.004  1.00  0.00     0.344 HD
ENDBRANCH  22  23
ENDBRANCH  19  22
ENDBRANCH  17  18
ENDBRANCH  14  17
ENDBRANCH  12  13
BRANCH  12  27
ATOM     27  C   UNL A   1      34.931  22.679  24.428  1.00  0.00     0.070 C 
BRANCH  27  28
ATOM     28  C   UNL A   1      36.245  22.688  25.193  1.00  0.00    -0.045 A 
ATOM     29  C   UNL A   1      36.773  23.878  25.702  1.00  0.00     0.004 A 
ATOM     30  C   UNL A   1      37.005  21.512  25.309  1.00  0.00     0.004 A 
ATOM     31  C   UNL A   1      38.077  23.910  26.201  1.00  0.00     0.000 A 
ATOM     32  C   UNL A   1      38.328  21.557  25.746  1.00  0.00     0.000 A 
ATOM     33  C   UNL A   1      38.869  22.762  26.179  1.00  0.00     0.000 A 
ENDBRANCH  27  28
ENDBRANCH  12  27
ENDBRANCH   9  12
ENDBRANCH   3   8
ENDBRANCH   1   3
BRANCH   1  34
ATOM     34  O   UNL A   1      31.762  26.603  26.890  1.00  0.00    -0.461 OA
BRANCH  34  35
ATOM     35  C   UNL A   1      32.950  27.415  26.824  1.00  0.00     0.274 C 
BRANCH  35  36
ATOM     36  C   UNL A   1      32.693  28.904  27.095  1.00  0.00     0.275 C 
BRANCH  36  37
ATOM     37  O   UNL A   1      33.725  29.762  26.575  1.00  0.00    -0.458 OA
BRANCH  37  38
ATOM     38  C   UNL A   1      34.261  30.613  27.486  1.00  0.00     0.338 C 
ATOM     39  O   UNL A   1      33.693  31.563  28.003  1.00  0.00    -0.246 OA
BRANCH  38  40
ATOM     40  C   UNL A   1      35.576  30.124  27.953  1.00  0.00     0.060 A 
ATOM     41  C   UNL A   1      35.651  29.682  29.280  1.00  0.00     0.016 A 
ATOM     42  C   UNL A   1      36.717  30.129  27.148  1.00  0.00     0.016 A 
ATOM     43  C   UNL A   1      36.863  29.254  29.812  1.00  0.00     0.010 A 
ATOM     44  C   UNL A   1      37.942  29.714  27.690  1.00  0.00     0.010 A 
ATOM     45  C   UNL A   1      38.023  29.292  29.030  1.00  0.00    -0.014 A 
BRANCH  45  46
ATOM     46  C   UNL A   1      39.327  28.999  29.674  1.00  0.00     0.031 A 
ATOM     47  C   UNL A   1      39.744  29.796  30.880  1.00  0.00     0.074 A 
ATOM     48  C   UNL A   1      40.090  27.980  29.237  1.00  0.00     0.049 A 
ATOM     49  N   UNL A   1      40.843  29.720  31.584  1.00  0.00    -0.248 NA
ATOM     50  C   UNL A   1      38.790  30.810  31.359  1.00  0.00     0.031 C 
ATOM     51  C   UNL A   1      39.763  27.102  28.113  1.00  0.00     0.029 A 
ATOM     52  N   UNL A   1      41.295  27.506  29.693  1.00  0.00    -0.354 N 
ATOM     53  C   UNL A   1      40.717  30.676  32.586  1.00  0.00     0.074 A 
ATOM     54  C   UNL A   1      39.448  31.340  32.381  1.00  0.00     0.031 C 
ATOM     55  C   UNL A   1      40.746  26.198  27.964  1.00  0.00     0.029 A 
ATOM     56  C   UNL A   1      41.787  26.454  28.957  1.00  0.00     0.049 A 
ATOM     57  H   UNL A   1      41.762  27.883  30.474  1.00  0.00     0.167 HD
ATOM     58  C   UNL A   1      41.577  30.964  33.593  1.00  0.00     0.037 A 
ATOM     59  C   UNL A   1      42.956  25.792  29.058  1.00  0.00     0.037 A 
ATOM     60  C   UNL A   1      42.838  30.298  33.792  1.00  0.00     0.049 A 
ATOM     61  C   UNL A   1      43.925  26.174  30.148  1.00  0.00     0.074 A 
ATOM     62  C   UNL A   1      43.794  30.536  34.765  1.00  0.00     0.029 A 
ATOM     63  N   UNL A   1      43.316  29.257  33.009  1.00  0.00    -0.354 N 
ATOM     64  N   UNL A   1      43.804  27.097  31.074  1.00  0.00    -0.248 NA
ATOM     65  C   UNL A   1      45.186  25.423  30.210  1.00  0.00     0.031 C 
ATOM     66  C   UNL A   1      44.866  29.662  34.548  1.00  0.00     0.029 A 
ATOM     67  C   UNL A   1      44.557  28.849  33.470  1.00  0.00     0.049 A 
ATOM     68  H   UNL A   1      42.844  28.868  32.238  1.00  0.00     0.167 HD
ATOM     69  C   UNL A   1      44.964  27.023  31.838  1.00  0.00     0.074 A 
ATOM     70  C   UNL A   1      45.764  25.953  31.280  1.00  0.00     0.031 C 
ATOM     71  C   UNL A   1      45.336  27.776  32.904  1.00  0.00     0.037 A 
BRANCH  58  72
ATOM     72  C   UNL A   1      41.187  32.062  34.543  1.00  0.00     0.058 A 
ATOM     73  C   UNL A   1      40.498  31.795  35.737  1.00  0.00     0.135 A 
ATOM     74  C   UNL A   1      41.529  33.397  34.268  1.00  0.00     0.135 A 
ATOM     75  F   UNL A   1      40.129  30.539  36.037  1.00  0.00    -0.206 F 
ATOM     76  C   UNL A   1      40.142  32.815  36.615  1.00  0.00     0.059 A 
ATOM     77  C   UNL A   1      41.205  34.429  35.145  1.00  0.00     0.059 A 
ATOM     78  F   UNL A   1      42.184  33.708  33.140  1.00  0.00    -0.206 F 
ATOM     79  C   UNL A   1      40.499  34.129  36.309  1.00  0.00     0.060 A 
BRANCH  79  80
ATOM     80  S   UNL A   1      40.033  35.440  37.459  1.00  0.00     0.124 S 
ATOM     81  O   UNL A   1      41.215  35.514  38.311  1.00  0.00    -0.237 OA
ATOM     82  O   UNL A   1      39.821  36.576  36.568  1.00  0.00    -0.237 OA
ATOM     83  O   UNL A   1      38.830  34.918  38.101  1.00  0.00    -0.744 OA
ENDBRANCH  79  80
ENDBRANCH  58  72
BRANCH  59  84
ATOM     84  C   UNL A   1      43.296  24.721  28.082  1.00  0.00     0.058 A 
ATOM     85  C   UNL A   1      43.945  25.009  26.874  1.00  0.00     0.135 A 
ATOM     86  C   UNL A   1      42.954  23.381  28.335  1.00  0.00     0.135 A 
ATOM     87  F   UNL A   1      44.283  26.273  26.579  1.00  0.00    -0.206 F 
ATOM     88  C   UNL A   1      44.225  24.015  25.940  1.00  0.00     0.059 A 
ATOM     89  C   UNL A   1      43.247  22.367  27.431  1.00  0.00     0.059 A 
ATOM     90  F   UNL A   1      42.340  23.049  29.482  1.00  0.00    -0.206 F 
ATOM     91  C   UNL A   1      43.870  22.696  26.228  1.00  0.00     0.060 A 
BRANCH  91  92
ATOM     92  S   UNL A   1      44.260  21.405  25.027  1.00  0.00     0.124 S 
ATOM     93  O   UNL A   1      45.598  21.008  25.446  1.00  0.00    -0.237 OA
ATOM     94  O   UNL A   1      43.199  20.430  25.267  1.00  0.00    -0.237 OA
ATOM     95  O   UNL A   1      44.178  22.104  23.748  1.00  0.00    -0.744 OA
ENDBRANCH  91  92
ENDBRANCH  59  84
BRANCH  71  96
ATOM     96  C   UNL A   1      46.651  27.443  33.555  1.00  0.00     0.058 A 
ATOM     97  C   UNL A   1      47.861  27.985  33.095  1.00  0.00     0.135 A 
ATOM     98  C   UNL A   1      46.696  26.592  34.672  1.00  0.00     0.135 A 
ATOM     99  F   UNL A   1      47.874  28.800  32.030  1.00  0.00    -0.206 F 
ATOM    100  C   UNL A   1      49.074  27.669  33.698  1.00  0.00     0.059 A 
ATOM    101  C   UNL A   1      47.895  26.284  35.307  1.00  0.00     0.059 A 
ATOM    102  F   UNL A   1      45.566  26.057  35.160  1.00  0.00    -0.206 F 
ATOM    103  C   UNL A   1      49.081  26.814  34.803  1.00  0.00     0.060 A 
BRANCH 103 104
ATOM    104  S   UNL A   1      50.660  26.420  35.584  1.00  0.00     0.124 S 
ATOM    105  O   UNL A   1      50.956  25.114  35.006  1.00  0.00    -0.237 OA
ATOM    106  O   UNL A   1      51.513  27.518  35.141  1.00  0.00    -0.237 OA
ATOM    107  O   UNL A   1      50.341  26.418  37.009  1.00  0.00    -0.744 OA
ENDBRANCH 103 104
ENDBRANCH  71  96
ENDBRANCH  45  46
ENDBRANCH  38  40
ENDBRANCH  37  38
ENDBRANCH  36  37
ENDBRANCH  35  36
ENDBRANCH  34  35
ENDBRANCH   1  34
TORSDOF 25
ENDMDL
MODEL 3
REMARK VINA RESULT:     -10.2      1.113      7.967
REMARK SMILES CC(C)C[C@H](NC(=O)[C@H](Cc1ccccc1)NC(=O)CNC(=O)C[NH3+])C(=O)OCCOC(=O)c1ccc(-c2c3nc(c(-c4c(F)cc(S(=O)(=O)[O-])cc4F)c4ccc([nH]4)c(-c4c(F)cc(S(=O)(=O)[O-])cc4F)c4nc(c(-c5c(F)cc(S(=O)(=O)[O-])cc5F)c5ccc2[nH]5)C=C4)C=C3)cc1
REMARK SMILES IDX 26 1 27 2 5 3 4 4 2 5 1 6 3 7 6 8 7 9 8 11 9 12 17 13 18 14
REMARK SMILES IDX 19 16 20 17 21 18 22 19 23 21 24 22 25 23 10 27 11 28 12 29
REMARK SMILES IDX 16 30 13 31 15 32 14 33 28 34 29 35 30 36 31 37 32 38 33 39
REMARK SMILES IDX 34 40 35 41 99 42 36 43 98 44 37 45 38 46 39 47 92 48 40 49
REMARK SMILES IDX 97 50 91 51 93 52 41 53 96 54 90 55 89 56 42 58 76 59 55 60
REMARK SMILES IDX 75 61 56 62 59 63 74 64 94 65 57 66 58 67 73 69 95 70 60 71
REMARK SMILES IDX 43 72 44 73 53 74 45 75 46 76 52 77 54 78 47 79 48 80 49 81
REMARK SMILES IDX 50 82 51 83 77 84 78 85 87 86 79 87 80 88 86 89 88 90 81 91
REMARK SMILES IDX 82 92 83 93 84 94 85 95 61 96 62 97 71 98 63 99 64 100
REMARK SMILES IDX 70 101 72 102 65 103 66 104 67 105 68 106 69 107
REMARK H PARENT 6 10 17 15 21 20 25 24 25 25 25 26 93 57 59 68
REMARK Flexibility Score: inf
ROOT
ATOM      1  C   UNL A   1      31.858  26.350  26.366  1.00  0.00     0.328 C 
ATOM      2  O   UNL A   1      31.213  27.001  27.179  1.00  0.00    -0.250 OA
ENDROOT
BRANCH   1   3
ATOM      3  C   UNL A   1      31.240  25.238  25.511  1.00  0.00     0.192 C 
BRANCH   3   4
ATOM      4  C   UNL A   1      29.896  25.694  24.948  1.00  0.00     0.040 C 
BRANCH   4   5
ATOM      5  C   UNL A   1      29.687  26.300  23.544  1.00  0.00    -0.015 C 
ATOM      6  C   UNL A   1      29.435  27.804  23.502  1.00  0.00     0.007 C 
ATOM      7  C   UNL A   1      30.958  26.003  22.725  1.00  0.00     0.007 C 
ENDBRANCH   4   5
ENDBRANCH   3   4
BRANCH   3   8
ATOM      8  N   UNL A   1      31.197  23.961  26.286  1.00  0.00    -0.341 N 
ATOM      9  C   UNL A   1      32.109  22.972  26.543  1.00  0.00     0.243 C 
ATOM     10  H   UNL A   1      30.321  23.793  26.702  1.00  0.00     0.164 HD
ATOM     11  O   UNL A   1      32.034  22.475  27.676  1.00  0.00    -0.273 OA
BRANCH   9  12
ATOM     12  C   UNL A   1      32.957  22.240  25.459  1.00  0.00     0.175 C 
BRANCH  12  13
ATOM     13  N   UNL A   1      32.281  21.415  24.467  1.00  0.00    -0.342 N 
ATOM     14  C   UNL A   1      32.532  20.106  24.154  1.00  0.00     0.240 C 
ATOM     15  H   UNL A   1      31.558  21.851  23.960  1.00  0.00     0.164 HD
ATOM     16  O   UNL A   1      32.155  19.660  23.070  1.00  0.00    -0.273 OA
BRANCH  14  17
ATOM     17  C   UNL A   1      33.298  19.232  25.146  1.00  0.00     0.216 C 
BRANCH  17  18
ATOM     18  N   UNL A   1      33.932  18.115  24.475  1.00  0.00    -0.342 N 
ATOM     19  C   UNL A   1      33.682  16.787  24.668  1.00  0.00     0.275 C 
ATOM     20  H   UNL A   1      34.620  18.339  23.806  1.00  0.00     0.164 HD
ATOM     21  O   UNL A   1      34.359  15.956  24.061  1.00  0.00    -0.268 OA
BRANCH  19  22
ATOM     22  C   UNL A   1      32.562  16.364  25.627  1.00  0.00     0.360 C 
BRANCH  22  23
ATOM     23  N   UNL A   1      32.154  14.976  25.380  1.00  0.00    -0.350 N 
ATOM     24  H   UNL A   1      31.557  14.656  26.143  1.00  0.00     0.344 HD
ATOM     25  H   UNL A   1      32.982  14.383  25.324  1.00  0.00     0.344 HD
ATOM     26  H   UNL A   1      31.639  14.924  24.501  1.00  0.00     0.344 HD
ENDBRANCH  22  23
ENDBRANCH  19  22
ENDBRANCH  17  18
ENDBRANCH  14  17
ENDBRANCH  12  13
BRANCH  12  27
ATOM     27  C   UNL A   1      34.072  23.145  24.816  1.00  0.00     0.070 C 
BRANCH  27  28
ATOM     28  C   UNL A   1      35.489  22.884  25.302  1.00  0.00    -0.045 A 
ATOM     29  C   UNL A   1      36.277  23.920  25.812  1.00  0.00     0.004 A 
ATOM     30  C   UNL A   1      36.067  21.612  25.149  1.00  0.00     0.004 A 
ATOM     31  C   UNL A   1      37.640  23.715  26.043  1.00  0.00     0.000 A 
ATOM     32  C   UNL A   1      37.438  21.427  25.317  1.00  0.00     0.000 A 
ATOM     33  C   UNL A   1      38.228  22.486  25.751  1.00  0.00     0.000 A 
ENDBRANCH  27  28
ENDBRANCH  12  27
ENDBRANCH   9  12
ENDBRANCH   3   8
ENDBRANCH   1   3
BRANCH   1  34
ATOM     34  O   UNL A   1      33.207  26.457  26.200  1.00  0.00    -0.461 OA
BRANCH  34  35
ATOM     35  C   UNL A   1      33.626  27.470  25.266  1.00  0.00     0.274 C 
BRANCH  35  36
ATOM     36  C   UNL A   1      34.042  28.788  25.933  1.00  0.00     0.275 C 
BRANCH  36  37
ATOM     37  O   UNL A   1      34.485  28.621  27.293  1.00  0.00    -0.458 OA
BRANCH  37  38
ATOM     38  C   UNL A   1      34.885  29.768  27.899  1.00  0.00     0.338 C 
ATOM     39  O   UNL A   1      34.161  30.692  28.236  1.00  0.00    -0.246 OA
BRANCH  38  40
ATOM     40  C   UNL A   1      36.303  29.681  28.305  1.00  0.00     0.060 A 
ATOM     41  C   UNL A   1      37.262  29.925  27.313  1.00  0.00     0.016 A 
ATOM     42  C   UNL A   1      36.703  29.332  29.597  1.00  0.00     0.016 A 
ATOM     43  C   UNL A   1      38.618  29.813  27.600  1.00  0.00     0.010 A 
ATOM     44  C   UNL A   1      38.070  29.201  29.882  1.00  0.00     0.010 A 
ATOM     45  C   UNL A   1      39.032  29.424  28.880  1.00  0.00    -0.014 A 
BRANCH  45  46
ATOM     46  C   UNL A   1      40.471  29.142  29.108  1.00  0.00     0.031 A 
ATOM     47  C   UNL A   1      41.012  27.779  28.771  1.00  0.00     0.074 A 
ATOM     48  C   UNL A   1      41.298  30.115  29.532  1.00  0.00     0.049 A 
ATOM     49  N   UNL A   1      42.226  27.314  28.907  1.00  0.00    -0.248 NA
ATOM     50  C   UNL A   1      40.058  26.816  28.199  1.00  0.00     0.031 C 
ATOM     51  C   UNL A   1      40.898  31.490  29.837  1.00  0.00     0.029 A 
ATOM     52  N   UNL A   1      42.649  30.098  29.772  1.00  0.00    -0.354 N 
ATOM     53  C   UNL A   1      42.183  26.004  28.441  1.00  0.00     0.074 A 
ATOM     54  C   UNL A   1      40.816  25.739  28.049  1.00  0.00     0.031 C 
ATOM     55  C   UNL A   1      41.981  32.183  30.228  1.00  0.00     0.029 A 
ATOM     56  C   UNL A   1      43.141  31.295  30.236  1.00  0.00     0.049 A 
ATOM     57  H   UNL A   1      43.213  29.304  29.627  1.00  0.00     0.167 HD
ATOM     58  C   UNL A   1      43.195  25.108  28.341  1.00  0.00     0.037 A 
ATOM     59  C   UNL A   1      44.382  31.628  30.644  1.00  0.00     0.037 A 
ATOM     60  C   UNL A   1      44.554  25.379  28.733  1.00  0.00     0.049 A 
ATOM     61  C   UNL A   1      45.477  30.595  30.582  1.00  0.00     0.074 A 
ATOM     62  C   UNL A   1      45.646  24.530  28.698  1.00  0.00     0.029 A 
ATOM     63  N   UNL A   1      45.009  26.594  29.226  1.00  0.00    -0.354 N 
ATOM     64  N   UNL A   1      45.417  29.351  30.163  1.00  0.00    -0.248 NA
ATOM     65  C   UNL A   1      46.809  31.008  31.044  1.00  0.00     0.031 C 
ATOM     66  C   UNL A   1      46.754  25.220  29.202  1.00  0.00     0.029 A 
ATOM     67  C   UNL A   1      46.363  26.514  29.507  1.00  0.00     0.049 A 
ATOM     68  H   UNL A   1      44.451  27.394  29.358  1.00  0.00     0.167 HD
ATOM     69  C   UNL A   1      46.705  28.843  30.294  1.00  0.00     0.074 A 
ATOM     70  C   UNL A   1      47.527  29.917  30.810  1.00  0.00     0.031 C 
ATOM     71  C   UNL A   1      47.166  27.598  30.015  1.00  0.00     0.037 A 
BRANCH  58  72
ATOM     72  C   UNL A   1      42.861  23.745  27.803  1.00  0.00     0.058 A 
ATOM     73  C   UNL A   1      42.585  22.663  28.655  1.00  0.00     0.135 A 
ATOM     74  C   UNL A   1      42.793  23.523  26.418  1.00  0.00     0.135 A 
ATOM     75  F   UNL A   1      42.657  22.816  29.986  1.00  0.00    -0.206 F 
ATOM     76  C   UNL A   1      42.273  21.403  28.151  1.00  0.00     0.059 A 
ATOM     77  C   UNL A   1      42.459  22.277  25.893  1.00  0.00     0.059 A 
ATOM     78  F   UNL A   1      43.052  24.520  25.559  1.00  0.00    -0.206 F 
ATOM     79  C   UNL A   1      42.214  21.220  26.769  1.00  0.00     0.060 A 
BRANCH  79  80
ATOM     80  S   UNL A   1      41.806  19.581  26.132  1.00  0.00     0.124 S 
ATOM     81  O   UNL A   1      42.170  18.731  27.261  1.00  0.00    -0.237 OA
ATOM     82  O   UNL A   1      40.377  19.697  25.862  1.00  0.00    -0.237 OA
ATOM     83  O   UNL A   1      42.655  19.452  24.952  1.00  0.00    -0.744 OA
ENDBRANCH  79  80
ENDBRANCH  58  72
BRANCH  59  84
ATOM     84  C   UNL A   1      44.653  32.989  31.180  1.00  0.00     0.058 A 
ATOM     85  C   UNL A   1      44.487  33.289  32.539  1.00  0.00     0.135 A 
ATOM     86  C   UNL A   1      45.065  34.029  30.329  1.00  0.00     0.135 A 
ATOM     87  F   UNL A   1      44.084  32.335  33.392  1.00  0.00    -0.206 F 
ATOM     88  C   UNL A   1      44.698  34.573  33.036  1.00  0.00     0.059 A 
ATOM     89  C   UNL A   1      45.310  35.313  30.806  1.00  0.00     0.059 A 
ATOM     90  F   UNL A   1      45.250  33.794  29.021  1.00  0.00    -0.206 F 
ATOM     91  C   UNL A   1      45.108  35.579  32.159  1.00  0.00     0.060 A 
BRANCH  91  92
ATOM     92  S   UNL A   1      45.408  37.236  32.811  1.00  0.00     0.124 S 
ATOM     93  O   UNL A   1      45.305  38.049  31.606  1.00  0.00    -0.237 OA
ATOM     94  O   UNL A   1      44.324  37.387  33.778  1.00  0.00    -0.237 OA
ATOM     95  O   UNL A   1      46.743  37.130  33.392  1.00  0.00    -0.744 OA
ENDBRANCH  91  92
ENDBRANCH  59  84
BRANCH  71  96
ATOM     96  C   UNL A   1      48.633  27.344  30.231  1.00  0.00     0.058 A 
ATOM     97  C   UNL A   1      49.139  26.958  31.481  1.00  0.00     0.135 A 
ATOM     98  C   UNL A   1      49.540  27.462  29.165  1.00  0.00     0.135 A 
ATOM     99  F   UNL A   1      48.317  26.835  32.534  1.00  0.00    -0.206 F 
ATOM    100  C   UNL A   1      50.499  26.730  31.676  1.00  0.00     0.059 A 
ATOM    101  C   UNL A   1      50.898  27.212  29.330  1.00  0.00     0.059 A 
ATOM    102  F   UNL A   1      49.106  27.815  27.944  1.00  0.00    -0.206 F 
ATOM    103  C   UNL A   1      51.371  26.862  30.594  1.00  0.00     0.060 A 
BRANCH 103 104
ATOM    104  S   UNL A   1      53.130  26.553  30.855  1.00  0.00     0.124 S 
ATOM    105  O   UNL A   1      53.105  25.252  31.514  1.00  0.00    -0.237 OA
ATOM    106  O   UNL A   1      53.657  26.566  29.494  1.00  0.00    -0.237 OA
ATOM    107  O   UNL A   1      53.550  27.674  31.692  1.00  0.00    -0.744 OA
ENDBRANCH 103 104
ENDBRANCH  71  96
ENDBRANCH  45  46
ENDBRANCH  38  40
ENDBRANCH  37  38
ENDBRANCH  36  37
ENDBRANCH  35  36
ENDBRANCH  34  35
ENDBRANCH   1  34
TORSDOF 25
ENDMDL
