MODEL 1
REMARK VINA RESULT:     -10.2      0.000      0.000
REMARK SMILES COc1ccc(/C=N/NC(=O)c2cc(C)nn2C)c(C(=O)OCCOC(=O)c2ccc(-c3c4nc(c(-c5c(F)cc(S(=O)(=O)[O-])cc5F)c5ccc([nH]5)c(-c5c(F)cc(S(=O)(=O)[O-])cc5F)c5nc(c(-c6c(F)cc(S(=O)(=O)[O-])cc6F)c6ccc3[nH]6)C=C5)C=C4)cc2)c1OC
REMARK SMILES IDX 23 1 22 2 20 3 21 4 19 5 3 6 4 7 94 8 5 9 6 10 2 11 1 12
REMARK SMILES IDX 95 13 96 14 7 15 8 16 9 17 10 18 11 20 12 21 13 22 17 23
REMARK SMILES IDX 14 24 16 25 18 26 15 27 24 28 25 29 26 30 27 31 28 32 29 33
REMARK SMILES IDX 93 34 30 35 92 36 31 37 32 38 33 39 86 40 34 41 91 42 85 43
REMARK SMILES IDX 87 44 35 45 90 46 84 47 83 48 36 50 70 51 49 52 69 53 50 54
REMARK SMILES IDX 53 55 68 56 88 57 51 58 52 59 67 61 89 62 54 63 37 64 38 65
REMARK SMILES IDX 47 66 39 67 40 68 46 69 48 70 41 71 42 72 43 73 44 74 45 75
REMARK SMILES IDX 71 76 72 77 81 78 73 79 74 80 80 81 82 82 75 83 76 84 77 85
REMARK SMILES IDX 78 86 79 87 55 88 56 89 65 90 57 91 58 92 64 93 66 94 59 95
REMARK SMILES IDX 60 96 61 97 62 98 63 99
REMARK H PARENT 9 19 87 49 53 60
REMARK Flexibility Score: inf
ROOT
ATOM      1  C   UNL A   1      36.195  32.181  33.415  1.00  0.00     0.275 C 
ENDROOT
BRANCH   1   2
ATOM      2  O   UNL A   1      37.493  32.730  33.174  1.00  0.00    -0.458 OA
BRANCH   2   3
ATOM      3  C   UNL A   1      37.536  34.025  32.789  1.00  0.00     0.342 C 
ATOM      4  O   UNL A   1      37.012  34.985  33.304  1.00  0.00    -0.246 OA
BRANCH   3   5
ATOM      5  C   UNL A   1      38.397  34.100  31.608  1.00  0.00     0.114 A 
ATOM      6  C   UNL A   1      40.579  34.426  30.635  1.00  0.00     0.161 A 
ATOM      7  C   UNL A   1      40.022  34.467  29.358  1.00  0.00     0.051 A 
ATOM      8  C   UNL A   1      39.771  34.296  31.768  1.00  0.00     0.175 A 
ATOM      9  C   UNL A   1      38.652  34.275  29.204  1.00  0.00     0.015 A 
ATOM     10  C   UNL A   1      37.842  34.040  30.329  1.00  0.00     0.013 A 
BRANCH   6  11
ATOM     11  O   UNL A   1      41.940  34.505  30.750  1.00  0.00    -0.493 OA
ATOM     12  C   UNL A   1      42.471  35.218  29.629  1.00  0.00     0.278 C 
ENDBRANCH   6  11
BRANCH   8  13
ATOM     13  O   UNL A   1      40.325  34.477  33.006  1.00  0.00    -0.492 OA
ATOM     14  C   UNL A   1      40.902  33.284  33.523  1.00  0.00     0.278 C 
ENDBRANCH   8  13
BRANCH  10  15
ATOM     15  C   UNL A   1      36.390  33.847  30.137  1.00  0.00     0.142 C 
ATOM     16  N   UNL A   1      35.960  33.905  28.934  1.00  0.00    -0.180 NA
BRANCH  16  17
ATOM     17  N   UNL A   1      34.665  33.852  28.590  1.00  0.00    -0.242 N 
ATOM     18  C   UNL A   1      33.487  34.487  28.924  1.00  0.00     0.289 C 
ATOM     19  H   UNL A   1      34.512  33.164  27.902  1.00  0.00     0.194 HD
ATOM     20  O   UNL A   1      32.515  34.245  28.211  1.00  0.00    -0.266 OA
BRANCH  18  21
ATOM     21  C   UNL A   1      33.299  35.409  29.995  1.00  0.00     0.127 A 
ATOM     22  C   UNL A   1      33.316  35.249  31.362  1.00  0.00     0.059 A 
ATOM     23  N   UNL A   1      33.322  36.773  29.795  1.00  0.00    -0.263 N 
ATOM     24  C   UNL A   1      33.378  36.550  31.896  1.00  0.00     0.060 A 
ATOM     25  N   UNL A   1      33.306  37.479  30.943  1.00  0.00    -0.178 NA
ATOM     26  C   UNL A   1      33.415  37.512  28.553  1.00  0.00     0.174 C 
ATOM     27  C   UNL A   1      33.561  36.964  33.301  1.00  0.00     0.069 C 
ENDBRANCH  18  21
ENDBRANCH  16  17
ENDBRANCH  10  15
ENDBRANCH   3   5
ENDBRANCH   2   3
ENDBRANCH   1   2
BRANCH   1  28
ATOM     28  C   UNL A   1      35.773  31.299  32.236  1.00  0.00     0.275 C 
BRANCH  28  29
ATOM     29  O   UNL A   1      36.868  30.496  31.737  1.00  0.00    -0.458 OA
BRANCH  29  30
ATOM     30  C   UNL A   1      36.948  30.395  30.381  1.00  0.00     0.338 C 
ATOM     31  O   UNL A   1      36.002  30.439  29.610  1.00  0.00    -0.246 OA
BRANCH  30  32
ATOM     32  C   UNL A   1      38.362  30.317  29.910  1.00  0.00     0.060 A 
ATOM     33  C   UNL A   1      38.590  29.939  28.579  1.00  0.00     0.016 A 
ATOM     34  C   UNL A   1      39.460  30.555  30.740  1.00  0.00     0.016 A 
ATOM     35  C   UNL A   1      39.896  29.801  28.075  1.00  0.00     0.010 A 
ATOM     36  C   UNL A   1      40.770  30.402  30.238  1.00  0.00     0.010 A 
ATOM     37  C   UNL A   1      41.006  30.015  28.902  1.00  0.00    -0.014 A 
BRANCH  37  38
ATOM     38  C   UNL A   1      42.378  29.577  28.484  1.00  0.00     0.031 A 
ATOM     39  C   UNL A   1      42.599  28.106  28.295  1.00  0.00     0.074 A 
ATOM     40  C   UNL A   1      43.432  30.396  28.277  1.00  0.00     0.049 A 
ATOM     41  N   UNL A   1      43.691  27.488  27.932  1.00  0.00    -0.248 NA
ATOM     42  C   UNL A   1      41.431  27.229  28.467  1.00  0.00     0.031 C 
ATOM     43  C   UNL A   1      43.376  31.835  28.178  1.00  0.00     0.029 A 
ATOM     44  N   UNL A   1      44.780  30.147  28.145  1.00  0.00    -0.354 N 
ATOM     45  C   UNL A   1      43.322  26.167  27.746  1.00  0.00     0.074 A 
ATOM     46  C   UNL A   1      41.926  26.055  28.108  1.00  0.00     0.031 C 
ATOM     47  C   UNL A   1      44.598  32.372  28.232  1.00  0.00     0.029 A 
ATOM     48  C   UNL A   1      45.557  31.286  28.248  1.00  0.00     0.049 A 
ATOM     49  H   UNL A   1      45.153  29.248  27.993  1.00  0.00     0.167 HD
ATOM     50  C   UNL A   1      44.080  25.150  27.282  1.00  0.00     0.037 A 
ATOM     51  C   UNL A   1      46.888  31.469  28.319  1.00  0.00     0.037 A 
ATOM     52  C   UNL A   1      45.490  25.253  27.020  1.00  0.00     0.049 A 
ATOM     53  C   UNL A   1      47.756  30.293  28.024  1.00  0.00     0.074 A 
ATOM     54  C   UNL A   1      46.359  24.264  26.599  1.00  0.00     0.029 A 
ATOM     55  N   UNL A   1      46.249  26.403  27.201  1.00  0.00    -0.354 N 
ATOM     56  N   UNL A   1      47.385  29.058  27.790  1.00  0.00    -0.248 NA
ATOM     57  C   UNL A   1      49.198  30.530  27.911  1.00  0.00     0.031 C 
ATOM     58  C   UNL A   1      47.653  24.798  26.591  1.00  0.00     0.029 A 
ATOM     59  C   UNL A   1      47.584  26.136  26.948  1.00  0.00     0.049 A 
ATOM     60  H   UNL A   1      45.891  27.280  27.471  1.00  0.00     0.167 HD
ATOM     61  C   UNL A   1      48.536  28.380  27.434  1.00  0.00     0.074 A 
ATOM     62  C   UNL A   1      49.624  29.338  27.512  1.00  0.00     0.031 C 
ATOM     63  C   UNL A   1      48.663  27.090  27.045  1.00  0.00     0.037 A 
BRANCH  50  64
ATOM     64  C   UNL A   1      43.380  23.840  27.085  1.00  0.00     0.058 A 
ATOM     65  C   UNL A   1      42.832  23.484  25.841  1.00  0.00     0.135 A 
ATOM     66  C   UNL A   1      43.205  22.959  28.161  1.00  0.00     0.135 A 
ATOM     67  F   UNL A   1      42.949  24.307  24.787  1.00  0.00    -0.206 F 
ATOM     68  C   UNL A   1      42.100  22.313  25.682  1.00  0.00     0.059 A 
ATOM     69  C   UNL A   1      42.496  21.772  28.017  1.00  0.00     0.059 A 
ATOM     70  F   UNL A   1      43.698  23.263  29.371  1.00  0.00    -0.206 F 
ATOM     71  C   UNL A   1      41.930  21.468  26.780  1.00  0.00     0.060 A 
BRANCH  71  72
ATOM     72  S   UNL A   1      40.937  19.976  26.575  1.00  0.00     0.124 S 
ATOM     73  O   UNL A   1      39.699  20.524  26.027  1.00  0.00    -0.237 OA
ATOM     74  O   UNL A   1      41.744  19.187  25.649  1.00  0.00    -0.237 OA
ATOM     75  O   UNL A   1      40.841  19.443  27.929  1.00  0.00    -0.744 OA
ENDBRANCH  71  72
ENDBRANCH  50  64
BRANCH  51  76
ATOM     76  C   UNL A   1      47.436  32.826  28.596  1.00  0.00     0.058 A 
ATOM     77  C   UNL A   1      47.795  33.232  29.888  1.00  0.00     0.135 A 
ATOM     78  C   UNL A   1      47.687  33.721  27.541  1.00  0.00     0.135 A 
ATOM     79  F   UNL A   1      47.583  32.412  30.930  1.00  0.00    -0.206 F 
ATOM     80  C   UNL A   1      48.380  34.472  30.129  1.00  0.00     0.059 A 
ATOM     81  C   UNL A   1      48.284  34.962  27.754  1.00  0.00     0.059 A 
ATOM     82  F   UNL A   1      47.376  33.379  26.281  1.00  0.00    -0.206 F 
ATOM     83  C   UNL A   1      48.627  35.330  29.053  1.00  0.00     0.060 A 
BRANCH  83  84
ATOM     84  S   UNL A   1      49.452  36.906  29.374  1.00  0.00     0.124 S 
ATOM     85  O   UNL A   1      48.329  37.760  29.741  1.00  0.00    -0.237 OA
ATOM     86  O   UNL A   1      50.369  36.556  30.454  1.00  0.00    -0.237 OA
ATOM     87  O   UNL A   1      50.091  37.220  28.098  1.00  0.00    -0.744 OA
ENDBRANCH  83  84
ENDBRANCH  51  76
BRANCH  63  88
ATOM     88  C   UNL A   1      50.035  26.625  26.663  1.00  0.00     0.058 A 
ATOM     89  C   UNL A   1      50.863  25.959  27.577  1.00  0.00     0.135 A 
ATOM     90  C   UNL A   1      50.490  26.780  25.344  1.00  0.00     0.135 A 
ATOM     91  F   UNL A   1      50.476  25.804  28.853  1.00  0.00    -0.206 F 
ATOM     92  C   UNL A   1      52.100  25.457  27.195  1.00  0.00     0.059 A 
ATOM     93  C   UNL A   1      51.712  26.263  24.934  1.00  0.00     0.059 A 
ATOM     94  F   UNL A   1      49.732  27.414  24.436  1.00  0.00    -0.206 F 
ATOM     95  C   UNL A   1      52.510  25.603  25.867  1.00  0.00     0.060 A 
BRANCH  95  96
ATOM     96  S   UNL A   1      54.080  24.869  25.367  1.00  0.00     0.124 S 
ATOM     97  O   UNL A   1      54.912  25.131  26.536  1.00  0.00    -0.237 OA
ATOM     98  O   UNL A   1      53.714  23.473  25.148  1.00  0.00    -0.237 OA
ATOM     99  O   UNL A   1      54.434  25.614  24.163  1.00  0.00    -0.744 OA
ENDBRANCH  95  96
ENDBRANCH  63  88
ENDBRANCH  37  38
ENDBRANCH  30  32
ENDBRANCH  29  30
ENDBRANCH  28  29
ENDBRANCH   1  28
TORSDOF 19
ENDMDL
MODEL 2
REMARK VINA RESULT:      -9.8      5.515     11.176
REMARK SMILES COc1ccc(/C=N/NC(=O)c2cc(C)nn2C)c(C(=O)OCCOC(=O)c2ccc(-c3c4nc(c(-c5c(F)cc(S(=O)(=O)[O-])cc5F)c5ccc([nH]5)c(-c5c(F)cc(S(=O)(=O)[O-])cc5F)c5nc(c(-c6c(F)cc(S(=O)(=O)[O-])cc6F)c6ccc3[nH]6)C=C5)C=C4)cc2)c1OC
REMARK SMILES IDX 23 1 22 2 20 3 21 4 19 5 3 6 4 7 94 8 5 9 6 10 2 11 1 12
REMARK SMILES IDX 95 13 96 14 7 15 8 16 9 17 10 18 11 20 12 21 13 22 17 23
REMARK SMILES IDX 14 24 16 25 18 26 15 27 24 28 25 29 26 30 27 31 28 32 29 33
REMARK SMILES IDX 93 34 30 35 92 36 31 37 32 38 33 39 86 40 34 41 91 42 85 43
REMARK SMILES IDX 87 44 35 45 90 46 84 47 83 48 36 50 70 51 49 52 69 53 50 54
REMARK SMILES IDX 53 55 68 56 88 57 51 58 52 59 67 61 89 62 54 63 37 64 38 65
REMARK SMILES IDX 47 66 39 67 40 68 46 69 48 70 41 71 42 72 43 73 44 74 45 75
REMARK SMILES IDX 71 76 72 77 81 78 73 79 74 80 80 81 82 82 75 83 76 84 77 85
REMARK SMILES IDX 78 86 79 87 55 88 56 89 65 90 57 91 58 92 64 93 66 94 59 95
REMARK SMILES IDX 60 96 61 97 62 98 63 99
REMARK H PARENT 9 19 87 49 53 60
REMARK Flexibility Score: inf
ROOT
ATOM      1  C   UNL A   1      36.385  23.967  25.259  1.00  0.00     0.275 C 
ENDROOT
BRANCH   1   2
ATOM      2  O   UNL A   1      35.310  23.649  24.372  1.00  0.00    -0.458 OA
BRANCH   2   3
ATOM      3  C   UNL A   1      34.073  23.620  24.914  1.00  0.00     0.342 C 
ATOM      4  O   UNL A   1      33.572  24.391  25.700  1.00  0.00    -0.246 OA
BRANCH   3   5
ATOM      5  C   UNL A   1      33.372  22.470  24.341  1.00  0.00     0.114 A 
ATOM      6  C   UNL A   1      32.913  20.102  24.330  1.00  0.00     0.161 A 
ATOM      7  C   UNL A   1      32.220  20.226  23.127  1.00  0.00     0.051 A 
ATOM      8  C   UNL A   1      33.536  21.207  24.918  1.00  0.00     0.175 A 
ATOM      9  C   UNL A   1      32.064  21.485  22.555  1.00  0.00     0.015 A 
ATOM     10  C   UNL A   1      32.599  22.620  23.190  1.00  0.00     0.013 A 
BRANCH   6  11
ATOM     11  O   UNL A   1      32.955  18.873  24.929  1.00  0.00    -0.493 OA
ATOM     12  C   UNL A   1      33.752  17.987  24.137  1.00  0.00     0.278 C 
ENDBRANCH   6  11
BRANCH   8  13
ATOM     13  O   UNL A   1      34.382  21.011  25.975  1.00  0.00    -0.492 OA
ATOM     14  C   UNL A   1      33.761  21.280  27.226  1.00  0.00     0.278 C 
ENDBRANCH   8  13
BRANCH  10  15
ATOM     15  C   UNL A   1      32.425  23.943  22.557  1.00  0.00     0.142 C 
ATOM     16  N   UNL A   1      31.395  24.614  22.909  1.00  0.00    -0.180 NA
BRANCH  16  17
ATOM     17  N   UNL A   1      31.030  25.784  22.363  1.00  0.00    -0.242 N 
ATOM     18  C   UNL A   1      31.063  27.123  22.689  1.00  0.00     0.289 C 
ATOM     19  H   UNL A   1      30.624  25.646  21.477  1.00  0.00     0.194 HD
ATOM     20  O   UNL A   1      30.775  27.911  21.789  1.00  0.00    -0.266 OA
BRANCH  18  21
ATOM     21  C   UNL A   1      31.420  27.677  23.953  1.00  0.00     0.127 A 
ATOM     22  C   UNL A   1      30.846  27.572  25.200  1.00  0.00     0.059 A 
ATOM     23  N   UNL A   1      32.654  28.250  24.175  1.00  0.00    -0.263 N 
ATOM     24  C   UNL A   1      31.804  28.073  26.102  1.00  0.00     0.060 A 
ATOM     25  N   UNL A   1      32.875  28.554  25.470  1.00  0.00    -0.178 NA
ATOM     26  C   UNL A   1      33.725  28.504  23.234  1.00  0.00     0.174 C 
ATOM     27  C   UNL A   1      31.773  28.067  27.578  1.00  0.00     0.069 C 
ENDBRANCH  18  21
ENDBRANCH  16  17
ENDBRANCH  10  15
ENDBRANCH   3   5
ENDBRANCH   2   3
ENDBRANCH   1   2
BRANCH   1  28
ATOM     28  C   UNL A   1      37.004  22.679  25.813  1.00  0.00     0.275 C 
BRANCH  28  29
ATOM     29  O   UNL A   1      38.400  22.549  25.459  1.00  0.00    -0.458 OA
BRANCH  29  30
ATOM     30  C   UNL A   1      39.272  22.555  26.505  1.00  0.00     0.338 C 
ATOM     31  O   UNL A   1      39.834  21.573  26.964  1.00  0.00    -0.246 OA
BRANCH  30  32
ATOM     32  C   UNL A   1      39.553  23.937  26.990  1.00  0.00     0.060 A 
ATOM     33  C   UNL A   1      40.150  24.838  26.096  1.00  0.00     0.016 A 
ATOM     34  C   UNL A   1      39.295  24.357  28.298  1.00  0.00     0.016 A 
ATOM     35  C   UNL A   1      40.487  26.144  26.495  1.00  0.00     0.010 A 
ATOM     36  C   UNL A   1      39.645  25.664  28.701  1.00  0.00     0.010 A 
ATOM     37  C   UNL A   1      40.253  26.572  27.808  1.00  0.00    -0.014 A 
BRANCH  37  38
ATOM     38  C   UNL A   1      40.877  27.831  28.334  1.00  0.00     0.031 A 
ATOM     39  C   UNL A   1      42.358  27.815  28.567  1.00  0.00     0.074 A 
ATOM     40  C   UNL A   1      40.214  28.969  28.627  1.00  0.00     0.049 A 
ATOM     41  N   UNL A   1      43.122  28.778  29.008  1.00  0.00    -0.248 NA
ATOM     42  C   UNL A   1      43.079  26.589  28.190  1.00  0.00     0.031 C 
ATOM     43  C   UNL A   1      38.849  29.268  28.265  1.00  0.00     0.029 A 
ATOM     44  N   UNL A   1      40.579  30.092  29.337  1.00  0.00    -0.354 N 
ATOM     45  C   UNL A   1      44.418  28.309  28.880  1.00  0.00     0.074 A 
ATOM     46  C   UNL A   1      44.336  26.949  28.391  1.00  0.00     0.031 C 
ATOM     47  C   UNL A   1      38.401  30.348  28.913  1.00  0.00     0.029 A 
ATOM     48  C   UNL A   1      39.508  30.903  29.664  1.00  0.00     0.049 A 
ATOM     49  H   UNL A   1      41.510  30.297  29.586  1.00  0.00     0.167 HD
ATOM     50  C   UNL A   1      45.570  28.972  29.119  1.00  0.00     0.037 A 
ATOM     51  C   UNL A   1      39.404  31.990  30.450  1.00  0.00     0.037 A 
ATOM     52  C   UNL A   1      45.635  30.287  29.698  1.00  0.00     0.049 A 
ATOM     53  C   UNL A   1      40.673  32.619  30.916  1.00  0.00     0.074 A 
ATOM     54  C   UNL A   1      46.755  31.024  30.030  1.00  0.00     0.029 A 
ATOM     55  N   UNL A   1      44.531  31.043  30.075  1.00  0.00    -0.354 N 
ATOM     56  N   UNL A   1      41.898  32.192  30.732  1.00  0.00    -0.248 NA
ATOM     57  C   UNL A   1      40.572  33.908  31.608  1.00  0.00     0.031 C 
ATOM     58  C   UNL A   1      46.332  32.194  30.670  1.00  0.00     0.029 A 
ATOM     59  C   UNL A   1      44.945  32.217  30.683  1.00  0.00     0.049 A 
ATOM     60  H   UNL A   1      43.592  30.782  29.933  1.00  0.00     0.167 HD
ATOM     61  C   UNL A   1      42.721  33.188  31.224  1.00  0.00     0.074 A 
ATOM     62  C   UNL A   1      41.853  34.229  31.741  1.00  0.00     0.031 C 
ATOM     63  C   UNL A   1      44.074  33.240  31.211  1.00  0.00     0.037 A 
BRANCH  50  64
ATOM     64  C   UNL A   1      46.835  28.241  28.790  1.00  0.00     0.058 A 
ATOM     65  C   UNL A   1      47.339  28.204  27.479  1.00  0.00     0.135 A 
ATOM     66  C   UNL A   1      47.519  27.522  29.780  1.00  0.00     0.135 A 
ATOM     67  F   UNL A   1      46.704  28.853  26.489  1.00  0.00    -0.206 F 
ATOM     68  C   UNL A   1      48.459  27.448  27.155  1.00  0.00     0.059 A 
ATOM     69  C   UNL A   1      48.654  26.778  29.483  1.00  0.00     0.059 A 
ATOM     70  F   UNL A   1      47.067  27.516  31.044  1.00  0.00    -0.206 F 
ATOM     71  C   UNL A   1      49.103  26.730  28.163  1.00  0.00     0.060 A 
BRANCH  71  72
ATOM     72  S   UNL A   1      50.527  25.712  27.723  1.00  0.00     0.124 S 
ATOM     73  O   UNL A   1      51.433  25.984  28.835  1.00  0.00    -0.237 OA
ATOM     74  O   UNL A   1      49.953  24.370  27.687  1.00  0.00    -0.237 OA
ATOM     75  O   UNL A   1      50.941  26.248  26.431  1.00  0.00    -0.744 OA
ENDBRANCH  71  72
ENDBRANCH  50  64
BRANCH  51  76
ATOM     76  C   UNL A   1      38.063  32.563  30.748  1.00  0.00     0.058 A 
ATOM     77  C   UNL A   1      37.364  32.246  31.920  1.00  0.00     0.135 A 
ATOM     78  C   UNL A   1      37.488  33.515  29.887  1.00  0.00     0.135 A 
ATOM     79  F   UNL A   1      37.871  31.349  32.780  1.00  0.00    -0.206 F 
ATOM     80  C   UNL A   1      36.146  32.847  32.230  1.00  0.00     0.059 A 
ATOM     81  C   UNL A   1      36.278  34.140  30.181  1.00  0.00     0.059 A 
ATOM     82  F   UNL A   1      38.121  33.867  28.757  1.00  0.00    -0.206 F 
ATOM     83  C   UNL A   1      35.613  33.799  31.357  1.00  0.00     0.060 A 
BRANCH  83  84
ATOM     84  S   UNL A   1      34.068  34.620  31.809  1.00  0.00     0.124 S 
ATOM     85  O   UNL A   1      34.548  35.902  32.312  1.00  0.00    -0.237 OA
ATOM     86  O   UNL A   1      33.358  34.660  30.534  1.00  0.00    -0.237 OA
ATOM     87  O   UNL A   1      33.489  33.728  32.810  1.00  0.00    -0.744 OA
ENDBRANCH  83  84
ENDBRANCH  51  76
BRANCH  63  88
ATOM     88  C   UNL A   1      44.714  34.473  31.770  1.00  0.00     0.058 A 
ATOM     89  C   UNL A   1      44.861  35.635  31.000  1.00  0.00     0.135 A 
ATOM     90  C   UNL A   1      45.111  34.513  33.116  1.00  0.00     0.135 A 
ATOM     91  F   UNL A   1      44.513  35.636  29.704  1.00  0.00    -0.206 F 
ATOM     92  C   UNL A   1      45.379  36.801  31.548  1.00  0.00     0.059 A 
ATOM     93  C   UNL A   1      45.606  35.676  33.692  1.00  0.00     0.059 A 
ATOM     94  F   UNL A   1      44.990  33.423  33.891  1.00  0.00    -0.206 F 
ATOM     95  C   UNL A   1      45.737  36.815  32.898  1.00  0.00     0.060 A 
BRANCH  95  96
ATOM     96  S   UNL A   1      46.325  38.362  33.616  1.00  0.00     0.124 S 
ATOM     97  O   UNL A   1      46.172  39.283  32.494  1.00  0.00    -0.237 OA
ATOM     98  O   UNL A   1      45.403  38.559  34.730  1.00  0.00    -0.237 OA
ATOM     99  O   UNL A   1      47.701  38.058  33.996  1.00  0.00    -0.744 OA
ENDBRANCH  95  96
ENDBRANCH  63  88
ENDBRANCH  37  38
ENDBRANCH  30  32
ENDBRANCH  29  30
ENDBRANCH  28  29
ENDBRANCH   1  28
TORSDOF 19
ENDMDL
MODEL 3
REMARK VINA RESULT:      -9.8      6.201     11.442
REMARK SMILES COc1ccc(/C=N/NC(=O)c2cc(C)nn2C)c(C(=O)OCCOC(=O)c2ccc(-c3c4nc(c(-c5c(F)cc(S(=O)(=O)[O-])cc5F)c5ccc([nH]5)c(-c5c(F)cc(S(=O)(=O)[O-])cc5F)c5nc(c(-c6c(F)cc(S(=O)(=O)[O-])cc6F)c6ccc3[nH]6)C=C5)C=C4)cc2)c1OC
REMARK SMILES IDX 23 1 22 2 20 3 21 4 19 5 3 6 4 7 94 8 5 9 6 10 2 11 1 12
REMARK SMILES IDX 95 13 96 14 7 15 8 16 9 17 10 18 11 20 12 21 13 22 17 23
REMARK SMILES IDX 14 24 16 25 18 26 15 27 24 28 25 29 26 30 27 31 28 32 29 33
REMARK SMILES IDX 93 34 30 35 92 36 31 37 32 38 33 39 86 40 34 41 91 42 85 43
REMARK SMILES IDX 87 44 35 45 90 46 84 47 83 48 36 50 70 51 49 52 69 53 50 54
REMARK SMILES IDX 53 55 68 56 88 57 51 58 52 59 67 61 89 62 54 63 37 64 38 65
REMARK SMILES IDX 47 66 39 67 40 68 46 69 48 70 41 71 42 72 43 73 44 74 45 75
REMARK SMILES IDX 71 76 72 77 81 78 73 79 74 80 80 81 82 82 75 83 76 84 77 85
REMARK SMILES IDX 78 86 79 87 55 88 56 89 65 90 57 91 58 92 64 93 66 94 59 95
REMARK SMILES IDX 60 96 61 97 62 98 63 99
REMARK H PARENT 9 19 87 49 53 60
REMARK Flexibility Score: inf
ROOT
ATOM      1  C   UNL A   1      33.764  26.644  26.033  1.00  0.00     0.275 C 
ENDROOT
BRANCH   1   2
ATOM      2  O   UNL A   1      32.566  26.274  25.346  1.00  0.00    -0.458 OA
BRANCH   2   3
ATOM      3  C   UNL A   1      32.480  26.640  24.048  1.00  0.00     0.342 C 
ATOM      4  O   UNL A   1      33.354  26.679  23.213  1.00  0.00    -0.246 OA
BRANCH   3   5
ATOM      5  C   UNL A   1      31.078  26.961  23.778  1.00  0.00     0.114 A 
ATOM      6  C   UNL A   1      29.341  28.601  23.447  1.00  0.00     0.161 A 
ATOM      7  C   UNL A   1      28.369  27.603  23.484  1.00  0.00     0.051 A 
ATOM      8  C   UNL A   1      30.691  28.298  23.646  1.00  0.00     0.175 A 
ATOM      9  C   UNL A   1      28.759  26.274  23.621  1.00  0.00     0.015 A 
ATOM     10  C   UNL A   1      30.124  25.946  23.719  1.00  0.00     0.013 A 
BRANCH   6  11
ATOM     11  O   UNL A   1      28.940  29.886  23.199  1.00  0.00    -0.493 OA
ATOM     12  C   UNL A   1      28.776  30.067  21.789  1.00  0.00     0.278 C 
ENDBRANCH   6  11
BRANCH   8  13
ATOM     13  O   UNL A   1      31.585  29.319  23.818  1.00  0.00    -0.492 OA
ATOM     14  C   UNL A   1      31.335  30.069  25.000  1.00  0.00     0.278 C 
ENDBRANCH   8  13
BRANCH  10  15
ATOM     15  C   UNL A   1      30.509  24.528  23.871  1.00  0.00     0.142 C 
ATOM     16  N   UNL A   1      31.162  24.006  22.903  1.00  0.00    -0.180 NA
BRANCH  16  17
ATOM     17  N   UNL A   1      31.502  22.711  22.831  1.00  0.00    -0.242 N 
ATOM     18  C   UNL A   1      32.430  21.860  23.394  1.00  0.00     0.289 C 
ATOM     19  H   UNL A   1      30.924  22.231  22.195  1.00  0.00     0.194 HD
ATOM     20  O   UNL A   1      32.274  20.660  23.175  1.00  0.00    -0.266 OA
BRANCH  18  21
ATOM     21  C   UNL A   1      33.529  22.237  24.221  1.00  0.00     0.127 A 
ATOM     22  C   UNL A   1      34.825  22.594  23.924  1.00  0.00     0.059 A 
ATOM     23  N   UNL A   1      33.362  22.568  25.549  1.00  0.00    -0.263 N 
ATOM     24  C   UNL A   1      35.345  23.152  25.108  1.00  0.00     0.060 A 
ATOM     25  N   UNL A   1      34.478  23.067  26.117  1.00  0.00    -0.178 NA
ATOM     26  C   UNL A   1      32.165  22.503  26.362  1.00  0.00     0.174 C 
ATOM     27  C   UNL A   1      36.641  23.827  25.318  1.00  0.00     0.069 C 
ENDBRANCH  18  21
ENDBRANCH  16  17
ENDBRANCH  10  15
ENDBRANCH   3   5
ENDBRANCH   2   3
ENDBRANCH   1   2
BRANCH   1  28
ATOM     28  C   UNL A   1      33.534  27.933  26.829  1.00  0.00     0.275 C 
BRANCH  28  29
ATOM     29  O   UNL A   1      34.414  29.000  26.404  1.00  0.00    -0.458 OA
BRANCH  29  30
ATOM     30  C   UNL A   1      34.556  30.026  27.288  1.00  0.00     0.338 C 
ATOM     31  O   UNL A   1      33.720  30.886  27.516  1.00  0.00    -0.246 OA
BRANCH  30  32
ATOM     32  C   UNL A   1      35.840  29.938  28.044  1.00  0.00     0.060 A 
ATOM     33  C   UNL A   1      37.036  30.075  27.324  1.00  0.00     0.016 A 
ATOM     34  C   UNL A   1      35.904  29.678  29.415  1.00  0.00     0.016 A 
ATOM     35  C   UNL A   1      38.285  29.959  27.960  1.00  0.00     0.010 A 
ATOM     36  C   UNL A   1      37.158  29.548  30.050  1.00  0.00     0.010 A 
ATOM     37  C   UNL A   1      38.365  29.677  29.330  1.00  0.00    -0.014 A 
BRANCH  37  38
ATOM     38  C   UNL A   1      39.658  29.245  29.957  1.00  0.00     0.031 A 
ATOM     39  C   UNL A   1      40.257  30.156  30.986  1.00  0.00     0.074 A 
ATOM     40  C   UNL A   1      40.330  28.112  29.662  1.00  0.00     0.049 A 
ATOM     41  N   UNL A   1      41.358  29.997  31.669  1.00  0.00    -0.248 NA
ATOM     42  C   UNL A   1      39.487  31.359  31.342  1.00  0.00     0.031 C 
ATOM     43  C   UNL A   1      39.821  27.007  28.887  1.00  0.00     0.029 A 
ATOM     44  N   UNL A   1      41.614  27.702  29.945  1.00  0.00    -0.354 N 
ATOM     45  C   UNL A   1      41.371  31.027  32.594  1.00  0.00     0.074 A 
ATOM     46  C   UNL A   1      40.208  31.849  32.337  1.00  0.00     0.031 C 
ATOM     47  C   UNL A   1      40.798  26.159  28.553  1.00  0.00     0.029 A 
ATOM     48  C   UNL A   1      42.012  26.605  29.205  1.00  0.00     0.049 A 
ATOM     49  H   UNL A   1      42.191  28.147  30.609  1.00  0.00     0.167 HD
ATOM     50  C   UNL A   1      42.260  31.242  33.588  1.00  0.00     0.037 A 
ATOM     51  C   UNL A   1      43.200  25.989  29.070  1.00  0.00     0.037 A 
ATOM     52  C   UNL A   1      43.463  30.475  33.769  1.00  0.00     0.049 A 
ATOM     53  C   UNL A   1      44.281  26.371  30.024  1.00  0.00     0.074 A 
ATOM     54  C   UNL A   1      44.456  30.648  34.714  1.00  0.00     0.029 A 
ATOM     55  N   UNL A   1      43.860  29.419  32.959  1.00  0.00    -0.354 N 
ATOM     56  N   UNL A   1      44.252  27.311  30.936  1.00  0.00    -0.248 NA
ATOM     57  C   UNL A   1      45.509  25.571  30.007  1.00  0.00     0.031 C 
ATOM     58  C   UNL A   1      45.485  29.743  34.433  1.00  0.00     0.029 A 
ATOM     59  C   UNL A   1      45.108  28.962  33.351  1.00  0.00     0.049 A 
ATOM     60  H   UNL A   1      43.333  29.048  32.214  1.00  0.00     0.167 HD
ATOM     61  C   UNL A   1      45.429  27.177  31.650  1.00  0.00     0.074 A 
ATOM     62  C   UNL A   1      46.162  26.081  31.044  1.00  0.00     0.031 C 
ATOM     63  C   UNL A   1      45.838  27.883  32.731  1.00  0.00     0.037 A 
BRANCH  50  64
ATOM     64  C   UNL A   1      41.960  32.386  34.507  1.00  0.00     0.058 A 
ATOM     65  C   UNL A   1      41.079  32.242  35.592  1.00  0.00     0.135 A 
ATOM     66  C   UNL A   1      42.513  33.652  34.270  1.00  0.00     0.135 A 
ATOM     67  F   UNL A   1      40.502  31.055  35.844  1.00  0.00    -0.206 F 
ATOM     68  C   UNL A   1      40.727  33.325  36.388  1.00  0.00     0.059 A 
ATOM     69  C   UNL A   1      42.193  34.744  35.067  1.00  0.00     0.059 A 
ATOM     70  F   UNL A   1      43.349  33.842  33.237  1.00  0.00    -0.206 F 
ATOM     71  C   UNL A   1      41.282  34.575  36.110  1.00  0.00     0.060 A 
BRANCH  71  72
ATOM     72  S   UNL A   1      40.781  35.986  37.118  1.00  0.00     0.124 S 
ATOM     73  O   UNL A   1      42.029  36.739  37.203  1.00  0.00    -0.237 OA
ATOM     74  O   UNL A   1      39.729  36.591  36.308  1.00  0.00    -0.237 OA
ATOM     75  O   UNL A   1      40.334  35.371  38.363  1.00  0.00    -0.744 OA
ENDBRANCH  71  72
ENDBRANCH  50  64
BRANCH  51  76
ATOM     76  C   UNL A   1      43.365  24.912  28.054  1.00  0.00     0.058 A 
ATOM     77  C   UNL A   1      43.880  25.169  26.777  1.00  0.00     0.135 A 
ATOM     78  C   UNL A   1      43.079  23.575  28.383  1.00  0.00     0.135 A 
ATOM     79  F   UNL A   1      44.177  26.426  26.415  1.00  0.00    -0.206 F 
ATOM     80  C   UNL A   1      44.106  24.145  25.860  1.00  0.00     0.059 A 
ATOM     81  C   UNL A   1      43.309  22.531  27.488  1.00  0.00     0.059 A 
ATOM     82  F   UNL A   1      42.597  23.269  29.597  1.00  0.00    -0.206 F 
ATOM     83  C   UNL A   1      43.823  22.826  26.228  1.00  0.00     0.060 A 
BRANCH  83  84
ATOM     84  S   UNL A   1      44.188  21.502  25.052  1.00  0.00     0.124 S 
ATOM     85  O   UNL A   1      43.129  20.544  25.345  1.00  0.00    -0.237 OA
ATOM     86  O   UNL A   1      44.087  22.194  23.771  1.00  0.00    -0.237 OA
ATOM     87  O   UNL A   1      45.537  21.082  25.423  1.00  0.00    -0.744 OA
ENDBRANCH  83  84
ENDBRANCH  51  76
BRANCH  63  88
ATOM     88  C   UNL A   1      47.146  27.490  33.345  1.00  0.00     0.058 A 
ATOM     89  C   UNL A   1      48.349  28.094  32.953  1.00  0.00     0.135 A 
ATOM     90  C   UNL A   1      47.182  26.556  34.393  1.00  0.00     0.135 A 
ATOM     91  F   UNL A   1      48.365  28.978  31.943  1.00  0.00    -0.206 F 
ATOM     92  C   UNL A   1      49.548  27.786  33.582  1.00  0.00     0.059 A 
ATOM     93  C   UNL A   1      48.365  26.253  35.054  1.00  0.00     0.059 A 
ATOM     94  F   UNL A   1      46.055  25.951  34.800  1.00  0.00    -0.206 F 
ATOM     95  C   UNL A   1      49.544  26.874  34.641  1.00  0.00     0.060 A 
BRANCH  95  96
ATOM     96  S   UNL A   1      51.094  26.552  35.505  1.00  0.00     0.124 S 
ATOM     97  O   UNL A   1      51.552  27.905  35.801  1.00  0.00    -0.237 OA
ATOM     98  O   UNL A   1      50.653  25.765  36.652  1.00  0.00    -0.237 OA
ATOM     99  O   UNL A   1      51.886  25.822  34.519  1.00  0.00    -0.744 OA
ENDBRANCH  95  96
ENDBRANCH  63  88
ENDBRANCH  37  38
ENDBRANCH  30  32
ENDBRANCH  29  30
ENDBRANCH  28  29
ENDBRANCH   1  28
TORSDOF 19
ENDMDL
