MODEL 1
REMARK VINA RESULT:      -9.7      0.000      0.000
REMARK SMILES CCN(CC(C)C)C(=O)N[C@](C)(CC)C(=O)OCCOC(=O)c1ccc(-c2c3nc(c(-c4c(F)cc(S(=O)(=O)[O-])cc4F)c4ccc([nH]4)c(-c4c(F)cc(S(=O)(=O)[O-])cc4F)c4nc(c(-c5c(F)cc(S(=O)(=O)[O-])cc5F)c5ccc2[nH]5)C=C4)C=C3)cc1
REMARK SMILES IDX 18 1 17 2 15 3 16 4 11 5 12 6 10 7 8 8 9 9 3 11 2 12 1 13
REMARK SMILES IDX 4 14 5 15 6 16 7 17 13 18 14 19 19 20 20 21 21 22 22 23
REMARK SMILES IDX 23 24 24 25 88 26 25 27 87 28 26 29 27 30 28 31 81 32 29 33
REMARK SMILES IDX 86 34 80 35 82 36 30 37 85 38 79 39 78 40 31 42 65 43 44 44
REMARK SMILES IDX 64 45 45 46 48 47 63 48 83 49 46 50 47 51 62 53 84 54 49 55
REMARK SMILES IDX 32 56 33 57 42 58 34 59 35 60 41 61 43 62 36 63 37 64 38 65
REMARK SMILES IDX 39 66 40 67 66 68 67 69 76 70 68 71 69 72 75 73 77 74 70 75
REMARK SMILES IDX 71 76 72 77 73 78 74 79 50 80 51 81 60 82 52 83 53 84 59 85
REMARK SMILES IDX 61 86 54 87 55 88 56 89 57 90 58 91
REMARK H PARENT 10 10 82 41 48 52
REMARK Flexibility Score: inf
ROOT
ATOM      1  C   UNL A   1      37.266  21.578  25.433  1.00  0.00     0.274 C 
ENDROOT
BRANCH   1   2
ATOM      2  O   UNL A   1      36.054  22.037  24.806  1.00  0.00    -0.460 OA
BRANCH   2   3
ATOM      3  C   UNL A   1      34.918  22.005  25.560  1.00  0.00     0.331 C 
ATOM      4  O   UNL A   1      34.852  21.503  26.676  1.00  0.00    -0.249 OA
BRANCH   3   5
ATOM      5  C   UNL A   1      33.746  22.731  24.827  1.00  0.00     0.136 C 
ATOM      6  C   UNL A   1      34.379  23.888  24.068  1.00  0.00     0.047 C 
BRANCH   5   7
ATOM      7  N   UNL A   1      32.721  23.019  25.890  1.00  0.00    -0.322 N 
ATOM      8  C   UNL A   1      31.989  23.918  26.547  1.00  0.00     0.318 C 
ATOM      9  O   UNL A   1      31.630  23.504  27.661  1.00  0.00    -0.249 OA
ATOM     10  H   UNL A   1      32.480  22.145  26.274  1.00  0.00     0.166 HD
BRANCH   8  11
ATOM     11  N   UNL A   1      31.573  25.130  26.100  1.00  0.00    -0.325 N 
BRANCH  11  12
ATOM     12  C   UNL A   1      30.322  25.156  25.323  1.00  0.00     0.118 C 
ATOM     13  C   UNL A   1      30.573  24.927  23.836  1.00  0.00     0.027 C 
ENDBRANCH  11  12
BRANCH  11  14
ATOM     14  C   UNL A   1      32.289  26.391  26.110  1.00  0.00     0.124 C 
BRANCH  14  15
ATOM     15  C   UNL A   1      31.411  27.630  26.374  1.00  0.00     0.002 C 
ATOM     16  C   UNL A   1      31.755  28.408  27.651  1.00  0.00     0.009 C 
ATOM     17  C   UNL A   1      31.406  28.524  25.132  1.00  0.00     0.009 C 
ENDBRANCH  14  15
ENDBRANCH  11  14
ENDBRANCH   8  11
ENDBRANCH   5   7
BRANCH   5  18
ATOM     18  C   UNL A   1      33.043  21.729  23.859  1.00  0.00     0.037 C 
ATOM     19  C   UNL A   1      32.742  22.218  22.445  1.00  0.00     0.007 C 
ENDBRANCH   5  18
ENDBRANCH   3   5
ENDBRANCH   2   3
ENDBRANCH   1   2
BRANCH   1  20
ATOM     20  C   UNL A   1      38.161  22.795  25.669  1.00  0.00     0.275 C 
BRANCH  20  21
ATOM     21  O   UNL A   1      39.303  22.371  26.440  1.00  0.00    -0.458 OA
BRANCH  21  22
ATOM     22  C   UNL A   1      40.430  23.114  26.335  1.00  0.00     0.338 C 
ATOM     23  O   UNL A   1      41.435  22.816  25.700  1.00  0.00    -0.246 OA
BRANCH  22  24
ATOM     24  C   UNL A   1      40.278  24.393  27.078  1.00  0.00     0.060 A 
ATOM     25  C   UNL A   1      41.056  25.502  26.766  1.00  0.00     0.016 A 
ATOM     26  C   UNL A   1      39.411  24.471  28.173  1.00  0.00     0.016 A 
ATOM     27  C   UNL A   1      41.037  26.624  27.603  1.00  0.00     0.010 A 
ATOM     28  C   UNL A   1      39.347  25.639  28.961  1.00  0.00     0.010 A 
ATOM     29  C   UNL A   1      40.211  26.724  28.736  1.00  0.00    -0.014 A 
BRANCH  29  30
ATOM     30  C   UNL A   1      40.341  27.872  29.718  1.00  0.00     0.031 A 
ATOM     31  C   UNL A   1      41.536  27.954  30.658  1.00  0.00     0.074 A 
ATOM     32  C   UNL A   1      39.484  28.921  29.754  1.00  0.00     0.049 A 
ATOM     33  N   UNL A   1      41.684  28.662  31.754  1.00  0.00    -0.248 NA
ATOM     34  C   UNL A   1      42.709  27.128  30.334  1.00  0.00     0.031 C 
ATOM     35  C   UNL A   1      38.312  29.110  28.901  1.00  0.00     0.029 A 
ATOM     36  N   UNL A   1      39.491  30.060  30.536  1.00  0.00    -0.354 N 
ATOM     37  C   UNL A   1      42.907  28.282  32.302  1.00  0.00     0.074 A 
ATOM     38  C   UNL A   1      43.477  27.302  31.401  1.00  0.00     0.031 C 
ATOM     39  C   UNL A   1      37.783  30.321  29.125  1.00  0.00     0.029 A 
ATOM     40  C   UNL A   1      38.466  30.936  30.257  1.00  0.00     0.049 A 
ATOM     41  H   UNL A   1      40.169  30.231  31.231  1.00  0.00     0.167 HD
ATOM     42  C   UNL A   1      43.499  28.701  33.449  1.00  0.00     0.037 A 
ATOM     43  C   UNL A   1      38.049  32.064  30.871  1.00  0.00     0.037 A 
ATOM     44  C   UNL A   1      43.016  29.778  34.280  1.00  0.00     0.049 A 
ATOM     45  C   UNL A   1      38.715  32.525  32.137  1.00  0.00     0.074 A 
ATOM     46  C   UNL A   1      43.546  30.252  35.471  1.00  0.00     0.029 A 
ATOM     47  N   UNL A   1      41.936  30.590  33.980  1.00  0.00    -0.354 N 
ATOM     48  N   UNL A   1      39.742  32.007  32.762  1.00  0.00    -0.248 NA
ATOM     49  C   UNL A   1      38.128  33.695  32.809  1.00  0.00     0.031 C 
ATOM     50  C   UNL A   1      42.781  31.345  35.894  1.00  0.00     0.029 A 
ATOM     51  C   UNL A   1      41.795  31.569  34.950  1.00  0.00     0.049 A 
ATOM     52  H   UNL A   1      41.355  30.488  33.192  1.00  0.00     0.167 HD
ATOM     53  C   UNL A   1      39.906  32.770  33.914  1.00  0.00     0.074 A 
ATOM     54  C   UNL A   1      38.904  33.814  33.877  1.00  0.00     0.031 C 
ATOM     55  C   UNL A   1      40.793  32.601  34.924  1.00  0.00     0.037 A 
BRANCH  42  56
ATOM     56  C   UNL A   1      44.736  27.982  33.917  1.00  0.00     0.058 A 
ATOM     57  C   UNL A   1      46.028  28.456  33.653  1.00  0.00     0.135 A 
ATOM     58  C   UNL A   1      44.608  26.849  34.741  1.00  0.00     0.135 A 
ATOM     59  F   UNL A   1      46.206  29.523  32.859  1.00  0.00    -0.206 F 
ATOM     60  C   UNL A   1      47.152  27.832  34.186  1.00  0.00     0.059 A 
ATOM     61  C   UNL A   1      45.717  26.224  35.304  1.00  0.00     0.059 A 
ATOM     62  F   UNL A   1      43.393  26.357  35.029  1.00  0.00    -0.206 F 
ATOM     63  C   UNL A   1      46.986  26.720  35.017  1.00  0.00     0.060 A 
BRANCH  63  64
ATOM     64  S   UNL A   1      48.450  25.952  35.744  1.00  0.00     0.124 S 
ATOM     65  O   UNL A   1      48.254  24.553  35.379  1.00  0.00    -0.237 OA
ATOM     66  O   UNL A   1      49.539  26.639  35.058  1.00  0.00    -0.237 OA
ATOM     67  O   UNL A   1      48.320  26.254  37.167  1.00  0.00    -0.744 OA
ENDBRANCH  63  64
ENDBRANCH  42  56
BRANCH  43  68
ATOM     68  C   UNL A   1      36.840  32.774  30.368  1.00  0.00     0.058 A 
ATOM     69  C   UNL A   1      35.563  32.506  30.881  1.00  0.00     0.135 A 
ATOM     70  C   UNL A   1      36.948  33.743  29.357  1.00  0.00     0.135 A 
ATOM     71  F   UNL A   1      35.403  31.567  31.827  1.00  0.00    -0.206 F 
ATOM     72  C   UNL A   1      34.436  33.178  30.415  1.00  0.00     0.059 A 
ATOM     73  C   UNL A   1      35.844  34.452  28.902  1.00  0.00     0.059 A 
ATOM     74  F   UNL A   1      38.147  34.035  28.831  1.00  0.00    -0.206 F 
ATOM     75  C   UNL A   1      34.589  34.156  29.431  1.00  0.00     0.060 A 
BRANCH  75  76
ATOM     76  S   UNL A   1      33.148  35.095  28.882  1.00  0.00     0.124 S 
ATOM     77  O   UNL A   1      33.775  36.235  28.226  1.00  0.00    -0.237 OA
ATOM     78  O   UNL A   1      32.468  34.146  28.005  1.00  0.00    -0.237 OA
ATOM     79  O   UNL A   1      32.452  35.385  30.132  1.00  0.00    -0.744 OA
ENDBRANCH  75  76
ENDBRANCH  43  68
BRANCH  55  80
ATOM     80  C   UNL A   1      40.724  33.571  36.068  1.00  0.00     0.058 A 
ATOM     81  C   UNL A   1      39.870  33.351  37.161  1.00  0.00     0.135 A 
ATOM     82  C   UNL A   1      41.511  34.733  36.075  1.00  0.00     0.135 A 
ATOM     83  F   UNL A   1      39.091  32.258  37.199  1.00  0.00    -0.206 F 
ATOM     84  C   UNL A   1      39.771  34.267  38.203  1.00  0.00     0.059 A 
ATOM     85  C   UNL A   1      41.443  35.654  37.117  1.00  0.00     0.059 A 
ATOM     86  F   UNL A   1      42.351  34.986  35.059  1.00  0.00    -0.206 F 
ATOM     87  C   UNL A   1      40.556  35.422  38.168  1.00  0.00     0.060 A 
BRANCH  87  88
ATOM     88  S   UNL A   1      40.411  36.613  39.517  1.00  0.00     0.124 S 
ATOM     89  O   UNL A   1      41.795  37.048  39.674  1.00  0.00    -0.237 OA
ATOM     90  O   UNL A   1      39.494  37.607  38.964  1.00  0.00    -0.237 OA
ATOM     91  O   UNL A   1      39.872  35.817  40.616  1.00  0.00    -0.744 OA
ENDBRANCH  87  88
ENDBRANCH  55  80
ENDBRANCH  29  30
ENDBRANCH  22  24
ENDBRANCH  21  22
ENDBRANCH  20  21
ENDBRANCH   1  20
TORSDOF 20
ENDMDL
MODEL 2
REMARK VINA RESULT:      -9.7      5.291      9.483
REMARK SMILES CCN(CC(C)C)C(=O)N[C@](C)(CC)C(=O)OCCOC(=O)c1ccc(-c2c3nc(c(-c4c(F)cc(S(=O)(=O)[O-])cc4F)c4ccc([nH]4)c(-c4c(F)cc(S(=O)(=O)[O-])cc4F)c4nc(c(-c5c(F)cc(S(=O)(=O)[O-])cc5F)c5ccc2[nH]5)C=C4)C=C3)cc1
REMARK SMILES IDX 18 1 17 2 15 3 16 4 11 5 12 6 10 7 8 8 9 9 3 11 2 12 1 13
REMARK SMILES IDX 4 14 5 15 6 16 7 17 13 18 14 19 19 20 20 21 21 22 22 23
REMARK SMILES IDX 23 24 24 25 88 26 25 27 87 28 26 29 27 30 28 31 81 32 29 33
REMARK SMILES IDX 86 34 80 35 82 36 30 37 85 38 79 39 78 40 31 42 65 43 44 44
REMARK SMILES IDX 64 45 45 46 48 47 63 48 83 49 46 50 47 51 62 53 84 54 49 55
REMARK SMILES IDX 32 56 33 57 42 58 34 59 35 60 41 61 43 62 36 63 37 64 38 65
REMARK SMILES IDX 39 66 40 67 66 68 67 69 76 70 68 71 69 72 75 73 77 74 70 75
REMARK SMILES IDX 71 76 72 77 73 78 74 79 50 80 51 81 60 82 52 83 53 84 59 85
REMARK SMILES IDX 61 86 54 87 55 88 56 89 57 90 58 91
REMARK H PARENT 10 10 82 41 48 52
REMARK Flexibility Score: inf
ROOT
ATOM      1  C   UNL A   1      35.896  21.139  24.884  1.00  0.00     0.274 C 
ENDROOT
BRANCH   1   2
ATOM      2  O   UNL A   1      35.687  22.561  24.967  1.00  0.00    -0.460 OA
BRANCH   2   3
ATOM      3  C   UNL A   1      35.332  23.201  23.815  1.00  0.00     0.331 C 
ATOM      4  O   UNL A   1      35.911  23.055  22.745  1.00  0.00    -0.249 OA
BRANCH   3   5
ATOM      5  C   UNL A   1      34.074  24.096  24.045  1.00  0.00     0.136 C 
ATOM      6  C   UNL A   1      32.983  23.164  24.550  1.00  0.00     0.047 C 
BRANCH   5   7
ATOM      7  N   UNL A   1      33.868  24.842  22.755  1.00  0.00    -0.322 N 
ATOM      8  C   UNL A   1      33.162  25.733  22.059  1.00  0.00     0.318 C 
ATOM      9  O   UNL A   1      33.279  25.568  20.834  1.00  0.00    -0.249 OA
ATOM     10  H   UNL A   1      34.579  24.532  22.149  1.00  0.00     0.166 HD
BRANCH   8  11
ATOM     11  N   UNL A   1      32.439  26.774  22.543  1.00  0.00    -0.325 N 
BRANCH  11  12
ATOM     12  C   UNL A   1      33.196  27.958  22.984  1.00  0.00     0.118 C 
ATOM     13  C   UNL A   1      32.384  28.828  23.938  1.00  0.00     0.027 C 
ENDBRANCH  11  12
BRANCH  11  14
ATOM     14  C   UNL A   1      31.029  26.817  22.876  1.00  0.00     0.124 C 
BRANCH  14  15
ATOM     15  C   UNL A   1      30.570  25.745  23.884  1.00  0.00     0.002 C 
ATOM     16  C   UNL A   1      29.554  26.229  24.927  1.00  0.00     0.009 C 
ATOM     17  C   UNL A   1      30.082  24.509  23.126  1.00  0.00     0.009 C 
ENDBRANCH  14  15
ENDBRANCH  11  14
ENDBRANCH   8  11
ENDBRANCH   5   7
BRANCH   5  18
ATOM     18  C   UNL A   1      34.411  25.202  25.094  1.00  0.00     0.037 C 
ATOM     19  C   UNL A   1      33.304  25.608  26.062  1.00  0.00     0.007 C 
ENDBRANCH   5  18
ENDBRANCH   3   5
ENDBRANCH   2   3
ENDBRANCH   1   2
BRANCH   1  20
ATOM     20  C   UNL A   1      37.397  20.878  24.997  1.00  0.00     0.275 C 
BRANCH  20  21
ATOM     21  O   UNL A   1      37.996  21.987  25.696  1.00  0.00    -0.458 OA
BRANCH  21  22
ATOM     22  C   UNL A   1      39.221  21.787  26.238  1.00  0.00     0.338 C 
ATOM     23  O   UNL A   1      39.866  20.746  26.200  1.00  0.00    -0.246 OA
BRANCH  22  24
ATOM     24  C   UNL A   1      39.717  23.038  26.872  1.00  0.00     0.060 A 
ATOM     25  C   UNL A   1      39.212  24.280  26.503  1.00  0.00     0.016 A 
ATOM     26  C   UNL A   1      40.774  22.990  27.787  1.00  0.00     0.016 A 
ATOM     27  C   UNL A   1      39.830  25.448  26.965  1.00  0.00     0.010 A 
ATOM     28  C   UNL A   1      41.335  24.176  28.303  1.00  0.00     0.010 A 
ATOM     29  C   UNL A   1      40.920  25.441  27.853  1.00  0.00    -0.014 A 
BRANCH  29  30
ATOM     30  C   UNL A   1      41.677  26.711  28.194  1.00  0.00     0.031 A 
ATOM     31  C   UNL A   1      41.008  27.819  28.995  1.00  0.00     0.074 A 
ATOM     32  C   UNL A   1      42.988  26.895  27.906  1.00  0.00     0.049 A 
ATOM     33  N   UNL A   1      41.360  29.077  29.128  1.00  0.00    -0.248 NA
ATOM     34  C   UNL A   1      39.780  27.475  29.730  1.00  0.00     0.031 C 
ATOM     35  C   UNL A   1      43.864  25.947  27.218  1.00  0.00     0.029 A 
ATOM     36  N   UNL A   1      43.831  27.952  28.193  1.00  0.00    -0.354 N 
ATOM     37  C   UNL A   1      40.346  29.691  29.860  1.00  0.00     0.074 A 
ATOM     38  C   UNL A   1      39.378  28.660  30.170  1.00  0.00     0.031 C 
ATOM     39  C   UNL A   1      45.123  26.408  27.231  1.00  0.00     0.029 A 
ATOM     40  C   UNL A   1      45.129  27.762  27.772  1.00  0.00     0.049 A 
ATOM     41  H   UNL A   1      43.531  28.767  28.656  1.00  0.00     0.167 HD
ATOM     42  C   UNL A   1      40.226  30.989  30.234  1.00  0.00     0.037 A 
ATOM     43  C   UNL A   1      46.196  28.587  27.737  1.00  0.00     0.037 A 
ATOM     44  C   UNL A   1      41.246  31.995  30.060  1.00  0.00     0.049 A 
ATOM     45  C   UNL A   1      46.056  30.022  28.160  1.00  0.00     0.074 A 
ATOM     46  C   UNL A   1      41.196  33.341  30.393  1.00  0.00     0.029 A 
ATOM     47  N   UNL A   1      42.519  31.759  29.571  1.00  0.00    -0.354 N 
ATOM     48  N   UNL A   1      45.007  30.639  28.643  1.00  0.00    -0.248 NA
ATOM     49  C   UNL A   1      47.234  30.886  27.981  1.00  0.00     0.031 C 
ATOM     50  C   UNL A   1      42.436  33.918  30.097  1.00  0.00     0.029 A 
ATOM     51  C   UNL A   1      43.266  32.926  29.609  1.00  0.00     0.049 A 
ATOM     52  H   UNL A   1      42.846  30.890  29.245  1.00  0.00     0.167 HD
ATOM     53  C   UNL A   1      45.389  31.967  28.798  1.00  0.00     0.074 A 
ATOM     54  C   UNL A   1      46.779  32.058  28.405  1.00  0.00     0.031 C 
ATOM     55  C   UNL A   1      44.643  33.023  29.207  1.00  0.00     0.037 A 
BRANCH  42  56
ATOM     56  C   UNL A   1      38.928  31.436  30.852  1.00  0.00     0.058 A 
ATOM     57  C   UNL A   1      38.721  31.456  32.238  1.00  0.00     0.135 A 
ATOM     58  C   UNL A   1      37.912  31.956  30.030  1.00  0.00     0.135 A 
ATOM     59  F   UNL A   1      39.652  30.956  33.066  1.00  0.00    -0.206 F 
ATOM     60  C   UNL A   1      37.552  31.972  32.790  1.00  0.00     0.059 A 
ATOM     61  C   UNL A   1      36.745  32.499  30.561  1.00  0.00     0.059 A 
ATOM     62  F   UNL A   1      38.061  31.965  28.696  1.00  0.00    -0.206 F 
ATOM     63  C   UNL A   1      36.573  32.498  31.943  1.00  0.00     0.060 A 
BRANCH  63  64
ATOM     64  S   UNL A   1      35.084  33.213  32.674  1.00  0.00     0.124 S 
ATOM     65  O   UNL A   1      35.134  34.577  32.160  1.00  0.00    -0.237 OA
ATOM     66  O   UNL A   1      34.028  32.368  32.126  1.00  0.00    -0.237 OA
ATOM     67  O   UNL A   1      35.311  33.074  34.110  1.00  0.00    -0.744 OA
ENDBRANCH  63  64
ENDBRANCH  42  56
BRANCH  43  68
ATOM     68  C   UNL A   1      47.479  28.109  27.148  1.00  0.00     0.058 A 
ATOM     69  C   UNL A   1      47.710  28.141  25.766  1.00  0.00     0.135 A 
ATOM     70  C   UNL A   1      48.502  27.611  27.972  1.00  0.00     0.135 A 
ATOM     71  F   UNL A   1      46.752  28.580  24.934  1.00  0.00    -0.206 F 
ATOM     72  C   UNL A   1      48.913  27.702  25.220  1.00  0.00     0.059 A 
ATOM     73  C   UNL A   1      49.724  27.202  27.453  1.00  0.00     0.059 A 
ATOM     74  F   UNL A   1      48.330  27.557  29.301  1.00  0.00    -0.206 F 
ATOM     75  C   UNL A   1      49.917  27.242  26.074  1.00  0.00     0.060 A 
BRANCH  75  76
ATOM     76  S   UNL A   1      51.513  26.753  25.384  1.00  0.00     0.124 S 
ATOM     77  O   UNL A   1      51.569  25.343  25.749  1.00  0.00    -0.237 OA
ATOM     78  O   UNL A   1      51.345  27.041  23.963  1.00  0.00    -0.237 OA
ATOM     79  O   UNL A   1      52.452  27.627  26.082  1.00  0.00    -0.744 OA
ENDBRANCH  75  76
ENDBRANCH  43  68
BRANCH  55  80
ATOM     80  C   UNL A   1      45.319  34.363  29.255  1.00  0.00     0.058 A 
ATOM     81  C   UNL A   1      45.373  35.194  28.124  1.00  0.00     0.135 A 
ATOM     82  C   UNL A   1      45.921  34.823  30.436  1.00  0.00     0.135 A 
ATOM     83  F   UNL A   1      44.816  34.797  26.968  1.00  0.00    -0.206 F 
ATOM     84  C   UNL A   1      46.033  36.418  28.151  1.00  0.00     0.059 A 
ATOM     85  C   UNL A   1      46.571  36.053  30.492  1.00  0.00     0.059 A 
ATOM     86  F   UNL A   1      45.891  34.071  31.547  1.00  0.00    -0.206 F 
ATOM     87  C   UNL A   1      46.638  36.836  29.339  1.00  0.00     0.060 A 
BRANCH  87  88
ATOM     88  S   UNL A   1      47.506  38.419  29.362  1.00  0.00     0.124 S 
ATOM     89  O   UNL A   1      48.899  37.990  29.301  1.00  0.00    -0.237 OA
ATOM     90  O   UNL A   1      46.993  39.079  28.164  1.00  0.00    -0.237 OA
ATOM     91  O   UNL A   1      47.086  39.017  30.626  1.00  0.00    -0.744 OA
ENDBRANCH  87  88
ENDBRANCH  55  80
ENDBRANCH  29  30
ENDBRANCH  22  24
ENDBRANCH  21  22
ENDBRANCH  20  21
ENDBRANCH   1  20
TORSDOF 20
ENDMDL
MODEL 3
REMARK VINA RESULT:      -9.6      1.205      2.079
REMARK SMILES CCN(CC(C)C)C(=O)N[C@](C)(CC)C(=O)OCCOC(=O)c1ccc(-c2c3nc(c(-c4c(F)cc(S(=O)(=O)[O-])cc4F)c4ccc([nH]4)c(-c4c(F)cc(S(=O)(=O)[O-])cc4F)c4nc(c(-c5c(F)cc(S(=O)(=O)[O-])cc5F)c5ccc2[nH]5)C=C4)C=C3)cc1
REMARK SMILES IDX 18 1 17 2 15 3 16 4 11 5 12 6 10 7 8 8 9 9 3 11 2 12 1 13
REMARK SMILES IDX 4 14 5 15 6 16 7 17 13 18 14 19 19 20 20 21 21 22 22 23
REMARK SMILES IDX 23 24 24 25 88 26 25 27 87 28 26 29 27 30 28 31 81 32 29 33
REMARK SMILES IDX 86 34 80 35 82 36 30 37 85 38 79 39 78 40 31 42 65 43 44 44
REMARK SMILES IDX 64 45 45 46 48 47 63 48 83 49 46 50 47 51 62 53 84 54 49 55
REMARK SMILES IDX 32 56 33 57 42 58 34 59 35 60 41 61 43 62 36 63 37 64 38 65
REMARK SMILES IDX 39 66 40 67 66 68 67 69 76 70 68 71 69 72 75 73 77 74 70 75
REMARK SMILES IDX 71 76 72 77 73 78 74 79 50 80 51 81 60 82 52 83 53 84 59 85
REMARK SMILES IDX 61 86 54 87 55 88 56 89 57 90 58 91
REMARK H PARENT 10 10 82 41 48 52
REMARK Flexibility Score: inf
ROOT
ATOM      1  C   UNL A   1      37.103  22.239  24.237  1.00  0.00     0.274 C 
ENDROOT
BRANCH   1   2
ATOM      2  O   UNL A   1      35.695  22.262  24.539  1.00  0.00    -0.460 OA
BRANCH   2   3
ATOM      3  C   UNL A   1      34.927  23.145  23.839  1.00  0.00     0.331 C 
ATOM      4  O   UNL A   1      34.960  23.263  22.619  1.00  0.00    -0.249 OA
BRANCH   3   5
ATOM      5  C   UNL A   1      33.983  23.939  24.796  1.00  0.00     0.136 C 
ATOM      6  C   UNL A   1      34.137  23.294  26.166  1.00  0.00     0.047 C 
BRANCH   5   7
ATOM      7  N   UNL A   1      32.635  23.938  24.128  1.00  0.00    -0.322 N 
ATOM      8  C   UNL A   1      31.315  24.082  24.234  1.00  0.00     0.318 C 
ATOM      9  O   UNL A   1      30.706  23.504  23.321  1.00  0.00    -0.249 OA
ATOM     10  H   UNL A   1      32.807  23.742  23.178  1.00  0.00     0.166 HD
BRANCH   8  11
ATOM     11  N   UNL A   1      30.637  24.818  25.151  1.00  0.00    -0.325 N 
BRANCH  11  12
ATOM     12  C   UNL A   1      30.717  24.372  26.552  1.00  0.00     0.118 C 
ATOM     13  C   UNL A   1      30.110  22.987  26.742  1.00  0.00     0.027 C 
ENDBRANCH  11  12
BRANCH  11  14
ATOM     14  C   UNL A   1      29.675  25.879  24.923  1.00  0.00     0.124 C 
BRANCH  14  15
ATOM     15  C   UNL A   1      30.205  27.064  24.091  1.00  0.00     0.002 C 
ATOM     16  C   UNL A   1      29.137  27.823  23.293  1.00  0.00     0.009 C 
ATOM     17  C   UNL A   1      31.027  27.990  24.990  1.00  0.00     0.009 C 
ENDBRANCH  14  15
ENDBRANCH  11  14
ENDBRANCH   8  11
ENDBRANCH   5   7
BRANCH   5  18
ATOM     18  C   UNL A   1      34.414  25.439  24.819  1.00  0.00     0.037 C 
ATOM     19  C   UNL A   1      33.865  26.340  23.717  1.00  0.00     0.007 C 
ENDBRANCH   5  18
ENDBRANCH   3   5
ENDBRANCH   2   3
ENDBRANCH   1   2
BRANCH   1  20
ATOM     20  C   UNL A   1      37.809  23.172  25.220  1.00  0.00     0.275 C 
BRANCH  20  21
ATOM     21  O   UNL A   1      38.737  22.389  25.996  1.00  0.00    -0.458 OA
BRANCH  21  22
ATOM     22  C   UNL A   1      39.982  22.893  26.164  1.00  0.00     0.338 C 
ATOM     23  O   UNL A   1      41.026  22.387  25.769  1.00  0.00    -0.246 OA
BRANCH  22  24
ATOM     24  C   UNL A   1      39.921  24.196  26.878  1.00  0.00     0.060 A 
ATOM     25  C   UNL A   1      40.644  25.296  26.429  1.00  0.00     0.016 A 
ATOM     26  C   UNL A   1      39.206  24.309  28.075  1.00  0.00     0.016 A 
ATOM     27  C   UNL A   1      40.728  26.446  27.224  1.00  0.00     0.010 A 
ATOM     28  C   UNL A   1      39.239  25.502  28.825  1.00  0.00     0.010 A 
ATOM     29  C   UNL A   1      40.058  26.582  28.452  1.00  0.00    -0.014 A 
BRANCH  29  30
ATOM     30  C   UNL A   1      40.309  27.763  29.370  1.00  0.00     0.031 A 
ATOM     31  C   UNL A   1      41.601  27.860  30.169  1.00  0.00     0.074 A 
ATOM     32  C   UNL A   1      39.474  28.825  29.460  1.00  0.00     0.049 A 
ATOM     33  N   UNL A   1      41.877  28.605  31.214  1.00  0.00    -0.248 NA
ATOM     34  C   UNL A   1      42.722  27.004  29.750  1.00  0.00     0.031 C 
ATOM     35  C   UNL A   1      38.217  29.002  28.733  1.00  0.00     0.029 A 
ATOM     36  N   UNL A   1      39.581  29.993  30.192  1.00  0.00    -0.354 N 
ATOM     37  C   UNL A   1      43.149  28.226  31.639  1.00  0.00     0.074 A 
ATOM     38  C   UNL A   1      43.605  27.205  30.719  1.00  0.00     0.031 C 
ATOM     39  C   UNL A   1      37.730  30.229  28.968  1.00  0.00     0.029 A 
ATOM     40  C   UNL A   1      38.541  30.874  29.994  1.00  0.00     0.049 A 
ATOM     41  H   UNL A   1      40.332  30.178  30.801  1.00  0.00     0.167 HD
ATOM     42  C   UNL A   1      43.868  28.677  32.697  1.00  0.00     0.037 A 
ATOM     43  C   UNL A   1      38.207  32.030  30.607  1.00  0.00     0.037 A 
ATOM     44  C   UNL A   1      43.493  29.791  33.534  1.00  0.00     0.049 A 
ATOM     45  C   UNL A   1      39.014  32.526  31.773  1.00  0.00     0.074 A 
ATOM     46  C   UNL A   1      44.156  30.300  34.641  1.00  0.00     0.029 A 
ATOM     47  N   UNL A   1      42.397  30.609  33.324  1.00  0.00    -0.354 N 
ATOM     48  N   UNL A   1      40.098  32.016  32.302  1.00  0.00    -0.248 NA
ATOM     49  C   UNL A   1      38.519  33.729  32.460  1.00  0.00     0.031 C 
ATOM     50  C   UNL A   1      43.456  31.420  35.103  1.00  0.00     0.029 A 
ATOM     51  C   UNL A   1      42.374  31.625  34.266  1.00  0.00     0.049 A 
ATOM     52  H   UNL A   1      41.730  30.487  32.609  1.00  0.00     0.167 HD
ATOM     53  C   UNL A   1      40.397  32.817  33.398  1.00  0.00     0.074 A 
ATOM     54  C   UNL A   1      39.410  33.875  33.432  1.00  0.00     0.031 C 
ATOM     55  C   UNL A   1      41.388  32.671  34.311  1.00  0.00     0.037 A 
BRANCH  42  56
ATOM     56  C   UNL A   1      45.141  27.956  33.054  1.00  0.00     0.058 A 
ATOM     57  C   UNL A   1      45.158  26.823  33.878  1.00  0.00     0.135 A 
ATOM     58  C   UNL A   1      46.353  28.355  32.463  1.00  0.00     0.135 A 
ATOM     59  F   UNL A   1      44.032  26.409  34.480  1.00  0.00    -0.206 F 
ATOM     60  C   UNL A   1      46.332  26.111  34.109  1.00  0.00     0.059 A 
ATOM     61  C   UNL A   1      47.533  27.645  32.659  1.00  0.00     0.059 A 
ATOM     62  F   UNL A   1      46.391  29.431  31.660  1.00  0.00    -0.206 F 
ATOM     63  C   UNL A   1      47.513  26.526  33.488  1.00  0.00     0.060 A 
BRANCH  63  64
ATOM     64  S   UNL A   1      49.019  25.563  33.754  1.00  0.00     0.124 S 
ATOM     65  O   UNL A   1      48.472  24.233  34.002  1.00  0.00    -0.237 OA
ATOM     66  O   UNL A   1      49.726  25.732  32.489  1.00  0.00    -0.237 OA
ATOM     67  O   UNL A   1      49.638  26.213  34.906  1.00  0.00    -0.744 OA
ENDBRANCH  63  64
ENDBRANCH  42  56
BRANCH  43  68
ATOM     68  C   UNL A   1      36.959  32.741  30.213  1.00  0.00     0.058 A 
ATOM     69  C   UNL A   1      35.742  32.507  30.868  1.00  0.00     0.135 A 
ATOM     70  C   UNL A   1      36.968  33.675  29.164  1.00  0.00     0.135 A 
ATOM     71  F   UNL A   1      35.675  31.600  31.856  1.00  0.00    -0.206 F 
ATOM     72  C   UNL A   1      34.579  33.179  30.504  1.00  0.00     0.059 A 
ATOM     73  C   UNL A   1      35.829  34.384  28.807  1.00  0.00     0.059 A 
ATOM     74  F   UNL A   1      38.107  33.934  28.503  1.00  0.00    -0.206 F 
ATOM     75  C   UNL A   1      34.635  34.123  29.476  1.00  0.00     0.060 A 
BRANCH  75  76
ATOM     76  S   UNL A   1      33.153  35.064  29.054  1.00  0.00     0.124 S 
ATOM     77  O   UNL A   1      32.514  35.203  30.356  1.00  0.00    -0.237 OA
ATOM     78  O   UNL A   1      33.708  36.285  28.479  1.00  0.00    -0.237 OA
ATOM     79  O   UNL A   1      32.472  34.190  28.103  1.00  0.00    -0.744 OA
ENDBRANCH  75  76
ENDBRANCH  43  68
BRANCH  55  80
ATOM     80  C   UNL A   1      41.456  33.683  35.418  1.00  0.00     0.058 A 
ATOM     81  C   UNL A   1      42.235  34.846  35.297  1.00  0.00     0.135 A 
ATOM     82  C   UNL A   1      40.744  33.493  36.612  1.00  0.00     0.135 A 
ATOM     83  F   UNL A   1      42.939  35.071  34.176  1.00  0.00    -0.206 F 
ATOM     84  C   UNL A   1      42.335  35.766  36.335  1.00  0.00     0.059 A 
ATOM     85  C   UNL A   1      40.814  34.410  37.657  1.00  0.00     0.059 A 
ATOM     86  F   UNL A   1      39.978  32.402  36.776  1.00  0.00    -0.206 F 
ATOM     87  C   UNL A   1      41.627  35.535  37.516  1.00  0.00     0.060 A 
BRANCH  87  88
ATOM     88  S   UNL A   1      41.774  36.726  38.865  1.00  0.00     0.124 S 
ATOM     89  O   UNL A   1      42.815  37.615  38.360  1.00  0.00    -0.237 OA
ATOM     90  O   UNL A   1      40.431  37.297  38.931  1.00  0.00    -0.237 OA
ATOM     91  O   UNL A   1      42.152  35.900  40.008  1.00  0.00    -0.744 OA
ENDBRANCH  87  88
ENDBRANCH  55  80
ENDBRANCH  29  30
ENDBRANCH  22  24
ENDBRANCH  21  22
ENDBRANCH  20  21
ENDBRANCH   1  20
TORSDOF 20
ENDMDL
