MODEL 1
REMARK VINA RESULT:     -11.2      0.000      0.000
REMARK SMILES Cc1cc([C@H](C)NC(=O)N2CC[C@H](C(=O)OCCOC(=O)c3ccc(-c4c5nc(c(-c6c(F)cc(S(=O)(=O)[O-])cc6F)c6ccc([nH]6)c(-c6c(F)cc(S(=O)(=O)[O-])cc6F)c6nc(c(-c7c(F)cc(S(=O)(=O)[O-])cc7F)c7ccc4[nH]7)C=C6)C=C5)cc3)[C@@H]2C)c(C)s1
REMARK SMILES IDX 17 1 16 2 14 3 15 4 13 5 10 6 11 7 88 8 12 9 89 10 8 11 7 12
REMARK SMILES IDX 9 14 5 15 6 16 4 17 1 18 2 19 3 20 92 21 90 22 91 23 18 24
REMARK SMILES IDX 19 25 20 26 21 27 22 28 23 29 87 30 24 31 86 32 25 33 26 34
REMARK SMILES IDX 27 35 80 36 28 37 85 38 79 39 81 40 29 41 84 42 78 43 77 44
REMARK SMILES IDX 30 46 64 47 43 48 63 49 44 50 47 51 62 52 82 53 45 54 46 55
REMARK SMILES IDX 61 57 83 58 48 59 31 60 32 61 41 62 33 63 34 64 40 65 42 66
REMARK SMILES IDX 35 67 36 68 37 69 38 70 39 71 65 72 66 73 75 74 67 75 68 76
REMARK SMILES IDX 74 77 76 78 69 79 70 80 71 81 72 82 73 83 49 84 50 85 59 86
REMARK SMILES IDX 51 87 52 88 58 89 60 90 53 91 54 92 55 93 56 94 57 95
REMARK H PARENT 7 13 81 45 47 56
REMARK Flexibility Score: inf
ROOT
ATOM      1  C   UNL A   1      32.757  29.737  26.973  1.00  0.00     0.274 C 
ENDROOT
BRANCH   1   2
ATOM      2  O   UNL A   1      32.055  30.241  25.812  1.00  0.00    -0.462 OA
BRANCH   2   3
ATOM      3  C   UNL A   1      31.463  29.306  25.008  1.00  0.00     0.311 C 
ATOM      4  O   UNL A   1      30.572  29.546  24.206  1.00  0.00    -0.252 OA
BRANCH   3   5
ATOM      5  C   UNL A   1      32.010  27.913  25.307  1.00  0.00     0.123 C 
ATOM      6  N   UNL A   1      31.942  26.339  23.492  1.00  0.00    -0.321 N 
ATOM      7  C   UNL A   1      30.621  26.383  24.101  1.00  0.00     0.122 C 
ATOM      8  C   UNL A   1      32.858  27.245  24.196  1.00  0.00     0.098 C 
ATOM      9  C   UNL A   1      30.862  26.916  25.503  1.00  0.00     0.039 C 
ATOM     10  C   UNL A   1      33.554  28.240  23.289  1.00  0.00     0.032 C 
BRANCH   6  11
ATOM     11  C   UNL A   1      32.103  25.604  22.352  1.00  0.00     0.318 C 
ATOM     12  N   UNL A   1      32.752  24.417  22.353  1.00  0.00    -0.331 N 
ATOM     13  H   UNL A   1      33.426  24.299  21.646  1.00  0.00     0.165 HD
ATOM     14  O   UNL A   1      31.690  26.014  21.266  1.00  0.00    -0.249 OA
BRANCH  12  15
ATOM     15  C   UNL A   1      32.583  23.294  23.260  1.00  0.00     0.112 C 
ATOM     16  C   UNL A   1      32.305  22.020  22.456  1.00  0.00     0.036 C 
BRANCH  15  17
ATOM     17  C   UNL A   1      33.819  23.170  24.144  1.00  0.00    -0.012 A 
ATOM     18  C   UNL A   1      37.413  21.982  24.639  1.00  0.00     0.056 C 
ATOM     19  C   UNL A   1      36.035  22.557  24.695  1.00  0.00     0.002 A 
ATOM     20  C   UNL A   1      35.106  22.690  23.685  1.00  0.00     0.021 A 
ATOM     21  S   UNL A   1      35.435  23.143  26.172  1.00  0.00    -0.146 S 
ATOM     22  C   UNL A   1      33.880  23.432  25.510  1.00  0.00     0.007 A 
ATOM     23  C   UNL A   1      32.829  23.906  26.457  1.00  0.00     0.057 C 
ENDBRANCH  15  17
ENDBRANCH  12  15
ENDBRANCH   6  11
ENDBRANCH   3   5
ENDBRANCH   2   3
ENDBRANCH   1   2
BRANCH   1  24
ATOM     24  C   UNL A   1      34.032  30.539  27.244  1.00  0.00     0.275 C 
BRANCH  24  25
ATOM     25  O   UNL A   1      34.841  29.819  28.184  1.00  0.00    -0.458 OA
BRANCH  25  26
ATOM     26  C   UNL A   1      35.711  30.557  28.920  1.00  0.00     0.338 C 
ATOM     27  O   UNL A   1      35.420  31.510  29.622  1.00  0.00    -0.246 OA
BRANCH  26  28
ATOM     28  C   UNL A   1      37.072  29.951  28.854  1.00  0.00     0.060 A 
ATOM     29  C   UNL A   1      37.740  29.559  30.016  1.00  0.00     0.016 A 
ATOM     30  C   UNL A   1      37.756  29.919  27.635  1.00  0.00     0.016 A 
ATOM     31  C   UNL A   1      39.099  29.256  29.974  1.00  0.00     0.010 A 
ATOM     32  C   UNL A   1      39.093  29.495  27.585  1.00  0.00     0.010 A 
ATOM     33  C   UNL A   1      39.795  29.183  28.760  1.00  0.00    -0.014 A 
BRANCH  33  34
ATOM     34  C   UNL A   1      41.228  28.754  28.733  1.00  0.00     0.031 A 
ATOM     35  C   UNL A   1      42.350  29.725  29.015  1.00  0.00     0.074 A 
ATOM     36  C   UNL A   1      41.543  27.470  28.457  1.00  0.00     0.049 A 
ATOM     37  N   UNL A   1      43.640  29.566  28.846  1.00  0.00    -0.248 NA
ATOM     38  C   UNL A   1      41.982  31.047  29.550  1.00  0.00     0.031 C 
ATOM     39  C   UNL A   1      40.582  26.390  28.216  1.00  0.00     0.029 A 
ATOM     40  N   UNL A   1      42.764  26.850  28.328  1.00  0.00    -0.354 N 
ATOM     41  C   UNL A   1      44.234  30.762  29.232  1.00  0.00     0.074 A 
ATOM     42  C   UNL A   1      43.162  31.649  29.636  1.00  0.00     0.031 C 
ATOM     43  C   UNL A   1      41.241  25.244  28.017  1.00  0.00     0.029 A 
ATOM     44  C   UNL A   1      42.671  25.522  27.981  1.00  0.00     0.049 A 
ATOM     45  H   UNL A   1      43.622  27.312  28.468  1.00  0.00     0.167 HD
ATOM     46  C   UNL A   1      45.549  31.090  29.245  1.00  0.00     0.037 A 
ATOM     47  C   UNL A   1      43.605  24.632  27.598  1.00  0.00     0.037 A 
ATOM     48  C   UNL A   1      46.622  30.207  28.857  1.00  0.00     0.049 A 
ATOM     49  C   UNL A   1      45.036  25.058  27.487  1.00  0.00     0.074 A 
ATOM     50  C   UNL A   1      47.985  30.463  28.850  1.00  0.00     0.029 A 
ATOM     51  N   UNL A   1      46.464  28.906  28.406  1.00  0.00    -0.354 N 
ATOM     52  N   UNL A   1      45.573  26.216  27.779  1.00  0.00    -0.248 NA
ATOM     53  C   UNL A   1      45.982  24.068  26.957  1.00  0.00     0.031 C 
ATOM     54  C   UNL A   1      48.645  29.335  28.349  1.00  0.00     0.029 A 
ATOM     55  C   UNL A   1      47.698  28.360  28.086  1.00  0.00     0.049 A 
ATOM     56  H   UNL A   1      45.601  28.439  28.326  1.00  0.00     0.167 HD
ATOM     57  C   UNL A   1      46.920  26.098  27.464  1.00  0.00     0.074 A 
ATOM     58  C   UNL A   1      47.121  24.748  26.978  1.00  0.00     0.031 C 
ATOM     59  C   UNL A   1      47.897  27.031  27.569  1.00  0.00     0.037 A 
BRANCH  46  60
ATOM     60  C   UNL A   1      45.926  32.483  29.664  1.00  0.00     0.058 A 
ATOM     61  C   UNL A   1      46.026  33.532  28.739  1.00  0.00     0.135 A 
ATOM     62  C   UNL A   1      46.085  32.790  31.027  1.00  0.00     0.135 A 
ATOM     63  F   UNL A   1      45.907  33.290  27.425  1.00  0.00    -0.206 F 
ATOM     64  C   UNL A   1      46.264  34.839  29.151  1.00  0.00     0.059 A 
ATOM     65  C   UNL A   1      46.313  34.092  31.461  1.00  0.00     0.059 A 
ATOM     66  F   UNL A   1      46.000  31.820  31.951  1.00  0.00    -0.206 F 
ATOM     67  C   UNL A   1      46.404  35.110  30.514  1.00  0.00     0.060 A 
BRANCH  67  68
ATOM     68  S   UNL A   1      46.706  36.813  31.026  1.00  0.00     0.124 S 
ATOM     69  O   UNL A   1      47.836  37.173  30.173  1.00  0.00    -0.237 OA
ATOM     70  O   UNL A   1      45.439  37.464  30.706  1.00  0.00    -0.237 OA
ATOM     71  O   UNL A   1      47.007  36.696  32.449  1.00  0.00    -0.744 OA
ENDBRANCH  67  68
ENDBRANCH  46  60
BRANCH  47  72
ATOM     72  C   UNL A   1      43.174  23.270  27.188  1.00  0.00     0.058 A 
ATOM     73  C   UNL A   1      43.088  22.909  25.838  1.00  0.00     0.135 A 
ATOM     74  C   UNL A   1      42.911  22.283  28.153  1.00  0.00     0.135 A 
ATOM     75  F   UNL A   1      43.309  23.824  24.882  1.00  0.00    -0.206 F 
ATOM     76  C   UNL A   1      42.780  21.608  25.456  1.00  0.00     0.059 A 
ATOM     77  C   UNL A   1      42.632  20.970  27.796  1.00  0.00     0.059 A 
ATOM     78  F   UNL A   1      42.987  22.582  29.459  1.00  0.00    -0.206 F 
ATOM     79  C   UNL A   1      42.567  20.642  26.443  1.00  0.00     0.060 A 
BRANCH  79  80
ATOM     80  S   UNL A   1      42.284  18.927  25.952  1.00  0.00     0.124 S 
ATOM     81  O   UNL A   1      40.846  18.926  25.713  1.00  0.00    -0.237 OA
ATOM     82  O   UNL A   1      43.129  18.796  24.769  1.00  0.00    -0.237 OA
ATOM     83  O   UNL A   1      42.734  18.171  27.117  1.00  0.00    -0.744 OA
ENDBRANCH  79  80
ENDBRANCH  47  72
BRANCH  59  84
ATOM     84  C   UNL A   1      49.278  26.618  27.149  1.00  0.00     0.058 A 
ATOM     85  C   UNL A   1      50.182  26.053  28.062  1.00  0.00     0.135 A 
ATOM     86  C   UNL A   1      49.706  26.791  25.823  1.00  0.00     0.135 A 
ATOM     87  F   UNL A   1      49.825  25.877  29.344  1.00  0.00    -0.206 F 
ATOM     88  C   UNL A   1      51.474  25.700  27.683  1.00  0.00     0.059 A 
ATOM     89  C   UNL A   1      50.986  26.426  25.416  1.00  0.00     0.059 A 
ATOM     90  F   UNL A   1      48.879  27.321  24.909  1.00  0.00    -0.206 F 
ATOM     91  C   UNL A   1      51.868  25.897  26.358  1.00  0.00     0.060 A 
BRANCH  91  92
ATOM     92  S   UNL A   1      53.547  25.439  25.874  1.00  0.00     0.124 S 
ATOM     93  O   UNL A   1      54.226  25.408  27.165  1.00  0.00    -0.237 OA
ATOM     94  O   UNL A   1      53.349  24.144  25.231  1.00  0.00    -0.237 OA
ATOM     95  O   UNL A   1      53.948  26.521  24.979  1.00  0.00    -0.744 OA
ENDBRANCH  91  92
ENDBRANCH  59  84
ENDBRANCH  33  34
ENDBRANCH  26  28
ENDBRANCH  25  26
ENDBRANCH  24  25
ENDBRANCH   1  24
TORSDOF 17
ENDMDL
MODEL 2
REMARK VINA RESULT:     -11.1      1.877      2.575
REMARK SMILES Cc1cc([C@H](C)NC(=O)N2CC[C@H](C(=O)OCCOC(=O)c3ccc(-c4c5nc(c(-c6c(F)cc(S(=O)(=O)[O-])cc6F)c6ccc([nH]6)c(-c6c(F)cc(S(=O)(=O)[O-])cc6F)c6nc(c(-c7c(F)cc(S(=O)(=O)[O-])cc7F)c7ccc4[nH]7)C=C6)C=C5)cc3)[C@@H]2C)c(C)s1
REMARK SMILES IDX 17 1 16 2 14 3 15 4 13 5 10 6 11 7 88 8 12 9 89 10 8 11 7 12
REMARK SMILES IDX 9 14 5 15 6 16 4 17 1 18 2 19 3 20 92 21 90 22 91 23 18 24
REMARK SMILES IDX 19 25 20 26 21 27 22 28 23 29 87 30 24 31 86 32 25 33 26 34
REMARK SMILES IDX 27 35 80 36 28 37 85 38 79 39 81 40 29 41 84 42 78 43 77 44
REMARK SMILES IDX 30 46 64 47 43 48 63 49 44 50 47 51 62 52 82 53 45 54 46 55
REMARK SMILES IDX 61 57 83 58 48 59 31 60 32 61 41 62 33 63 34 64 40 65 42 66
REMARK SMILES IDX 35 67 36 68 37 69 38 70 39 71 65 72 66 73 75 74 67 75 68 76
REMARK SMILES IDX 74 77 76 78 69 79 70 80 71 81 72 82 73 83 49 84 50 85 59 86
REMARK SMILES IDX 51 87 52 88 58 89 60 90 53 91 54 92 55 93 56 94 57 95
REMARK H PARENT 7 13 81 45 47 56
REMARK Flexibility Score: inf
ROOT
ATOM      1  C   UNL A   1      33.103  29.508  25.620  1.00  0.00     0.274 C 
ENDROOT
BRANCH   1   2
ATOM      2  O   UNL A   1      33.418  28.376  24.775  1.00  0.00    -0.462 OA
BRANCH   2   3
ATOM      3  C   UNL A   1      32.358  27.762  24.166  1.00  0.00     0.311 C 
ATOM      4  O   UNL A   1      31.261  28.276  24.001  1.00  0.00    -0.252 OA
BRANCH   3   5
ATOM      5  C   UNL A   1      32.709  26.325  23.792  1.00  0.00     0.123 C 
ATOM      6  N   UNL A   1      32.219  24.653  25.448  1.00  0.00    -0.321 N 
ATOM      7  C   UNL A   1      33.480  25.286  25.804  1.00  0.00     0.122 C 
ATOM      8  C   UNL A   1      31.692  25.231  24.205  1.00  0.00     0.098 C 
ATOM      9  C   UNL A   1      33.992  25.882  24.504  1.00  0.00     0.039 C 
ATOM     10  C   UNL A   1      30.270  25.742  24.321  1.00  0.00     0.032 C 
BRANCH   6  11
ATOM     11  C   UNL A   1      31.676  23.756  26.323  1.00  0.00     0.318 C 
ATOM     12  N   UNL A   1      31.864  22.424  26.190  1.00  0.00    -0.331 N 
ATOM     13  H   UNL A   1      31.054  21.869  26.264  1.00  0.00     0.165 HD
ATOM     14  O   UNL A   1      30.962  24.129  27.256  1.00  0.00    -0.249 OA
BRANCH  12  15
ATOM     15  C   UNL A   1      33.104  21.704  25.951  1.00  0.00     0.112 C 
ATOM     16  C   UNL A   1      33.814  21.446  27.285  1.00  0.00     0.036 C 
BRANCH  15  17
ATOM     17  C   UNL A   1      32.802  20.417  25.192  1.00  0.00    -0.012 A 
ATOM     18  C   UNL A   1      32.818  16.604  25.025  1.00  0.00     0.056 C 
ATOM     19  C   UNL A   1      32.685  18.081  24.848  1.00  0.00     0.002 A 
ATOM     20  C   UNL A   1      32.892  19.090  25.764  1.00  0.00     0.021 A 
ATOM     21  S   UNL A   1      32.230  18.701  23.333  1.00  0.00    -0.146 S 
ATOM     22  C   UNL A   1      32.461  20.321  23.845  1.00  0.00     0.007 A 
ATOM     23  C   UNL A   1      32.278  21.381  22.810  1.00  0.00     0.057 C 
ENDBRANCH  15  17
ENDBRANCH  12  15
ENDBRANCH   6  11
ENDBRANCH   3   5
ENDBRANCH   2   3
ENDBRANCH   1   2
BRANCH   1  24
ATOM     24  C   UNL A   1      32.828  29.069  27.060  1.00  0.00     0.275 C 
BRANCH  24  25
ATOM     25  O   UNL A   1      34.073  28.988  27.766  1.00  0.00    -0.458 OA
BRANCH  25  26
ATOM     26  C   UNL A   1      34.622  30.167  28.156  1.00  0.00     0.338 C 
ATOM     27  O   UNL A   1      34.009  31.190  28.409  1.00  0.00    -0.246 OA
BRANCH  26  28
ATOM     28  C   UNL A   1      36.090  29.998  28.364  1.00  0.00     0.060 A 
ATOM     29  C   UNL A   1      36.987  30.151  27.304  1.00  0.00     0.016 A 
ATOM     30  C   UNL A   1      36.563  29.527  29.592  1.00  0.00     0.016 A 
ATOM     31  C   UNL A   1      38.307  29.727  27.438  1.00  0.00     0.010 A 
ATOM     32  C   UNL A   1      37.923  29.217  29.753  1.00  0.00     0.010 A 
ATOM     33  C   UNL A   1      38.812  29.285  28.668  1.00  0.00    -0.014 A 
BRANCH  33  34
ATOM     34  C   UNL A   1      40.259  28.934  28.811  1.00  0.00     0.031 A 
ATOM     35  C   UNL A   1      41.281  29.956  29.251  1.00  0.00     0.074 A 
ATOM     36  C   UNL A   1      40.678  27.677  28.550  1.00  0.00     0.049 A 
ATOM     37  N   UNL A   1      42.589  29.871  29.241  1.00  0.00    -0.248 NA
ATOM     38  C   UNL A   1      40.776  31.241  29.762  1.00  0.00     0.031 C 
ATOM     39  C   UNL A   1      39.816  26.555  28.170  1.00  0.00     0.029 A 
ATOM     40  N   UNL A   1      41.939  27.127  28.561  1.00  0.00    -0.354 N 
ATOM     41  C   UNL A   1      43.063  31.086  29.722  1.00  0.00     0.074 A 
ATOM     42  C   UNL A   1      41.901  31.903  30.007  1.00  0.00     0.031 C 
ATOM     43  C   UNL A   1      40.559  25.451  28.030  1.00  0.00     0.029 A 
ATOM     44  C   UNL A   1      41.964  25.806  28.179  1.00  0.00     0.049 A 
ATOM     45  H   UNL A   1      42.745  27.630  28.817  1.00  0.00     0.167 HD
ATOM     46  C   UNL A   1      44.345  31.483  29.905  1.00  0.00     0.037 A 
ATOM     47  C   UNL A   1      42.987  24.977  27.897  1.00  0.00     0.037 A 
ATOM     48  C   UNL A   1      45.507  30.670  29.636  1.00  0.00     0.049 A 
ATOM     49  C   UNL A   1      44.394  25.482  27.974  1.00  0.00     0.074 A 
ATOM     50  C   UNL A   1      46.843  30.998  29.804  1.00  0.00     0.029 A 
ATOM     51  N   UNL A   1      45.478  29.375  29.143  1.00  0.00    -0.354 N 
ATOM     52  N   UNL A   1      44.825  26.660  28.355  1.00  0.00    -0.248 NA
ATOM     53  C   UNL A   1      45.453  24.559  27.546  1.00  0.00     0.031 C 
ATOM     54  C   UNL A   1      47.622  29.921  29.366  1.00  0.00     0.029 A 
ATOM     55  C   UNL A   1      46.771  28.905  28.967  1.00  0.00     0.049 A 
ATOM     56  H   UNL A   1      44.660  28.864  28.946  1.00  0.00     0.167 HD
ATOM     57  C   UNL A   1      46.205  26.621  28.207  1.00  0.00     0.074 A 
ATOM     58  C   UNL A   1      46.540  25.299  27.723  1.00  0.00     0.031 C 
ATOM     59  C   UNL A   1      47.108  27.602  28.453  1.00  0.00     0.037 A 
BRANCH  46  60
ATOM     60  C   UNL A   1      44.589  32.882  30.396  1.00  0.00     0.058 A 
ATOM     61  C   UNL A   1      44.598  33.981  29.525  1.00  0.00     0.135 A 
ATOM     62  C   UNL A   1      44.709  33.134  31.774  1.00  0.00     0.135 A 
ATOM     63  F   UNL A   1      44.511  33.795  28.199  1.00  0.00    -0.206 F 
ATOM     64  C   UNL A   1      44.710  35.282  30.004  1.00  0.00     0.059 A 
ATOM     65  C   UNL A   1      44.812  34.428  32.274  1.00  0.00     0.059 A 
ATOM     66  F   UNL A   1      44.707  32.116  32.649  1.00  0.00    -0.206 F 
ATOM     67  C   UNL A   1      44.815  35.496  31.380  1.00  0.00     0.060 A 
BRANCH  67  68
ATOM     68  S   UNL A   1      44.954  37.193  31.978  1.00  0.00     0.124 S 
ATOM     69  O   UNL A   1      45.474  37.873  30.795  1.00  0.00    -0.237 OA
ATOM     70  O   UNL A   1      43.575  37.511  32.336  1.00  0.00    -0.237 OA
ATOM     71  O   UNL A   1      45.882  37.086  33.099  1.00  0.00    -0.744 OA
ENDBRANCH  67  68
ENDBRANCH  46  60
BRANCH  47  72
ATOM     72  C   UNL A   1      42.687  23.606  27.408  1.00  0.00     0.058 A 
ATOM     73  C   UNL A   1      42.707  23.299  26.043  1.00  0.00     0.135 A 
ATOM     74  C   UNL A   1      42.448  22.561  28.316  1.00  0.00     0.135 A 
ATOM     75  F   UNL A   1      42.909  24.270  25.138  1.00  0.00    -0.206 F 
ATOM     76  C   UNL A   1      42.523  21.996  25.592  1.00  0.00     0.059 A 
ATOM     77  C   UNL A   1      42.293  21.248  27.892  1.00  0.00     0.059 A 
ATOM     78  F   UNL A   1      42.426  22.808  29.636  1.00  0.00    -0.206 F 
ATOM     79  C   UNL A   1      42.331  20.975  26.526  1.00  0.00     0.060 A 
BRANCH  79  80
ATOM     80  S   UNL A   1      42.210  19.267  25.952  1.00  0.00     0.124 S 
ATOM     81  O   UNL A   1      42.683  18.533  27.119  1.00  0.00    -0.237 OA
ATOM     82  O   UNL A   1      40.788  19.137  25.648  1.00  0.00    -0.237 OA
ATOM     83  O   UNL A   1      43.093  19.246  24.789  1.00  0.00    -0.744 OA
ENDBRANCH  79  80
ENDBRANCH  47  72
BRANCH  59  84
ATOM     84  C   UNL A   1      48.551  27.276  28.199  1.00  0.00     0.058 A 
ATOM     85  C   UNL A   1      49.109  27.378  26.915  1.00  0.00     0.135 A 
ATOM     86  C   UNL A   1      49.385  26.854  29.247  1.00  0.00     0.135 A 
ATOM     87  F   UNL A   1      48.351  27.767  25.878  1.00  0.00    -0.206 F 
ATOM     88  C   UNL A   1      50.438  27.045  26.672  1.00  0.00     0.059 A 
ATOM     89  C   UNL A   1      50.723  26.535  29.030  1.00  0.00     0.059 A 
ATOM     90  F   UNL A   1      48.903  26.745  30.494  1.00  0.00    -0.206 F 
ATOM     91  C   UNL A   1      51.236  26.618  27.735  1.00  0.00     0.060 A 
BRANCH  91  92
ATOM     92  S   UNL A   1      52.958  26.184  27.410  1.00  0.00     0.124 S 
ATOM     93  O   UNL A   1      53.482  26.030  28.764  1.00  0.00    -0.237 OA
ATOM     94  O   UNL A   1      52.833  24.952  26.637  1.00  0.00    -0.237 OA
ATOM     95  O   UNL A   1      53.463  27.334  26.667  1.00  0.00    -0.744 OA
ENDBRANCH  91  92
ENDBRANCH  59  84
ENDBRANCH  33  34
ENDBRANCH  26  28
ENDBRANCH  25  26
ENDBRANCH  24  25
ENDBRANCH   1  24
TORSDOF 17
ENDMDL
MODEL 3
REMARK VINA RESULT:     -11.0      5.938     11.423
REMARK SMILES Cc1cc([C@H](C)NC(=O)N2CC[C@H](C(=O)OCCOC(=O)c3ccc(-c4c5nc(c(-c6c(F)cc(S(=O)(=O)[O-])cc6F)c6ccc([nH]6)c(-c6c(F)cc(S(=O)(=O)[O-])cc6F)c6nc(c(-c7c(F)cc(S(=O)(=O)[O-])cc7F)c7ccc4[nH]7)C=C6)C=C5)cc3)[C@@H]2C)c(C)s1
REMARK SMILES IDX 17 1 16 2 14 3 15 4 13 5 10 6 11 7 88 8 12 9 89 10 8 11 7 12
REMARK SMILES IDX 9 14 5 15 6 16 4 17 1 18 2 19 3 20 92 21 90 22 91 23 18 24
REMARK SMILES IDX 19 25 20 26 21 27 22 28 23 29 87 30 24 31 86 32 25 33 26 34
REMARK SMILES IDX 27 35 80 36 28 37 85 38 79 39 81 40 29 41 84 42 78 43 77 44
REMARK SMILES IDX 30 46 64 47 43 48 63 49 44 50 47 51 62 52 82 53 45 54 46 55
REMARK SMILES IDX 61 57 83 58 48 59 31 60 32 61 41 62 33 63 34 64 40 65 42 66
REMARK SMILES IDX 35 67 36 68 37 69 38 70 39 71 65 72 66 73 75 74 67 75 68 76
REMARK SMILES IDX 74 77 76 78 69 79 70 80 71 81 72 82 73 83 49 84 50 85 59 86
REMARK SMILES IDX 51 87 52 88 58 89 60 90 53 91 54 92 55 93 56 94 57 95
REMARK H PARENT 7 13 81 45 47 56
REMARK Flexibility Score: inf
ROOT
ATOM      1  C   UNL A   1      37.368  22.560  25.422  1.00  0.00     0.274 C 
ENDROOT
BRANCH   1   2
ATOM      2  O   UNL A   1      36.722  21.266  25.466  1.00  0.00    -0.462 OA
BRANCH   2   3
ATOM      3  C   UNL A   1      35.395  21.240  25.137  1.00  0.00     0.311 C 
ATOM      4  O   UNL A   1      34.735  20.220  24.998  1.00  0.00    -0.252 OA
BRANCH   3   5
ATOM      5  C   UNL A   1      34.872  22.652  24.889  1.00  0.00     0.123 C 
ATOM      6  N   UNL A   1      32.500  22.957  25.125  1.00  0.00    -0.321 N 
ATOM      7  C   UNL A   1      32.754  22.395  23.807  1.00  0.00     0.122 C 
ATOM      8  C   UNL A   1      33.764  23.161  25.844  1.00  0.00     0.098 C 
ATOM      9  C   UNL A   1      34.203  22.744  23.513  1.00  0.00     0.039 C 
ATOM     10  C   UNL A   1      33.801  22.511  27.212  1.00  0.00     0.032 C 
BRANCH   6  11
ATOM     11  C   UNL A   1      31.203  23.094  25.529  1.00  0.00     0.318 C 
ATOM     12  N   UNL A   1      30.593  24.300  25.578  1.00  0.00    -0.331 N 
ATOM     13  H   UNL A   1      30.099  24.496  26.407  1.00  0.00     0.165 HD
ATOM     14  O   UNL A   1      30.544  22.121  25.898  1.00  0.00    -0.249 OA
BRANCH  12  15
ATOM     15  C   UNL A   1      30.570  25.345  24.568  1.00  0.00     0.112 C 
ATOM     16  C   UNL A   1      29.198  26.028  24.565  1.00  0.00     0.036 C 
BRANCH  15  17
ATOM     17  C   UNL A   1      31.709  26.323  24.828  1.00  0.00    -0.012 A 
ATOM     18  C   UNL A   1      33.646  28.565  27.235  1.00  0.00     0.056 C 
ATOM     19  C   UNL A   1      33.080  27.761  26.111  1.00  0.00     0.002 A 
ATOM     20  C   UNL A   1      32.100  26.791  26.141  1.00  0.00     0.021 A 
ATOM     21  S   UNL A   1      33.652  28.015  24.532  1.00  0.00    -0.146 S 
ATOM     22  C   UNL A   1      32.489  26.951  23.859  1.00  0.00     0.007 A 
ATOM     23  C   UNL A   1      32.463  26.844  22.372  1.00  0.00     0.057 C 
ENDBRANCH  15  17
ENDBRANCH  12  15
ENDBRANCH   6  11
ENDBRANCH   3   5
ENDBRANCH   2   3
ENDBRANCH   1   2
BRANCH   1  24
ATOM     24  C   UNL A   1      38.701  22.542  26.174  1.00  0.00     0.275 C 
BRANCH  24  25
ATOM     25  O   UNL A   1      39.080  23.892  26.477  1.00  0.00    -0.458 OA
BRANCH  25  26
ATOM     26  C   UNL A   1      40.394  24.103  26.744  1.00  0.00     0.338 C 
ATOM     27  O   UNL A   1      41.332  23.619  26.134  1.00  0.00    -0.246 OA
BRANCH  26  28
ATOM     28  C   UNL A   1      40.534  25.128  27.819  1.00  0.00     0.060 A 
ATOM     29  C   UNL A   1      39.467  25.425  28.671  1.00  0.00     0.016 A 
ATOM     30  C   UNL A   1      41.688  25.915  27.877  1.00  0.00     0.016 A 
ATOM     31  C   UNL A   1      39.511  26.558  29.479  1.00  0.00     0.010 A 
ATOM     32  C   UNL A   1      41.769  26.984  28.782  1.00  0.00     0.010 A 
ATOM     33  C   UNL A   1      40.670  27.341  29.579  1.00  0.00    -0.014 A 
BRANCH  33  34
ATOM     34  C   UNL A   1      40.726  28.493  30.532  1.00  0.00     0.031 A 
ATOM     35  C   UNL A   1      41.764  28.563  31.627  1.00  0.00     0.074 A 
ATOM     36  C   UNL A   1      39.838  29.504  30.421  1.00  0.00     0.049 A 
ATOM     37  N   UNL A   1      41.833  29.385  32.646  1.00  0.00    -0.248 NA
ATOM     38  C   UNL A   1      42.864  27.586  31.580  1.00  0.00     0.031 C 
ATOM     39  C   UNL A   1      38.806  29.622  29.387  1.00  0.00     0.029 A 
ATOM     40  N   UNL A   1      39.655  30.631  31.189  1.00  0.00    -0.354 N 
ATOM     41  C   UNL A   1      42.963  29.017  33.368  1.00  0.00     0.074 A 
ATOM     42  C   UNL A   1      43.548  27.886  32.677  1.00  0.00     0.031 C 
ATOM     43  C   UNL A   1      38.136  30.767  29.556  1.00  0.00     0.029 A 
ATOM     44  C   UNL A   1      38.595  31.406  30.783  1.00  0.00     0.049 A 
ATOM     45  H   UNL A   1      40.228  30.860  31.956  1.00  0.00     0.167 HD
ATOM     46  C   UNL A   1      43.461  29.569  34.500  1.00  0.00     0.037 A 
ATOM     47  C   UNL A   1      37.991  32.465  31.355  1.00  0.00     0.037 A 
ATOM     48  C   UNL A   1      42.890  30.704  35.185  1.00  0.00     0.049 A 
ATOM     49  C   UNL A   1      38.477  32.971  32.677  1.00  0.00     0.074 A 
ATOM     50  C   UNL A   1      43.343  31.329  36.337  1.00  0.00     0.029 A 
ATOM     51  N   UNL A   1      41.749  31.383  34.791  1.00  0.00    -0.354 N 
ATOM     52  N   UNL A   1      39.499  32.562  33.389  1.00  0.00    -0.248 NA
ATOM     53  C   UNL A   1      37.704  34.056  33.295  1.00  0.00     0.031 C 
ATOM     54  C   UNL A   1      42.448  32.353  36.666  1.00  0.00     0.029 A 
ATOM     55  C   UNL A   1      41.462  32.396  35.695  1.00  0.00     0.049 A 
ATOM     56  H   UNL A   1      41.219  31.177  33.987  1.00  0.00     0.167 HD
ATOM     57  C   UNL A   1      39.489  33.336  34.540  1.00  0.00     0.074 A 
ATOM     58  C   UNL A   1      38.373  34.252  34.424  1.00  0.00     0.031 C 
ATOM     59  C   UNL A   1      40.334  33.285  35.599  1.00  0.00     0.037 A 
BRANCH  46  60
ATOM     60  C   UNL A   1      44.682  28.942  35.114  1.00  0.00     0.058 A 
ATOM     61  C   UNL A   1      44.588  27.892  36.038  1.00  0.00     0.135 A 
ATOM     62  C   UNL A   1      45.964  29.331  34.688  1.00  0.00     0.135 A 
ATOM     63  F   UNL A   1      43.391  27.497  36.496  1.00  0.00    -0.206 F 
ATOM     64  C   UNL A   1      45.724  27.243  36.513  1.00  0.00     0.059 A 
ATOM     65  C   UNL A   1      47.111  28.689  35.142  1.00  0.00     0.059 A 
ATOM     66  F   UNL A   1      46.106  30.333  33.805  1.00  0.00    -0.206 F 
ATOM     67  C   UNL A   1      46.980  27.647  36.058  1.00  0.00     0.060 A 
BRANCH  67  68
ATOM     68  S   UNL A   1      48.439  26.789  36.683  1.00  0.00     0.124 S 
ATOM     69  O   UNL A   1      48.717  27.545  37.901  1.00  0.00    -0.237 OA
ATOM     70  O   UNL A   1      47.940  25.431  36.882  1.00  0.00    -0.237 OA
ATOM     71  O   UNL A   1      49.416  26.946  35.611  1.00  0.00    -0.744 OA
ENDBRANCH  67  68
ENDBRANCH  46  60
BRANCH  47  72
ATOM     72  C   UNL A   1      36.784  33.040  30.707  1.00  0.00     0.058 A 
ATOM     73  C   UNL A   1      35.499  32.777  31.197  1.00  0.00     0.135 A 
ATOM     74  C   UNL A   1      36.909  33.928  29.625  1.00  0.00     0.135 A 
ATOM     75  F   UNL A   1      35.331  31.919  32.214  1.00  0.00    -0.206 F 
ATOM     76  C   UNL A   1      34.378  33.393  30.652  1.00  0.00     0.059 A 
ATOM     77  C   UNL A   1      35.807  34.578  29.085  1.00  0.00     0.059 A 
ATOM     78  F   UNL A   1      38.121  34.215  29.126  1.00  0.00    -0.206 F 
ATOM     79  C   UNL A   1      34.544  34.303  29.605  1.00  0.00     0.060 A 
BRANCH  79  80
ATOM     80  S   UNL A   1      33.104  35.193  28.974  1.00  0.00     0.124 S 
ATOM     81  O   UNL A   1      33.723  36.383  28.405  1.00  0.00    -0.237 OA
ATOM     82  O   UNL A   1      32.543  34.244  28.017  1.00  0.00    -0.237 OA
ATOM     83  O   UNL A   1      32.298  35.409  30.172  1.00  0.00    -0.744 OA
ENDBRANCH  79  80
ENDBRANCH  47  72
BRANCH  59  84
ATOM     84  C   UNL A   1      40.080  34.254  36.719  1.00  0.00     0.058 A 
ATOM     85  C   UNL A   1      39.220  33.934  37.780  1.00  0.00     0.135 A 
ATOM     86  C   UNL A   1      40.699  35.514  36.731  1.00  0.00     0.135 A 
ATOM     87  F   UNL A   1      38.596  32.746  37.810  1.00  0.00    -0.206 F 
ATOM     88  C   UNL A   1      38.957  34.842  38.802  1.00  0.00     0.059 A 
ATOM     89  C   UNL A   1      40.467  36.430  37.753  1.00  0.00     0.059 A 
ATOM     90  F   UNL A   1      41.535  35.866  35.743  1.00  0.00    -0.206 F 
ATOM     91  C   UNL A   1      39.581  36.091  38.775  1.00  0.00     0.060 A 
BRANCH  91  92
ATOM     92  S   UNL A   1      39.233  37.265  40.103  1.00  0.00     0.124 S 
ATOM     93  O   UNL A   1      40.576  37.700  40.470  1.00  0.00    -0.237 OA
ATOM     94  O   UNL A   1      38.405  38.262  39.433  1.00  0.00    -0.237 OA
ATOM     95  O   UNL A   1      38.541  36.453  41.099  1.00  0.00    -0.744 OA
ENDBRANCH  91  92
ENDBRANCH  59  84
ENDBRANCH  33  34
ENDBRANCH  26  28
ENDBRANCH  25  26
ENDBRANCH  24  25
ENDBRANCH   1  24
TORSDOF 17
ENDMDL
