MODEL 1
REMARK VINA RESULT:     -10.7      0.000      0.000
REMARK SMILES CC(C)C[C@@H](NS(=O)(=O)/C=C/c1ccc(Cl)cc1)C(=O)OCCOC(=O)c1ccc(-c2c3nc(c(-c4c(F)cc(S(=O)(=O)[O-])cc4F)c4ccc([nH]4)c(-c4c(F)cc(S(=O)(=O)[O-])cc4F)c4nc(c(-c5c(F)cc(S(=O)(=O)[O-])cc5F)c5ccc2[nH]5)C=C4)C=C3)cc1
REMARK SMILES IDX 22 1 21 2 19 3 20 4 5 5 4 6 2 7 1 8 3 9 6 10 7 12 8 13 9 14
REMARK SMILES IDX 10 15 11 16 12 17 13 18 18 19 14 20 17 21 15 22 16 23 23 24
REMARK SMILES IDX 24 25 25 26 26 27 27 28 28 29 92 30 29 31 91 32 30 33 31 34
REMARK SMILES IDX 32 35 85 36 33 37 90 38 84 39 86 40 34 41 89 42 83 43 82 44
REMARK SMILES IDX 35 46 69 47 48 48 68 49 49 50 52 51 67 52 87 53 50 54 51 55
REMARK SMILES IDX 66 57 88 58 53 59 36 60 37 61 46 62 38 63 39 64 45 65 47 66
REMARK SMILES IDX 40 67 41 68 42 69 43 70 44 71 70 72 71 73 80 74 72 75 73 76
REMARK SMILES IDX 79 77 81 78 74 79 75 80 76 81 77 82 78 83 54 84 55 85 64 86
REMARK SMILES IDX 56 87 57 88 63 89 65 90 58 91 59 92 60 93 61 94 62 95
REMARK H PARENT 6 11 86 45 52 56
REMARK Flexibility Score: inf
ROOT
ATOM      1  C   UNL A   1      36.213  20.966  24.994  1.00  0.00     0.274 C 
ENDROOT
BRANCH   1   2
ATOM      2  O   UNL A   1      35.268  21.385  25.993  1.00  0.00    -0.461 OA
BRANCH   2   3
ATOM      3  C   UNL A   1      33.981  20.982  25.810  1.00  0.00     0.324 C 
ATOM      4  O   UNL A   1      33.593  19.827  25.927  1.00  0.00    -0.250 OA
BRANCH   3   5
ATOM      5  C   UNL A   1      33.043  22.091  25.368  1.00  0.00     0.180 C 
BRANCH   5   6
ATOM      6  C   UNL A   1      33.108  22.266  23.841  1.00  0.00     0.035 C 
BRANCH   6   7
ATOM      7  C   UNL A   1      33.670  23.599  23.300  1.00  0.00    -0.015 C 
ATOM      8  C   UNL A   1      32.695  24.369  22.406  1.00  0.00     0.007 C 
ATOM      9  C   UNL A   1      34.042  24.493  24.495  1.00  0.00     0.007 C 
ENDBRANCH   6   7
ENDBRANCH   5   6
BRANCH   5  10
ATOM     10  N   UNL A   1      31.665  21.790  25.867  1.00  0.00    -0.197 NA
ATOM     11  H   UNL A   1      31.747  21.091  26.606  1.00  0.00     0.142 HD
BRANCH  10  12
ATOM     12  S   UNL A   1      30.785  23.128  26.503  1.00  0.00     0.234 S 
ATOM     13  O   UNL A   1      29.550  22.565  26.992  1.00  0.00    -0.208 OA
ATOM     14  O   UNL A   1      31.716  23.739  27.436  1.00  0.00    -0.208 OA
BRANCH  12  15
ATOM     15  C   UNL A   1      30.421  24.282  25.258  1.00  0.00     0.123 C 
ATOM     16  C   UNL A   1      30.543  25.598  25.482  1.00  0.00     0.021 C 
BRANCH  16  17
ATOM     17  C   UNL A   1      30.389  26.638  24.447  1.00  0.00    -0.025 A 
ATOM     18  C   UNL A   1      29.114  26.896  23.934  1.00  0.00     0.009 A 
ATOM     19  C   UNL A   1      31.444  27.486  24.071  1.00  0.00     0.009 A 
ATOM     20  C   UNL A   1      28.889  28.009  23.113  1.00  0.00     0.021 A 
ATOM     21  C   UNL A   1      31.214  28.625  23.291  1.00  0.00     0.021 A 
ATOM     22  C   UNL A   1      29.932  28.887  22.824  1.00  0.00     0.041 A 
ATOM     23  Cl  UNL A   1      29.627  30.312  21.912  1.00  0.00    -0.084 Cl
ENDBRANCH  16  17
ENDBRANCH  12  15
ENDBRANCH  10  12
ENDBRANCH   5  10
ENDBRANCH   3   5
ENDBRANCH   2   3
ENDBRANCH   1   2
BRANCH   1  24
ATOM     24  C   UNL A   1      37.693  21.001  25.411  1.00  0.00     0.275 C 
BRANCH  24  25
ATOM     25  O   UNL A   1      38.186  22.303  25.785  1.00  0.00    -0.458 OA
BRANCH  25  26
ATOM     26  C   UNL A   1      39.446  22.287  26.287  1.00  0.00     0.338 C 
ATOM     27  O   UNL A   1      40.331  21.502  25.979  1.00  0.00    -0.246 OA
BRANCH  26  28
ATOM     28  C   UNL A   1      39.727  23.462  27.136  1.00  0.00     0.060 A 
ATOM     29  C   UNL A   1      39.051  24.646  26.818  1.00  0.00     0.016 A 
ATOM     30  C   UNL A   1      40.741  23.470  28.092  1.00  0.00     0.016 A 
ATOM     31  C   UNL A   1      39.417  25.854  27.392  1.00  0.00     0.010 A 
ATOM     32  C   UNL A   1      41.126  24.693  28.661  1.00  0.00     0.010 A 
ATOM     33  C   UNL A   1      40.502  25.895  28.269  1.00  0.00    -0.014 A 
BRANCH  33  34
ATOM     34  C   UNL A   1      41.102  27.218  28.571  1.00  0.00     0.031 A 
ATOM     35  C   UNL A   1      42.563  27.430  28.269  1.00  0.00     0.074 A 
ATOM     36  C   UNL A   1      40.341  28.243  28.998  1.00  0.00     0.049 A 
ATOM     37  N   UNL A   1      43.309  28.484  28.468  1.00  0.00    -0.248 NA
ATOM     38  C   UNL A   1      43.279  26.298  27.655  1.00  0.00     0.031 C 
ATOM     39  C   UNL A   1      38.897  28.183  29.231  1.00  0.00     0.029 A 
ATOM     40  N   UNL A   1      40.677  29.538  29.296  1.00  0.00    -0.354 N 
ATOM     41  C   UNL A   1      44.586  28.133  28.041  1.00  0.00     0.074 A 
ATOM     42  C   UNL A   1      44.517  26.760  27.588  1.00  0.00     0.031 C 
ATOM     43  C   UNL A   1      38.472  29.392  29.635  1.00  0.00     0.029 A 
ATOM     44  C   UNL A   1      39.616  30.295  29.733  1.00  0.00     0.049 A 
ATOM     45  H   UNL A   1      41.591  29.892  29.207  1.00  0.00     0.167 HD
ATOM     46  C   UNL A   1      45.710  28.887  28.024  1.00  0.00     0.037 A 
ATOM     47  C   UNL A   1      39.580  31.565  30.181  1.00  0.00     0.037 A 
ATOM     48  C   UNL A   1      45.758  30.262  28.449  1.00  0.00     0.049 A 
ATOM     49  C   UNL A   1      40.857  32.366  30.211  1.00  0.00     0.074 A 
ATOM     50  C   UNL A   1      46.842  31.120  28.467  1.00  0.00     0.029 A 
ATOM     51  N   UNL A   1      44.671  30.981  28.929  1.00  0.00    -0.354 N 
ATOM     52  N   UNL A   1      42.063  32.014  29.831  1.00  0.00    -0.248 NA
ATOM     53  C   UNL A   1      40.765  33.739  30.725  1.00  0.00     0.031 C 
ATOM     54  C   UNL A   1      46.425  32.340  29.011  1.00  0.00     0.029 A 
ATOM     55  C   UNL A   1      45.064  32.265  29.266  1.00  0.00     0.049 A 
ATOM     56  H   UNL A   1      43.756  30.628  29.017  1.00  0.00     0.167 HD
ATOM     57  C   UNL A   1      42.865  33.136  30.019  1.00  0.00     0.074 A 
ATOM     58  C   UNL A   1      42.004  34.176  30.544  1.00  0.00     0.031 C 
ATOM     59  C   UNL A   1      44.190  33.294  29.773  1.00  0.00     0.037 A 
BRANCH  46  60
ATOM     60  C   UNL A   1      46.988  28.226  27.581  1.00  0.00     0.058 A 
ATOM     61  C   UNL A   1      47.427  28.250  26.248  1.00  0.00     0.135 A 
ATOM     62  C   UNL A   1      47.799  27.567  28.521  1.00  0.00     0.135 A 
ATOM     63  F   UNL A   1      46.683  28.846  25.302  1.00  0.00    -0.206 F 
ATOM     64  C   UNL A   1      48.603  27.617  25.856  1.00  0.00     0.059 A 
ATOM     65  C   UNL A   1      48.996  26.956  28.159  1.00  0.00     0.059 A 
ATOM     66  F   UNL A   1      47.429  27.509  29.810  1.00  0.00    -0.206 F 
ATOM     67  C   UNL A   1      49.381  26.972  26.819  1.00  0.00     0.060 A 
BRANCH  67  68
ATOM     68  S   UNL A   1      50.903  26.152  26.298  1.00  0.00     0.124 S 
ATOM     69  O   UNL A   1      50.743  26.139  24.847  1.00  0.00    -0.237 OA
ATOM     70  O   UNL A   1      51.932  27.050  26.814  1.00  0.00    -0.237 OA
ATOM     71  O   UNL A   1      50.828  24.848  26.948  1.00  0.00    -0.744 OA
ENDBRANCH  67  68
ENDBRANCH  46  60
BRANCH  47  72
ATOM     72  C   UNL A   1      38.295  32.158  30.645  1.00  0.00     0.058 A 
ATOM     73  C   UNL A   1      37.504  32.939  29.790  1.00  0.00     0.135 A 
ATOM     74  C   UNL A   1      37.837  31.960  31.958  1.00  0.00     0.135 A 
ATOM     75  F   UNL A   1      37.903  33.168  28.530  1.00  0.00    -0.206 F 
ATOM     76  C   UNL A   1      36.315  33.518  30.223  1.00  0.00     0.059 A 
ATOM     77  C   UNL A   1      36.637  32.503  32.405  1.00  0.00     0.059 A 
ATOM     78  F   UNL A   1      38.552  31.214  32.815  1.00  0.00    -0.206 F 
ATOM     79  C   UNL A   1      35.887  33.291  31.532  1.00  0.00     0.060 A 
BRANCH  79  80
ATOM     80  S   UNL A   1      34.324  34.015  32.072  1.00  0.00     0.124 S 
ATOM     81  O   UNL A   1      33.690  34.328  30.796  1.00  0.00    -0.237 OA
ATOM     82  O   UNL A   1      33.727  32.922  32.833  1.00  0.00    -0.237 OA
ATOM     83  O   UNL A   1      34.743  35.166  32.867  1.00  0.00    -0.744 OA
ENDBRANCH  79  80
ENDBRANCH  47  72
BRANCH  59  84
ATOM     84  C   UNL A   1      44.778  34.662  29.998  1.00  0.00     0.058 A 
ATOM     85  C   UNL A   1      45.354  35.040  31.221  1.00  0.00     0.135 A 
ATOM     86  C   UNL A   1      44.786  35.603  28.953  1.00  0.00     0.135 A 
ATOM     87  F   UNL A   1      45.372  34.182  32.253  1.00  0.00    -0.206 F 
ATOM     88  C   UNL A   1      45.878  36.315  31.415  1.00  0.00     0.059 A 
ATOM     89  C   UNL A   1      45.337  36.871  29.114  1.00  0.00     0.059 A 
ATOM     90  F   UNL A   1      44.263  35.291  27.757  1.00  0.00    -0.206 F 
ATOM     91  C   UNL A   1      45.863  37.224  30.355  1.00  0.00     0.060 A 
BRANCH  91  92
ATOM     92  S   UNL A   1      46.548  38.872  30.616  1.00  0.00     0.124 S 
ATOM     93  O   UNL A   1      47.198  38.718  31.913  1.00  0.00    -0.237 OA
ATOM     94  O   UNL A   1      47.442  39.024  29.472  1.00  0.00    -0.237 OA
ATOM     95  O   UNL A   1      45.371  39.737  30.602  1.00  0.00    -0.744 OA
ENDBRANCH  91  92
ENDBRANCH  59  84
ENDBRANCH  33  34
ENDBRANCH  26  28
ENDBRANCH  25  26
ENDBRANCH  24  25
ENDBRANCH   1  24
TORSDOF 20
ENDMDL
MODEL 2
REMARK VINA RESULT:     -10.2      4.919     10.426
REMARK SMILES CC(C)C[C@@H](NS(=O)(=O)/C=C/c1ccc(Cl)cc1)C(=O)OCCOC(=O)c1ccc(-c2c3nc(c(-c4c(F)cc(S(=O)(=O)[O-])cc4F)c4ccc([nH]4)c(-c4c(F)cc(S(=O)(=O)[O-])cc4F)c4nc(c(-c5c(F)cc(S(=O)(=O)[O-])cc5F)c5ccc2[nH]5)C=C4)C=C3)cc1
REMARK SMILES IDX 22 1 21 2 19 3 20 4 5 5 4 6 2 7 1 8 3 9 6 10 7 12 8 13 9 14
REMARK SMILES IDX 10 15 11 16 12 17 13 18 18 19 14 20 17 21 15 22 16 23 23 24
REMARK SMILES IDX 24 25 25 26 26 27 27 28 28 29 92 30 29 31 91 32 30 33 31 34
REMARK SMILES IDX 32 35 85 36 33 37 90 38 84 39 86 40 34 41 89 42 83 43 82 44
REMARK SMILES IDX 35 46 69 47 48 48 68 49 49 50 52 51 67 52 87 53 50 54 51 55
REMARK SMILES IDX 66 57 88 58 53 59 36 60 37 61 46 62 38 63 39 64 45 65 47 66
REMARK SMILES IDX 40 67 41 68 42 69 43 70 44 71 70 72 71 73 80 74 72 75 73 76
REMARK SMILES IDX 79 77 81 78 74 79 75 80 76 81 77 82 78 83 54 84 55 85 64 86
REMARK SMILES IDX 56 87 57 88 63 89 65 90 58 91 59 92 60 93 61 94 62 95
REMARK H PARENT 6 11 86 45 52 56
REMARK Flexibility Score: inf
ROOT
ATOM      1  C   UNL A   1      32.158  29.263  26.796  1.00  0.00     0.274 C 
ENDROOT
BRANCH   1   2
ATOM      2  O   UNL A   1      31.343  29.061  25.630  1.00  0.00    -0.461 OA
BRANCH   2   3
ATOM      3  C   UNL A   1      31.460  27.852  25.017  1.00  0.00     0.324 C 
ATOM      4  O   UNL A   1      32.061  26.893  25.483  1.00  0.00    -0.250 OA
BRANCH   3   5
ATOM      5  C   UNL A   1      30.830  27.796  23.637  1.00  0.00     0.180 C 
BRANCH   5   6
ATOM      6  C   UNL A   1      30.156  29.138  23.303  1.00  0.00     0.035 C 
BRANCH   6   7
ATOM      7  C   UNL A   1      28.964  29.112  22.322  1.00  0.00    -0.015 C 
ATOM      8  C   UNL A   1      27.601  28.965  23.002  1.00  0.00     0.007 C 
ATOM      9  C   UNL A   1      28.967  30.421  21.516  1.00  0.00     0.007 C 
ENDBRANCH   6   7
ENDBRANCH   5   6
BRANCH   5  10
ATOM     10  N   UNL A   1      31.874  27.398  22.642  1.00  0.00    -0.197 NA
ATOM     11  H   UNL A   1      32.788  27.579  23.059  1.00  0.00     0.142 HD
BRANCH  10  12
ATOM     12  S   UNL A   1      31.843  25.752  22.134  1.00  0.00     0.234 S 
ATOM     13  O   UNL A   1      30.691  25.181  22.788  1.00  0.00    -0.208 OA
ATOM     14  O   UNL A   1      31.878  25.840  20.684  1.00  0.00    -0.208 OA
BRANCH  12  15
ATOM     15  C   UNL A   1      33.264  24.909  22.666  1.00  0.00     0.123 C 
ATOM     16  C   UNL A   1      33.182  23.669  23.168  1.00  0.00     0.021 C 
BRANCH  16  17
ATOM     17  C   UNL A   1      34.345  22.830  23.514  1.00  0.00    -0.025 A 
ATOM     18  C   UNL A   1      35.616  23.228  23.087  1.00  0.00     0.009 A 
ATOM     19  C   UNL A   1      34.247  21.735  24.388  1.00  0.00     0.009 A 
ATOM     20  C   UNL A   1      36.763  22.584  23.568  1.00  0.00     0.021 A 
ATOM     21  C   UNL A   1      35.392  21.120  24.908  1.00  0.00     0.021 A 
ATOM     22  C   UNL A   1      36.647  21.556  24.502  1.00  0.00     0.041 A 
ATOM     23  Cl  UNL A   1      38.061  20.846  25.176  1.00  0.00    -0.084 Cl
ENDBRANCH  16  17
ENDBRANCH  12  15
ENDBRANCH  10  12
ENDBRANCH   5  10
ENDBRANCH   3   5
ENDBRANCH   2   3
ENDBRANCH   1   2
BRANCH   1  24
ATOM     24  C   UNL A   1      32.814  30.648  26.927  1.00  0.00     0.275 C 
BRANCH  24  25
ATOM     25  O   UNL A   1      33.662  30.809  28.082  1.00  0.00    -0.458 OA
BRANCH  25  26
ATOM     26  C   UNL A   1      34.566  31.813  27.962  1.00  0.00     0.338 C 
ATOM     27  O   UNL A   1      34.308  33.006  27.883  1.00  0.00    -0.246 OA
BRANCH  26  28
ATOM     28  C   UNL A   1      35.955  31.340  28.126  1.00  0.00     0.060 A 
ATOM     29  C   UNL A   1      36.141  29.958  28.247  1.00  0.00     0.016 A 
ATOM     30  C   UNL A   1      37.022  32.211  28.336  1.00  0.00     0.016 A 
ATOM     31  C   UNL A   1      37.362  29.433  28.641  1.00  0.00     0.010 A 
ATOM     32  C   UNL A   1      38.255  31.685  28.752  1.00  0.00     0.010 A 
ATOM     33  C   UNL A   1      38.409  30.299  28.960  1.00  0.00    -0.014 A 
BRANCH  33  34
ATOM     34  C   UNL A   1      39.557  29.750  29.722  1.00  0.00     0.031 A 
ATOM     35  C   UNL A   1      39.855  30.323  31.085  1.00  0.00     0.074 A 
ATOM     36  C   UNL A   1      40.249  28.689  29.266  1.00  0.00     0.049 A 
ATOM     37  N   UNL A   1      40.814  30.024  31.921  1.00  0.00    -0.248 NA
ATOM     38  C   UNL A   1      38.945  31.375  31.568  1.00  0.00     0.031 C 
ATOM     39  C   UNL A   1      39.987  27.988  28.009  1.00  0.00     0.029 A 
ATOM     40  N   UNL A   1      41.304  28.009  29.818  1.00  0.00    -0.354 N 
ATOM     41  C   UNL A   1      40.646  30.874  33.010  1.00  0.00     0.074 A 
ATOM     42  C   UNL A   1      39.504  31.713  32.720  1.00  0.00     0.031 C 
ATOM     43  C   UNL A   1      40.860  26.974  27.886  1.00  0.00     0.029 A 
ATOM     44  C   UNL A   1      41.768  26.982  29.032  1.00  0.00     0.049 A 
ATOM     45  H   UNL A   1      41.692  28.235  30.694  1.00  0.00     0.167 HD
ATOM     46  C   UNL A   1      41.375  30.944  34.148  1.00  0.00     0.037 A 
ATOM     47  C   UNL A   1      42.819  26.158  29.208  1.00  0.00     0.037 A 
ATOM     48  C   UNL A   1      42.491  30.081  34.439  1.00  0.00     0.049 A 
ATOM     49  C   UNL A   1      43.654  26.295  30.455  1.00  0.00     0.074 A 
ATOM     50  C   UNL A   1      43.294  30.062  35.565  1.00  0.00     0.029 A 
ATOM     51  N   UNL A   1      42.960  29.083  33.596  1.00  0.00    -0.354 N 
ATOM     52  N   UNL A   1      43.503  27.121  31.465  1.00  0.00    -0.248 NA
ATOM     53  C   UNL A   1      44.799  25.385  30.590  1.00  0.00     0.031 C 
ATOM     54  C   UNL A   1      44.284  29.090  35.378  1.00  0.00     0.029 A 
ATOM     55  C   UNL A   1      44.055  28.456  34.167  1.00  0.00     0.049 A 
ATOM     56  H   UNL A   1      42.572  28.854  32.720  1.00  0.00     0.167 HD
ATOM     57  C   UNL A   1      44.507  26.800  32.374  1.00  0.00     0.074 A 
ATOM     58  C   UNL A   1      45.255  25.703  31.793  1.00  0.00     0.031 C 
ATOM     59  C   UNL A   1      44.780  27.354  33.582  1.00  0.00     0.037 A 
BRANCH  46  60
ATOM     60  C   UNL A   1      41.022  32.021  35.140  1.00  0.00     0.058 A 
ATOM     61  C   UNL A   1      40.007  31.861  36.097  1.00  0.00     0.135 A 
ATOM     62  C   UNL A   1      41.729  33.235  35.137  1.00  0.00     0.135 A 
ATOM     63  F   UNL A   1      39.284  30.731  36.134  1.00  0.00    -0.206 F 
ATOM     64  C   UNL A   1      39.685  32.876  36.993  1.00  0.00     0.059 A 
ATOM     65  C   UNL A   1      41.447  34.251  36.045  1.00  0.00     0.059 A 
ATOM     66  F   UNL A   1      42.707  33.446  34.242  1.00  0.00    -0.206 F 
ATOM     67  C   UNL A   1      40.410  34.069  36.959  1.00  0.00     0.060 A 
BRANCH  67  68
ATOM     68  S   UNL A   1      39.979  35.380  38.123  1.00  0.00     0.124 S 
ATOM     69  O   UNL A   1      41.206  35.488  38.906  1.00  0.00    -0.237 OA
ATOM     70  O   UNL A   1      39.693  36.503  37.235  1.00  0.00    -0.237 OA
ATOM     71  O   UNL A   1      38.827  34.838  38.836  1.00  0.00    -0.744 OA
ENDBRANCH  67  68
ENDBRANCH  46  60
BRANCH  47  72
ATOM     72  C   UNL A   1      43.149  25.136  28.177  1.00  0.00     0.058 A 
ATOM     73  C   UNL A   1      42.806  23.787  28.354  1.00  0.00     0.135 A 
ATOM     74  C   UNL A   1      43.820  25.487  26.995  1.00  0.00     0.135 A 
ATOM     75  F   UNL A   1      42.175  23.397  29.472  1.00  0.00    -0.206 F 
ATOM     76  C   UNL A   1      43.133  22.821  27.408  1.00  0.00     0.059 A 
ATOM     77  C   UNL A   1      44.131  24.544  26.020  1.00  0.00     0.059 A 
ATOM     78  F   UNL A   1      44.164  26.765  26.771  1.00  0.00    -0.206 F 
ATOM     79  C   UNL A   1      43.793  23.210  26.241  1.00  0.00     0.060 A 
BRANCH  79  80
ATOM     80  S   UNL A   1      44.179  21.954  25.003  1.00  0.00     0.124 S 
ATOM     81  O   UNL A   1      45.541  21.587  25.371  1.00  0.00    -0.237 OA
ATOM     82  O   UNL A   1      43.153  20.948  25.259  1.00  0.00    -0.237 OA
ATOM     83  O   UNL A   1      44.038  22.674  23.740  1.00  0.00    -0.744 OA
ENDBRANCH  79  80
ENDBRANCH  47  72
BRANCH  59  84
ATOM     84  C   UNL A   1      45.889  26.738  34.392  1.00  0.00     0.058 A 
ATOM     85  C   UNL A   1      45.661  25.700  35.309  1.00  0.00     0.135 A 
ATOM     86  C   UNL A   1      47.212  27.182  34.223  1.00  0.00     0.135 A 
ATOM     87  F   UNL A   1      44.418  25.237  35.511  1.00  0.00    -0.206 F 
ATOM     88  C   UNL A   1      46.698  25.154  36.061  1.00  0.00     0.059 A 
ATOM     89  C   UNL A   1      48.268  26.626  34.938  1.00  0.00     0.059 A 
ATOM     90  F   UNL A   1      47.491  28.162  33.348  1.00  0.00    -0.206 F 
ATOM     91  C   UNL A   1      47.998  25.626  35.869  1.00  0.00     0.060 A 
BRANCH  91  92
ATOM     92  S   UNL A   1      49.334  24.908  36.847  1.00  0.00     0.124 S 
ATOM     93  O   UNL A   1      49.899  26.092  37.486  1.00  0.00    -0.237 OA
ATOM     94  O   UNL A   1      48.619  23.991  37.729  1.00  0.00    -0.237 OA
ATOM     95  O   UNL A   1      50.183  24.270  35.845  1.00  0.00    -0.744 OA
ENDBRANCH  91  92
ENDBRANCH  59  84
ENDBRANCH  33  34
ENDBRANCH  26  28
ENDBRANCH  25  26
ENDBRANCH  24  25
ENDBRANCH   1  24
TORSDOF 20
ENDMDL
MODEL 3
REMARK VINA RESULT:     -10.1      2.743      3.525
REMARK SMILES CC(C)C[C@@H](NS(=O)(=O)/C=C/c1ccc(Cl)cc1)C(=O)OCCOC(=O)c1ccc(-c2c3nc(c(-c4c(F)cc(S(=O)(=O)[O-])cc4F)c4ccc([nH]4)c(-c4c(F)cc(S(=O)(=O)[O-])cc4F)c4nc(c(-c5c(F)cc(S(=O)(=O)[O-])cc5F)c5ccc2[nH]5)C=C4)C=C3)cc1
REMARK SMILES IDX 22 1 21 2 19 3 20 4 5 5 4 6 2 7 1 8 3 9 6 10 7 12 8 13 9 14
REMARK SMILES IDX 10 15 11 16 12 17 13 18 18 19 14 20 17 21 15 22 16 23 23 24
REMARK SMILES IDX 24 25 25 26 26 27 27 28 28 29 92 30 29 31 91 32 30 33 31 34
REMARK SMILES IDX 32 35 85 36 33 37 90 38 84 39 86 40 34 41 89 42 83 43 82 44
REMARK SMILES IDX 35 46 69 47 48 48 68 49 49 50 52 51 67 52 87 53 50 54 51 55
REMARK SMILES IDX 66 57 88 58 53 59 36 60 37 61 46 62 38 63 39 64 45 65 47 66
REMARK SMILES IDX 40 67 41 68 42 69 43 70 44 71 70 72 71 73 80 74 72 75 73 76
REMARK SMILES IDX 79 77 81 78 74 79 75 80 76 81 77 82 78 83 54 84 55 85 64 86
REMARK SMILES IDX 56 87 57 88 63 89 65 90 58 91 59 92 60 93 61 94 62 95
REMARK H PARENT 6 11 86 45 52 56
REMARK Flexibility Score: inf
ROOT
ATOM      1  C   UNL A   1      35.268  23.517  23.903  1.00  0.00     0.274 C 
ENDROOT
BRANCH   1   2
ATOM      2  O   UNL A   1      34.583  22.258  23.800  1.00  0.00    -0.461 OA
BRANCH   2   3
ATOM      3  C   UNL A   1      33.969  21.814  24.929  1.00  0.00     0.324 C 
ATOM      4  O   UNL A   1      34.556  21.434  25.935  1.00  0.00    -0.250 OA
BRANCH   3   5
ATOM      5  C   UNL A   1      32.455  21.754  24.827  1.00  0.00     0.180 C 
BRANCH   5   6
ATOM      6  C   UNL A   1      32.030  20.640  23.855  1.00  0.00     0.035 C 
BRANCH   6   7
ATOM      7  C   UNL A   1      32.819  19.313  23.904  1.00  0.00    -0.015 C 
ATOM      8  C   UNL A   1      32.545  18.471  25.152  1.00  0.00     0.007 C 
ATOM      9  C   UNL A   1      32.451  18.480  22.665  1.00  0.00     0.007 C 
ENDBRANCH   6   7
ENDBRANCH   5   6
BRANCH   5  10
ATOM     10  N   UNL A   1      31.881  21.588  26.200  1.00  0.00    -0.197 NA
ATOM     11  H   UNL A   1      32.546  21.047  26.753  1.00  0.00     0.142 HD
BRANCH  10  12
ATOM     12  S   UNL A   1      31.545  23.045  27.056  1.00  0.00     0.234 S 
ATOM     13  O   UNL A   1      30.241  22.843  27.639  1.00  0.00    -0.208 OA
ATOM     14  O   UNL A   1      32.701  23.209  27.921  1.00  0.00    -0.208 OA
BRANCH  12  15
ATOM     15  C   UNL A   1      31.473  24.401  25.975  1.00  0.00     0.123 C 
ATOM     16  C   UNL A   1      30.319  25.045  25.755  1.00  0.00     0.021 C 
BRANCH  16  17
ATOM     17  C   UNL A   1      30.193  26.284  24.965  1.00  0.00    -0.025 A 
ATOM     18  C   UNL A   1      31.283  27.158  24.899  1.00  0.00     0.009 A 
ATOM     19  C   UNL A   1      29.080  26.546  24.149  1.00  0.00     0.009 A 
ATOM     20  C   UNL A   1      31.285  28.230  23.997  1.00  0.00     0.021 A 
ATOM     21  C   UNL A   1      29.096  27.586  23.214  1.00  0.00     0.021 A 
ATOM     22  C   UNL A   1      30.206  28.419  23.136  1.00  0.00     0.041 A 
ATOM     23  Cl  UNL A   1      30.260  29.666  21.953  1.00  0.00    -0.084 Cl
ENDBRANCH  16  17
ENDBRANCH  12  15
ENDBRANCH  10  12
ENDBRANCH   5  10
ENDBRANCH   3   5
ENDBRANCH   2   3
ENDBRANCH   1   2
BRANCH   1  24
ATOM     24  C   UNL A   1      36.792  23.442  24.096  1.00  0.00     0.275 C 
BRANCH  24  25
ATOM     25  O   UNL A   1      37.299  24.203  25.210  1.00  0.00    -0.458 OA
BRANCH  25  26
ATOM     26  C   UNL A   1      38.146  23.507  26.009  1.00  0.00     0.338 C 
ATOM     27  O   UNL A   1      38.272  22.291  26.033  1.00  0.00    -0.246 OA
BRANCH  26  28
ATOM     28  C   UNL A   1      39.073  24.388  26.747  1.00  0.00     0.060 A 
ATOM     29  C   UNL A   1      38.952  24.404  28.142  1.00  0.00     0.016 A 
ATOM     30  C   UNL A   1      39.908  25.301  26.106  1.00  0.00     0.016 A 
ATOM     31  C   UNL A   1      39.601  25.362  28.904  1.00  0.00     0.010 A 
ATOM     32  C   UNL A   1      40.552  26.284  26.873  1.00  0.00     0.010 A 
ATOM     33  C   UNL A   1      40.354  26.350  28.267  1.00  0.00    -0.014 A 
BRANCH  33  34
ATOM     34  C   UNL A   1      40.721  27.557  29.048  1.00  0.00     0.031 A 
ATOM     35  C   UNL A   1      42.097  27.627  29.659  1.00  0.00     0.074 A 
ATOM     36  C   UNL A   1      39.893  28.615  29.118  1.00  0.00     0.049 A 
ATOM     37  N   UNL A   1      42.632  28.561  30.400  1.00  0.00    -0.248 NA
ATOM     38  C   UNL A   1      42.992  26.486  29.396  1.00  0.00     0.031 C 
ATOM     39  C   UNL A   1      38.577  28.701  28.483  1.00  0.00     0.029 A 
ATOM     40  N   UNL A   1      40.044  29.826  29.743  1.00  0.00    -0.354 N 
ATOM     41  C   UNL A   1      43.907  28.108  30.721  1.00  0.00     0.074 A 
ATOM     42  C   UNL A   1      44.060  26.806  30.110  1.00  0.00     0.031 C 
ATOM     43  C   UNL A   1      38.042  29.905  28.751  1.00  0.00     0.029 A 
ATOM     44  C   UNL A   1      38.956  30.654  29.612  1.00  0.00     0.049 A 
ATOM     45  H   UNL A   1      40.857  30.079  30.239  1.00  0.00     0.167 HD
ATOM     46  C   UNL A   1      44.864  28.724  31.455  1.00  0.00     0.037 A 
ATOM     47  C   UNL A   1      38.716  31.868  30.145  1.00  0.00     0.037 A 
ATOM     48  C   UNL A   1      44.711  30.034  32.031  1.00  0.00     0.049 A 
ATOM     49  C   UNL A   1      39.773  32.507  31.008  1.00  0.00     0.074 A 
ATOM     50  C   UNL A   1      45.620  30.754  32.786  1.00  0.00     0.029 A 
ATOM     51  N   UNL A   1      43.575  30.823  31.915  1.00  0.00    -0.354 N 
ATOM     52  N   UNL A   1      40.964  32.058  31.329  1.00  0.00    -0.248 NA
ATOM     53  C   UNL A   1      39.454  33.823  31.580  1.00  0.00     0.031 C 
ATOM     54  C   UNL A   1      45.012  31.953  33.174  1.00  0.00     0.029 A 
ATOM     55  C   UNL A   1      43.751  32.012  32.602  1.00  0.00     0.049 A 
ATOM     56  H   UNL A   1      42.763  30.572  31.417  1.00  0.00     0.167 HD
ATOM     57  C   UNL A   1      41.553  33.053  32.102  1.00  0.00     0.074 A 
ATOM     58  C   UNL A   1      40.587  34.129  32.197  1.00  0.00     0.031 C 
ATOM     59  C   UNL A   1      42.784  33.080  32.673  1.00  0.00     0.037 A 
BRANCH  46  60
ATOM     60  C   UNL A   1      46.139  27.966  31.718  1.00  0.00     0.058 A 
ATOM     61  C   UNL A   1      47.266  28.074  30.888  1.00  0.00     0.135 A 
ATOM     62  C   UNL A   1      46.235  27.124  32.839  1.00  0.00     0.135 A 
ATOM     63  F   UNL A   1      47.226  28.848  29.791  1.00  0.00    -0.206 F 
ATOM     64  C   UNL A   1      48.428  27.352  31.140  1.00  0.00     0.059 A 
ATOM     65  C   UNL A   1      47.398  26.417  33.129  1.00  0.00     0.059 A 
ATOM     66  F   UNL A   1      45.188  26.978  33.666  1.00  0.00    -0.206 F 
ATOM     67  C   UNL A   1      48.485  26.524  32.263  1.00  0.00     0.060 A 
BRANCH  67  68
ATOM     68  S   UNL A   1      49.997  25.589  32.576  1.00  0.00     0.124 S 
ATOM     69  O   UNL A   1      50.980  26.660  32.705  1.00  0.00    -0.237 OA
ATOM     70  O   UNL A   1      49.672  24.877  33.809  1.00  0.00    -0.237 OA
ATOM     71  O   UNL A   1      50.133  24.753  31.389  1.00  0.00    -0.744 OA
ENDBRANCH  67  68
ENDBRANCH  46  60
BRANCH  47  72
ATOM     72  C   UNL A   1      37.422  32.557  29.884  1.00  0.00     0.058 A 
ATOM     73  C   UNL A   1      36.250  32.181  30.558  1.00  0.00     0.135 A 
ATOM     74  C   UNL A   1      37.330  33.600  28.950  1.00  0.00     0.135 A 
ATOM     75  F   UNL A   1      36.282  31.181  31.452  1.00  0.00    -0.206 F 
ATOM     76  C   UNL A   1      35.031  32.801  30.303  1.00  0.00     0.059 A 
ATOM     77  C   UNL A   1      36.129  34.256  28.699  1.00  0.00     0.059 A 
ATOM     78  F   UNL A   1      38.422  34.005  28.283  1.00  0.00    -0.206 F 
ATOM     79  C   UNL A   1      34.981  33.840  29.373  1.00  0.00     0.060 A 
BRANCH  79  80
ATOM     80  S   UNL A   1      33.402  34.664  29.077  1.00  0.00     0.124 S 
ATOM     81  O   UNL A   1      32.820  34.672  30.414  1.00  0.00    -0.237 OA
ATOM     82  O   UNL A   1      33.825  35.959  28.555  1.00  0.00    -0.237 OA
ATOM     83  O   UNL A   1      32.744  33.791  28.108  1.00  0.00    -0.744 OA
ENDBRANCH  79  80
ENDBRANCH  47  72
BRANCH  59  84
ATOM     84  C   UNL A   1      43.187  34.341  33.391  1.00  0.00     0.058 A 
ATOM     85  C   UNL A   1      42.983  34.517  34.769  1.00  0.00     0.135 A 
ATOM     86  C   UNL A   1      43.814  35.382  32.685  1.00  0.00     0.135 A 
ATOM     87  F   UNL A   1      42.388  33.556  35.493  1.00  0.00    -0.206 F 
ATOM     88  C   UNL A   1      43.348  35.696  35.413  1.00  0.00     0.059 A 
ATOM     89  C   UNL A   1      44.219  36.554  33.315  1.00  0.00     0.059 A 
ATOM     90  F   UNL A   1      44.048  35.261  31.369  1.00  0.00    -0.206 F 
ATOM     91  C   UNL A   1      43.964  36.710  34.676  1.00  0.00     0.060 A 
BRANCH  91  92
ATOM     92  S   UNL A   1      44.436  38.233  35.521  1.00  0.00     0.124 S 
ATOM     93  O   UNL A   1      45.888  38.208  35.382  1.00  0.00    -0.237 OA
ATOM     94  O   UNL A   1      43.742  39.252  34.740  1.00  0.00    -0.237 OA
ATOM     95  O   UNL A   1      43.931  38.040  36.877  1.00  0.00    -0.744 OA
ENDBRANCH  91  92
ENDBRANCH  59  84
ENDBRANCH  33  34
ENDBRANCH  26  28
ENDBRANCH  25  26
ENDBRANCH  24  25
ENDBRANCH   1  24
TORSDOF 20
ENDMDL
