MODEL 1
REMARK VINA RESULT:     -11.3      0.000      0.000
REMARK SMILES CN(C(=O)N1CCC(C(=O)OCCOC(=O)c2ccc(-c3c4nc(c(-c5c(F)cc(S(=O)(=O)[O-])cc5F)c5ccc([nH]5)c(-c5c(F)cc(S(=O)(=O)[O-])cc5F)c5nc(c(-c6c(F)cc(S(=O)(=O)[O-])cc6F)c6ccc3[nH]6)C=C5)C=C4)cc2)CC1)[C@H]1CCSC1
REMARK SMILES IDX 13 1 12 2 11 3 9 4 10 5 8 6 3 7 4 8 5 9 6 10 84 11 7 12
REMARK SMILES IDX 83 13 2 14 1 15 85 16 86 17 89 18 87 19 88 20 14 21 15 22
REMARK SMILES IDX 16 23 17 24 18 25 82 26 19 27 81 28 20 29 21 30 22 31 75 32
REMARK SMILES IDX 23 33 80 34 74 35 76 36 24 37 79 38 73 39 72 40 25 42 59 43
REMARK SMILES IDX 38 44 58 45 39 46 42 47 57 48 77 49 40 50 41 51 56 53 78 54
REMARK SMILES IDX 43 55 26 56 27 57 36 58 28 59 29 60 35 61 37 62 30 63 31 64
REMARK SMILES IDX 32 65 33 66 34 67 60 68 61 69 70 70 62 71 63 72 69 73 71 74
REMARK SMILES IDX 64 75 65 76 66 77 67 78 68 79 44 80 45 81 54 82 46 83 47 84
REMARK SMILES IDX 53 85 55 86 48 87 49 88 50 89 51 90 52 91
REMARK H PARENT 76 41 42 52
REMARK Flexibility Score: inf
ROOT
ATOM      1  C   UNL A   1      39.495  22.390  26.532  1.00  0.00     0.275 C 
ENDROOT
BRANCH   1   2
ATOM      2  C   UNL A   1      38.443  21.823  25.577  1.00  0.00     0.274 C 
BRANCH   2   3
ATOM      3  O   UNL A   1      37.140  22.363  25.869  1.00  0.00    -0.462 OA
BRANCH   3   4
ATOM      4  C   UNL A   1      36.093  21.770  25.246  1.00  0.00     0.309 C 
ATOM      5  O   UNL A   1      36.018  20.574  24.986  1.00  0.00    -0.252 OA
BRANCH   4   6
ATOM      6  C   UNL A   1      34.982  22.737  24.895  1.00  0.00     0.103 C 
ATOM      7  C   UNL A   1      32.102  25.400  26.080  1.00  0.00     0.320 C 
ATOM      8  O   UNL A   1      31.402  24.815  26.909  1.00  0.00    -0.248 OA
ATOM      9  N   UNL A   1      32.921  24.705  25.216  1.00  0.00    -0.325 N 
ATOM     10  C   UNL A   1      32.560  23.338  24.852  1.00  0.00     0.122 C 
ATOM     11  C   UNL A   1      34.274  25.137  24.862  1.00  0.00     0.122 C 
ATOM     12  C   UNL A   1      33.583  22.334  25.370  1.00  0.00     0.037 C 
ATOM     13  C   UNL A   1      35.316  24.148  25.381  1.00  0.00     0.037 C 
BRANCH   7  14
ATOM     14  N   UNL A   1      32.073  26.784  25.962  1.00  0.00    -0.324 N 
ATOM     15  C   UNL A   1      32.875  27.663  26.811  1.00  0.00     0.149 C 
BRANCH  14  16
ATOM     16  C   UNL A   1      31.523  27.331  24.712  1.00  0.00     0.097 C 
ATOM     17  C   UNL A   1      30.128  26.818  24.341  1.00  0.00     0.037 C 
ATOM     18  C   UNL A   1      31.434  28.865  24.727  1.00  0.00     0.094 C 
ATOM     19  C   UNL A   1      29.695  27.603  23.116  1.00  0.00     0.072 C 
ATOM     20  S   UNL A   1      30.215  29.306  23.448  1.00  0.00    -0.160 SA
ENDBRANCH  14  16
ENDBRANCH   7  14
ENDBRANCH   4   6
ENDBRANCH   3   4
ENDBRANCH   2   3
ENDBRANCH   1   2
BRANCH   1  21
ATOM     21  O   UNL A   1      39.489  23.830  26.536  1.00  0.00    -0.458 OA
BRANCH  21  22
ATOM     22  C   UNL A   1      40.700  24.413  26.709  1.00  0.00     0.338 C 
ATOM     23  O   UNL A   1      41.728  24.181  26.097  1.00  0.00    -0.246 OA
BRANCH  22  24
ATOM     24  C   UNL A   1      40.587  25.494  27.699  1.00  0.00     0.060 A 
ATOM     25  C   UNL A   1      41.649  26.394  27.813  1.00  0.00     0.016 A 
ATOM     26  C   UNL A   1      39.494  25.577  28.561  1.00  0.00     0.016 A 
ATOM     27  C   UNL A   1      41.621  27.392  28.782  1.00  0.00     0.010 A 
ATOM     28  C   UNL A   1      39.464  26.584  29.533  1.00  0.00     0.010 A 
ATOM     29  C   UNL A   1      40.529  27.496  29.651  1.00  0.00    -0.014 A 
BRANCH  29  30
ATOM     30  C   UNL A   1      40.508  28.560  30.684  1.00  0.00     0.031 A 
ATOM     31  C   UNL A   1      41.432  28.484  31.866  1.00  0.00     0.074 A 
ATOM     32  C   UNL A   1      39.657  29.596  30.551  1.00  0.00     0.049 A 
ATOM     33  N   UNL A   1      41.492  29.262  32.916  1.00  0.00    -0.248 NA
ATOM     34  C   UNL A   1      42.417  27.390  31.869  1.00  0.00     0.031 C 
ATOM     35  C   UNL A   1      38.734  29.791  29.432  1.00  0.00     0.029 A 
ATOM     36  N   UNL A   1      39.423  30.673  31.370  1.00  0.00    -0.354 N 
ATOM     37  C   UNL A   1      42.498  28.740  33.719  1.00  0.00     0.074 A 
ATOM     38  C   UNL A   1      43.024  27.577  33.035  1.00  0.00     0.031 C 
ATOM     39  C   UNL A   1      38.023  30.912  29.640  1.00  0.00     0.029 A 
ATOM     40  C   UNL A   1      38.409  31.488  30.925  1.00  0.00     0.049 A 
ATOM     41  H   UNL A   1      39.931  30.845  32.194  1.00  0.00     0.167 HD
ATOM     42  C   UNL A   1      42.940  29.192  34.916  1.00  0.00     0.037 A 
ATOM     43  C   UNL A   1      37.829  32.557  31.506  1.00  0.00     0.037 A 
ATOM     44  C   UNL A   1      42.432  30.367  35.576  1.00  0.00     0.049 A 
ATOM     45  C   UNL A   1      38.316  33.016  32.853  1.00  0.00     0.074 A 
ATOM     46  C   UNL A   1      42.848  30.929  36.772  1.00  0.00     0.029 A 
ATOM     47  N   UNL A   1      41.397  31.159  35.102  1.00  0.00    -0.354 N 
ATOM     48  N   UNL A   1      39.277  32.519  33.593  1.00  0.00    -0.248 NA
ATOM     49  C   UNL A   1      37.633  34.174  33.448  1.00  0.00     0.031 C 
ATOM     50  C   UNL A   1      42.040  32.040  37.038  1.00  0.00     0.029 A 
ATOM     51  C   UNL A   1      41.144  32.190  35.992  1.00  0.00     0.049 A 
ATOM     52  H   UNL A   1      40.913  31.009  34.258  1.00  0.00     0.167 HD
ATOM     53  C   UNL A   1      39.320  33.306  34.738  1.00  0.00     0.074 A 
ATOM     54  C   UNL A   1      38.302  34.326  34.583  1.00  0.00     0.031 C 
ATOM     55  C   UNL A   1      40.125  33.193  35.823  1.00  0.00     0.037 A 
BRANCH  42  56
ATOM     56  C   UNL A   1      44.013  28.406  35.612  1.00  0.00     0.058 A 
ATOM     57  C   UNL A   1      43.707  27.382  36.521  1.00  0.00     0.135 A 
ATOM     58  C   UNL A   1      45.365  28.633  35.307  1.00  0.00     0.135 A 
ATOM     59  F   UNL A   1      42.431  27.136  36.857  1.00  0.00    -0.206 F 
ATOM     60  C   UNL A   1      44.706  26.613  37.108  1.00  0.00     0.059 A 
ATOM     61  C   UNL A   1      46.379  27.864  35.868  1.00  0.00     0.059 A 
ATOM     62  F   UNL A   1      45.709  29.605  34.446  1.00  0.00    -0.206 F 
ATOM     63  C   UNL A   1      46.040  26.859  36.773  1.00  0.00     0.060 A 
BRANCH  63  64
ATOM     64  S   UNL A   1      47.324  25.829  37.516  1.00  0.00     0.124 S 
ATOM     65  O   UNL A   1      46.625  24.556  37.664  1.00  0.00    -0.237 OA
ATOM     66  O   UNL A   1      48.375  25.861  36.504  1.00  0.00    -0.237 OA
ATOM     67  O   UNL A   1      47.637  26.522  38.761  1.00  0.00    -0.744 OA
ENDBRANCH  63  64
ENDBRANCH  42  56
BRANCH  43  68
ATOM     68  C   UNL A   1      36.686  33.234  30.841  1.00  0.00     0.058 A 
ATOM     69  C   UNL A   1      36.879  34.053  29.720  1.00  0.00     0.135 A 
ATOM     70  C   UNL A   1      35.377  33.079  31.323  1.00  0.00     0.135 A 
ATOM     71  F   UNL A   1      38.114  34.240  29.230  1.00  0.00    -0.206 F 
ATOM     72  C   UNL A   1      35.816  34.711  29.109  1.00  0.00     0.059 A 
ATOM     73  C   UNL A   1      34.296  33.706  30.715  1.00  0.00     0.059 A 
ATOM     74  F   UNL A   1      35.139  32.296  32.386  1.00  0.00    -0.206 F 
ATOM     75  C   UNL A   1      34.527  34.532  29.616  1.00  0.00     0.060 A 
BRANCH  75  76
ATOM     76  S   UNL A   1      33.143  35.356  28.798  1.00  0.00     0.124 S 
ATOM     77  O   UNL A   1      33.831  36.388  28.031  1.00  0.00    -0.237 OA
ATOM     78  O   UNL A   1      32.550  34.271  28.021  1.00  0.00    -0.237 OA
ATOM     79  O   UNL A   1      32.332  35.830  29.916  1.00  0.00    -0.744 OA
ENDBRANCH  75  76
ENDBRANCH  43  68
BRANCH  55  80
ATOM     80  C   UNL A   1      39.943  34.202  36.919  1.00  0.00     0.058 A 
ATOM     81  C   UNL A   1      40.503  35.486  36.830  1.00  0.00     0.135 A 
ATOM     82  C   UNL A   1      39.170  33.897  38.049  1.00  0.00     0.135 A 
ATOM     83  F   UNL A   1      41.259  35.821  35.772  1.00  0.00    -0.206 F 
ATOM     84  C   UNL A   1      40.318  36.428  37.836  1.00  0.00     0.059 A 
ATOM     85  C   UNL A   1      38.954  34.832  39.057  1.00  0.00     0.059 A 
ATOM     86  F   UNL A   1      38.606  32.685  38.176  1.00  0.00    -0.206 F 
ATOM     87  C   UNL A   1      39.542  36.091  38.947  1.00  0.00     0.060 A 
BRANCH  87  88
ATOM     88  S   UNL A   1      39.281  37.330  40.234  1.00  0.00     0.124 S 
ATOM     89  O   UNL A   1      38.593  36.550  41.256  1.00  0.00    -0.237 OA
ATOM     90  O   UNL A   1      40.644  37.740  40.560  1.00  0.00    -0.237 OA
ATOM     91  O   UNL A   1      38.471  38.345  39.566  1.00  0.00    -0.744 OA
ENDBRANCH  87  88
ENDBRANCH  55  80
ENDBRANCH  29  30
ENDBRANCH  22  24
ENDBRANCH  21  22
ENDBRANCH   1  21
TORSDOF 16
ENDMDL
MODEL 2
REMARK VINA RESULT:     -11.2      0.687      1.874
REMARK SMILES CN(C(=O)N1CCC(C(=O)OCCOC(=O)c2ccc(-c3c4nc(c(-c5c(F)cc(S(=O)(=O)[O-])cc5F)c5ccc([nH]5)c(-c5c(F)cc(S(=O)(=O)[O-])cc5F)c5nc(c(-c6c(F)cc(S(=O)(=O)[O-])cc6F)c6ccc3[nH]6)C=C5)C=C4)cc2)CC1)[C@H]1CCSC1
REMARK SMILES IDX 13 1 12 2 11 3 9 4 10 5 8 6 3 7 4 8 5 9 6 10 84 11 7 12
REMARK SMILES IDX 83 13 2 14 1 15 85 16 86 17 89 18 87 19 88 20 14 21 15 22
REMARK SMILES IDX 16 23 17 24 18 25 82 26 19 27 81 28 20 29 21 30 22 31 75 32
REMARK SMILES IDX 23 33 80 34 74 35 76 36 24 37 79 38 73 39 72 40 25 42 59 43
REMARK SMILES IDX 38 44 58 45 39 46 42 47 57 48 77 49 40 50 41 51 56 53 78 54
REMARK SMILES IDX 43 55 26 56 27 57 36 58 28 59 29 60 35 61 37 62 30 63 31 64
REMARK SMILES IDX 32 65 33 66 34 67 60 68 61 69 70 70 62 71 63 72 69 73 71 74
REMARK SMILES IDX 64 75 65 76 66 77 67 78 68 79 44 80 45 81 54 82 46 83 47 84
REMARK SMILES IDX 53 85 55 86 48 87 49 88 50 89 51 90 52 91
REMARK H PARENT 76 41 42 52
REMARK Flexibility Score: inf
ROOT
ATOM      1  C   UNL A   1      39.601  22.450  26.745  1.00  0.00     0.275 C 
ENDROOT
BRANCH   1   2
ATOM      2  C   UNL A   1      38.676  21.759  25.741  1.00  0.00     0.274 C 
BRANCH   2   3
ATOM      3  O   UNL A   1      37.432  22.473  25.612  1.00  0.00    -0.462 OA
BRANCH   3   4
ATOM      4  C   UNL A   1      36.348  21.730  25.279  1.00  0.00     0.309 C 
ATOM      5  O   UNL A   1      36.307  20.505  25.293  1.00  0.00    -0.252 OA
BRANCH   4   6
ATOM      6  C   UNL A   1      35.149  22.568  24.886  1.00  0.00     0.103 C 
ATOM      7  C   UNL A   1      32.277  25.318  25.873  1.00  0.00     0.320 C 
ATOM      8  O   UNL A   1      31.712  24.891  26.882  1.00  0.00    -0.248 OA
ATOM      9  N   UNL A   1      33.029  24.490  25.067  1.00  0.00    -0.325 N 
ATOM     10  C   UNL A   1      32.709  23.067  25.029  1.00  0.00     0.122 C 
ATOM     11  C   UNL A   1      34.304  24.886  24.468  1.00  0.00     0.122 C 
ATOM     12  C   UNL A   1      33.841  22.224  25.603  1.00  0.00     0.037 C 
ATOM     13  C   UNL A   1      35.455  24.059  25.038  1.00  0.00     0.037 C 
BRANCH   7  14
ATOM     14  N   UNL A   1      32.154  26.648  25.488  1.00  0.00    -0.324 N 
ATOM     15  C   UNL A   1      31.293  27.071  24.386  1.00  0.00     0.149 C 
BRANCH  14  16
ATOM     16  C   UNL A   1      32.599  27.662  26.457  1.00  0.00     0.097 C 
ATOM     17  C   UNL A   1      34.094  27.994  26.402  1.00  0.00     0.037 C 
ATOM     18  C   UNL A   1      31.851  28.995  26.303  1.00  0.00     0.094 C 
ATOM     19  C   UNL A   1      34.311  29.146  27.367  1.00  0.00     0.072 C 
ATOM     20  S   UNL A   1      32.903  30.252  27.095  1.00  0.00    -0.160 SA
ENDBRANCH  14  16
ENDBRANCH   7  14
ENDBRANCH   4   6
ENDBRANCH   3   4
ENDBRANCH   2   3
ENDBRANCH   1   2
BRANCH   1  21
ATOM     21  O   UNL A   1      39.629  23.876  26.549  1.00  0.00    -0.458 OA
BRANCH  21  22
ATOM     22  C   UNL A   1      40.859  24.443  26.607  1.00  0.00     0.338 C 
ATOM     23  O   UNL A   1      41.797  24.258  25.852  1.00  0.00    -0.246 OA
BRANCH  22  24
ATOM     24  C   UNL A   1      40.886  25.446  27.682  1.00  0.00     0.060 A 
ATOM     25  C   UNL A   1      39.749  25.582  28.482  1.00  0.00     0.016 A 
ATOM     26  C   UNL A   1      41.977  26.298  27.853  1.00  0.00     0.016 A 
ATOM     27  C   UNL A   1      39.698  26.564  29.467  1.00  0.00     0.010 A 
ATOM     28  C   UNL A   1      41.927  27.282  28.846  1.00  0.00     0.010 A 
ATOM     29  C   UNL A   1      40.787  27.422  29.659  1.00  0.00    -0.014 A 
BRANCH  29  30
ATOM     30  C   UNL A   1      40.725  28.469  30.707  1.00  0.00     0.031 A 
ATOM     31  C   UNL A   1      41.633  28.398  31.902  1.00  0.00     0.074 A 
ATOM     32  C   UNL A   1      39.852  29.487  30.577  1.00  0.00     0.049 A 
ATOM     33  N   UNL A   1      41.658  29.161  32.964  1.00  0.00    -0.248 NA
ATOM     34  C   UNL A   1      42.645  27.329  31.904  1.00  0.00     0.031 C 
ATOM     35  C   UNL A   1      38.941  29.676  29.447  1.00  0.00     0.029 A 
ATOM     36  N   UNL A   1      39.579  30.544  31.407  1.00  0.00    -0.354 N 
ATOM     37  C   UNL A   1      42.665  28.652  33.774  1.00  0.00     0.074 A 
ATOM     38  C   UNL A   1      43.229  27.512  33.081  1.00  0.00     0.031 C 
ATOM     39  C   UNL A   1      38.200  30.776  29.660  1.00  0.00     0.029 A 
ATOM     40  C   UNL A   1      38.552  31.341  30.959  1.00  0.00     0.049 A 
ATOM     41  H   UNL A   1      40.070  30.716  32.242  1.00  0.00     0.167 HD
ATOM     42  C   UNL A   1      43.078  29.096  34.985  1.00  0.00     0.037 A 
ATOM     43  C   UNL A   1      37.937  32.387  31.547  1.00  0.00     0.037 A 
ATOM     44  C   UNL A   1      42.531  30.249  35.654  1.00  0.00     0.049 A 
ATOM     45  C   UNL A   1      38.393  32.837  32.908  1.00  0.00     0.074 A 
ATOM     46  C   UNL A   1      42.916  30.802  36.864  1.00  0.00     0.029 A 
ATOM     47  N   UNL A   1      41.485  31.022  35.176  1.00  0.00    -0.354 N 
ATOM     48  N   UNL A   1      39.355  32.353  33.655  1.00  0.00    -0.248 NA
ATOM     49  C   UNL A   1      37.673  33.969  33.509  1.00  0.00     0.031 C 
ATOM     50  C   UNL A   1      42.077  31.889  37.135  1.00  0.00     0.029 A 
ATOM     51  C   UNL A   1      41.193  32.033  36.077  1.00  0.00     0.049 A 
ATOM     52  H   UNL A   1      41.017  30.873  34.323  1.00  0.00     0.167 HD
ATOM     53  C   UNL A   1      39.361  33.124  34.812  1.00  0.00     0.074 A 
ATOM     54  C   UNL A   1      38.320  34.120  34.657  1.00  0.00     0.031 C 
ATOM     55  C   UNL A   1      40.153  33.013  35.907  1.00  0.00     0.037 A 
BRANCH  42  56
ATOM     56  C   UNL A   1      44.159  28.327  35.685  1.00  0.00     0.058 A 
ATOM     57  C   UNL A   1      45.517  28.636  35.512  1.00  0.00     0.135 A 
ATOM     58  C   UNL A   1      43.827  27.314  36.599  1.00  0.00     0.135 A 
ATOM     59  F   UNL A   1      45.888  29.585  34.638  1.00  0.00    -0.206 F 
ATOM     60  C   UNL A   1      46.509  27.963  36.218  1.00  0.00     0.059 A 
ATOM     61  C   UNL A   1      44.801  26.640  37.329  1.00  0.00     0.059 A 
ATOM     62  F   UNL A   1      42.542  26.978  36.797  1.00  0.00    -0.206 F 
ATOM     63  C   UNL A   1      46.141  26.968  37.127  1.00  0.00     0.060 A 
BRANCH  63  64
ATOM     64  S   UNL A   1      47.437  26.127  38.063  1.00  0.00     0.124 S 
ATOM     65  O   UNL A   1      47.641  24.925  37.259  1.00  0.00    -0.237 OA
ATOM     66  O   UNL A   1      48.524  27.099  38.036  1.00  0.00    -0.237 OA
ATOM     67  O   UNL A   1      46.825  25.911  39.370  1.00  0.00    -0.744 OA
ENDBRANCH  63  64
ENDBRANCH  42  56
BRANCH  43  68
ATOM     68  C   UNL A   1      36.788  33.046  30.875  1.00  0.00     0.058 A 
ATOM     69  C   UNL A   1      35.467  32.763  31.249  1.00  0.00     0.135 A 
ATOM     70  C   UNL A   1      36.992  33.970  29.839  1.00  0.00     0.135 A 
ATOM     71  F   UNL A   1      35.222  31.878  32.228  1.00  0.00    -0.206 F 
ATOM     72  C   UNL A   1      34.386  33.358  30.607  1.00  0.00     0.059 A 
ATOM     73  C   UNL A   1      35.929  34.596  29.198  1.00  0.00     0.059 A 
ATOM     74  F   UNL A   1      38.238  34.284  29.452  1.00  0.00    -0.206 F 
ATOM     75  C   UNL A   1      34.628  34.272  29.580  1.00  0.00     0.060 A 
BRANCH  75  76
ATOM     76  S   UNL A   1      33.224  35.073  28.772  1.00  0.00     0.124 S 
ATOM     77  O   UNL A   1      32.408  35.456  29.918  1.00  0.00    -0.237 OA
ATOM     78  O   UNL A   1      33.864  36.168  28.049  1.00  0.00    -0.237 OA
ATOM     79  O   UNL A   1      32.678  34.012  27.930  1.00  0.00    -0.744 OA
ENDBRANCH  75  76
ENDBRANCH  43  68
BRANCH  55  80
ATOM     80  C   UNL A   1      39.930  34.000  37.016  1.00  0.00     0.058 A 
ATOM     81  C   UNL A   1      40.484  35.290  36.968  1.00  0.00     0.135 A 
ATOM     82  C   UNL A   1      39.124  33.670  38.115  1.00  0.00     0.135 A 
ATOM     83  F   UNL A   1      41.269  35.650  35.940  1.00  0.00    -0.206 F 
ATOM     84  C   UNL A   1      40.260  36.212  37.984  1.00  0.00     0.059 A 
ATOM     85  C   UNL A   1      38.870  34.585  39.133  1.00  0.00     0.059 A 
ATOM     86  F   UNL A   1      38.565  32.453  38.203  1.00  0.00    -0.206 F 
ATOM     87  C   UNL A   1      39.453  35.850  39.064  1.00  0.00     0.060 A 
BRANCH  87  88
ATOM     88  S   UNL A   1      39.143  37.064  40.364  1.00  0.00     0.124 S 
ATOM     89  O   UNL A   1      38.583  38.173  39.601  1.00  0.00    -0.237 OA
ATOM     90  O   UNL A   1      38.209  36.360  41.238  1.00  0.00    -0.237 OA
ATOM     91  O   UNL A   1      40.468  37.296  40.931  1.00  0.00    -0.744 OA
ENDBRANCH  87  88
ENDBRANCH  55  80
ENDBRANCH  29  30
ENDBRANCH  22  24
ENDBRANCH  21  22
ENDBRANCH   1  21
TORSDOF 16
ENDMDL
MODEL 3
REMARK VINA RESULT:     -11.2      6.835     12.255
REMARK SMILES CN(C(=O)N1CCC(C(=O)OCCOC(=O)c2ccc(-c3c4nc(c(-c5c(F)cc(S(=O)(=O)[O-])cc5F)c5ccc([nH]5)c(-c5c(F)cc(S(=O)(=O)[O-])cc5F)c5nc(c(-c6c(F)cc(S(=O)(=O)[O-])cc6F)c6ccc3[nH]6)C=C5)C=C4)cc2)CC1)[C@H]1CCSC1
REMARK SMILES IDX 13 1 12 2 11 3 9 4 10 5 8 6 3 7 4 8 5 9 6 10 84 11 7 12
REMARK SMILES IDX 83 13 2 14 1 15 85 16 86 17 89 18 87 19 88 20 14 21 15 22
REMARK SMILES IDX 16 23 17 24 18 25 82 26 19 27 81 28 20 29 21 30 22 31 75 32
REMARK SMILES IDX 23 33 80 34 74 35 76 36 24 37 79 38 73 39 72 40 25 42 59 43
REMARK SMILES IDX 38 44 58 45 39 46 42 47 57 48 77 49 40 50 41 51 56 53 78 54
REMARK SMILES IDX 43 55 26 56 27 57 36 58 28 59 29 60 35 61 37 62 30 63 31 64
REMARK SMILES IDX 32 65 33 66 34 67 60 68 61 69 70 70 62 71 63 72 69 73 71 74
REMARK SMILES IDX 64 75 65 76 66 77 67 78 68 79 44 80 45 81 54 82 46 83 47 84
REMARK SMILES IDX 53 85 55 86 48 87 49 88 50 89 51 90 52 91
REMARK H PARENT 76 41 42 52
REMARK Flexibility Score: inf
ROOT
ATOM      1  C   UNL A   1      34.780  32.000  29.063  1.00  0.00     0.275 C 
ENDROOT
BRANCH   1   2
ATOM      2  C   UNL A   1      34.577  31.465  27.644  1.00  0.00     0.274 C 
BRANCH   2   3
ATOM      3  O   UNL A   1      33.745  30.290  27.652  1.00  0.00    -0.462 OA
BRANCH   3   4
ATOM      4  C   UNL A   1      32.588  30.370  26.950  1.00  0.00     0.309 C 
ATOM      5  O   UNL A   1      31.891  31.374  26.860  1.00  0.00    -0.252 OA
BRANCH   4   6
ATOM      6  C   UNL A   1      32.222  29.076  26.254  1.00  0.00     0.103 C 
ATOM      7  C   UNL A   1      33.229  26.003  23.736  1.00  0.00     0.320 C 
ATOM      8  O   UNL A   1      33.612  26.521  22.685  1.00  0.00    -0.248 OA
ATOM      9  N   UNL A   1      32.480  26.710  24.652  1.00  0.00    -0.325 N 
ATOM     10  C   UNL A   1      31.649  27.813  24.179  1.00  0.00     0.122 C 
ATOM     11  C   UNL A   1      32.677  26.619  26.100  1.00  0.00     0.122 C 
ATOM     12  C   UNL A   1      32.131  29.151  24.727  1.00  0.00     0.037 C 
ATOM     13  C   UNL A   1      33.170  27.949  26.668  1.00  0.00     0.037 C 
BRANCH   7  14
ATOM     14  N   UNL A   1      33.512  24.675  24.029  1.00  0.00    -0.324 N 
ATOM     15  C   UNL A   1      32.543  23.600  23.822  1.00  0.00     0.149 C 
BRANCH  14  16
ATOM     16  C   UNL A   1      34.931  24.317  24.181  1.00  0.00     0.097 C 
ATOM     17  C   UNL A   1      35.385  24.080  25.625  1.00  0.00     0.037 C 
ATOM     18  C   UNL A   1      35.310  23.055  23.392  1.00  0.00     0.094 C 
ATOM     19  C   UNL A   1      36.820  23.590  25.546  1.00  0.00     0.072 C 
ATOM     20  S   UNL A   1      36.840  22.429  24.156  1.00  0.00    -0.160 SA
ENDBRANCH  14  16
ENDBRANCH   7  14
ENDBRANCH   4   6
ENDBRANCH   3   4
ENDBRANCH   2   3
ENDBRANCH   1   2
BRANCH   1  21
ATOM     21  O   UNL A   1      36.162  31.935  29.463  1.00  0.00    -0.458 OA
BRANCH  21  22
ATOM     22  C   UNL A   1      36.495  30.864  30.223  1.00  0.00     0.338 C 
ATOM     23  O   UNL A   1      35.806  30.306  31.058  1.00  0.00    -0.246 OA
BRANCH  22  24
ATOM     24  C   UNL A   1      37.816  30.365  29.815  1.00  0.00     0.060 A 
ATOM     25  C   UNL A   1      38.790  30.200  30.802  1.00  0.00     0.016 A 
ATOM     26  C   UNL A   1      38.124  30.140  28.473  1.00  0.00     0.016 A 
ATOM     27  C   UNL A   1      40.076  29.796  30.458  1.00  0.00     0.010 A 
ATOM     28  C   UNL A   1      39.417  29.731  28.127  1.00  0.00     0.010 A 
ATOM     29  C   UNL A   1      40.402  29.558  29.117  1.00  0.00    -0.014 A 
BRANCH  29  30
ATOM     30  C   UNL A   1      41.776  29.134  28.757  1.00  0.00     0.031 A 
ATOM     31  C   UNL A   1      42.892  30.138  28.715  1.00  0.00     0.074 A 
ATOM     32  C   UNL A   1      42.016  27.839  28.472  1.00  0.00     0.049 A 
ATOM     33  N   UNL A   1      44.131  29.977  28.330  1.00  0.00    -0.248 NA
ATOM     34  C   UNL A   1      42.573  31.503  29.164  1.00  0.00     0.031 C 
ATOM     35  C   UNL A   1      41.018  26.768  28.508  1.00  0.00     0.029 A 
ATOM     36  N   UNL A   1      43.171  27.206  28.085  1.00  0.00    -0.354 N 
ATOM     37  C   UNL A   1      44.735  31.221  28.462  1.00  0.00     0.074 A 
ATOM     38  C   UNL A   1      43.725  32.130  28.963  1.00  0.00     0.031 C 
ATOM     39  C   UNL A   1      41.600  25.614  28.145  1.00  0.00     0.029 A 
ATOM     40  C   UNL A   1      42.997  25.870  27.809  1.00  0.00     0.049 A 
ATOM     41  H   UNL A   1      44.039  27.663  28.013  1.00  0.00     0.167 HD
ATOM     42  C   UNL A   1      46.015  31.570  28.188  1.00  0.00     0.037 A 
ATOM     43  C   UNL A   1      43.857  24.964  27.304  1.00  0.00     0.037 A 
ATOM     44  C   UNL A   1      47.021  30.653  27.717  1.00  0.00     0.049 A 
ATOM     45  C   UNL A   1      45.263  25.388  26.976  1.00  0.00     0.074 A 
ATOM     46  C   UNL A   1      48.357  30.905  27.455  1.00  0.00     0.029 A 
ATOM     47  N   UNL A   1      46.805  29.313  27.437  1.00  0.00    -0.354 N 
ATOM     48  N   UNL A   1      45.821  26.565  27.118  1.00  0.00    -0.248 NA
ATOM     49  C   UNL A   1      46.151  24.362  26.408  1.00  0.00     0.031 C 
ATOM     50  C   UNL A   1      48.940  29.725  26.980  1.00  0.00     0.029 A 
ATOM     51  C   UNL A   1      47.976  28.730  26.980  1.00  0.00     0.049 A 
ATOM     52  H   UNL A   1      45.946  28.845  27.545  1.00  0.00     0.167 HD
ATOM     53  C   UNL A   1      47.128  26.422  26.664  1.00  0.00     0.074 A 
ATOM     54  C   UNL A   1      47.282  25.038  26.263  1.00  0.00     0.031 C 
ATOM     55  C   UNL A   1      48.110  27.353  26.583  1.00  0.00     0.037 A 
BRANCH  42  56
ATOM     56  C   UNL A   1      46.405  33.008  28.365  1.00  0.00     0.058 A 
ATOM     57  C   UNL A   1      46.952  33.483  29.567  1.00  0.00     0.135 A 
ATOM     58  C   UNL A   1      46.297  33.907  27.291  1.00  0.00     0.135 A 
ATOM     59  F   UNL A   1      47.062  32.668  30.627  1.00  0.00    -0.206 F 
ATOM     60  C   UNL A   1      47.375  34.802  29.699  1.00  0.00     0.059 A 
ATOM     61  C   UNL A   1      46.730  35.225  27.395  1.00  0.00     0.059 A 
ATOM     62  F   UNL A   1      45.775  33.502  26.122  1.00  0.00    -0.206 F 
ATOM     63  C   UNL A   1      47.263  35.665  28.606  1.00  0.00     0.060 A 
BRANCH  63  64
ATOM     64  S   UNL A   1      47.848  37.365  28.780  1.00  0.00     0.124 S 
ATOM     65  O   UNL A   1      46.632  38.120  28.495  1.00  0.00    -0.237 OA
ATOM     66  O   UNL A   1      48.305  37.398  30.165  1.00  0.00    -0.237 OA
ATOM     67  O   UNL A   1      48.900  37.466  27.774  1.00  0.00    -0.744 OA
ENDBRANCH  63  64
ENDBRANCH  42  56
BRANCH  43  68
ATOM     68  C   UNL A   1      43.398  23.578  27.027  1.00  0.00     0.058 A 
ATOM     69  C   UNL A   1      43.115  23.154  25.721  1.00  0.00     0.135 A 
ATOM     70  C   UNL A   1      43.227  22.654  28.069  1.00  0.00     0.135 A 
ATOM     71  F   UNL A   1      43.254  24.006  24.694  1.00  0.00    -0.206 F 
ATOM     72  C   UNL A   1      42.661  21.865  25.458  1.00  0.00     0.059 A 
ATOM     73  C   UNL A   1      42.797  21.354  27.829  1.00  0.00     0.059 A 
ATOM     74  F   UNL A   1      43.496  23.009  29.335  1.00  0.00    -0.206 F 
ATOM     75  C   UNL A   1      42.503  20.973  26.520  1.00  0.00     0.060 A 
BRANCH  75  76
ATOM     76  S   UNL A   1      41.949  19.289  26.173  1.00  0.00     0.124 S 
ATOM     77  O   UNL A   1      42.724  18.967  24.981  1.00  0.00    -0.237 OA
ATOM     78  O   UNL A   1      42.326  18.580  27.392  1.00  0.00    -0.237 OA
ATOM     79  O   UNL A   1      40.511  19.448  25.972  1.00  0.00    -0.744 OA
ENDBRANCH  75  76
ENDBRANCH  43  68
BRANCH  55  80
ATOM     80  C   UNL A   1      49.438  26.902  26.049  1.00  0.00     0.058 A 
ATOM     81  C   UNL A   1      49.777  27.072  24.697  1.00  0.00     0.135 A 
ATOM     82  C   UNL A   1      50.396  26.334  26.902  1.00  0.00     0.135 A 
ATOM     83  F   UNL A   1      48.891  27.604  23.840  1.00  0.00    -0.206 F 
ATOM     84  C   UNL A   1      51.017  26.676  24.206  1.00  0.00     0.059 A 
ATOM     85  C   UNL A   1      51.649  25.949  26.436  1.00  0.00     0.059 A 
ATOM     86  F   UNL A   1      50.122  26.158  28.204  1.00  0.00    -0.206 F 
ATOM     87  C   UNL A   1      51.946  26.113  25.083  1.00  0.00     0.060 A 
BRANCH  87  88
ATOM     88  S   UNL A   1      53.563  25.628  24.443  1.00  0.00     0.124 S 
ATOM     89  O   UNL A   1      53.607  24.215  24.801  1.00  0.00    -0.237 OA
ATOM     90  O   UNL A   1      53.439  25.916  23.017  1.00  0.00    -0.237 OA
ATOM     91  O   UNL A   1      54.487  26.491  25.172  1.00  0.00    -0.744 OA
ENDBRANCH  87  88
ENDBRANCH  55  80
ENDBRANCH  29  30
ENDBRANCH  22  24
ENDBRANCH  21  22
ENDBRANCH   1  21
TORSDOF 16
ENDMDL
