MODEL 1
REMARK VINA RESULT:     -10.9      0.000      0.000
REMARK SMILES CC[C@@H](C(=O)OCCOC(=O)c1ccc(-c2c3nc(c(-c4c(F)cc(S(=O)(=O)[O-])cc4F)c4ccc([nH]4)c(-c4c(F)cc(S(=O)(=O)[O-])cc4F)c4nc(c(-c5c(F)cc(S(=O)(=O)[O-])cc5F)c5ccc2[nH]5)C=C4)C=C3)cc1)N(C)C(=O)N(C)C[C@@H]1CCC[N@H+]1C
REMARK SMILES IDX 7 1 6 2 4 3 5 4 3 5 2 6 1 7 78 8 79 9 80 10 81 11 82 12
REMARK SMILES IDX 83 13 84 14 85 15 86 16 89 17 87 18 88 19 90 20 8 22 9 23
REMARK SMILES IDX 10 24 11 25 12 26 13 27 77 28 14 29 76 30 15 31 16 32 17 33
REMARK SMILES IDX 70 34 18 35 75 36 69 37 71 38 19 39 74 40 68 41 67 42 20 44
REMARK SMILES IDX 54 45 33 46 53 47 34 48 37 49 52 50 72 51 35 52 36 53 51 55
REMARK SMILES IDX 73 56 38 57 21 58 22 59 31 60 23 61 24 62 30 63 32 64 25 65
REMARK SMILES IDX 26 66 27 67 28 68 29 69 55 70 56 71 65 72 57 73 58 74 64 75
REMARK SMILES IDX 66 76 59 77 60 78 61 79 62 80 63 81 39 82 40 83 49 84 41 85
REMARK SMILES IDX 42 86 48 87 50 88 43 89 44 90 45 91 46 92 47 93
REMARK H PARENT 89 21 71 43 37 54
REMARK Flexibility Score: inf
ROOT
ATOM      1  C   UNL A   1      32.861  29.881  25.947  1.00  0.00     0.274 C 
ENDROOT
BRANCH   1   2
ATOM      2  O   UNL A   1      31.502  29.372  25.855  1.00  0.00    -0.461 OA
BRANCH   2   3
ATOM      3  C   UNL A   1      31.192  28.385  24.966  1.00  0.00     0.329 C 
ATOM      4  O   UNL A   1      30.687  27.319  25.313  1.00  0.00    -0.250 OA
BRANCH   3   5
ATOM      5  C   UNL A   1      31.688  28.659  23.498  1.00  0.00     0.196 C 
BRANCH   5   6
ATOM      6  C   UNL A   1      30.586  29.035  22.487  1.00  0.00     0.034 C 
ATOM      7  C   UNL A   1      29.198  29.245  23.086  1.00  0.00     0.007 C 
ENDBRANCH   5   6
BRANCH   5   8
ATOM      8  N   UNL A   1      32.772  27.715  22.963  1.00  0.00    -0.314 N 
ATOM      9  C   UNL A   1      33.947  28.423  22.470  1.00  0.00     0.149 C 
BRANCH   8  10
ATOM     10  C   UNL A   1      32.616  26.318  23.029  1.00  0.00     0.320 C 
ATOM     11  O   UNL A   1      31.657  25.776  22.472  1.00  0.00    -0.248 OA
BRANCH  10  12
ATOM     12  N   UNL A   1      33.445  25.493  23.812  1.00  0.00    -0.322 N 
ATOM     13  C   UNL A   1      33.856  25.721  25.203  1.00  0.00     0.149 C 
BRANCH  12  14
ATOM     14  C   UNL A   1      34.323  24.467  23.082  1.00  0.00     0.185 C 
BRANCH  14  15
ATOM     15  C   UNL A   1      34.538  22.764  23.571  1.00  0.00     0.203 C 
ATOM     16  C   UNL A   1      32.671  22.250  23.240  1.00  0.00     0.073 C 
ATOM     17  N   UNL A   1      35.084  21.926  25.232  1.00  0.00    -0.333 N 
ATOM     18  C   UNL A   1      32.066  21.100  25.029  1.00  0.00     0.068 C 
ATOM     19  C   UNL A   1      33.724  20.984  26.120  1.00  0.00     0.262 C 
ATOM     20  C   UNL A   1      36.358  21.411  25.701  1.00  0.00     0.333 C 
ATOM     21  H   UNL A   1      35.375  22.893  25.372  1.00  0.00     0.348 HD
ENDBRANCH  14  15
ENDBRANCH  12  14
ENDBRANCH  10  12
ENDBRANCH   8  10
ENDBRANCH   5   8
ENDBRANCH   3   5
ENDBRANCH   2   3
ENDBRANCH   1   2
BRANCH   1  22
ATOM     22  C   UNL A   1      32.988  30.883  27.105  1.00  0.00     0.275 C 
BRANCH  22  23
ATOM     23  O   UNL A   1      34.354  31.329  27.163  1.00  0.00    -0.458 OA
BRANCH  23  24
ATOM     24  C   UNL A   1      34.727  31.549  28.434  1.00  0.00     0.338 C 
ATOM     25  O   UNL A   1      34.466  32.542  29.096  1.00  0.00    -0.246 OA
BRANCH  24  26
ATOM     26  C   UNL A   1      35.518  30.437  28.990  1.00  0.00     0.060 A 
ATOM     27  C   UNL A   1      36.623  30.903  30.234  1.00  0.00     0.016 A 
ATOM     28  C   UNL A   1      35.880  29.377  27.743  1.00  0.00     0.016 A 
ATOM     29  C   UNL A   1      38.285  30.458  30.299  1.00  0.00     0.010 A 
ATOM     30  C   UNL A   1      37.517  28.833  27.660  1.00  0.00     0.010 A 
ATOM     31  C   UNL A   1      38.894  29.393  29.049  1.00  0.00    -0.014 A 
BRANCH  31  32
ATOM     32  C   UNL A   1      40.651  29.050  29.224  1.00  0.00     0.031 A 
ATOM     33  C   UNL A   1      41.965  30.158  29.371  1.00  0.00     0.074 A 
ATOM     34  C   UNL A   1      41.041  27.786  28.931  1.00  0.00     0.049 A 
ATOM     35  N   UNL A   1      43.250  29.995  29.031  1.00  0.00    -0.248 NA
ATOM     36  C   UNL A   1      41.798  31.568  29.852  1.00  0.00     0.031 C 
ATOM     37  C   UNL A   1      40.153  26.648  28.718  1.00  0.00     0.029 A 
ATOM     38  N   UNL A   1      42.295  27.254  28.691  1.00  0.00    -0.354 N 
ATOM     39  C   UNL A   1      43.896  31.262  29.161  1.00  0.00     0.074 A 
ATOM     40  C   UNL A   1      42.936  32.181  29.645  1.00  0.00     0.031 C 
ATOM     41  C   UNL A   1      40.866  25.554  28.447  1.00  0.00     0.029 A 
ATOM     42  C   UNL A   1      42.255  25.939  28.274  1.00  0.00     0.049 A 
ATOM     43  H   UNL A   1      43.130  27.761  28.807  1.00  0.00     0.167 HD
ATOM     44  C   UNL A   1      45.135  31.732  28.856  1.00  0.00     0.037 A 
ATOM     45  C   UNL A   1      43.166  25.124  27.710  1.00  0.00     0.037 A 
ATOM     46  C   UNL A   1      46.159  30.903  28.320  1.00  0.00     0.049 A 
ATOM     47  C   UNL A   1      44.547  25.624  27.415  1.00  0.00     0.074 A 
ATOM     48  C   UNL A   1      47.464  31.230  28.011  1.00  0.00     0.029 A 
ATOM     49  N   UNL A   1      45.971  29.574  28.002  1.00  0.00    -0.354 N 
ATOM     50  N   UNL A   1      45.047  26.825  27.570  1.00  0.00    -0.248 NA
ATOM     51  C   UNL A   1      45.486  24.645  26.852  1.00  0.00     0.031 C 
ATOM     52  C   UNL A   1      48.055  30.104  27.440  1.00  0.00     0.029 A 
ATOM     53  C   UNL A   1      47.141  29.063  27.489  1.00  0.00     0.049 A 
ATOM     54  H   UNL A   1      45.133  29.071  28.123  1.00  0.00     0.167 HD
ATOM     55  C   UNL A   1      46.372  26.733  27.158  1.00  0.00     0.074 A 
ATOM     56  C   UNL A   1      46.595  25.362  26.757  1.00  0.00     0.031 C 
ATOM     57  C   UNL A   1      47.327  27.692  27.117  1.00  0.00     0.037 A 
BRANCH  44  58
ATOM     58  C   UNL A   1      45.439  33.227  29.028  1.00  0.00     0.058 A 
ATOM     59  C   UNL A   1      45.194  34.173  28.013  1.00  0.00     0.135 A 
ATOM     60  C   UNL A   1      45.999  33.719  30.224  1.00  0.00     0.135 A 
ATOM     61  F   UNL A   1      44.694  33.781  26.830  1.00  0.00    -0.206 F 
ATOM     62  C   UNL A   1      45.528  35.522  28.159  1.00  0.00     0.059 A 
ATOM     63  C   UNL A   1      46.293  35.073  30.410  1.00  0.00     0.059 A 
ATOM     64  F   UNL A   1      46.274  32.882  31.236  1.00  0.00    -0.206 F 
ATOM     65  C   UNL A   1      46.069  35.966  29.364  1.00  0.00     0.060 A 
BRANCH  65  66
ATOM     66  S   UNL A   1      46.455  37.724  29.546  1.00  0.00     0.124 S 
ATOM     67  O   UNL A   1      47.388  37.939  28.443  1.00  0.00    -0.237 OA
ATOM     68  O   UNL A   1      45.144  38.346  29.395  1.00  0.00    -0.237 OA
ATOM     69  O   UNL A   1      47.036  37.812  30.882  1.00  0.00    -0.744 OA
ENDBRANCH  65  66
ENDBRANCH  44  58
BRANCH  45  70
ATOM     70  C   UNL A   1      42.771  23.726  27.363  1.00  0.00     0.058 A 
ATOM     71  C   UNL A   1      42.533  23.369  26.028  1.00  0.00     0.135 A 
ATOM     72  C   UNL A   1      42.706  22.709  28.332  1.00  0.00     0.135 A 
ATOM     73  F   UNL A   1      42.575  24.305  25.067  1.00  0.00    -0.206 F 
ATOM     74  C   UNL A   1      42.247  22.059  25.664  1.00  0.00     0.059 A 
ATOM     75  C   UNL A   1      42.464  21.383  27.987  1.00  0.00     0.059 A 
ATOM     76  F   UNL A   1      42.953  22.990  29.622  1.00  0.00    -0.206 F 
ATOM     77  C   UNL A   1      42.229  21.069  26.649  1.00  0.00     0.060 A 
BRANCH  77  78
ATOM     78  S   UNL A   1      41.949  19.359  26.144  1.00  0.00     0.124 S 
ATOM     79  O   UNL A   1      40.510  19.356  25.906  1.00  0.00    -0.237 OA
ATOM     80  O   UNL A   1      42.793  19.250  24.959  1.00  0.00    -0.237 OA
ATOM     81  O   UNL A   1      42.400  18.588  27.299  1.00  0.00    -0.744 OA
ENDBRANCH  77  78
ENDBRANCH  45  70
BRANCH  57  82
ATOM     82  C   UNL A   1      48.706  27.289  26.705  1.00  0.00     0.058 A 
ATOM     83  C   UNL A   1      49.671  26.888  27.637  1.00  0.00     0.135 A 
ATOM     84  C   UNL A   1      49.027  27.232  25.339  1.00  0.00     0.135 A 
ATOM     85  F   UNL A   1      49.401  26.923  28.952  1.00  0.00    -0.206 F 
ATOM     86  C   UNL A   1      50.931  26.476  27.228  1.00  0.00     0.059 A 
ATOM     87  C   UNL A   1      50.266  26.783  24.907  1.00  0.00     0.059 A 
ATOM     88  F   UNL A   1      48.123  27.586  24.412  1.00  0.00    -0.206 F 
ATOM     89  C   UNL A   1      51.215  26.422  25.860  1.00  0.00     0.060 A 
BRANCH  89  90
ATOM     90  S   UNL A   1      52.846  25.858  25.346  1.00  0.00     0.124 S 
ATOM     91  O   UNL A   1      53.716  26.706  26.155  1.00  0.00    -0.237 OA
ATOM     92  O   UNL A   1      52.813  24.446  25.714  1.00  0.00    -0.237 OA
ATOM     93  O   UNL A   1      52.864  26.128  23.912  1.00  0.00    -0.744 OA
ENDBRANCH  89  90
ENDBRANCH  57  82
ENDBRANCH  31  32
ENDBRANCH  24  26
ENDBRANCH  23  24
ENDBRANCH  22  23
ENDBRANCH   1  22
TORSDOF 20
ENDMDL
MODEL 2
REMARK VINA RESULT:     -10.8      5.618      9.924
REMARK SMILES CC[C@@H](C(=O)OCCOC(=O)c1ccc(-c2c3nc(c(-c4c(F)cc(S(=O)(=O)[O-])cc4F)c4ccc([nH]4)c(-c4c(F)cc(S(=O)(=O)[O-])cc4F)c4nc(c(-c5c(F)cc(S(=O)(=O)[O-])cc5F)c5ccc2[nH]5)C=C4)C=C3)cc1)N(C)C(=O)N(C)C[C@@H]1CCC[N@H+]1C
REMARK SMILES IDX 7 1 6 2 4 3 5 4 3 5 2 6 1 7 78 8 79 9 80 10 81 11 82 12
REMARK SMILES IDX 83 13 84 14 85 15 86 16 89 17 87 18 88 19 90 20 8 22 9 23
REMARK SMILES IDX 10 24 11 25 12 26 13 27 77 28 14 29 76 30 15 31 16 32 17 33
REMARK SMILES IDX 70 34 18 35 75 36 69 37 71 38 19 39 74 40 68 41 67 42 20 44
REMARK SMILES IDX 54 45 33 46 53 47 34 48 37 49 52 50 72 51 35 52 36 53 51 55
REMARK SMILES IDX 73 56 38 57 21 58 22 59 31 60 23 61 24 62 30 63 32 64 25 65
REMARK SMILES IDX 26 66 27 67 28 68 29 69 55 70 56 71 65 72 57 73 58 74 64 75
REMARK SMILES IDX 66 76 59 77 60 78 61 79 62 80 63 81 39 82 40 83 49 84 41 85
REMARK SMILES IDX 42 86 48 87 50 88 43 89 44 90 45 91 46 92 47 93
REMARK H PARENT 89 21 71 43 37 54
REMARK Flexibility Score: inf
ROOT
ATOM      1  C   UNL A   1      33.395  28.761  26.419  1.00  0.00     0.274 C 
ENDROOT
BRANCH   1   2
ATOM      2  O   UNL A   1      32.445  28.027  25.598  1.00  0.00    -0.461 OA
BRANCH   2   3
ATOM      3  C   UNL A   1      32.007  26.793  25.983  1.00  0.00     0.329 C 
ATOM      4  O   UNL A   1      31.288  26.625  26.966  1.00  0.00    -0.250 OA
BRANCH   3   5
ATOM      5  C   UNL A   1      32.636  25.602  25.169  1.00  0.00     0.196 C 
BRANCH   5   6
ATOM      6  C   UNL A   1      34.144  25.373  25.390  1.00  0.00     0.034 C 
ATOM      7  C   UNL A   1      34.513  24.037  26.029  1.00  0.00     0.007 C 
ENDBRANCH   5   6
BRANCH   5   8
ATOM      8  N   UNL A   1      32.156  25.446  23.720  1.00  0.00    -0.314 N 
ATOM      9  C   UNL A   1      30.968  24.610  23.602  1.00  0.00     0.149 C 
BRANCH   8  10
ATOM     10  C   UNL A   1      32.800  26.119  22.664  1.00  0.00     0.320 C 
ATOM     11  O   UNL A   1      33.637  25.530  21.975  1.00  0.00    -0.248 OA
BRANCH  10  12
ATOM     12  N   UNL A   1      32.630  27.494  22.418  1.00  0.00    -0.322 N 
ATOM     13  C   UNL A   1      33.597  28.566  22.687  1.00  0.00     0.149 C 
BRANCH  12  14
ATOM     14  C   UNL A   1      31.198  28.009  22.214  1.00  0.00     0.185 C 
BRANCH  14  15
ATOM     15  C   UNL A   1      30.213  28.827  23.458  1.00  0.00     0.203 C 
ATOM     16  C   UNL A   1      28.808  27.454  23.499  1.00  0.00     0.073 C 
ATOM     17  N   UNL A   1      29.335  30.555  23.523  1.00  0.00    -0.333 N 
ATOM     18  C   UNL A   1      26.905  28.577  23.426  1.00  0.00     0.068 C 
ATOM     19  C   UNL A   1      27.460  30.485  23.487  1.00  0.00     0.262 C 
ATOM     20  C   UNL A   1      29.721  31.831  24.098  1.00  0.00     0.333 C 
ATOM     21  H   UNL A   1      29.977  30.667  22.739  1.00  0.00     0.348 HD
ENDBRANCH  14  15
ENDBRANCH  12  14
ENDBRANCH  10  12
ENDBRANCH   8  10
ENDBRANCH   5   8
ENDBRANCH   3   5
ENDBRANCH   2   3
ENDBRANCH   1   2
BRANCH   1  22
ATOM     22  C   UNL A   1      32.681  29.852  27.231  1.00  0.00     0.275 C 
BRANCH  22  23
ATOM     23  O   UNL A   1      33.216  31.127  26.835  1.00  0.00    -0.458 OA
BRANCH  23  24
ATOM     24  C   UNL A   1      33.978  31.645  27.810  1.00  0.00     0.338 C 
ATOM     25  O   UNL A   1      33.577  32.082  28.879  1.00  0.00    -0.246 OA
BRANCH  24  26
ATOM     26  C   UNL A   1      35.412  31.645  27.468  1.00  0.00     0.060 A 
ATOM     27  C   UNL A   1      36.143  30.079  27.470  1.00  0.00     0.016 A 
ATOM     28  C   UNL A   1      36.107  33.022  28.124  1.00  0.00     0.016 A 
ATOM     29  C   UNL A   1      37.620  29.678  28.259  1.00  0.00     0.010 A 
ATOM     30  C   UNL A   1      37.600  32.793  28.961  1.00  0.00     0.010 A 
ATOM     31  C   UNL A   1      38.490  30.966  29.066  1.00  0.00    -0.014 A 
BRANCH  31  32
ATOM     32  C   UNL A   1      39.987  30.390  29.878  1.00  0.00     0.031 A 
ATOM     33  C   UNL A   1      41.102  29.176  29.368  1.00  0.00     0.074 A 
ATOM     34  C   UNL A   1      40.130  30.741  31.179  1.00  0.00     0.049 A 
ATOM     35  N   UNL A   1      41.909  28.404  30.108  1.00  0.00    -0.248 NA
ATOM     36  C   UNL A   1      41.249  28.746  27.940  1.00  0.00     0.031 C 
ATOM     37  C   UNL A   1      39.312  31.715  31.893  1.00  0.00     0.029 A 
ATOM     38  N   UNL A   1      40.978  30.264  32.162  1.00  0.00    -0.354 N 
ATOM     39  C   UNL A   1      42.484  27.425  29.243  1.00  0.00     0.074 A 
ATOM     40  C   UNL A   1      42.013  27.684  27.935  1.00  0.00     0.031 C 
ATOM     41  C   UNL A   1      39.720  31.819  33.158  1.00  0.00     0.029 A 
ATOM     42  C   UNL A   1      40.705  30.783  33.411  1.00  0.00     0.049 A 
ATOM     43  H   UNL A   1      41.702  29.621  31.987  1.00  0.00     0.167 HD
ATOM     44  C   UNL A   1      43.269  26.332  29.436  1.00  0.00     0.037 A 
ATOM     45  C   UNL A   1      41.088  30.437  34.656  1.00  0.00     0.037 A 
ATOM     46  C   UNL A   1      43.757  25.954  30.718  1.00  0.00     0.049 A 
ATOM     47  C   UNL A   1      41.990  29.261  34.869  1.00  0.00     0.074 A 
ATOM     48  C   UNL A   1      44.593  24.908  31.052  1.00  0.00     0.029 A 
ATOM     49  N   UNL A   1      43.429  26.619  31.881  1.00  0.00    -0.354 N 
ATOM     50  N   UNL A   1      42.466  28.409  33.995  1.00  0.00    -0.248 NA
ATOM     51  C   UNL A   1      42.397  28.997  36.255  1.00  0.00     0.031 C 
ATOM     52  C   UNL A   1      44.721  24.900  32.439  1.00  0.00     0.029 A 
ATOM     53  C   UNL A   1      44.043  25.999  32.944  1.00  0.00     0.049 A 
ATOM     54  H   UNL A   1      42.847  27.412  31.940  1.00  0.00     0.167 HD
ATOM     55  C   UNL A   1      43.260  27.531  34.724  1.00  0.00     0.074 A 
ATOM     56  C   UNL A   1      43.205  27.960  36.104  1.00  0.00     0.031 C 
ATOM     57  C   UNL A   1      43.977  26.464  34.297  1.00  0.00     0.037 A 
BRANCH  44  58
ATOM     58  C   UNL A   1      43.597  25.417  28.246  1.00  0.00     0.058 A 
ATOM     59  C   UNL A   1      42.884  24.232  27.981  1.00  0.00     0.135 A 
ATOM     60  C   UNL A   1      44.652  25.728  27.364  1.00  0.00     0.135 A 
ATOM     61  F   UNL A   1      41.887  23.847  28.793  1.00  0.00    -0.206 F 
ATOM     62  C   UNL A   1      43.229  23.378  26.929  1.00  0.00     0.059 A 
ATOM     63  C   UNL A   1      44.980  24.915  26.277  1.00  0.00     0.059 A 
ATOM     64  F   UNL A   1      45.388  26.834  27.555  1.00  0.00    -0.206 F 
ATOM     65  C   UNL A   1      44.273  23.732  26.075  1.00  0.00     0.060 A 
BRANCH  65  66
ATOM     66  S   UNL A   1      44.673  22.633  24.695  1.00  0.00     0.124 S 
ATOM     67  O   UNL A   1      45.840  23.295  24.118  1.00  0.00    -0.237 OA
ATOM     68  O   UNL A   1      44.936  21.368  25.372  1.00  0.00    -0.237 OA
ATOM     69  O   UNL A   1      43.468  22.662  23.873  1.00  0.00    -0.744 OA
ENDBRANCH  65  66
ENDBRANCH  44  58
BRANCH  45  70
ATOM     70  C   UNL A   1      40.578  31.228  35.816  1.00  0.00     0.058 A 
ATOM     71  C   UNL A   1      41.389  32.199  36.420  1.00  0.00     0.135 A 
ATOM     72  C   UNL A   1      39.260  31.095  36.284  1.00  0.00     0.135 A 
ATOM     73  F   UNL A   1      42.657  32.359  36.014  1.00  0.00    -0.206 F 
ATOM     74  C   UNL A   1      40.915  33.009  37.444  1.00  0.00     0.059 A 
ATOM     75  C   UNL A   1      38.749  31.923  37.279  1.00  0.00     0.059 A 
ATOM     76  F   UNL A   1      38.431  30.199  35.722  1.00  0.00    -0.206 F 
ATOM     77  C   UNL A   1      39.588  32.873  37.858  1.00  0.00     0.060 A 
BRANCH  77  78
ATOM     78  S   UNL A   1      38.964  33.998  39.125  1.00  0.00     0.124 S 
ATOM     79  O   UNL A   1      40.000  33.894  40.145  1.00  0.00    -0.237 OA
ATOM     80  O   UNL A   1      38.901  35.265  38.403  1.00  0.00    -0.237 OA
ATOM     81  O   UNL A   1      37.669  33.422  39.478  1.00  0.00    -0.744 OA
ENDBRANCH  77  78
ENDBRANCH  45  70
BRANCH  57  82
ATOM     82  C   UNL A   1      44.816  25.740  35.298  1.00  0.00     0.058 A 
ATOM     83  C   UNL A   1      46.122  26.144  35.604  1.00  0.00     0.135 A 
ATOM     84  C   UNL A   1      44.260  24.669  36.017  1.00  0.00     0.135 A 
ATOM     85  F   UNL A   1      46.687  27.167  34.943  1.00  0.00    -0.206 F 
ATOM     86  C   UNL A   1      46.867  25.483  36.569  1.00  0.00     0.059 A 
ATOM     87  C   UNL A   1      44.973  24.021  37.015  1.00  0.00     0.059 A 
ATOM     88  F   UNL A   1      43.004  24.264  35.772  1.00  0.00    -0.206 F 
ATOM     89  C   UNL A   1      46.280  24.427  37.272  1.00  0.00     0.060 A 
BRANCH  89  90
ATOM     90  S   UNL A   1      47.253  23.598  38.541  1.00  0.00     0.124 S 
ATOM     91  O   UNL A   1      46.559  22.319  38.651  1.00  0.00    -0.237 OA
ATOM     92  O   UNL A   1      48.578  23.553  37.933  1.00  0.00    -0.237 OA
ATOM     93  O   UNL A   1      47.127  24.480  39.697  1.00  0.00    -0.744 OA
ENDBRANCH  89  90
ENDBRANCH  57  82
ENDBRANCH  31  32
ENDBRANCH  24  26
ENDBRANCH  23  24
ENDBRANCH  22  23
ENDBRANCH   1  22
TORSDOF 20
ENDMDL
MODEL 3
REMARK VINA RESULT:     -10.7      6.272     11.777
REMARK SMILES CC[C@@H](C(=O)OCCOC(=O)c1ccc(-c2c3nc(c(-c4c(F)cc(S(=O)(=O)[O-])cc4F)c4ccc([nH]4)c(-c4c(F)cc(S(=O)(=O)[O-])cc4F)c4nc(c(-c5c(F)cc(S(=O)(=O)[O-])cc5F)c5ccc2[nH]5)C=C4)C=C3)cc1)N(C)C(=O)N(C)C[C@@H]1CCC[N@H+]1C
REMARK SMILES IDX 7 1 6 2 4 3 5 4 3 5 2 6 1 7 78 8 79 9 80 10 81 11 82 12
REMARK SMILES IDX 83 13 84 14 85 15 86 16 89 17 87 18 88 19 90 20 8 22 9 23
REMARK SMILES IDX 10 24 11 25 12 26 13 27 77 28 14 29 76 30 15 31 16 32 17 33
REMARK SMILES IDX 70 34 18 35 75 36 69 37 71 38 19 39 74 40 68 41 67 42 20 44
REMARK SMILES IDX 54 45 33 46 53 47 34 48 37 49 52 50 72 51 35 52 36 53 51 55
REMARK SMILES IDX 73 56 38 57 21 58 22 59 31 60 23 61 24 62 30 63 32 64 25 65
REMARK SMILES IDX 26 66 27 67 28 68 29 69 55 70 56 71 65 72 57 73 58 74 64 75
REMARK SMILES IDX 66 76 59 77 60 78 61 79 62 80 63 81 39 82 40 83 49 84 41 85
REMARK SMILES IDX 42 86 48 87 50 88 43 89 44 90 45 91 46 92 47 93
REMARK H PARENT 89 21 71 43 37 54
REMARK Flexibility Score: inf
ROOT
ATOM      1  C   UNL A   1      37.879  21.218  25.372  1.00  0.00     0.274 C 
ENDROOT
BRANCH   1   2
ATOM      2  O   UNL A   1      36.626  21.863  25.730  1.00  0.00    -0.461 OA
BRANCH   2   3
ATOM      3  C   UNL A   1      35.534  21.753  24.920  1.00  0.00     0.329 C 
ATOM      4  O   UNL A   1      35.464  22.313  23.828  1.00  0.00    -0.250 OA
BRANCH   3   5
ATOM      5  C   UNL A   1      34.319  20.996  25.573  1.00  0.00     0.196 C 
BRANCH   5   6
ATOM      6  C   UNL A   1      33.630  19.950  24.674  1.00  0.00     0.034 C 
ATOM      7  C   UNL A   1      32.941  18.808  25.415  1.00  0.00     0.007 C 
ENDBRANCH   5   6
BRANCH   5   8
ATOM      8  N   UNL A   1      33.372  21.848  26.428  1.00  0.00    -0.314 N 
ATOM      9  C   UNL A   1      33.800  21.950  27.818  1.00  0.00     0.149 C 
BRANCH   8  10
ATOM     10  C   UNL A   1      32.258  22.492  25.857  1.00  0.00     0.320 C 
ATOM     11  O   UNL A   1      31.306  21.826  25.441  1.00  0.00    -0.248 OA
BRANCH  10  12
ATOM     12  N   UNL A   1      32.215  23.878  25.619  1.00  0.00    -0.322 N 
ATOM     13  C   UNL A   1      31.358  24.863  26.291  1.00  0.00     0.149 C 
BRANCH  12  14
ATOM     14  C   UNL A   1      32.809  24.392  24.301  1.00  0.00     0.185 C 
BRANCH  14  15
ATOM     15  C   UNL A   1      32.020  25.557  23.202  1.00  0.00     0.203 C 
ATOM     16  C   UNL A   1      33.684  26.130  22.329  1.00  0.00     0.073 C 
ATOM     17  N   UNL A   1      30.950  27.145  23.508  1.00  0.00    -0.333 N 
ATOM     18  C   UNL A   1      33.578  28.338  22.285  1.00  0.00     0.068 C 
ATOM     19  C   UNL A   1      31.783  28.757  23.029  1.00  0.00     0.262 C 
ATOM     20  C   UNL A   1      29.516  27.375  23.526  1.00  0.00     0.333 C 
ATOM     21  H   UNL A   1      30.931  26.692  24.421  1.00  0.00     0.348 HD
ENDBRANCH  14  15
ENDBRANCH  12  14
ENDBRANCH  10  12
ENDBRANCH   8  10
ENDBRANCH   5   8
ENDBRANCH   3   5
ENDBRANCH   2   3
ENDBRANCH   1   2
BRANCH   1  22
ATOM     22  C   UNL A   1      39.071  22.132  25.692  1.00  0.00     0.275 C 
BRANCH  22  23
ATOM     23  O   UNL A   1      39.393  21.976  27.084  1.00  0.00    -0.458 OA
BRANCH  23  24
ATOM     24  C   UNL A   1      40.557  22.580  27.373  1.00  0.00     0.338 C 
ATOM     25  O   UNL A   1      41.585  22.025  27.729  1.00  0.00    -0.246 OA
BRANCH  24  26
ATOM     26  C   UNL A   1      40.486  24.044  27.217  1.00  0.00     0.060 A 
ATOM     27  C   UNL A   1      41.978  24.864  27.509  1.00  0.00     0.016 A 
ATOM     28  C   UNL A   1      38.992  24.558  27.778  1.00  0.00     0.016 A 
ATOM     29  C   UNL A   1      42.169  26.243  28.522  1.00  0.00     0.010 A 
ATOM     30  C   UNL A   1      39.004  25.935  28.819  1.00  0.00     0.010 A 
ATOM     31  C   UNL A   1      40.732  26.914  29.264  1.00  0.00    -0.014 A 
BRANCH  31  32
ATOM     32  C   UNL A   1      41.091  28.321  30.325  1.00  0.00     0.031 A 
ATOM     33  C   UNL A   1      42.171  28.424  31.666  1.00  0.00     0.074 A 
ATOM     34  C   UNL A   1      40.217  29.355  30.256  1.00  0.00     0.049 A 
ATOM     35  N   UNL A   1      42.124  29.235  32.731  1.00  0.00    -0.248 NA
ATOM     36  C   UNL A   1      43.329  27.491  31.859  1.00  0.00     0.031 C 
ATOM     37  C   UNL A   1      39.172  29.521  29.253  1.00  0.00     0.029 A 
ATOM     38  N   UNL A   1      40.024  30.439  31.093  1.00  0.00    -0.354 N 
ATOM     39  C   UNL A   1      43.123  28.798  33.652  1.00  0.00     0.074 A 
ATOM     40  C   UNL A   1      43.803  27.710  33.058  1.00  0.00     0.031 C 
ATOM     41  C   UNL A   1      38.493  30.647  29.479  1.00  0.00     0.029 A 
ATOM     42  C   UNL A   1      38.921  31.196  30.752  1.00  0.00     0.049 A 
ATOM     43  H   UNL A   1      40.613  30.649  31.853  1.00  0.00     0.167 HD
ATOM     44  C   UNL A   1      43.462  29.149  34.921  1.00  0.00     0.037 A 
ATOM     45  C   UNL A   1      38.227  32.154  31.396  1.00  0.00     0.037 A 
ATOM     46  C   UNL A   1      42.809  30.198  35.628  1.00  0.00     0.049 A 
ATOM     47  C   UNL A   1      38.626  32.576  32.777  1.00  0.00     0.074 A 
ATOM     48  C   UNL A   1      43.077  30.688  36.890  1.00  0.00     0.029 A 
ATOM     49  N   UNL A   1      41.739  30.904  35.120  1.00  0.00    -0.354 N 
ATOM     50  N   UNL A   1      39.571  32.102  33.551  1.00  0.00    -0.248 NA
ATOM     51  C   UNL A   1      37.844  33.667  33.374  1.00  0.00     0.031 C 
ATOM     52  C   UNL A   1      42.119  31.659  37.175  1.00  0.00     0.029 A 
ATOM     53  C   UNL A   1      41.326  31.829  36.050  1.00  0.00     0.049 A 
ATOM     54  H   UNL A   1      41.335  30.767  34.232  1.00  0.00     0.167 HD
ATOM     55  C   UNL A   1      39.519  32.866  34.712  1.00  0.00     0.074 A 
ATOM     56  C   UNL A   1      38.459  33.833  34.534  1.00  0.00     0.031 C 
ATOM     57  C   UNL A   1      40.280  32.782  35.829  1.00  0.00     0.037 A 
BRANCH  44  58
ATOM     58  C   UNL A   1      44.544  28.351  35.663  1.00  0.00     0.058 A 
ATOM     59  C   UNL A   1      45.901  28.729  35.663  1.00  0.00     0.135 A 
ATOM     60  C   UNL A   1      44.218  27.179  36.376  1.00  0.00     0.135 A 
ATOM     61  F   UNL A   1      46.300  29.814  34.979  1.00  0.00    -0.206 F 
ATOM     62  C   UNL A   1      46.885  27.963  36.293  1.00  0.00     0.059 A 
ATOM     63  C   UNL A   1      45.179  26.426  37.056  1.00  0.00     0.059 A 
ATOM     64  F   UNL A   1      42.949  26.743  36.415  1.00  0.00    -0.206 F 
ATOM     65  C   UNL A   1      46.515  26.817  36.996  1.00  0.00     0.060 A 
BRANCH  65  66
ATOM     66  S   UNL A   1      47.801  25.865  37.840  1.00  0.00     0.124 S 
ATOM     67  O   UNL A   1      48.997  26.262  37.102  1.00  0.00    -0.237 OA
ATOM     68  O   UNL A   1      47.708  26.364  39.208  1.00  0.00    -0.237 OA
ATOM     69  O   UNL A   1      47.381  24.480  37.651  1.00  0.00    -0.744 OA
ENDBRANCH  65  66
ENDBRANCH  44  58
BRANCH  45  70
ATOM     70  C   UNL A   1      37.044  32.768  30.723  1.00  0.00     0.058 A 
ATOM     71  C   UNL A   1      35.746  32.363  31.065  1.00  0.00     0.135 A 
ATOM     72  C   UNL A   1      37.178  33.819  29.798  1.00  0.00     0.135 A 
ATOM     73  F   UNL A   1      35.567  31.359  31.936  1.00  0.00    -0.206 F 
ATOM     74  C   UNL A   1      34.625  32.974  30.518  1.00  0.00     0.059 A 
ATOM     75  C   UNL A   1      36.070  34.475  29.270  1.00  0.00     0.059 A 
ATOM     76  F   UNL A   1      38.397  34.266  29.456  1.00  0.00    -0.206 F 
ATOM     77  C   UNL A   1      34.796  34.039  29.632  1.00  0.00     0.060 A 
BRANCH  77  78
ATOM     78  S   UNL A   1      33.327  34.880  29.006  1.00  0.00     0.124 S 
ATOM     79  O   UNL A   1      32.807  33.899  28.061  1.00  0.00    -0.237 OA
ATOM     80  O   UNL A   1      32.545  35.074  30.223  1.00  0.00    -0.237 OA
ATOM     81  O   UNL A   1      33.865  36.103  28.414  1.00  0.00    -0.744 OA
ENDBRANCH  77  78
ENDBRANCH  45  70
BRANCH  57  82
ATOM     82  C   UNL A   1      40.059  33.797  36.904  1.00  0.00     0.058 A 
ATOM     83  C   UNL A   1      40.645  35.068  36.856  1.00  0.00     0.135 A 
ATOM     84  C   UNL A   1      39.175  33.505  37.956  1.00  0.00     0.135 A 
ATOM     85  F   UNL A   1      41.491  35.388  35.864  1.00  0.00    -0.206 F 
ATOM     86  C   UNL A   1      40.390  36.010  37.843  1.00  0.00     0.059 A 
ATOM     87  C   UNL A   1      38.873  34.446  38.928  1.00  0.00     0.059 A 
ATOM     88  F   UNL A   1      38.573  32.307  38.026  1.00  0.00    -0.206 F 
ATOM     89  C   UNL A   1      39.498  35.689  38.870  1.00  0.00     0.060 A 
BRANCH  89  90
ATOM     90  S   UNL A   1      39.157  36.934  40.126  1.00  0.00     0.124 S 
ATOM     91  O   UNL A   1      40.496  37.202  40.642  1.00  0.00    -0.237 OA
ATOM     92  O   UNL A   1      38.552  38.005  39.342  1.00  0.00    -0.237 OA
ATOM     93  O   UNL A   1      38.255  36.250  41.048  1.00  0.00    -0.744 OA
ENDBRANCH  89  90
ENDBRANCH  57  82
ENDBRANCH  31  32
ENDBRANCH  24  26
ENDBRANCH  23  24
ENDBRANCH  22  23
ENDBRANCH   1  22
TORSDOF 20
ENDMDL
