MODEL 1
REMARK VINA RESULT:     -11.1      0.000      0.000
REMARK SMILES O=C(NCCOCC(=O)OCCOC(=O)c1ccc(-c2c3nc(c(-c4c(F)cc(S(=O)(=O)[O-])cc4F)c4ccc([nH]4)c(-c4c(F)cc(S(=O)(=O)[O-])cc4F)c4nc(c(-c5c(F)cc(S(=O)(=O)[O-])cc5F)c5ccc2[nH]5)C=C4)C=C3)cc1)Nc1cccc(F)c1
REMARK SMILES IDX 11 1 10 2 8 3 9 4 7 5 6 6 5 7 4 8 3 9 1 10 2 11 82 12 83 15
REMARK SMILES IDX 84 16 89 17 85 18 87 19 86 20 88 21 12 22 13 23 14 24 15 25
REMARK SMILES IDX 16 26 17 27 81 28 18 29 80 30 19 31 20 32 21 33 74 34 22 35
REMARK SMILES IDX 79 36 73 37 75 38 23 39 78 40 72 41 71 42 24 44 58 45 37 46
REMARK SMILES IDX 57 47 38 48 41 49 56 50 76 51 39 52 40 53 55 55 77 56 42 57
REMARK SMILES IDX 25 58 26 59 35 60 27 61 28 62 34 63 36 64 29 65 30 66 31 67
REMARK SMILES IDX 32 68 33 69 59 70 60 71 69 72 61 73 62 74 68 75 70 76 63 77
REMARK SMILES IDX 64 78 65 79 66 80 67 81 43 82 44 83 53 84 45 85 46 86 52 87
REMARK SMILES IDX 54 88 47 89 48 90 49 91 50 92 51 93
REMARK H PARENT 3 13 82 14 75 43 41 54
REMARK Flexibility Score: inf
ROOT
ATOM      1  C   UNL A   1      33.905  29.920  26.952  1.00  0.00     0.274 C 
ENDROOT
BRANCH   1   2
ATOM      2  O   UNL A   1      32.527  29.631  27.288  1.00  0.00    -0.460 OA
BRANCH   2   3
ATOM      3  C   UNL A   1      32.200  28.314  27.382  1.00  0.00     0.332 C 
ATOM      4  O   UNL A   1      31.258  27.885  28.045  1.00  0.00    -0.250 OA
BRANCH   3   5
ATOM      5  C   UNL A   1      33.067  27.393  26.492  1.00  0.00     0.282 C 
BRANCH   5   6
ATOM      6  O   UNL A   1      32.895  25.998  26.336  1.00  0.00    -0.368 OA
BRANCH   6   7
ATOM      7  C   UNL A   1      33.469  25.389  25.172  1.00  0.00     0.182 C 
BRANCH   7   8
ATOM      8  C   UNL A   1      33.798  26.336  23.992  1.00  0.00     0.146 C 
BRANCH   8   9
ATOM      9  N   UNL A   1      32.842  26.327  22.915  1.00  0.00    -0.336 N 
ATOM     10  O   UNL A   1      31.201  26.610  21.567  1.00  0.00    -0.249 OA
ATOM     11  C   UNL A   1      31.736  27.003  22.587  1.00  0.00     0.319 C 
ATOM     12  N   UNL A   1      31.260  28.082  23.261  1.00  0.00    -0.308 N 
ATOM     13  H   UNL A   1      33.059  25.642  22.242  1.00  0.00     0.165 HD
ATOM     14  H   UNL A   1      31.713  28.456  24.051  1.00  0.00     0.171 HD
BRANCH  12  15
ATOM     15  C   UNL A   1      30.041  28.637  22.733  1.00  0.00     0.045 A 
ATOM     16  C   UNL A   1      28.804  28.148  23.173  1.00  0.00     0.026 A 
ATOM     17  C   UNL A   1      30.068  29.832  22.001  1.00  0.00     0.065 A 
ATOM     18  C   UNL A   1      27.626  28.886  22.961  1.00  0.00     0.005 A 
ATOM     19  C   UNL A   1      28.884  30.538  21.765  1.00  0.00     0.125 A 
ATOM     20  C   UNL A   1      27.667  30.091  22.261  1.00  0.00     0.039 A 
ATOM     21  F   UNL A   1      28.934  31.709  21.114  1.00  0.00    -0.207 F 
ENDBRANCH  12  15
ENDBRANCH   8   9
ENDBRANCH   7   8
ENDBRANCH   6   7
ENDBRANCH   5   6
ENDBRANCH   3   5
ENDBRANCH   2   3
ENDBRANCH   1   2
BRANCH   1  22
ATOM     22  C   UNL A   1      34.407  31.202  27.641  1.00  0.00     0.275 C 
BRANCH  22  23
ATOM     23  O   UNL A   1      35.851  31.246  27.774  1.00  0.00    -0.458 OA
BRANCH  23  24
ATOM     24  C   UNL A   1      36.276  30.735  28.949  1.00  0.00     0.338 C 
ATOM     25  O   UNL A   1      35.767  30.997  30.031  1.00  0.00    -0.246 OA
BRANCH  24  26
ATOM     26  C   UNL A   1      37.418  29.809  28.902  1.00  0.00     0.060 A 
ATOM     27  C   UNL A   1      38.138  29.619  30.093  1.00  0.00     0.016 A 
ATOM     28  C   UNL A   1      38.034  29.601  27.669  1.00  0.00     0.016 A 
ATOM     29  C   UNL A   1      39.521  29.404  30.050  1.00  0.00     0.010 A 
ATOM     30  C   UNL A   1      39.417  29.376  27.629  1.00  0.00     0.010 A 
ATOM     31  C   UNL A   1      40.188  29.365  28.812  1.00  0.00    -0.014 A 
BRANCH  31  32
ATOM     32  C   UNL A   1      41.640  29.069  28.723  1.00  0.00     0.031 A 
ATOM     33  C   UNL A   1      42.761  30.088  28.693  1.00  0.00     0.074 A 
ATOM     34  C   UNL A   1      41.889  27.769  28.512  1.00  0.00     0.049 A 
ATOM     35  N   UNL A   1      43.983  29.962  28.224  1.00  0.00    -0.248 NA
ATOM     36  C   UNL A   1      42.510  31.412  29.263  1.00  0.00     0.031 C 
ATOM     37  C   UNL A   1      40.866  26.718  28.535  1.00  0.00     0.029 A 
ATOM     38  N   UNL A   1      43.040  27.124  28.176  1.00  0.00    -0.354 N 
ATOM     39  C   UNL A   1      44.600  31.212  28.360  1.00  0.00     0.074 A 
ATOM     40  C   UNL A   1      43.618  32.083  28.964  1.00  0.00     0.031 C 
ATOM     41  C   UNL A   1      41.421  25.565  28.160  1.00  0.00     0.029 A 
ATOM     42  C   UNL A   1      42.819  25.814  27.842  1.00  0.00     0.049 A 
ATOM     43  H   UNL A   1      43.927  27.550  28.173  1.00  0.00     0.167 HD
ATOM     44  C   UNL A   1      45.873  31.573  28.044  1.00  0.00     0.037 A 
ATOM     45  C   UNL A   1      43.643  24.912  27.292  1.00  0.00     0.037 A 
ATOM     46  C   UNL A   1      46.875  30.612  27.632  1.00  0.00     0.049 A 
ATOM     47  C   UNL A   1      45.059  25.301  27.048  1.00  0.00     0.074 A 
ATOM     48  C   UNL A   1      48.231  30.812  27.429  1.00  0.00     0.029 A 
ATOM     49  N   UNL A   1      46.636  29.262  27.410  1.00  0.00    -0.354 N 
ATOM     50  N   UNL A   1      45.612  26.487  27.145  1.00  0.00    -0.248 NA
ATOM     51  C   UNL A   1      45.973  24.226  26.665  1.00  0.00     0.031 C 
ATOM     52  C   UNL A   1      48.804  29.593  27.053  1.00  0.00     0.029 A 
ATOM     53  C   UNL A   1      47.817  28.620  27.071  1.00  0.00     0.049 A 
ATOM     54  H   UNL A   1      45.757  28.825  27.484  1.00  0.00     0.167 HD
ATOM     55  C   UNL A   1      46.953  26.297  26.857  1.00  0.00     0.074 A 
ATOM     56  C   UNL A   1      47.125  24.879  26.601  1.00  0.00     0.031 C 
ATOM     57  C   UNL A   1      47.953  27.210  26.808  1.00  0.00     0.037 A 
BRANCH  44  58
ATOM     58  C   UNL A   1      46.314  33.027  28.140  1.00  0.00     0.058 A 
ATOM     59  C   UNL A   1      46.956  33.563  29.268  1.00  0.00     0.135 A 
ATOM     60  C   UNL A   1      46.218  33.867  27.009  1.00  0.00     0.135 A 
ATOM     61  F   UNL A   1      47.101  32.824  30.379  1.00  0.00    -0.206 F 
ATOM     62  C   UNL A   1      47.459  34.867  29.282  1.00  0.00     0.059 A 
ATOM     63  C   UNL A   1      46.746  35.159  26.988  1.00  0.00     0.059 A 
ATOM     64  F   UNL A   1      45.633  33.421  25.886  1.00  0.00    -0.206 F 
ATOM     65  C   UNL A   1      47.355  35.657  28.136  1.00  0.00     0.060 A 
BRANCH  65  66
ATOM     66  S   UNL A   1      48.046  37.330  28.163  1.00  0.00     0.124 S 
ATOM     67  O   UNL A   1      47.134  38.035  27.266  1.00  0.00    -0.237 OA
ATOM     68  O   UNL A   1      47.947  37.689  29.574  1.00  0.00    -0.237 OA
ATOM     69  O   UNL A   1      49.403  37.149  27.658  1.00  0.00    -0.744 OA
ENDBRANCH  65  66
ENDBRANCH  44  58
BRANCH  45  70
ATOM     70  C   UNL A   1      43.108  23.560  27.036  1.00  0.00     0.058 A 
ATOM     71  C   UNL A   1      42.872  23.142  25.722  1.00  0.00     0.135 A 
ATOM     72  C   UNL A   1      43.012  22.611  28.067  1.00  0.00     0.135 A 
ATOM     73  F   UNL A   1      42.991  24.015  24.709  1.00  0.00    -0.206 F 
ATOM     74  C   UNL A   1      42.550  21.825  25.434  1.00  0.00     0.059 A 
ATOM     75  C   UNL A   1      42.717  21.281  27.800  1.00  0.00     0.059 A 
ATOM     76  F   UNL A   1      43.293  22.960  29.333  1.00  0.00    -0.206 F 
ATOM     77  C   UNL A   1      42.482  20.900  26.479  1.00  0.00     0.060 A 
BRANCH  77  78
ATOM     78  S   UNL A   1      42.141  19.177  26.072  1.00  0.00     0.124 S 
ATOM     79  O   UNL A   1      42.582  18.501  27.287  1.00  0.00    -0.237 OA
ATOM     80  O   UNL A   1      40.701  19.196  25.838  1.00  0.00    -0.237 OA
ATOM     81  O   UNL A   1      42.959  18.942  24.886  1.00  0.00    -0.744 OA
ENDBRANCH  77  78
ENDBRANCH  45  70
BRANCH  57  82
ATOM     82  C   UNL A   1      49.318  26.685  26.475  1.00  0.00     0.058 A 
ATOM     83  C   UNL A   1      49.806  26.710  25.159  1.00  0.00     0.135 A 
ATOM     84  C   UNL A   1      50.144  26.156  27.477  1.00  0.00     0.135 A 
ATOM     85  F   UNL A   1      49.045  27.194  24.164  1.00  0.00    -0.206 F 
ATOM     86  C   UNL A   1      51.056  26.196  24.843  1.00  0.00     0.059 A 
ATOM     87  C   UNL A   1      51.412  25.665  27.189  1.00  0.00     0.059 A 
ATOM     88  F   UNL A   1      49.723  26.117  28.752  1.00  0.00    -0.206 F 
ATOM     89  C   UNL A   1      51.852  25.675  25.865  1.00  0.00     0.060 A 
BRANCH  89  90
ATOM     90  S   UNL A   1      53.478  25.024  25.438  1.00  0.00     0.124 S 
ATOM     91  O   UNL A   1      54.273  25.439  26.589  1.00  0.00    -0.237 OA
ATOM     92  O   UNL A   1      53.219  23.592  25.329  1.00  0.00    -0.237 OA
ATOM     93  O   UNL A   1      53.795  25.696  24.182  1.00  0.00    -0.744 OA
ENDBRANCH  89  90
ENDBRANCH  57  82
ENDBRANCH  31  32
ENDBRANCH  24  26
ENDBRANCH  23  24
ENDBRANCH  22  23
ENDBRANCH   1  22
TORSDOF 19
ENDMDL
MODEL 2
REMARK VINA RESULT:     -10.8      6.992     13.757
REMARK SMILES O=C(NCCOCC(=O)OCCOC(=O)c1ccc(-c2c3nc(c(-c4c(F)cc(S(=O)(=O)[O-])cc4F)c4ccc([nH]4)c(-c4c(F)cc(S(=O)(=O)[O-])cc4F)c4nc(c(-c5c(F)cc(S(=O)(=O)[O-])cc5F)c5ccc2[nH]5)C=C4)C=C3)cc1)Nc1cccc(F)c1
REMARK SMILES IDX 11 1 10 2 8 3 9 4 7 5 6 6 5 7 4 8 3 9 1 10 2 11 82 12 83 15
REMARK SMILES IDX 84 16 89 17 85 18 87 19 86 20 88 21 12 22 13 23 14 24 15 25
REMARK SMILES IDX 16 26 17 27 81 28 18 29 80 30 19 31 20 32 21 33 74 34 22 35
REMARK SMILES IDX 79 36 73 37 75 38 23 39 78 40 72 41 71 42 24 44 58 45 37 46
REMARK SMILES IDX 57 47 38 48 41 49 56 50 76 51 39 52 40 53 55 55 77 56 42 57
REMARK SMILES IDX 25 58 26 59 35 60 27 61 28 62 34 63 36 64 29 65 30 66 31 67
REMARK SMILES IDX 32 68 33 69 59 70 60 71 69 72 61 73 62 74 68 75 70 76 63 77
REMARK SMILES IDX 64 78 65 79 66 80 67 81 43 82 44 83 53 84 45 85 46 86 52 87
REMARK SMILES IDX 54 88 47 89 48 90 49 91 50 92 51 93
REMARK H PARENT 3 13 82 14 75 43 41 54
REMARK Flexibility Score: inf
ROOT
ATOM      1  C   UNL A   1      42.827  22.713  28.902  1.00  0.00     0.274 C 
ENDROOT
BRANCH   1   2
ATOM      2  O   UNL A   1      43.879  23.514  28.316  1.00  0.00    -0.460 OA
BRANCH   2   3
ATOM      3  C   UNL A   1      44.315  24.564  29.062  1.00  0.00     0.332 C 
ATOM      4  O   UNL A   1      43.959  24.782  30.218  1.00  0.00    -0.250 OA
BRANCH   3   5
ATOM      5  C   UNL A   1      45.389  25.424  28.357  1.00  0.00     0.282 C 
BRANCH   5   6
ATOM      6  O   UNL A   1      46.171  25.021  27.249  1.00  0.00    -0.368 OA
BRANCH   6   7
ATOM      7  C   UNL A   1      45.899  25.648  25.988  1.00  0.00     0.182 C 
BRANCH   7   8
ATOM      8  C   UNL A   1      44.413  25.726  25.565  1.00  0.00     0.146 C 
BRANCH   8   9
ATOM      9  N   UNL A   1      43.954  24.641  24.735  1.00  0.00    -0.336 N 
ATOM     10  O   UNL A   1      43.552  22.782  23.749  1.00  0.00    -0.249 OA
ATOM     11  C   UNL A   1      44.106  23.313  24.693  1.00  0.00     0.319 C 
ATOM     12  N   UNL A   1      44.749  22.578  25.637  1.00  0.00    -0.308 N 
ATOM     13  H   UNL A   1      43.377  24.961  24.004  1.00  0.00     0.165 HD
ATOM     14  H   UNL A   1      45.148  22.981  26.442  1.00  0.00     0.171 HD
BRANCH  12  15
ATOM     15  C   UNL A   1      44.803  21.164  25.371  1.00  0.00     0.045 A 
ATOM     16  C   UNL A   1      46.043  20.533  25.205  1.00  0.00     0.026 A 
ATOM     17  C   UNL A   1      43.664  20.368  25.546  1.00  0.00     0.065 A 
ATOM     18  C   UNL A   1      46.153  19.134  25.302  1.00  0.00     0.005 A 
ATOM     19  C   UNL A   1      43.781  18.976  25.604  1.00  0.00     0.125 A 
ATOM     20  C   UNL A   1      45.018  18.353  25.510  1.00  0.00     0.039 A 
ATOM     21  F   UNL A   1      42.689  18.231  25.831  1.00  0.00    -0.207 F 
ENDBRANCH  12  15
ENDBRANCH   8   9
ENDBRANCH   7   8
ENDBRANCH   6   7
ENDBRANCH   5   6
ENDBRANCH   3   5
ENDBRANCH   2   3
ENDBRANCH   1   2
BRANCH   1  22
ATOM     22  C   UNL A   1      41.717  22.389  27.884  1.00  0.00     0.275 C 
BRANCH  22  23
ATOM     23  O   UNL A   1      40.611  23.326  27.935  1.00  0.00    -0.458 OA
BRANCH  23  24
ATOM     24  C   UNL A   1      40.765  24.352  27.072  1.00  0.00     0.338 C 
ATOM     25  O   UNL A   1      41.067  24.214  25.894  1.00  0.00    -0.246 OA
BRANCH  24  26
ATOM     26  C   UNL A   1      40.549  25.709  27.599  1.00  0.00     0.060 A 
ATOM     27  C   UNL A   1      41.632  26.600  27.536  1.00  0.00     0.016 A 
ATOM     28  C   UNL A   1      39.553  25.880  28.559  1.00  0.00     0.016 A 
ATOM     29  C   UNL A   1      41.818  27.550  28.549  1.00  0.00     0.010 A 
ATOM     30  C   UNL A   1      39.737  26.838  29.566  1.00  0.00     0.010 A 
ATOM     31  C   UNL A   1      40.912  27.619  29.623  1.00  0.00    -0.014 A 
BRANCH  31  32
ATOM     32  C   UNL A   1      41.037  28.658  30.676  1.00  0.00     0.031 A 
ATOM     33  C   UNL A   1      41.908  28.577  31.913  1.00  0.00     0.074 A 
ATOM     34  C   UNL A   1      40.163  29.661  30.516  1.00  0.00     0.049 A 
ATOM     35  N   UNL A   1      41.787  29.218  33.055  1.00  0.00    -0.248 NA
ATOM     36  C   UNL A   1      43.068  27.686  31.888  1.00  0.00     0.031 C 
ATOM     37  C   UNL A   1      39.293  29.820  29.346  1.00  0.00     0.029 A 
ATOM     38  N   UNL A   1      39.816  30.682  31.348  1.00  0.00    -0.354 N 
ATOM     39  C   UNL A   1      42.794  28.735  33.899  1.00  0.00     0.074 A 
ATOM     40  C   UNL A   1      43.523  27.749  33.135  1.00  0.00     0.031 C 
ATOM     41  C   UNL A   1      38.460  30.839  29.561  1.00  0.00     0.029 A 
ATOM     42  C   UNL A   1      38.723  31.371  30.890  1.00  0.00     0.049 A 
ATOM     43  H   UNL A   1      40.293  30.900  32.180  1.00  0.00     0.167 HD
ATOM     44  C   UNL A   1      43.093  29.112  35.172  1.00  0.00     0.037 A 
ATOM     45  C   UNL A   1      37.976  32.304  31.494  1.00  0.00     0.037 A 
ATOM     46  C   UNL A   1      42.461  30.244  35.817  1.00  0.00     0.049 A 
ATOM     47  C   UNL A   1      38.383  32.772  32.847  1.00  0.00     0.074 A 
ATOM     48  C   UNL A   1      42.772  30.828  37.035  1.00  0.00     0.029 A 
ATOM     49  N   UNL A   1      41.426  30.991  35.272  1.00  0.00    -0.354 N 
ATOM     50  N   UNL A   1      39.306  32.283  33.641  1.00  0.00    -0.248 NA
ATOM     51  C   UNL A   1      37.682  33.945  33.368  1.00  0.00     0.031 C 
ATOM     52  C   UNL A   1      41.903  31.904  37.241  1.00  0.00     0.029 A 
ATOM     53  C   UNL A   1      41.085  32.026  36.129  1.00  0.00     0.049 A 
ATOM     54  H   UNL A   1      40.997  30.813  34.404  1.00  0.00     0.167 HD
ATOM     55  C   UNL A   1      39.314  33.107  34.754  1.00  0.00     0.074 A 
ATOM     56  C   UNL A   1      38.317  34.134  34.517  1.00  0.00     0.031 C 
ATOM     57  C   UNL A   1      40.077  33.023  35.871  1.00  0.00     0.037 A 
BRANCH  44  58
ATOM     58  C   UNL A   1      44.146  28.363  35.976  1.00  0.00     0.058 A 
ATOM     59  C   UNL A   1      43.850  27.258  36.791  1.00  0.00     0.135 A 
ATOM     60  C   UNL A   1      45.513  28.676  35.810  1.00  0.00     0.135 A 
ATOM     61  F   UNL A   1      42.576  26.885  36.988  1.00  0.00    -0.206 F 
ATOM     62  C   UNL A   1      44.852  26.514  37.421  1.00  0.00     0.059 A 
ATOM     63  C   UNL A   1      46.532  27.925  36.400  1.00  0.00     0.059 A 
ATOM     64  F   UNL A   1      45.878  29.709  35.033  1.00  0.00    -0.206 F 
ATOM     65  C   UNL A   1      46.191  26.851  37.216  1.00  0.00     0.060 A 
BRANCH  65  66
ATOM     66  S   UNL A   1      47.474  25.853  38.012  1.00  0.00     0.124 S 
ATOM     67  O   UNL A   1      48.353  25.557  36.885  1.00  0.00    -0.237 OA
ATOM     68  O   UNL A   1      48.014  26.772  39.009  1.00  0.00    -0.237 OA
ATOM     69  O   UNL A   1      46.739  24.712  38.548  1.00  0.00    -0.744 OA
ENDBRANCH  65  66
ENDBRANCH  44  58
BRANCH  45  70
ATOM     70  C   UNL A   1      36.838  32.866  30.740  1.00  0.00     0.058 A 
ATOM     71  C   UNL A   1      35.530  32.504  31.081  1.00  0.00     0.135 A 
ATOM     72  C   UNL A   1      37.024  33.905  29.813  1.00  0.00     0.135 A 
ATOM     73  F   UNL A   1      35.317  31.540  31.991  1.00  0.00    -0.206 F 
ATOM     74  C   UNL A   1      34.437  33.149  30.523  1.00  0.00     0.059 A 
ATOM     75  C   UNL A   1      35.945  34.582  29.261  1.00  0.00     0.059 A 
ATOM     76  F   UNL A   1      38.263  34.323  29.508  1.00  0.00    -0.206 F 
ATOM     77  C   UNL A   1      34.655  34.192  29.620  1.00  0.00     0.060 A 
BRANCH  77  78
ATOM     78  S   UNL A   1      33.221  35.070  28.969  1.00  0.00     0.124 S 
ATOM     79  O   UNL A   1      32.729  34.122  27.975  1.00  0.00    -0.237 OA
ATOM     80  O   UNL A   1      32.394  35.234  30.161  1.00  0.00    -0.237 OA
ATOM     81  O   UNL A   1      33.793  36.303  28.438  1.00  0.00    -0.744 OA
ENDBRANCH  77  78
ENDBRANCH  45  70
BRANCH  57  82
ATOM     82  C   UNL A   1      39.857  34.086  36.907  1.00  0.00     0.058 A 
ATOM     83  C   UNL A   1      40.459  35.348  36.794  1.00  0.00     0.135 A 
ATOM     84  C   UNL A   1      39.037  33.841  38.019  1.00  0.00     0.135 A 
ATOM     85  F   UNL A   1      41.263  35.624  35.754  1.00  0.00    -0.206 F 
ATOM     86  C   UNL A   1      40.283  36.322  37.766  1.00  0.00     0.059 A 
ATOM     87  C   UNL A   1      38.821  34.812  38.989  1.00  0.00     0.059 A 
ATOM     88  F   UNL A   1      38.434  32.650  38.167  1.00  0.00    -0.206 F 
ATOM     89  C   UNL A   1      39.461  36.045  38.861  1.00  0.00     0.060 A 
BRANCH  89  90
ATOM     90  S   UNL A   1      39.233  37.327  40.108  1.00  0.00     0.124 S 
ATOM     91  O   UNL A   1      38.572  36.584  41.176  1.00  0.00    -0.237 OA
ATOM     92  O   UNL A   1      40.606  37.743  40.380  1.00  0.00    -0.237 OA
ATOM     93  O   UNL A   1      38.406  38.319  39.429  1.00  0.00    -0.744 OA
ENDBRANCH  89  90
ENDBRANCH  57  82
ENDBRANCH  31  32
ENDBRANCH  24  26
ENDBRANCH  23  24
ENDBRANCH  22  23
ENDBRANCH   1  22
TORSDOF 19
ENDMDL
MODEL 3
REMARK VINA RESULT:     -10.7      6.951     12.067
REMARK SMILES O=C(NCCOCC(=O)OCCOC(=O)c1ccc(-c2c3nc(c(-c4c(F)cc(S(=O)(=O)[O-])cc4F)c4ccc([nH]4)c(-c4c(F)cc(S(=O)(=O)[O-])cc4F)c4nc(c(-c5c(F)cc(S(=O)(=O)[O-])cc5F)c5ccc2[nH]5)C=C4)C=C3)cc1)Nc1cccc(F)c1
REMARK SMILES IDX 11 1 10 2 8 3 9 4 7 5 6 6 5 7 4 8 3 9 1 10 2 11 82 12 83 15
REMARK SMILES IDX 84 16 89 17 85 18 87 19 86 20 88 21 12 22 13 23 14 24 15 25
REMARK SMILES IDX 16 26 17 27 81 28 18 29 80 30 19 31 20 32 21 33 74 34 22 35
REMARK SMILES IDX 79 36 73 37 75 38 23 39 78 40 72 41 71 42 24 44 58 45 37 46
REMARK SMILES IDX 57 47 38 48 41 49 56 50 76 51 39 52 40 53 55 55 77 56 42 57
REMARK SMILES IDX 25 58 26 59 35 60 27 61 28 62 34 63 36 64 29 65 30 66 31 67
REMARK SMILES IDX 32 68 33 69 59 70 60 71 69 72 61 73 62 74 68 75 70 76 63 77
REMARK SMILES IDX 64 78 65 79 66 80 67 81 43 82 44 83 53 84 45 85 46 86 52 87
REMARK SMILES IDX 54 88 47 89 48 90 49 91 50 92 51 93
REMARK H PARENT 3 13 82 14 75 43 41 54
REMARK Flexibility Score: inf
ROOT
ATOM      1  C   UNL A   1      37.768  22.303  25.519  1.00  0.00     0.274 C 
ENDROOT
BRANCH   1   2
ATOM      2  O   UNL A   1      36.367  22.187  25.858  1.00  0.00    -0.460 OA
BRANCH   2   3
ATOM      3  C   UNL A   1      35.615  21.410  25.033  1.00  0.00     0.332 C 
ATOM      4  O   UNL A   1      35.742  20.192  24.931  1.00  0.00    -0.250 OA
BRANCH   3   5
ATOM      5  C   UNL A   1      34.502  22.186  24.291  1.00  0.00     0.282 C 
BRANCH   5   6
ATOM      6  O   UNL A   1      33.163  21.757  24.132  1.00  0.00    -0.368 OA
BRANCH   6   7
ATOM      7  C   UNL A   1      32.424  21.451  25.322  1.00  0.00     0.182 C 
BRANCH   7   8
ATOM      8  C   UNL A   1      32.485  22.499  26.459  1.00  0.00     0.146 C 
BRANCH   8   9
ATOM      9  N   UNL A   1      31.380  23.423  26.500  1.00  0.00    -0.336 N 
ATOM     10  O   UNL A   1      30.059  25.108  26.553  1.00  0.00    -0.249 OA
ATOM     11  C   UNL A   1      31.212  24.746  26.410  1.00  0.00     0.319 C 
ATOM     12  N   UNL A   1      32.197  25.633  26.113  1.00  0.00    -0.308 N 
ATOM     13  H   UNL A   1      30.522  22.958  26.630  1.00  0.00     0.165 HD
ATOM     14  H   UNL A   1      33.124  25.355  25.930  1.00  0.00     0.171 HD
BRANCH  12  15
ATOM     15  C   UNL A   1      31.784  27.012  26.089  1.00  0.00     0.045 A 
ATOM     16  C   UNL A   1      31.990  27.821  27.214  1.00  0.00     0.026 A 
ATOM     17  C   UNL A   1      31.435  27.623  24.878  1.00  0.00     0.065 A 
ATOM     18  C   UNL A   1      31.934  29.222  27.107  1.00  0.00     0.005 A 
ATOM     19  C   UNL A   1      31.347  29.016  24.793  1.00  0.00     0.125 A 
ATOM     20  C   UNL A   1      31.619  29.823  25.889  1.00  0.00     0.039 A 
ATOM     21  F   UNL A   1      31.070  29.589  23.612  1.00  0.00    -0.207 F 
ENDBRANCH  12  15
ENDBRANCH   8   9
ENDBRANCH   7   8
ENDBRANCH   6   7
ENDBRANCH   5   6
ENDBRANCH   3   5
ENDBRANCH   2   3
ENDBRANCH   1   2
BRANCH   1  22
ATOM     22  C   UNL A   1      38.371  23.630  26.014  1.00  0.00     0.275 C 
BRANCH  22  23
ATOM     23  O   UNL A   1      39.376  23.447  27.044  1.00  0.00    -0.458 OA
BRANCH  23  24
ATOM     24  C   UNL A   1      40.364  24.365  26.969  1.00  0.00     0.338 C 
ATOM     25  O   UNL A   1      41.450  24.157  26.447  1.00  0.00    -0.246 OA
BRANCH  24  26
ATOM     26  C   UNL A   1      40.094  25.686  27.558  1.00  0.00     0.060 A 
ATOM     27  C   UNL A   1      41.065  26.683  27.365  1.00  0.00     0.016 A 
ATOM     28  C   UNL A   1      39.235  25.746  28.654  1.00  0.00     0.016 A 
ATOM     29  C   UNL A   1      41.301  27.634  28.365  1.00  0.00     0.010 A 
ATOM     30  C   UNL A   1      39.468  26.705  29.648  1.00  0.00     0.010 A 
ATOM     31  C   UNL A   1      40.557  27.600  29.558  1.00  0.00    -0.014 A 
BRANCH  31  32
ATOM     32  C   UNL A   1      40.730  28.633  30.609  1.00  0.00     0.031 A 
ATOM     33  C   UNL A   1      41.628  28.531  31.825  1.00  0.00     0.074 A 
ATOM     34  C   UNL A   1      39.876  29.656  30.472  1.00  0.00     0.049 A 
ATOM     35  N   UNL A   1      41.548  29.171  32.971  1.00  0.00    -0.248 NA
ATOM     36  C   UNL A   1      42.767  27.614  31.771  1.00  0.00     0.031 C 
ATOM     37  C   UNL A   1      38.981  29.837  29.323  1.00  0.00     0.029 A 
ATOM     38  N   UNL A   1      39.571  30.683  31.313  1.00  0.00    -0.354 N 
ATOM     39  C   UNL A   1      42.564  28.664  33.790  1.00  0.00     0.074 A 
ATOM     40  C   UNL A   1      43.253  27.665  33.008  1.00  0.00     0.031 C 
ATOM     41  C   UNL A   1      38.177  30.874  29.560  1.00  0.00     0.029 A 
ATOM     42  C   UNL A   1      38.483  31.396  30.883  1.00  0.00     0.049 A 
ATOM     43  H   UNL A   1      40.073  30.888  32.134  1.00  0.00     0.167 HD
ATOM     44  C   UNL A   1      42.902  29.032  35.056  1.00  0.00     0.037 A 
ATOM     45  C   UNL A   1      37.771  32.345  31.506  1.00  0.00     0.037 A 
ATOM     46  C   UNL A   1      42.311  30.177  35.718  1.00  0.00     0.049 A 
ATOM     47  C   UNL A   1      38.221  32.801  32.850  1.00  0.00     0.074 A 
ATOM     48  C   UNL A   1      42.663  30.751  36.929  1.00  0.00     0.029 A 
ATOM     49  N   UNL A   1      41.280  30.948  35.199  1.00  0.00    -0.354 N 
ATOM     50  N   UNL A   1      39.151  32.290  33.621  1.00  0.00    -0.248 NA
ATOM     51  C   UNL A   1      37.559  33.988  33.389  1.00  0.00     0.031 C 
ATOM     52  C   UNL A   1      41.824  31.846  37.157  1.00  0.00     0.029 A 
ATOM     53  C   UNL A   1      40.983  31.989  36.065  1.00  0.00     0.049 A 
ATOM     54  H   UNL A   1      40.826  30.781  34.341  1.00  0.00     0.167 HD
ATOM     55  C   UNL A   1      39.204  33.111  34.735  1.00  0.00     0.074 A 
ATOM     56  C   UNL A   1      38.224  34.160  34.523  1.00  0.00     0.031 C 
ATOM     57  C   UNL A   1      39.991  33.008  35.833  1.00  0.00     0.037 A 
BRANCH  44  58
ATOM     58  C   UNL A   1      43.957  28.258  35.834  1.00  0.00     0.058 A 
ATOM     59  C   UNL A   1      43.657  27.152  36.645  1.00  0.00     0.135 A 
ATOM     60  C   UNL A   1      45.326  28.548  35.643  1.00  0.00     0.135 A 
ATOM     61  F   UNL A   1      42.381  26.801  36.865  1.00  0.00    -0.206 F 
ATOM     62  C   UNL A   1      44.657  26.386  37.250  1.00  0.00     0.059 A 
ATOM     63  C   UNL A   1      46.342  27.775  36.207  1.00  0.00     0.059 A 
ATOM     64  F   UNL A   1      45.694  29.580  34.867  1.00  0.00    -0.206 F 
ATOM     65  C   UNL A   1      45.998  26.700  37.022  1.00  0.00     0.060 A 
BRANCH  65  66
ATOM     66  S   UNL A   1      47.279  25.674  37.785  1.00  0.00     0.124 S 
ATOM     67  O   UNL A   1      48.468  26.495  37.584  1.00  0.00    -0.237 OA
ATOM     68  O   UNL A   1      46.813  25.563  39.164  1.00  0.00    -0.237 OA
ATOM     69  O   UNL A   1      47.234  24.437  37.010  1.00  0.00    -0.744 OA
ENDBRANCH  65  66
ENDBRANCH  44  58
BRANCH  45  70
ATOM     70  C   UNL A   1      36.629  32.934  30.780  1.00  0.00     0.058 A 
ATOM     71  C   UNL A   1      35.324  32.708  31.234  1.00  0.00     0.135 A 
ATOM     72  C   UNL A   1      36.827  33.875  29.756  1.00  0.00     0.135 A 
ATOM     73  F   UNL A   1      35.104  31.842  32.236  1.00  0.00    -0.206 F 
ATOM     74  C   UNL A   1      34.247  33.391  30.693  1.00  0.00     0.059 A 
ATOM     75  C   UNL A   1      35.766  34.590  29.218  1.00  0.00     0.059 A 
ATOM     76  F   UNL A   1      38.069  34.165  29.338  1.00  0.00    -0.206 F 
ATOM     77  C   UNL A   1      34.478  34.336  29.691  1.00  0.00     0.060 A 
BRANCH  77  78
ATOM     78  S   UNL A   1      33.072  35.271  29.058  1.00  0.00     0.124 S 
ATOM     79  O   UNL A   1      32.540  34.352  28.059  1.00  0.00    -0.237 OA
ATOM     80  O   UNL A   1      32.260  35.452  30.258  1.00  0.00    -0.237 OA
ATOM     81  O   UNL A   1      33.684  36.488  28.535  1.00  0.00    -0.744 OA
ENDBRANCH  77  78
ENDBRANCH  45  70
BRANCH  57  82
ATOM     82  C   UNL A   1      39.820  34.073  36.876  1.00  0.00     0.058 A 
ATOM     83  C   UNL A   1      40.437  35.327  36.743  1.00  0.00     0.135 A 
ATOM     84  C   UNL A   1      39.032  33.840  38.012  1.00  0.00     0.135 A 
ATOM     85  F   UNL A   1      41.212  35.591  35.679  1.00  0.00    -0.206 F 
ATOM     86  C   UNL A   1      40.305  36.303  37.721  1.00  0.00     0.059 A 
ATOM     87  C   UNL A   1      38.861  34.814  38.989  1.00  0.00     0.059 A 
ATOM     88  F   UNL A   1      38.417  32.658  38.180  1.00  0.00    -0.206 F 
ATOM     89  C   UNL A   1      39.515  36.037  38.841  1.00  0.00     0.060 A 
BRANCH  89  90
ATOM     90  S   UNL A   1      39.345  37.321  40.095  1.00  0.00     0.124 S 
ATOM     91  O   UNL A   1      38.517  38.302  39.401  1.00  0.00    -0.237 OA
ATOM     92  O   UNL A   1      38.697  36.603  41.188  1.00  0.00    -0.237 OA
ATOM     93  O   UNL A   1      40.722  37.732  40.350  1.00  0.00    -0.744 OA
ENDBRANCH  89  90
ENDBRANCH  57  82
ENDBRANCH  31  32
ENDBRANCH  24  26
ENDBRANCH  23  24
ENDBRANCH  22  23
ENDBRANCH   1  22
TORSDOF 19
ENDMDL
