MODEL 1
REMARK VINA RESULT:     -12.9      0.000      0.000
REMARK SMILES O=C(OCCOC(=O)c1nccnc1C(=O)Nc1ccc(-n2cncn2)c(Cl)c1)c1ccc(-c2c3nc(c(-c4c(F)cc(S(=O)(=O)[O-])cc4F)c4ccc([nH]4)c(-c4c(F)cc(S(=O)(=O)[O-])cc4F)c4nc(c(-c5c(F)cc(S(=O)(=O)[O-])cc5F)c5ccc2[nH]5)C=C4)C=C3)cc1
REMARK SMILES IDX 4 1 3 2 2 3 1 4 30 5 31 6 95 7 32 8 94 9 33 10 34 11 35 12
REMARK SMILES IDX 88 13 36 14 93 15 87 16 89 17 37 18 92 19 86 20 85 21 38 23
REMARK SMILES IDX 72 24 51 25 71 26 52 27 55 28 70 29 90 30 53 31 54 32 69 34
REMARK SMILES IDX 91 35 56 36 39 37 40 38 49 39 41 40 42 41 48 42 50 43 43 44
REMARK SMILES IDX 44 45 45 46 46 47 47 48 73 49 74 50 83 51 75 52 76 53 82 54
REMARK SMILES IDX 84 55 77 56 78 57 79 58 80 59 81 60 57 61 58 62 67 63 59 64
REMARK SMILES IDX 60 65 66 66 68 67 61 68 62 69 63 70 64 71 65 72 5 73 6 74
REMARK SMILES IDX 7 75 8 76 9 77 10 78 14 79 11 80 13 81 12 82 15 83 16 84
REMARK SMILES IDX 17 85 18 87 19 88 29 89 20 90 27 91 21 92 28 93 22 94 23 95
REMARK SMILES IDX 26 96 24 97 25 98
REMARK H PARENT 89 22 55 33 17 86
REMARK Flexibility Score: inf
ROOT
ATOM      1  C   UNL A   1      38.269  21.499  25.759  1.00  0.00     0.275 C 
ENDROOT
BRANCH   1   2
ATOM      2  O   UNL A   1      39.525  22.174  25.945  1.00  0.00    -0.458 OA
BRANCH   2   3
ATOM      3  C   UNL A   1      40.161  22.473  27.102  1.00  0.00     0.338 C 
ATOM      4  O   UNL A   1      40.392  21.561  27.895  1.00  0.00    -0.246 OA
BRANCH   3   5
ATOM      5  C   UNL A   1      40.428  23.872  27.542  1.00  0.00     0.060 A 
ATOM      6  C   UNL A   1      41.445  24.291  28.398  1.00  0.00     0.016 A 
ATOM      7  C   UNL A   1      39.544  24.842  27.038  1.00  0.00     0.016 A 
ATOM      8  C   UNL A   1      41.558  25.625  28.758  1.00  0.00     0.010 A 
ATOM      9  C   UNL A   1      39.684  26.187  27.351  1.00  0.00     0.010 A 
ATOM     10  C   UNL A   1      40.652  26.564  28.265  1.00  0.00    -0.014 A 
BRANCH  10  11
ATOM     11  C   UNL A   1      40.734  27.910  28.813  1.00  0.00     0.031 A 
ATOM     12  C   UNL A   1      41.844  28.749  28.282  1.00  0.00     0.074 A 
ATOM     13  C   UNL A   1      39.910  28.330  29.793  1.00  0.00     0.049 A 
ATOM     14  N   UNL A   1      42.961  29.041  28.866  1.00  0.00    -0.248 NA
ATOM     15  C   UNL A   1      41.783  29.167  26.875  1.00  0.00     0.031 C 
ATOM     16  C   UNL A   1      38.662  27.733  30.280  1.00  0.00     0.029 A 
ATOM     17  N   UNL A   1      40.023  29.450  30.553  1.00  0.00    -0.354 N 
ATOM     18  C   UNL A   1      43.661  29.858  27.983  1.00  0.00     0.074 A 
ATOM     19  C   UNL A   1      42.966  29.769  26.725  1.00  0.00     0.031 C 
ATOM     20  C   UNL A   1      38.026  28.613  31.085  1.00  0.00     0.029 A 
ATOM     21  C   UNL A   1      38.895  29.753  31.304  1.00  0.00     0.049 A 
ATOM     22  H   UNL A   1      40.837  30.002  30.572  1.00  0.00     0.167 HD
ATOM     23  C   UNL A   1      44.645  30.697  28.418  1.00  0.00     0.037 A 
ATOM     24  C   UNL A   1      38.684  30.888  32.013  1.00  0.00     0.037 A 
ATOM     25  C   UNL A   1      45.121  30.308  29.721  1.00  0.00     0.049 A 
ATOM     26  C   UNL A   1      40.028  31.456  32.315  1.00  0.00     0.074 A 
ATOM     27  C   UNL A   1      45.750  29.187  30.227  1.00  0.00     0.029 A 
ATOM     28  N   UNL A   1      44.635  30.986  30.814  1.00  0.00    -0.354 N 
ATOM     29  N   UNL A   1      40.897  30.865  33.093  1.00  0.00    -0.248 NA
ATOM     30  C   UNL A   1      40.590  32.409  31.368  1.00  0.00     0.031 C 
ATOM     31  C   UNL A   1      45.172  28.993  31.515  1.00  0.00     0.029 A 
ATOM     32  C   UNL A   1      44.282  30.045  31.747  1.00  0.00     0.049 A 
ATOM     33  H   UNL A   1      44.556  31.963  30.910  1.00  0.00     0.167 HD
ATOM     34  C   UNL A   1      42.125  31.054  32.473  1.00  0.00     0.074 A 
ATOM     35  C   UNL A   1      41.879  32.066  31.447  1.00  0.00     0.031 C 
ATOM     36  C   UNL A   1      43.164  30.184  32.654  1.00  0.00     0.037 A 
BRANCH  23  37
ATOM     37  C   UNL A   1      44.930  32.064  27.835  1.00  0.00     0.058 A 
ATOM     38  C   UNL A   1      46.170  32.307  27.205  1.00  0.00     0.135 A 
ATOM     39  C   UNL A   1      44.168  33.215  28.134  1.00  0.00     0.135 A 
ATOM     40  F   UNL A   1      46.975  31.288  26.859  1.00  0.00    -0.206 F 
ATOM     41  C   UNL A   1      46.659  33.596  26.984  1.00  0.00     0.059 A 
ATOM     42  C   UNL A   1      44.616  34.506  27.881  1.00  0.00     0.059 A 
ATOM     43  F   UNL A   1      42.995  33.153  28.773  1.00  0.00    -0.206 F 
ATOM     44  C   UNL A   1      45.882  34.690  27.349  1.00  0.00     0.060 A 
BRANCH  44  45
ATOM     45  S   UNL A   1      46.555  36.352  27.190  1.00  0.00     0.124 S 
ATOM     46  O   UNL A   1      47.072  36.327  25.827  1.00  0.00    -0.237 OA
ATOM     47  O   UNL A   1      45.374  37.178  27.414  1.00  0.00    -0.237 OA
ATOM     48  O   UNL A   1      47.561  36.407  28.247  1.00  0.00    -0.744 OA
ENDBRANCH  44  45
ENDBRANCH  23  37
BRANCH  24  49
ATOM     49  C   UNL A   1      37.430  31.691  32.004  1.00  0.00     0.058 A 
ATOM     50  C   UNL A   1      36.765  32.031  33.194  1.00  0.00     0.135 A 
ATOM     51  C   UNL A   1      36.999  32.362  30.839  1.00  0.00     0.135 A 
ATOM     52  F   UNL A   1      37.126  31.459  34.353  1.00  0.00    -0.206 F 
ATOM     53  C   UNL A   1      35.759  33.006  33.233  1.00  0.00     0.059 A 
ATOM     54  C   UNL A   1      35.997  33.330  30.853  1.00  0.00     0.059 A 
ATOM     55  F   UNL A   1      37.605  32.163  29.659  1.00  0.00    -0.206 F 
ATOM     56  C   UNL A   1      35.395  33.665  32.057  1.00  0.00     0.060 A 
BRANCH  56  57
ATOM     57  S   UNL A   1      34.217  35.037  32.126  1.00  0.00     0.124 S 
ATOM     58  O   UNL A   1      34.968  36.041  32.872  1.00  0.00    -0.237 OA
ATOM     59  O   UNL A   1      33.996  35.325  30.713  1.00  0.00    -0.237 OA
ATOM     60  O   UNL A   1      33.071  34.466  32.829  1.00  0.00    -0.744 OA
ENDBRANCH  56  57
ENDBRANCH  24  49
BRANCH  36  61
ATOM     61  C   UNL A   1      43.052  29.136  33.732  1.00  0.00     0.058 A 
ATOM     62  C   UNL A   1      43.396  29.347  35.079  1.00  0.00     0.135 A 
ATOM     63  C   UNL A   1      42.372  27.948  33.423  1.00  0.00     0.135 A 
ATOM     64  F   UNL A   1      43.960  30.497  35.472  1.00  0.00    -0.206 F 
ATOM     65  C   UNL A   1      43.090  28.410  36.071  1.00  0.00     0.059 A 
ATOM     66  C   UNL A   1      42.032  27.015  34.399  1.00  0.00     0.059 A 
ATOM     67  F   UNL A   1      41.961  27.717  32.166  1.00  0.00    -0.206 F 
ATOM     68  C   UNL A   1      42.398  27.251  35.723  1.00  0.00     0.060 A 
BRANCH  68  69
ATOM     69  S   UNL A   1      41.895  26.097  37.020  1.00  0.00     0.124 S 
ATOM     70  O   UNL A   1      42.975  26.237  37.991  1.00  0.00    -0.237 OA
ATOM     71  O   UNL A   1      40.598  26.626  37.431  1.00  0.00    -0.237 OA
ATOM     72  O   UNL A   1      41.840  24.810  36.330  1.00  0.00    -0.744 OA
ENDBRANCH  68  69
ENDBRANCH  36  61
ENDBRANCH  10  11
ENDBRANCH   3   5
ENDBRANCH   2   3
ENDBRANCH   1   2
BRANCH   1  73
ATOM     73  C   UNL A   1      37.064  22.448  25.720  1.00  0.00     0.275 C 
BRANCH  73  74
ATOM     74  O   UNL A   1      35.862  21.819  25.208  1.00  0.00    -0.457 OA
BRANCH  74  75
ATOM     75  C   UNL A   1      34.735  22.039  25.941  1.00  0.00     0.359 C 
ATOM     76  O   UNL A   1      34.664  21.936  27.164  1.00  0.00    -0.244 OA
BRANCH  75  77
ATOM     77  C   UNL A   1      33.548  22.386  25.117  1.00  0.00     0.179 A 
ATOM     78  N   UNL A   1      33.806  21.901  23.844  1.00  0.00    -0.245 NA
ATOM     79  C   UNL A   1      32.354  23.056  25.433  1.00  0.00     0.161 A 
ATOM     80  C   UNL A   1      32.925  22.171  22.871  1.00  0.00     0.132 A 
ATOM     81  N   UNL A   1      31.486  23.299  24.379  1.00  0.00    -0.247 NA
ATOM     82  C   UNL A   1      31.793  22.890  23.131  1.00  0.00     0.132 A 
BRANCH  79  83
ATOM     83  C   UNL A   1      31.688  23.701  26.673  1.00  0.00     0.276 C 
ATOM     84  O   UNL A   1      31.579  22.957  27.665  1.00  0.00    -0.267 OA
ATOM     85  N   UNL A   1      31.383  25.024  27.002  1.00  0.00    -0.321 N 
ATOM     86  H   UNL A   1      31.275  25.157  27.972  1.00  0.00     0.170 HD
BRANCH  85  87
ATOM     87  C   UNL A   1      31.195  26.194  26.276  1.00  0.00     0.043 A 
ATOM     88  C   UNL A   1      30.194  26.206  25.361  1.00  0.00     0.028 A 
ATOM     89  C   UNL A   1      31.866  27.396  26.508  1.00  0.00     0.049 A 
ATOM     90  C   UNL A   1      29.975  27.232  24.481  1.00  0.00     0.032 A 
ATOM     91  C   UNL A   1      31.645  28.499  25.647  1.00  0.00     0.068 A 
ATOM     92  C   UNL A   1      30.726  28.383  24.603  1.00  0.00     0.085 A 
ATOM     93  Cl  UNL A   1      32.467  29.981  25.961  1.00  0.00    -0.082 Cl
BRANCH  92  94
ATOM     94  N   UNL A   1      30.514  29.319  23.575  1.00  0.00    -0.220 N 
ATOM     95  C   UNL A   1      30.940  29.117  22.279  1.00  0.00     0.226 A 
ATOM     96  N   UNL A   1      29.349  30.027  23.544  1.00  0.00    -0.155 NA
ATOM     97  N   UNL A   1      30.081  29.630  21.425  1.00  0.00    -0.223 NA
ATOM     98  C   UNL A   1      29.114  30.139  22.238  1.00  0.00     0.246 A 
ENDBRANCH  92  94
ENDBRANCH  85  87
ENDBRANCH  79  83
ENDBRANCH  75  77
ENDBRANCH  74  75
ENDBRANCH  73  74
ENDBRANCH   1  73
TORSDOF 17
ENDMDL
MODEL 2
REMARK VINA RESULT:     -12.8      3.060      9.076
REMARK SMILES O=C(OCCOC(=O)c1nccnc1C(=O)Nc1ccc(-n2cncn2)c(Cl)c1)c1ccc(-c2c3nc(c(-c4c(F)cc(S(=O)(=O)[O-])cc4F)c4ccc([nH]4)c(-c4c(F)cc(S(=O)(=O)[O-])cc4F)c4nc(c(-c5c(F)cc(S(=O)(=O)[O-])cc5F)c5ccc2[nH]5)C=C4)C=C3)cc1
REMARK SMILES IDX 4 1 3 2 2 3 1 4 30 5 31 6 95 7 32 8 94 9 33 10 34 11 35 12
REMARK SMILES IDX 88 13 36 14 93 15 87 16 89 17 37 18 92 19 86 20 85 21 38 23
REMARK SMILES IDX 72 24 51 25 71 26 52 27 55 28 70 29 90 30 53 31 54 32 69 34
REMARK SMILES IDX 91 35 56 36 39 37 40 38 49 39 41 40 42 41 48 42 50 43 43 44
REMARK SMILES IDX 44 45 45 46 46 47 47 48 73 49 74 50 83 51 75 52 76 53 82 54
REMARK SMILES IDX 84 55 77 56 78 57 79 58 80 59 81 60 57 61 58 62 67 63 59 64
REMARK SMILES IDX 60 65 66 66 68 67 61 68 62 69 63 70 64 71 65 72 5 73 6 74
REMARK SMILES IDX 7 75 8 76 9 77 10 78 14 79 11 80 13 81 12 82 15 83 16 84
REMARK SMILES IDX 17 85 18 87 19 88 29 89 20 90 27 91 21 92 28 93 22 94 23 95
REMARK SMILES IDX 26 96 24 97 25 98
REMARK H PARENT 89 22 55 33 17 86
REMARK Flexibility Score: inf
ROOT
ATOM      1  C   UNL A   1      32.977  30.404  27.320  1.00  0.00     0.275 C 
ENDROOT
BRANCH   1   2
ATOM      2  O   UNL A   1      34.161  31.171  27.042  1.00  0.00    -0.458 OA
BRANCH   2   3
ATOM      3  C   UNL A   1      35.032  31.727  27.915  1.00  0.00     0.338 C 
ATOM      4  O   UNL A   1      34.869  32.905  28.234  1.00  0.00    -0.246 OA
BRANCH   3   5
ATOM      5  C   UNL A   1      36.280  31.045  28.363  1.00  0.00     0.060 A 
ATOM      6  C   UNL A   1      37.446  31.662  28.809  1.00  0.00     0.016 A 
ATOM      7  C   UNL A   1      36.252  29.640  28.307  1.00  0.00     0.016 A 
ATOM      8  C   UNL A   1      38.553  30.905  29.162  1.00  0.00     0.010 A 
ATOM      9  C   UNL A   1      37.337  28.875  28.710  1.00  0.00     0.010 A 
ATOM     10  C   UNL A   1      38.510  29.514  29.073  1.00  0.00    -0.014 A 
BRANCH  10  11
ATOM     11  C   UNL A   1      39.756  28.798  29.302  1.00  0.00     0.031 A 
ATOM     12  C   UNL A   1      40.121  28.595  30.732  1.00  0.00     0.074 A 
ATOM     13  C   UNL A   1      40.558  28.425  28.287  1.00  0.00     0.049 A 
ATOM     14  N   UNL A   1      41.009  29.238  31.418  1.00  0.00    -0.248 NA
ATOM     15  C   UNL A   1      39.285  27.695  31.538  1.00  0.00     0.031 C 
ATOM     16  C   UNL A   1      40.273  28.359  26.850  1.00  0.00     0.029 A 
ATOM     17  N   UNL A   1      41.839  27.977  28.358  1.00  0.00    -0.354 N 
ATOM     18  C   UNL A   1      40.995  28.681  32.694  1.00  0.00     0.074 A 
ATOM     19  C   UNL A   1      39.816  27.856  32.753  1.00  0.00     0.031 C 
ATOM     20  C   UNL A   1      41.264  27.685  26.224  1.00  0.00     0.029 A 
ATOM     21  C   UNL A   1      42.323  27.427  27.179  1.00  0.00     0.049 A 
ATOM     22  H   UNL A   1      42.380  28.036  29.179  1.00  0.00     0.167 HD
ATOM     23  C   UNL A   1      42.065  28.793  33.532  1.00  0.00     0.037 A 
ATOM     24  C   UNL A   1      43.496  26.766  27.025  1.00  0.00     0.037 A 
ATOM     25  C   UNL A   1      42.939  29.862  33.119  1.00  0.00     0.049 A 
ATOM     26  C   UNL A   1      44.389  27.223  28.127  1.00  0.00     0.074 A 
ATOM     27  C   UNL A   1      42.801  31.230  32.991  1.00  0.00     0.029 A 
ATOM     28  N   UNL A   1      44.064  29.534  32.399  1.00  0.00    -0.354 N 
ATOM     29  N   UNL A   1      44.835  28.448  28.227  1.00  0.00    -0.248 NA
ATOM     30  C   UNL A   1      44.375  26.465  29.370  1.00  0.00     0.031 C 
ATOM     31  C   UNL A   1      43.528  31.563  31.812  1.00  0.00     0.029 A 
ATOM     32  C   UNL A   1      44.125  30.394  31.334  1.00  0.00     0.049 A 
ATOM     33  H   UNL A   1      44.705  28.817  32.610  1.00  0.00     0.167 HD
ATOM     34  C   UNL A   1      44.770  28.748  29.581  1.00  0.00     0.074 A 
ATOM     35  C   UNL A   1      44.537  27.464  30.241  1.00  0.00     0.031 C 
ATOM     36  C   UNL A   1      44.633  30.032  30.028  1.00  0.00     0.037 A 
BRANCH  23  37
ATOM     37  C   UNL A   1      42.511  27.724  34.506  1.00  0.00     0.058 A 
ATOM     38  C   UNL A   1      42.487  27.992  35.892  1.00  0.00     0.135 A 
ATOM     39  C   UNL A   1      43.236  26.574  34.124  1.00  0.00     0.135 A 
ATOM     40  F   UNL A   1      41.817  29.051  36.374  1.00  0.00    -0.206 F 
ATOM     41  C   UNL A   1      43.213  27.236  36.814  1.00  0.00     0.059 A 
ATOM     42  C   UNL A   1      43.928  25.780  35.032  1.00  0.00     0.059 A 
ATOM     43  F   UNL A   1      43.392  26.214  32.846  1.00  0.00    -0.206 F 
ATOM     44  C   UNL A   1      43.951  26.144  36.368  1.00  0.00     0.060 A 
BRANCH  44  45
ATOM     45  S   UNL A   1      44.993  25.243  37.527  1.00  0.00     0.124 S 
ATOM     46  O   UNL A   1      46.299  25.835  37.264  1.00  0.00    -0.237 OA
ATOM     47  O   UNL A   1      44.381  25.581  38.808  1.00  0.00    -0.237 OA
ATOM     48  O   UNL A   1      44.833  23.853  37.109  1.00  0.00    -0.744 OA
ENDBRANCH  44  45
ENDBRANCH  23  37
BRANCH  24  49
ATOM     49  C   UNL A   1      43.673  25.479  26.297  1.00  0.00     0.058 A 
ATOM     50  C   UNL A   1      44.724  25.287  25.385  1.00  0.00     0.135 A 
ATOM     51  C   UNL A   1      42.962  24.320  26.677  1.00  0.00     0.135 A 
ATOM     52  F   UNL A   1      45.469  26.330  24.988  1.00  0.00    -0.206 F 
ATOM     53  C   UNL A   1      45.074  24.017  24.909  1.00  0.00     0.059 A 
ATOM     54  C   UNL A   1      43.288  23.049  26.211  1.00  0.00     0.059 A 
ATOM     55  F   UNL A   1      41.980  24.376  27.590  1.00  0.00    -0.206 F 
ATOM     56  C   UNL A   1      44.360  22.899  25.343  1.00  0.00     0.060 A 
BRANCH  56  57
ATOM     57  S   UNL A   1      44.907  21.242  24.864  1.00  0.00     0.124 S 
ATOM     58  O   UNL A   1      46.308  21.259  25.270  1.00  0.00    -0.237 OA
ATOM     59  O   UNL A   1      44.025  20.386  25.650  1.00  0.00    -0.237 OA
ATOM     60  O   UNL A   1      44.677  21.213  23.421  1.00  0.00    -0.744 OA
ENDBRANCH  56  57
ENDBRANCH  24  49
BRANCH  36  61
ATOM     61  C   UNL A   1      44.797  31.163  29.045  1.00  0.00     0.058 A 
ATOM     62  C   UNL A   1      46.038  31.696  28.652  1.00  0.00     0.135 A 
ATOM     63  C   UNL A   1      43.668  31.572  28.320  1.00  0.00     0.135 A 
ATOM     64  F   UNL A   1      47.176  31.284  29.229  1.00  0.00    -0.206 F 
ATOM     65  C   UNL A   1      46.147  32.604  27.595  1.00  0.00     0.059 A 
ATOM     66  C   UNL A   1      43.756  32.454  27.247  1.00  0.00     0.059 A 
ATOM     67  F   UNL A   1      42.463  31.052  28.606  1.00  0.00    -0.206 F 
ATOM     68  C   UNL A   1      45.000  32.971  26.892  1.00  0.00     0.060 A 
BRANCH  68  69
ATOM     69  S   UNL A   1      45.153  34.051  25.451  1.00  0.00     0.124 S 
ATOM     70  O   UNL A   1      44.550  33.244  24.396  1.00  0.00    -0.237 OA
ATOM     71  O   UNL A   1      44.397  35.232  25.857  1.00  0.00    -0.237 OA
ATOM     72  O   UNL A   1      46.595  34.258  25.331  1.00  0.00    -0.744 OA
ENDBRANCH  68  69
ENDBRANCH  36  61
ENDBRANCH  10  11
ENDBRANCH   3   5
ENDBRANCH   2   3
ENDBRANCH   1   2
BRANCH   1  73
ATOM     73  C   UNL A   1      32.730  29.273  26.313  1.00  0.00     0.275 C 
BRANCH  73  74
ATOM     74  O   UNL A   1      33.036  27.960  26.847  1.00  0.00    -0.457 OA
BRANCH  74  75
ATOM     75  C   UNL A   1      32.164  26.974  26.497  1.00  0.00     0.359 C 
ATOM     76  O   UNL A   1      30.974  26.948  26.808  1.00  0.00    -0.244 OA
BRANCH  75  77
ATOM     77  C   UNL A   1      32.790  25.875  25.717  1.00  0.00     0.179 A 
ATOM     78  N   UNL A   1      34.157  25.990  25.917  1.00  0.00    -0.245 NA
ATOM     79  C   UNL A   1      32.235  24.866  24.911  1.00  0.00     0.161 A 
ATOM     80  C   UNL A   1      34.969  25.169  25.237  1.00  0.00     0.132 A 
ATOM     81  N   UNL A   1      33.133  24.050  24.240  1.00  0.00    -0.247 NA
ATOM     82  C   UNL A   1      34.463  24.230  24.384  1.00  0.00     0.132 A 
BRANCH  79  83
ATOM     83  C   UNL A   1      30.831  24.388  24.466  1.00  0.00     0.276 C 
ATOM     84  O   UNL A   1      30.614  23.171  24.612  1.00  0.00    -0.267 OA
ATOM     85  N   UNL A   1      29.658  25.073  24.142  1.00  0.00    -0.321 N 
ATOM     86  H   UNL A   1      28.856  24.508  24.223  1.00  0.00     0.170 HD
BRANCH  85  87
ATOM     87  C   UNL A   1      29.362  26.367  23.731  1.00  0.00     0.043 A 
ATOM     88  C   UNL A   1      28.092  26.805  23.919  1.00  0.00     0.028 A 
ATOM     89  C   UNL A   1      30.296  27.292  23.265  1.00  0.00     0.049 A 
ATOM     90  C   UNL A   1      27.617  28.000  23.446  1.00  0.00     0.032 A 
ATOM     91  C   UNL A   1      29.859  28.556  22.799  1.00  0.00     0.068 A 
ATOM     92  C   UNL A   1      28.502  28.877  22.853  1.00  0.00     0.085 A 
ATOM     93  Cl  UNL A   1      31.031  29.693  22.246  1.00  0.00    -0.082 Cl
BRANCH  92  94
ATOM     94  N   UNL A   1      27.894  30.012  22.287  1.00  0.00    -0.220 N 
ATOM     95  C   UNL A   1      27.788  31.216  22.952  1.00  0.00     0.226 A 
ATOM     96  N   UNL A   1      28.054  30.264  20.956  1.00  0.00    -0.155 NA
ATOM     97  N   UNL A   1      27.912  32.220  22.111  1.00  0.00    -0.223 NA
ATOM     98  C   UNL A   1      28.108  31.593  20.919  1.00  0.00     0.246 A 
ENDBRANCH  92  94
ENDBRANCH  85  87
ENDBRANCH  79  83
ENDBRANCH  75  77
ENDBRANCH  74  75
ENDBRANCH  73  74
ENDBRANCH   1  73
TORSDOF 17
ENDMDL
MODEL 3
REMARK VINA RESULT:     -12.8      4.824      7.396
REMARK SMILES O=C(OCCOC(=O)c1nccnc1C(=O)Nc1ccc(-n2cncn2)c(Cl)c1)c1ccc(-c2c3nc(c(-c4c(F)cc(S(=O)(=O)[O-])cc4F)c4ccc([nH]4)c(-c4c(F)cc(S(=O)(=O)[O-])cc4F)c4nc(c(-c5c(F)cc(S(=O)(=O)[O-])cc5F)c5ccc2[nH]5)C=C4)C=C3)cc1
REMARK SMILES IDX 4 1 3 2 2 3 1 4 30 5 31 6 95 7 32 8 94 9 33 10 34 11 35 12
REMARK SMILES IDX 88 13 36 14 93 15 87 16 89 17 37 18 92 19 86 20 85 21 38 23
REMARK SMILES IDX 72 24 51 25 71 26 52 27 55 28 70 29 90 30 53 31 54 32 69 34
REMARK SMILES IDX 91 35 56 36 39 37 40 38 49 39 41 40 42 41 48 42 50 43 43 44
REMARK SMILES IDX 44 45 45 46 46 47 47 48 73 49 74 50 83 51 75 52 76 53 82 54
REMARK SMILES IDX 84 55 77 56 78 57 79 58 80 59 81 60 57 61 58 62 67 63 59 64
REMARK SMILES IDX 60 65 66 66 68 67 61 68 62 69 63 70 64 71 65 72 5 73 6 74
REMARK SMILES IDX 7 75 8 76 9 77 10 78 14 79 11 80 13 81 12 82 15 83 16 84
REMARK SMILES IDX 17 85 18 87 19 88 29 89 20 90 27 91 21 92 28 93 22 94 23 95
REMARK SMILES IDX 26 96 24 97 25 98
REMARK H PARENT 89 22 55 33 17 86
REMARK Flexibility Score: inf
ROOT
ATOM      1  C   UNL A   1      40.088  20.789  26.554  1.00  0.00     0.275 C 
ENDROOT
BRANCH   1   2
ATOM      2  O   UNL A   1      40.346  22.110  27.058  1.00  0.00    -0.458 OA
BRANCH   2   3
ATOM      3  C   UNL A   1      40.980  23.139  26.449  1.00  0.00     0.338 C 
ATOM      4  O   UNL A   1      41.646  22.902  25.442  1.00  0.00    -0.246 OA
BRANCH   3   5
ATOM      5  C   UNL A   1      41.062  24.505  27.040  1.00  0.00     0.060 A 
ATOM      6  C   UNL A   1      41.466  24.824  28.335  1.00  0.00     0.016 A 
ATOM      7  C   UNL A   1      40.676  25.555  26.188  1.00  0.00     0.016 A 
ATOM      8  C   UNL A   1      41.460  26.141  28.771  1.00  0.00     0.010 A 
ATOM      9  C   UNL A   1      40.718  26.880  26.600  1.00  0.00     0.010 A 
ATOM     10  C   UNL A   1      41.046  27.162  27.914  1.00  0.00    -0.014 A 
BRANCH  10  11
ATOM     11  C   UNL A   1      40.911  28.491  28.490  1.00  0.00     0.031 A 
ATOM     12  C   UNL A   1      42.057  29.411  28.248  1.00  0.00     0.074 A 
ATOM     13  C   UNL A   1      39.858  28.829  29.258  1.00  0.00     0.049 A 
ATOM     14  N   UNL A   1      42.987  29.749  29.081  1.00  0.00    -0.248 NA
ATOM     15  C   UNL A   1      42.296  29.871  26.873  1.00  0.00     0.031 C 
ATOM     16  C   UNL A   1      38.572  28.144  29.431  1.00  0.00     0.029 A 
ATOM     17  N   UNL A   1      39.718  29.929  30.044  1.00  0.00    -0.354 N 
ATOM     18  C   UNL A   1      43.818  30.635  28.401  1.00  0.00     0.074 A 
ATOM     19  C   UNL A   1      43.440  30.547  27.014  1.00  0.00     0.031 C 
ATOM     20  C   UNL A   1      37.711  28.958  30.081  1.00  0.00     0.029 A 
ATOM     21  C   UNL A   1      38.430  30.139  30.516  1.00  0.00     0.049 A 
ATOM     22  H   UNL A   1      40.469  30.527  30.262  1.00  0.00     0.167 HD
ATOM     23  C   UNL A   1      44.618  31.516  29.067  1.00  0.00     0.037 A 
ATOM     24  C   UNL A   1      37.987  31.237  31.177  1.00  0.00     0.037 A 
ATOM     25  C   UNL A   1      44.803  31.114  30.439  1.00  0.00     0.049 A 
ATOM     26  C   UNL A   1      39.185  31.873  31.794  1.00  0.00     0.074 A 
ATOM     27  C   UNL A   1      45.370  30.017  31.057  1.00  0.00     0.029 A 
ATOM     28  N   UNL A   1      44.035  31.726  31.400  1.00  0.00    -0.354 N 
ATOM     29  N   UNL A   1      39.887  31.309  32.743  1.00  0.00    -0.248 NA
ATOM     30  C   UNL A   1      39.887  32.887  31.022  1.00  0.00     0.031 C 
ATOM     31  C   UNL A   1      44.523  29.747  32.171  1.00  0.00     0.029 A 
ATOM     32  C   UNL A   1      43.538  30.736  32.208  1.00  0.00     0.049 A 
ATOM     33  H   UNL A   1      43.872  32.693  31.492  1.00  0.00     0.167 HD
ATOM     34  C   UNL A   1      41.210  31.591  32.430  1.00  0.00     0.074 A 
ATOM     35  C   UNL A   1      41.142  32.619  31.393  1.00  0.00     0.031 C 
ATOM     36  C   UNL A   1      42.233  30.779  32.832  1.00  0.00     0.037 A 
BRANCH  23  37
ATOM     37  C   UNL A   1      44.940  32.916  28.592  1.00  0.00     0.058 A 
ATOM     38  C   UNL A   1      46.288  33.299  28.419  1.00  0.00     0.135 A 
ATOM     39  C   UNL A   1      44.006  33.975  28.592  1.00  0.00     0.135 A 
ATOM     40  F   UNL A   1      47.264  32.377  28.387  1.00  0.00    -0.206 F 
ATOM     41  C   UNL A   1      46.685  34.635  28.353  1.00  0.00     0.059 A 
ATOM     42  C   UNL A   1      44.376  35.311  28.483  1.00  0.00     0.059 A 
ATOM     43  F   UNL A   1      42.699  33.780  28.793  1.00  0.00    -0.206 F 
ATOM     44  C   UNL A   1      45.721  35.636  28.411  1.00  0.00     0.060 A 
BRANCH  44  45
ATOM     45  S   UNL A   1      46.231  37.361  28.462  1.00  0.00     0.124 S 
ATOM     46  O   UNL A   1      44.944  38.044  28.521  1.00  0.00    -0.237 OA
ATOM     47  O   UNL A   1      47.035  37.402  29.678  1.00  0.00    -0.237 OA
ATOM     48  O   UNL A   1      46.977  37.526  27.218  1.00  0.00    -0.744 OA
ENDBRANCH  44  45
ENDBRANCH  23  37
BRANCH  24  49
ATOM     49  C   UNL A   1      36.719  31.963  30.891  1.00  0.00     0.058 A 
ATOM     50  C   UNL A   1      35.761  32.194  31.891  1.00  0.00     0.135 A 
ATOM     51  C   UNL A   1      36.541  32.676  29.685  1.00  0.00     0.135 A 
ATOM     52  F   UNL A   1      35.866  31.577  33.079  1.00  0.00    -0.206 F 
ATOM     53  C   UNL A   1      34.709  33.104  31.721  1.00  0.00     0.059 A 
ATOM     54  C   UNL A   1      35.499  33.580  29.490  1.00  0.00     0.059 A 
ATOM     55  F   UNL A   1      37.430  32.582  28.685  1.00  0.00    -0.206 F 
ATOM     56  C   UNL A   1      34.598  33.808  30.520  1.00  0.00     0.060 A 
BRANCH  56  57
ATOM     57  S   UNL A   1      33.345  35.102  30.352  1.00  0.00     0.124 S 
ATOM     58  O   UNL A   1      32.686  35.054  31.653  1.00  0.00    -0.237 OA
ATOM     59  O   UNL A   1      34.157  36.286  30.092  1.00  0.00    -0.237 OA
ATOM     60  O   UNL A   1      32.534  34.646  29.225  1.00  0.00    -0.744 OA
ENDBRANCH  56  57
ENDBRANCH  24  49
BRANCH  36  61
ATOM     61  C   UNL A   1      41.944  29.691  33.835  1.00  0.00     0.058 A 
ATOM     62  C   UNL A   1      41.539  28.388  33.493  1.00  0.00     0.135 A 
ATOM     63  C   UNL A   1      42.299  29.920  35.173  1.00  0.00     0.135 A 
ATOM     64  F   UNL A   1      41.276  28.062  32.220  1.00  0.00    -0.206 F 
ATOM     65  C   UNL A   1      41.476  27.364  34.444  1.00  0.00     0.059 A 
ATOM     66  C   UNL A   1      42.270  28.909  36.130  1.00  0.00     0.059 A 
ATOM     67  F   UNL A   1      42.754  31.126  35.549  1.00  0.00    -0.206 F 
ATOM     68  C   UNL A   1      41.854  27.633  35.759  1.00  0.00     0.060 A 
BRANCH  68  69
ATOM     69  S   UNL A   1      41.888  26.285  36.962  1.00  0.00     0.124 S 
ATOM     70  O   UNL A   1      42.239  25.139  36.130  1.00  0.00    -0.237 OA
ATOM     71  O   UNL A   1      42.913  26.724  37.904  1.00  0.00    -0.237 OA
ATOM     72  O   UNL A   1      40.529  26.271  37.500  1.00  0.00    -0.744 OA
ENDBRANCH  68  69
ENDBRANCH  36  61
ENDBRANCH  10  11
ENDBRANCH   3   5
ENDBRANCH   2   3
ENDBRANCH   1   2
BRANCH   1  73
ATOM     73  C   UNL A   1      41.282  19.836  26.696  1.00  0.00     0.275 C 
BRANCH  73  74
ATOM     74  O   UNL A   1      42.346  20.113  25.750  1.00  0.00    -0.457 OA
BRANCH  74  75
ATOM     75  C   UNL A   1      43.135  19.048  25.437  1.00  0.00     0.359 C 
ATOM     76  O   UNL A   1      42.754  17.879  25.403  1.00  0.00    -0.244 OA
BRANCH  75  77
ATOM     77  C   UNL A   1      44.550  19.415  25.167  1.00  0.00     0.179 A 
ATOM     78  N   UNL A   1      45.312  18.317  25.533  1.00  0.00    -0.245 NA
ATOM     79  C   UNL A   1      45.129  20.589  24.652  1.00  0.00     0.161 A 
ATOM     80  C   UNL A   1      46.646  18.424  25.480  1.00  0.00     0.132 A 
ATOM     81  N   UNL A   1      46.514  20.629  24.623  1.00  0.00    -0.247 NA
ATOM     82  C   UNL A   1      47.241  19.579  25.060  1.00  0.00     0.132 A 
BRANCH  79  83
ATOM     83  C   UNL A   1      44.664  21.967  24.123  1.00  0.00     0.276 C 
ATOM     84  O   UNL A   1      44.293  21.982  22.934  1.00  0.00    -0.267 OA
ATOM     85  N   UNL A   1      44.351  23.169  24.762  1.00  0.00    -0.321 N 
ATOM     86  H   UNL A   1      43.778  23.751  24.212  1.00  0.00     0.170 HD
BRANCH  85  87
ATOM     87  C   UNL A   1      44.663  23.733  25.994  1.00  0.00     0.043 A 
ATOM     88  C   UNL A   1      45.065  22.891  26.979  1.00  0.00     0.028 A 
ATOM     89  C   UNL A   1      44.723  25.101  26.255  1.00  0.00     0.049 A 
ATOM     90  C   UNL A   1      45.275  23.279  28.276  1.00  0.00     0.032 A 
ATOM     91  C   UNL A   1      44.974  25.553  27.574  1.00  0.00     0.068 A 
ATOM     92  C   UNL A   1      45.202  24.621  28.588  1.00  0.00     0.085 A 
ATOM     93  Cl  UNL A   1      45.065  27.248  27.873  1.00  0.00    -0.082 Cl
BRANCH  92  94
ATOM     94  N   UNL A   1      45.304  24.898  29.963  1.00  0.00    -0.220 N 
ATOM     95  C   UNL A   1      46.313  25.670  30.500  1.00  0.00     0.226 A 
ATOM     96  N   UNL A   1      44.168  25.100  30.690  1.00  0.00    -0.155 NA
ATOM     97  N   UNL A   1      45.861  26.383  31.509  1.00  0.00    -0.223 NA
ATOM     98  C   UNL A   1      44.547  26.030  31.564  1.00  0.00     0.246 A 
ENDBRANCH  92  94
ENDBRANCH  85  87
ENDBRANCH  79  83
ENDBRANCH  75  77
ENDBRANCH  74  75
ENDBRANCH  73  74
ENDBRANCH   1  73
TORSDOF 17
ENDMDL
