MODEL 1
REMARK VINA RESULT:     -12.5      0.000      0.000
REMARK SMILES C[C@@H](NC(=O)[C@H]1CC=CC[C@@H]1C(=O)OCCOC(=O)c1ccc(-c2c3nc(c(-c4c(F)cc(S(=O)(=O)[O-])cc4F)c4ccc([nH]4)c(-c4c(F)cc(S(=O)(=O)[O-])cc4F)c4nc(c(-c5c(F)cc(S(=O)(=O)[O-])cc5F)c5ccc2[nH]5)C=C4)C=C3)cc1)c1ccc(-n2ccnc2)cc1
REMARK SMILES IDX 15 1 14 2 12 3 13 4 11 5 6 6 7 7 8 8 10 9 9 10 4 11 3 12
REMARK SMILES IDX 5 14 2 15 1 16 86 17 87 18 96 19 88 20 95 21 89 22 90 23
REMARK SMILES IDX 91 24 94 25 92 26 93 27 16 28 17 29 18 30 19 31 20 32 21 33
REMARK SMILES IDX 85 34 22 35 84 36 23 37 24 38 25 39 78 40 26 41 83 42 77 43
REMARK SMILES IDX 79 44 27 45 82 46 76 47 75 48 28 50 62 51 41 52 61 53 42 54
REMARK SMILES IDX 45 55 60 56 80 57 43 58 44 59 59 61 81 62 46 63 29 64 30 65
REMARK SMILES IDX 39 66 31 67 32 68 38 69 40 70 33 71 34 72 35 73 36 74 37 75
REMARK SMILES IDX 63 76 64 77 73 78 65 79 66 80 72 81 74 82 67 83 68 84 69 85
REMARK SMILES IDX 70 86 71 87 47 88 48 89 57 90 49 91 50 92 56 93 58 94 51 95
REMARK SMILES IDX 52 96 53 97 54 98 55 99
REMARK H PARENT 3 13 79 49 45 60
REMARK Flexibility Score: inf
ROOT
ATOM      1  C   UNL A   1      33.977  29.171  26.464  1.00  0.00     0.274 C 
ENDROOT
BRANCH   1   2
ATOM      2  O   UNL A   1      33.819  27.783  26.093  1.00  0.00    -0.462 OA
BRANCH   2   3
ATOM      3  C   UNL A   1      32.508  27.371  26.030  1.00  0.00     0.310 C 
ATOM      4  O   UNL A   1      31.670  27.647  26.879  1.00  0.00    -0.252 OA
BRANCH   3   5
ATOM      5  C   UNL A   1      32.244  26.539  24.772  1.00  0.00     0.115 C 
ATOM      6  C   UNL A   1      33.175  27.017  23.646  1.00  0.00     0.097 C 
ATOM      7  C   UNL A   1      32.709  28.278  22.915  1.00  0.00     0.041 C 
ATOM      8  C   UNL A   1      31.229  28.437  22.809  1.00  0.00    -0.030 C 
ATOM      9  C   UNL A   1      30.761  26.550  24.383  1.00  0.00     0.043 C 
ATOM     10  C   UNL A   1      30.356  27.657  23.456  1.00  0.00    -0.030 C 
BRANCH   6  11
ATOM     11  C   UNL A   1      33.590  25.905  22.691  1.00  0.00     0.224 C 
ATOM     12  N   UNL A   1      33.782  24.620  23.109  1.00  0.00    -0.349 N 
ATOM     13  H   UNL A   1      33.778  23.987  22.356  1.00  0.00     0.164 HD
ATOM     14  O   UNL A   1      33.701  26.120  21.480  1.00  0.00    -0.275 OA
BRANCH  12  15
ATOM     15  C   UNL A   1      33.994  23.931  24.409  1.00  0.00     0.109 C 
ATOM     16  C   UNL A   1      35.332  24.407  24.995  1.00  0.00     0.036 C 
BRANCH  15  17
ATOM     17  C   UNL A   1      33.962  22.421  24.374  1.00  0.00    -0.026 A 
ATOM     18  C   UNL A   1      35.045  21.644  24.812  1.00  0.00     0.008 A 
ATOM     19  C   UNL A   1      32.816  21.756  23.958  1.00  0.00     0.008 A 
ATOM     20  C   UNL A   1      34.940  20.244  24.919  1.00  0.00     0.027 A 
ATOM     21  C   UNL A   1      32.685  20.380  24.135  1.00  0.00     0.027 A 
ATOM     22  C   UNL A   1      33.743  19.601  24.589  1.00  0.00     0.046 A 
BRANCH  22  23
ATOM     23  N   UNL A   1      33.595  18.184  24.637  1.00  0.00    -0.306 N 
ATOM     24  C   UNL A   1      32.712  17.463  25.417  1.00  0.00     0.113 A 
ATOM     25  C   UNL A   1      34.262  17.239  23.888  1.00  0.00     0.204 A 
ATOM     26  C   UNL A   1      32.868  16.145  25.069  1.00  0.00     0.131 A 
ATOM     27  N   UNL A   1      33.844  16.012  24.130  1.00  0.00    -0.245 NA
ENDBRANCH  22  23
ENDBRANCH  15  17
ENDBRANCH  12  15
ENDBRANCH   6  11
ENDBRANCH   3   5
ENDBRANCH   2   3
ENDBRANCH   1   2
BRANCH   1  28
ATOM     28  C   UNL A   1      34.592  29.314  27.864  1.00  0.00     0.275 C 
BRANCH  28  29
ATOM     29  O   UNL A   1      35.843  30.031  27.787  1.00  0.00    -0.458 OA
BRANCH  29  30
ATOM     30  C   UNL A   1      36.414  30.414  28.961  1.00  0.00     0.338 C 
ATOM     31  O   UNL A   1      35.843  30.854  29.936  1.00  0.00    -0.246 OA
BRANCH  30  32
ATOM     32  C   UNL A   1      37.838  29.981  28.947  1.00  0.00     0.060 A 
ATOM     33  C   UNL A   1      38.368  29.598  27.714  1.00  0.00     0.016 A 
ATOM     34  C   UNL A   1      38.685  30.101  30.059  1.00  0.00     0.016 A 
ATOM     35  C   UNL A   1      39.749  29.445  27.573  1.00  0.00     0.010 A 
ATOM     36  C   UNL A   1      40.072  29.899  29.922  1.00  0.00     0.010 A 
ATOM     37  C   UNL A   1      40.623  29.595  28.670  1.00  0.00    -0.014 A 
BRANCH  37  38
ATOM     38  C   UNL A   1      42.064  29.254  28.465  1.00  0.00     0.031 A 
ATOM     39  C   UNL A   1      42.379  27.826  28.120  1.00  0.00     0.074 A 
ATOM     40  C   UNL A   1      43.065  30.159  28.460  1.00  0.00     0.049 A 
ATOM     41  N   UNL A   1      43.468  27.313  27.617  1.00  0.00    -0.248 NA
ATOM     42  C   UNL A   1      41.290  26.858  28.333  1.00  0.00     0.031 C 
ATOM     43  C   UNL A   1      42.925  31.573  28.775  1.00  0.00     0.029 A 
ATOM     44  N   UNL A   1      44.399  30.031  28.141  1.00  0.00    -0.354 N 
ATOM     45  C   UNL A   1      43.173  25.977  27.394  1.00  0.00     0.074 A 
ATOM     46  C   UNL A   1      41.801  25.762  27.799  1.00  0.00     0.031 C 
ATOM     47  C   UNL A   1      44.097  32.200  28.568  1.00  0.00     0.029 A 
ATOM     48  C   UNL A   1      45.096  31.222  28.146  1.00  0.00     0.049 A 
ATOM     49  H   UNL A   1      44.819  29.165  27.927  1.00  0.00     0.167 HD
ATOM     50  C   UNL A   1      43.980  24.993  26.938  1.00  0.00     0.037 A 
ATOM     51  C   UNL A   1      46.388  31.489  27.850  1.00  0.00     0.037 A 
ATOM     52  C   UNL A   1      45.390  25.138  26.735  1.00  0.00     0.049 A 
ATOM     53  C   UNL A   1      47.303  30.344  27.481  1.00  0.00     0.074 A 
ATOM     54  C   UNL A   1      46.326  24.155  26.471  1.00  0.00     0.029 A 
ATOM     55  N   UNL A   1      46.080  26.336  26.843  1.00  0.00    -0.354 N 
ATOM     56  N   UNL A   1      47.003  29.087  27.253  1.00  0.00    -0.248 NA
ATOM     57  C   UNL A   1      48.739  30.646  27.366  1.00  0.00     0.031 C 
ATOM     58  C   UNL A   1      47.592  24.752  26.476  1.00  0.00     0.029 A 
ATOM     59  C   UNL A   1      47.435  26.113  26.686  1.00  0.00     0.049 A 
ATOM     60  H   UNL A   1      45.665  27.214  27.005  1.00  0.00     0.167 HD
ATOM     61  C   UNL A   1      48.212  28.449  26.986  1.00  0.00     0.074 A 
ATOM     62  C   UNL A   1      49.242  29.465  27.034  1.00  0.00     0.031 C 
ATOM     63  C   UNL A   1      48.449  27.136  26.745  1.00  0.00     0.037 A 
BRANCH  50  64
ATOM     64  C   UNL A   1      43.336  23.654  26.777  1.00  0.00     0.058 A 
ATOM     65  C   UNL A   1      43.141  22.806  27.880  1.00  0.00     0.135 A 
ATOM     66  C   UNL A   1      43.035  23.164  25.498  1.00  0.00     0.135 A 
ATOM     67  F   UNL A   1      43.457  23.221  29.116  1.00  0.00    -0.206 F 
ATOM     68  C   UNL A   1      42.700  21.498  27.712  1.00  0.00     0.059 A 
ATOM     69  C   UNL A   1      42.583  21.864  25.309  1.00  0.00     0.059 A 
ATOM     70  F   UNL A   1      43.240  23.932  24.417  1.00  0.00    -0.206 F 
ATOM     71  C   UNL A   1      42.442  21.033  26.420  1.00  0.00     0.060 A 
BRANCH  71  72
ATOM     72  S   UNL A   1      41.960  19.308  26.205  1.00  0.00     0.124 S 
ATOM     73  O   UNL A   1      40.524  19.437  25.979  1.00  0.00    -0.237 OA
ATOM     74  O   UNL A   1      42.751  18.904  25.047  1.00  0.00    -0.237 OA
ATOM     75  O   UNL A   1      42.343  18.690  27.470  1.00  0.00    -0.744 OA
ENDBRANCH  71  72
ENDBRANCH  50  64
BRANCH  51  76
ATOM     76  C   UNL A   1      46.937  32.877  27.920  1.00  0.00     0.058 A 
ATOM     77  C   UNL A   1      46.798  33.766  26.841  1.00  0.00     0.135 A 
ATOM     78  C   UNL A   1      47.673  33.321  29.029  1.00  0.00     0.135 A 
ATOM     79  F   UNL A   1      46.120  33.389  25.745  1.00  0.00    -0.206 F 
ATOM     80  C   UNL A   1      47.383  35.031  26.849  1.00  0.00     0.059 A 
ATOM     81  C   UNL A   1      48.246  34.590  29.073  1.00  0.00     0.059 A 
ATOM     82  F   UNL A   1      47.844  32.516  30.089  1.00  0.00    -0.206 F 
ATOM     83  C   UNL A   1      48.110  35.434  27.970  1.00  0.00     0.060 A 
BRANCH  83  84
ATOM     84  S   UNL A   1      48.844  37.085  27.994  1.00  0.00     0.124 S 
ATOM     85  O   UNL A   1      49.578  37.062  29.254  1.00  0.00    -0.237 OA
ATOM     86  O   UNL A   1      49.657  37.082  26.782  1.00  0.00    -0.237 OA
ATOM     87  O   UNL A   1      47.680  37.964  27.954  1.00  0.00    -0.744 OA
ENDBRANCH  83  84
ENDBRANCH  51  76
BRANCH  63  88
ATOM     88  C   UNL A   1      49.872  26.707  26.533  1.00  0.00     0.058 A 
ATOM     89  C   UNL A   1      50.654  26.226  27.596  1.00  0.00     0.135 A 
ATOM     90  C   UNL A   1      50.424  26.675  25.244  1.00  0.00     0.135 A 
ATOM     91  F   UNL A   1      50.172  26.237  28.849  1.00  0.00    -0.206 F 
ATOM     92  C   UNL A   1      51.938  25.733  27.388  1.00  0.00     0.059 A 
ATOM     93  C   UNL A   1      51.698  26.166  25.009  1.00  0.00     0.059 A 
ATOM     94  F   UNL A   1      49.712  27.113  24.193  1.00  0.00    -0.206 F 
ATOM     95  C   UNL A   1      52.448  25.701  26.088  1.00  0.00     0.060 A 
BRANCH  95  96
ATOM     96  S   UNL A   1      54.086  24.992  25.816  1.00  0.00     0.124 S 
ATOM     97  O   UNL A   1      54.746  25.277  27.085  1.00  0.00    -0.237 OA
ATOM     98  O   UNL A   1      53.784  23.587  25.559  1.00  0.00    -0.237 OA
ATOM     99  O   UNL A   1      54.590  25.736  24.665  1.00  0.00    -0.744 OA
ENDBRANCH  95  96
ENDBRANCH  63  88
ENDBRANCH  37  38
ENDBRANCH  30  32
ENDBRANCH  29  30
ENDBRANCH  28  29
ENDBRANCH   1  28
TORSDOF 18
ENDMDL
MODEL 2
REMARK VINA RESULT:     -12.4      7.033     12.274
REMARK SMILES C[C@@H](NC(=O)[C@H]1CC=CC[C@@H]1C(=O)OCCOC(=O)c1ccc(-c2c3nc(c(-c4c(F)cc(S(=O)(=O)[O-])cc4F)c4ccc([nH]4)c(-c4c(F)cc(S(=O)(=O)[O-])cc4F)c4nc(c(-c5c(F)cc(S(=O)(=O)[O-])cc5F)c5ccc2[nH]5)C=C4)C=C3)cc1)c1ccc(-n2ccnc2)cc1
REMARK SMILES IDX 15 1 14 2 12 3 13 4 11 5 6 6 7 7 8 8 10 9 9 10 4 11 3 12
REMARK SMILES IDX 5 14 2 15 1 16 86 17 87 18 96 19 88 20 95 21 89 22 90 23
REMARK SMILES IDX 91 24 94 25 92 26 93 27 16 28 17 29 18 30 19 31 20 32 21 33
REMARK SMILES IDX 85 34 22 35 84 36 23 37 24 38 25 39 78 40 26 41 83 42 77 43
REMARK SMILES IDX 79 44 27 45 82 46 76 47 75 48 28 50 62 51 41 52 61 53 42 54
REMARK SMILES IDX 45 55 60 56 80 57 43 58 44 59 59 61 81 62 46 63 29 64 30 65
REMARK SMILES IDX 39 66 31 67 32 68 38 69 40 70 33 71 34 72 35 73 36 74 37 75
REMARK SMILES IDX 63 76 64 77 73 78 65 79 66 80 72 81 74 82 67 83 68 84 69 85
REMARK SMILES IDX 70 86 71 87 47 88 48 89 57 90 49 91 50 92 56 93 58 94 51 95
REMARK SMILES IDX 52 96 53 97 54 98 55 99
REMARK H PARENT 3 13 79 49 45 60
REMARK Flexibility Score: inf
ROOT
ATOM      1  C   UNL A   1      37.688  23.437  25.257  1.00  0.00     0.274 C 
ENDROOT
BRANCH   1   2
ATOM      2  O   UNL A   1      36.956  22.306  24.734  1.00  0.00    -0.462 OA
BRANCH   2   3
ATOM      3  C   UNL A   1      35.992  22.646  23.814  1.00  0.00     0.310 C 
ATOM      4  O   UNL A   1      36.229  23.252  22.777  1.00  0.00    -0.252 OA
BRANCH   3   5
ATOM      5  C   UNL A   1      34.605  22.167  24.254  1.00  0.00     0.115 C 
ATOM      6  C   UNL A   1      33.719  23.389  24.546  1.00  0.00     0.097 C 
ATOM      7  C   UNL A   1      33.937  24.031  25.918  1.00  0.00     0.041 C 
ATOM      8  C   UNL A   1      34.325  23.084  27.004  1.00  0.00    -0.030 C 
ATOM      9  C   UNL A   1      34.688  21.180  25.424  1.00  0.00     0.043 C 
ATOM     10  C   UNL A   1      34.650  21.806  26.786  1.00  0.00    -0.030 C 
BRANCH   6  11
ATOM     11  C   UNL A   1      32.246  23.156  24.235  1.00  0.00     0.224 C 
ATOM     12  N   UNL A   1      31.549  23.953  23.375  1.00  0.00    -0.349 N 
ATOM     13  H   UNL A   1      30.713  23.526  23.077  1.00  0.00     0.164 HD
ATOM     14  O   UNL A   1      31.646  22.185  24.706  1.00  0.00    -0.275 OA
BRANCH  12  15
ATOM     15  C   UNL A   1      31.726  25.300  22.771  1.00  0.00     0.109 C 
ATOM     16  C   UNL A   1      32.715  25.177  21.601  1.00  0.00     0.036 C 
BRANCH  15  17
ATOM     17  C   UNL A   1      32.180  26.395  23.708  1.00  0.00    -0.026 A 
ATOM     18  C   UNL A   1      31.551  26.628  24.940  1.00  0.00     0.008 A 
ATOM     19  C   UNL A   1      33.289  27.169  23.392  1.00  0.00     0.008 A 
ATOM     20  C   UNL A   1      32.082  27.545  25.867  1.00  0.00     0.027 A 
ATOM     21  C   UNL A   1      33.858  28.020  24.338  1.00  0.00     0.027 A 
ATOM     22  C   UNL A   1      33.256  28.243  25.572  1.00  0.00     0.046 A 
BRANCH  22  23
ATOM     23  N   UNL A   1      33.814  29.215  26.453  1.00  0.00    -0.306 N 
ATOM     24  C   UNL A   1      33.364  30.503  26.667  1.00  0.00     0.113 A 
ATOM     25  C   UNL A   1      34.883  29.065  27.309  1.00  0.00     0.204 A 
ATOM     26  C   UNL A   1      34.154  31.034  27.655  1.00  0.00     0.131 A 
ATOM     27  N   UNL A   1      35.106  30.140  28.038  1.00  0.00    -0.245 NA
ENDBRANCH  22  23
ENDBRANCH  15  17
ENDBRANCH  12  15
ENDBRANCH   6  11
ENDBRANCH   3   5
ENDBRANCH   2   3
ENDBRANCH   1   2
BRANCH   1  28
ATOM     28  C   UNL A   1      38.829  22.991  26.184  1.00  0.00     0.275 C 
BRANCH  28  29
ATOM     29  O   UNL A   1      39.200  24.069  27.071  1.00  0.00    -0.458 OA
BRANCH  29  30
ATOM     30  C   UNL A   1      40.315  24.779  26.754  1.00  0.00     0.338 C 
ATOM     31  O   UNL A   1      41.002  24.650  25.763  1.00  0.00    -0.246 OA
BRANCH  30  32
ATOM     32  C   UNL A   1      40.430  25.914  27.711  1.00  0.00     0.060 A 
ATOM     33  C   UNL A   1      39.456  25.999  28.707  1.00  0.00     0.016 A 
ATOM     34  C   UNL A   1      41.539  26.774  27.748  1.00  0.00     0.016 A 
ATOM     35  C   UNL A   1      39.649  26.861  29.790  1.00  0.00     0.010 A 
ATOM     36  C   UNL A   1      41.703  27.676  28.817  1.00  0.00     0.010 A 
ATOM     37  C   UNL A   1      40.774  27.710  29.865  1.00  0.00    -0.014 A 
BRANCH  37  38
ATOM     38  C   UNL A   1      40.816  28.714  30.972  1.00  0.00     0.031 A 
ATOM     39  C   UNL A   1      39.809  29.827  30.916  1.00  0.00     0.074 A 
ATOM     40  C   UNL A   1      41.613  28.614  32.056  1.00  0.00     0.049 A 
ATOM     41  N   UNL A   1      39.426  30.650  31.852  1.00  0.00    -0.248 NA
ATOM     42  C   UNL A   1      39.109  29.996  29.631  1.00  0.00     0.031 C 
ATOM     43  C   UNL A   1      42.638  27.601  32.259  1.00  0.00     0.029 A 
ATOM     44  N   UNL A   1      41.663  29.359  33.214  1.00  0.00    -0.354 N 
ATOM     45  C   UNL A   1      38.397  31.391  31.289  1.00  0.00     0.074 A 
ATOM     46  C   UNL A   1      38.204  30.908  29.940  1.00  0.00     0.031 C 
ATOM     47  C   UNL A   1      43.167  27.734  33.489  1.00  0.00     0.029 A 
ATOM     48  C   UNL A   1      42.552  28.879  34.155  1.00  0.00     0.049 A 
ATOM     49  H   UNL A   1      41.112  30.163  33.359  1.00  0.00     0.167 HD
ATOM     50  C   UNL A   1      37.699  32.418  31.823  1.00  0.00     0.037 A 
ATOM     51  C   UNL A   1      42.837  29.315  35.402  1.00  0.00     0.037 A 
ATOM     52  C   UNL A   1      38.018  33.045  33.071  1.00  0.00     0.049 A 
ATOM     53  C   UNL A   1      42.141  30.554  35.918  1.00  0.00     0.074 A 
ATOM     54  C   UNL A   1      37.502  34.213  33.601  1.00  0.00     0.029 A 
ATOM     55  N   UNL A   1      38.987  32.592  33.953  1.00  0.00    -0.354 N 
ATOM     56  N   UNL A   1      41.154  31.231  35.381  1.00  0.00    -0.248 NA
ATOM     57  C   UNL A   1      42.625  31.110  37.192  1.00  0.00     0.031 C 
ATOM     58  C   UNL A   1      38.202  34.498  34.779  1.00  0.00     0.029 A 
ATOM     59  C   UNL A   1      39.112  33.476  35.008  1.00  0.00     0.049 A 
ATOM     60  H   UNL A   1      39.507  31.763  33.844  1.00  0.00     0.167 HD
ATOM     61  C   UNL A   1      40.912  32.299  36.241  1.00  0.00     0.074 A 
ATOM     62  C   UNL A   1      41.824  32.154  37.356  1.00  0.00     0.031 C 
ATOM     63  C   UNL A   1      40.030  33.320  36.108  1.00  0.00     0.037 A 
BRANCH  50  64
ATOM     64  C   UNL A   1      36.620  32.983  30.956  1.00  0.00     0.058 A 
ATOM     65  C   UNL A   1      36.910  33.936  29.967  1.00  0.00     0.135 A 
ATOM     66  C   UNL A   1      35.277  32.668  31.207  1.00  0.00     0.135 A 
ATOM     67  F   UNL A   1      38.180  34.298  29.727  1.00  0.00    -0.206 F 
ATOM     68  C   UNL A   1      35.895  34.587  29.276  1.00  0.00     0.059 A 
ATOM     69  C   UNL A   1      34.247  33.299  30.521  1.00  0.00     0.059 A 
ATOM     70  F   UNL A   1      34.958  31.788  32.168  1.00  0.00    -0.206 F 
ATOM     71  C   UNL A   1      34.566  34.273  29.575  1.00  0.00     0.060 A 
BRANCH  71  72
ATOM     72  S   UNL A   1      33.255  35.189  28.741  1.00  0.00     0.124 S 
ATOM     73  O   UNL A   1      32.544  35.771  29.874  1.00  0.00    -0.237 OA
ATOM     74  O   UNL A   1      34.006  36.127  27.913  1.00  0.00    -0.237 OA
ATOM     75  O   UNL A   1      32.531  34.153  28.011  1.00  0.00    -0.744 OA
ENDBRANCH  71  72
ENDBRANCH  50  64
BRANCH  51  76
ATOM     76  C   UNL A   1      43.848  28.627  36.260  1.00  0.00     0.058 A 
ATOM     77  C   UNL A   1      45.182  29.066  36.303  1.00  0.00     0.135 A 
ATOM     78  C   UNL A   1      43.525  27.476  36.997  1.00  0.00     0.135 A 
ATOM     79  F   UNL A   1      45.553  30.150  35.604  1.00  0.00    -0.206 F 
ATOM     80  C   UNL A   1      46.160  28.381  37.023  1.00  0.00     0.059 A 
ATOM     81  C   UNL A   1      44.479  26.789  37.745  1.00  0.00     0.059 A 
ATOM     82  F   UNL A   1      42.268  27.006  36.992  1.00  0.00    -0.206 F 
ATOM     83  C   UNL A   1      45.799  27.239  37.739  1.00  0.00     0.060 A 
BRANCH  83  84
ATOM     84  S   UNL A   1      47.059  26.368  38.697  1.00  0.00     0.124 S 
ATOM     85  O   UNL A   1      46.256  25.751  39.746  1.00  0.00    -0.237 OA
ATOM     86  O   UNL A   1      47.627  25.457  37.708  1.00  0.00    -0.237 OA
ATOM     87  O   UNL A   1      47.948  27.443  39.127  1.00  0.00    -0.744 OA
ENDBRANCH  83  84
ENDBRANCH  51  76
BRANCH  63  88
ATOM     88  C   UNL A   1      40.012  34.377  37.174  1.00  0.00     0.058 A 
ATOM     89  C   UNL A   1      40.691  35.594  37.006  1.00  0.00     0.135 A 
ATOM     90  C   UNL A   1      39.225  34.216  38.324  1.00  0.00     0.135 A 
ATOM     91  F   UNL A   1      41.459  35.796  35.924  1.00  0.00    -0.206 F 
ATOM     92  C   UNL A   1      40.595  36.615  37.947  1.00  0.00     0.059 A 
ATOM     93  C   UNL A   1      39.096  35.231  39.267  1.00  0.00     0.059 A 
ATOM     94  F   UNL A   1      38.546  33.074  38.525  1.00  0.00    -0.206 F 
ATOM     95  C   UNL A   1      39.788  36.425  39.071  1.00  0.00     0.060 A 
BRANCH  95  96
ATOM     96  S   UNL A   1      39.609  37.782  40.249  1.00  0.00     0.124 S 
ATOM     97  O   UNL A   1      38.574  38.590  39.613  1.00  0.00    -0.237 OA
ATOM     98  O   UNL A   1      39.213  37.090  41.472  1.00  0.00    -0.237 OA
ATOM     99  O   UNL A   1      40.941  38.380  40.281  1.00  0.00    -0.744 OA
ENDBRANCH  95  96
ENDBRANCH  63  88
ENDBRANCH  37  38
ENDBRANCH  30  32
ENDBRANCH  29  30
ENDBRANCH  28  29
ENDBRANCH   1  28
TORSDOF 18
ENDMDL
MODEL 3
REMARK VINA RESULT:     -12.4      2.039      2.647
REMARK SMILES C[C@@H](NC(=O)[C@H]1CC=CC[C@@H]1C(=O)OCCOC(=O)c1ccc(-c2c3nc(c(-c4c(F)cc(S(=O)(=O)[O-])cc4F)c4ccc([nH]4)c(-c4c(F)cc(S(=O)(=O)[O-])cc4F)c4nc(c(-c5c(F)cc(S(=O)(=O)[O-])cc5F)c5ccc2[nH]5)C=C4)C=C3)cc1)c1ccc(-n2ccnc2)cc1
REMARK SMILES IDX 15 1 14 2 12 3 13 4 11 5 6 6 7 7 8 8 10 9 9 10 4 11 3 12
REMARK SMILES IDX 5 14 2 15 1 16 86 17 87 18 96 19 88 20 95 21 89 22 90 23
REMARK SMILES IDX 91 24 94 25 92 26 93 27 16 28 17 29 18 30 19 31 20 32 21 33
REMARK SMILES IDX 85 34 22 35 84 36 23 37 24 38 25 39 78 40 26 41 83 42 77 43
REMARK SMILES IDX 79 44 27 45 82 46 76 47 75 48 28 50 62 51 41 52 61 53 42 54
REMARK SMILES IDX 45 55 60 56 80 57 43 58 44 59 59 61 81 62 46 63 29 64 30 65
REMARK SMILES IDX 39 66 31 67 32 68 38 69 40 70 33 71 34 72 35 73 36 74 37 75
REMARK SMILES IDX 63 76 64 77 73 78 65 79 66 80 72 81 74 82 67 83 68 84 69 85
REMARK SMILES IDX 70 86 71 87 47 88 48 89 57 90 49 91 50 92 56 93 58 94 51 95
REMARK SMILES IDX 52 96 53 97 54 98 55 99
REMARK H PARENT 3 13 79 49 45 60
REMARK Flexibility Score: inf
ROOT
ATOM      1  C   UNL A   1      32.138  28.103  27.130  1.00  0.00     0.274 C 
ENDROOT
BRANCH   1   2
ATOM      2  O   UNL A   1      32.427  26.929  26.338  1.00  0.00    -0.462 OA
BRANCH   2   3
ATOM      3  C   UNL A   1      31.309  26.328  25.808  1.00  0.00     0.310 C 
ATOM      4  O   UNL A   1      30.259  26.192  26.421  1.00  0.00    -0.252 OA
BRANCH   3   5
ATOM      5  C   UNL A   1      31.552  25.867  24.368  1.00  0.00     0.115 C 
ATOM      6  C   UNL A   1      32.845  26.512  23.843  1.00  0.00     0.097 C 
ATOM      7  C   UNL A   1      32.696  27.956  23.360  1.00  0.00     0.041 C 
ATOM      8  C   UNL A   1      31.372  28.287  22.758  1.00  0.00    -0.030 C 
ATOM      9  C   UNL A   1      30.334  26.127  23.473  1.00  0.00     0.043 C 
ATOM     10  C   UNL A   1      30.318  27.465  22.797  1.00  0.00    -0.030 C 
BRANCH   6  11
ATOM     11  C   UNL A   1      33.598  25.636  22.850  1.00  0.00     0.224 C 
ATOM     12  N   UNL A   1      34.099  24.413  23.192  1.00  0.00    -0.349 N 
ATOM     13  H   UNL A   1      34.309  23.870  22.398  1.00  0.00     0.164 HD
ATOM     14  O   UNL A   1      33.723  25.980  21.671  1.00  0.00    -0.275 OA
BRANCH  12  15
ATOM     15  C   UNL A   1      34.405  23.689  24.453  1.00  0.00     0.109 C 
ATOM     16  C   UNL A   1      35.831  24.061  24.889  1.00  0.00     0.036 C 
BRANCH  15  17
ATOM     17  C   UNL A   1      34.264  22.185  24.409  1.00  0.00    -0.026 A 
ATOM     18  C   UNL A   1      35.269  21.329  24.883  1.00  0.00     0.008 A 
ATOM     19  C   UNL A   1      33.089  21.608  23.945  1.00  0.00     0.008 A 
ATOM     20  C   UNL A   1      35.058  19.940  24.978  1.00  0.00     0.027 A 
ATOM     21  C   UNL A   1      32.851  20.245  24.108  1.00  0.00     0.027 A 
ATOM     22  C   UNL A   1      33.831  19.388  24.598  1.00  0.00     0.046 A 
BRANCH  22  23
ATOM     23  N   UNL A   1      33.577  17.986  24.632  1.00  0.00    -0.306 N 
ATOM     24  C   UNL A   1      32.978  17.271  25.650  1.00  0.00     0.113 A 
ATOM     25  C   UNL A   1      33.831  17.057  23.646  1.00  0.00     0.204 A 
ATOM     26  C   UNL A   1      32.870  15.976  25.208  1.00  0.00     0.131 A 
ATOM     27  N   UNL A   1      33.417  15.848  23.968  1.00  0.00    -0.245 NA
ENDBRANCH  22  23
ENDBRANCH  15  17
ENDBRANCH  12  15
ENDBRANCH   6  11
ENDBRANCH   3   5
ENDBRANCH   2   3
ENDBRANCH   1   2
BRANCH   1  28
ATOM     28  C   UNL A   1      33.139  29.234  26.848  1.00  0.00     0.275 C 
BRANCH  28  29
ATOM     29  O   UNL A   1      34.384  28.979  27.534  1.00  0.00    -0.458 OA
BRANCH  29  30
ATOM     30  C   UNL A   1      35.008  30.044  28.105  1.00  0.00     0.338 C 
ATOM     31  O   UNL A   1      34.493  31.083  28.460  1.00  0.00    -0.246 OA
BRANCH  30  32
ATOM     32  C   UNL A   1      36.400  29.639  28.445  1.00  0.00     0.060 A 
ATOM     33  C   UNL A   1      37.352  29.742  27.430  1.00  0.00     0.016 A 
ATOM     34  C   UNL A   1      36.808  29.326  29.751  1.00  0.00     0.016 A 
ATOM     35  C   UNL A   1      38.710  29.644  27.745  1.00  0.00     0.010 A 
ATOM     36  C   UNL A   1      38.176  29.181  30.053  1.00  0.00     0.010 A 
ATOM     37  C   UNL A   1      39.144  29.365  29.057  1.00  0.00    -0.014 A 
BRANCH  37  38
ATOM     38  C   UNL A   1      40.603  29.116  29.270  1.00  0.00     0.031 A 
ATOM     39  C   UNL A   1      41.116  27.750  28.912  1.00  0.00     0.074 A 
ATOM     40  C   UNL A   1      41.487  30.062  29.649  1.00  0.00     0.049 A 
ATOM     41  N   UNL A   1      42.341  27.346  28.720  1.00  0.00    -0.248 NA
ATOM     42  C   UNL A   1      40.091  26.714  28.698  1.00  0.00     0.031 C 
ATOM     43  C   UNL A   1      41.151  31.426  30.030  1.00  0.00     0.029 A 
ATOM     44  N   UNL A   1      42.861  30.032  29.740  1.00  0.00    -0.354 N 
ATOM     45  C   UNL A   1      42.229  26.029  28.301  1.00  0.00     0.074 A 
ATOM     46  C   UNL A   1      40.820  25.708  28.249  1.00  0.00     0.031 C 
ATOM     47  C   UNL A   1      42.280  32.126  30.246  1.00  0.00     0.029 A 
ATOM     48  C   UNL A   1      43.431  31.246  30.062  1.00  0.00     0.049 A 
ATOM     49  H   UNL A   1      43.391  29.215  29.588  1.00  0.00     0.167 HD
ATOM     50  C   UNL A   1      43.209  25.138  28.026  1.00  0.00     0.037 A 
ATOM     51  C   UNL A   1      44.728  31.604  30.198  1.00  0.00     0.037 A 
ATOM     52  C   UNL A   1      44.600  25.370  28.275  1.00  0.00     0.049 A 
ATOM     53  C   UNL A   1      45.797  30.550  30.024  1.00  0.00     0.074 A 
ATOM     54  C   UNL A   1      45.645  24.467  28.221  1.00  0.00     0.029 A 
ATOM     55  N   UNL A   1      45.132  26.581  28.693  1.00  0.00    -0.354 N 
ATOM     56  N   UNL A   1      45.676  29.312  29.606  1.00  0.00    -0.248 NA
ATOM     57  C   UNL A   1      47.175  30.930  30.377  1.00  0.00     0.031 C 
ATOM     58  C   UNL A   1      46.802  25.118  28.663  1.00  0.00     0.029 A 
ATOM     59  C   UNL A   1      46.486  26.440  28.936  1.00  0.00     0.049 A 
ATOM     60  H   UNL A   1      44.621  27.416  28.798  1.00  0.00     0.167 HD
ATOM     61  C   UNL A   1      46.955  28.764  29.662  1.00  0.00     0.074 A 
ATOM     62  C   UNL A   1      47.843  29.815  30.111  1.00  0.00     0.031 C 
ATOM     63  C   UNL A   1      47.354  27.497  29.390  1.00  0.00     0.037 A 
BRANCH  50  64
ATOM     64  C   UNL A   1      42.747  23.795  27.560  1.00  0.00     0.058 A 
ATOM     65  C   UNL A   1      42.521  22.750  28.470  1.00  0.00     0.135 A 
ATOM     66  C   UNL A   1      42.659  23.516  26.188  1.00  0.00     0.135 A 
ATOM     67  F   UNL A   1      42.638  22.965  29.790  1.00  0.00    -0.206 F 
ATOM     68  C   UNL A   1      42.257  21.458  28.030  1.00  0.00     0.059 A 
ATOM     69  C   UNL A   1      42.386  22.235  25.727  1.00  0.00     0.059 A 
ATOM     70  F   UNL A   1      42.901  24.481  25.287  1.00  0.00    -0.206 F 
ATOM     71  C   UNL A   1      42.210  21.209  26.656  1.00  0.00     0.060 A 
BRANCH  71  72
ATOM     72  S   UNL A   1      41.958  19.513  26.094  1.00  0.00     0.124 S 
ATOM     73  O   UNL A   1      40.538  19.528  25.761  1.00  0.00    -0.237 OA
ATOM     74  O   UNL A   1      42.875  19.420  24.963  1.00  0.00    -0.237 OA
ATOM     75  O   UNL A   1      42.321  18.714  27.260  1.00  0.00    -0.744 OA
ENDBRANCH  71  72
ENDBRANCH  50  64
BRANCH  51  76
ATOM     76  C   UNL A   1      45.123  33.001  30.553  1.00  0.00     0.058 A 
ATOM     77  C   UNL A   1      45.413  33.948  29.556  1.00  0.00     0.135 A 
ATOM     78  C   UNL A   1      45.290  33.400  31.888  1.00  0.00     0.135 A 
ATOM     79  F   UNL A   1      45.290  33.616  28.261  1.00  0.00    -0.206 F 
ATOM     80  C   UNL A   1      45.873  35.226  29.867  1.00  0.00     0.059 A 
ATOM     81  C   UNL A   1      45.723  34.681  32.226  1.00  0.00     0.059 A 
ATOM     82  F   UNL A   1      45.031  32.539  32.885  1.00  0.00    -0.206 F 
ATOM     83  C   UNL A   1      46.029  35.583  31.207  1.00  0.00     0.060 A 
BRANCH  83  84
ATOM     84  S   UNL A   1      46.597  37.250  31.612  1.00  0.00     0.124 S 
ATOM     85  O   UNL A   1      46.157  38.002  30.443  1.00  0.00    -0.237 OA
ATOM     86  O   UNL A   1      45.884  37.528  32.855  1.00  0.00    -0.237 OA
ATOM     87  O   UNL A   1      48.040  37.082  31.753  1.00  0.00    -0.744 OA
ENDBRANCH  83  84
ENDBRANCH  51  76
BRANCH  63  88
ATOM     88  C   UNL A   1      48.804  27.160  29.584  1.00  0.00     0.058 A 
ATOM     89  C   UNL A   1      49.750  27.402  28.574  1.00  0.00     0.135 A 
ATOM     90  C   UNL A   1      49.268  26.691  30.822  1.00  0.00     0.135 A 
ATOM     91  F   UNL A   1      49.356  27.848  27.372  1.00  0.00    -0.206 F 
ATOM     92  C   UNL A   1      51.108  27.185  28.785  1.00  0.00     0.059 A 
ATOM     93  C   UNL A   1      50.624  26.488  31.063  1.00  0.00     0.059 A 
ATOM     94  F   UNL A   1      48.405  26.456  31.822  1.00  0.00    -0.206 F 
ATOM     95  C   UNL A   1      51.536  26.734  30.036  1.00  0.00     0.060 A 
BRANCH  95  96
ATOM     96  S   UNL A   1      53.306  26.527  30.325  1.00  0.00     0.124 S 
ATOM     97  O   UNL A   1      53.770  26.093  29.012  1.00  0.00    -0.237 OA
ATOM     98  O   UNL A   1      53.719  27.866  30.734  1.00  0.00    -0.237 OA
ATOM     99  O   UNL A   1      53.360  25.514  31.376  1.00  0.00    -0.744 OA
ENDBRANCH  95  96
ENDBRANCH  63  88
ENDBRANCH  37  38
ENDBRANCH  30  32
ENDBRANCH  29  30
ENDBRANCH  28  29
ENDBRANCH   1  28
TORSDOF 18
ENDMDL
