MODEL 1
REMARK VINA RESULT:     -11.7      0.000      0.000
REMARK SMILES Cc1nn(Cc2ccc(Cl)cc2Cl)c(C)c1NC(=O)c1c(C(=O)OCCOC(=O)c2ccc(-c3c4nc(c(-c5c(F)cc(S(=O)(=O)[O-])cc5F)c5ccc([nH]5)c(-c5c(F)cc(S(=O)(=O)[O-])cc5F)c5nc(c(-c6c(F)cc(S(=O)(=O)[O-])cc6F)c6ccc3[nH]6)C=C5)C=C4)cc2)cnn1C
REMARK SMILES IDX 25 1 24 2 22 3 23 4 21 5 20 6 98 7 96 8 97 9 99 10 18 11
REMARK SMILES IDX 17 12 19 14 16 15 1 16 2 17 3 18 4 19 14 20 15 21 5 22 6 23
REMARK SMILES IDX 7 24 12 25 8 26 11 27 13 28 9 29 10 30 26 31 27 32 28 33
REMARK SMILES IDX 29 34 30 35 31 36 95 37 32 38 94 39 33 40 34 41 35 42 88 43
REMARK SMILES IDX 36 44 93 45 87 46 89 47 37 48 92 49 86 50 85 51 38 53 72 54
REMARK SMILES IDX 51 55 71 56 52 57 55 58 70 59 90 60 53 61 54 62 69 64 91 65
REMARK SMILES IDX 56 66 39 67 40 68 49 69 41 70 42 71 48 72 50 73 43 74 44 75
REMARK SMILES IDX 45 76 46 77 47 78 73 79 74 80 83 81 75 82 76 83 82 84 84 85
REMARK SMILES IDX 77 86 78 87 79 88 80 89 81 90 57 91 58 92 67 93 59 94 60 95
REMARK SMILES IDX 66 96 68 97 61 98 62 99 63 100 64 101 65 102
REMARK H PARENT 17 13 89 52 55 63
REMARK Flexibility Score: inf
ROOT
ATOM      1  C   UNL A   1      35.970  20.865  25.322  1.00  0.00     0.275 C 
ENDROOT
BRANCH   1   2
ATOM      2  O   UNL A   1      34.900  20.115  24.716  1.00  0.00    -0.458 OA
BRANCH   2   3
ATOM      3  C   UNL A   1      33.666  20.310  25.254  1.00  0.00     0.342 C 
ATOM      4  O   UNL A   1      33.097  19.517  25.996  1.00  0.00    -0.246 OA
BRANCH   3   5
ATOM      5  C   UNL A   1      32.969  21.440  24.686  1.00  0.00     0.111 A 
ATOM      6  C   UNL A   1      32.333  22.540  25.264  1.00  0.00     0.140 A 
ATOM      7  N   UNL A   1      31.577  23.057  24.229  1.00  0.00    -0.262 N 
ATOM      8  C   UNL A   1      32.723  21.565  23.303  1.00  0.00     0.151 A 
ATOM      9  N   UNL A   1      31.922  22.584  23.012  1.00  0.00    -0.180 NA
ATOM     10  C   UNL A   1      30.557  24.081  24.291  1.00  0.00     0.174 C 
BRANCH   6  11
ATOM     11  C   UNL A   1      32.244  23.068  26.609  1.00  0.00     0.274 C 
ATOM     12  N   UNL A   1      32.506  24.394  26.913  1.00  0.00    -0.317 N 
ATOM     13  H   UNL A   1      32.339  24.641  27.851  1.00  0.00     0.170 HD
ATOM     14  O   UNL A   1      31.865  22.356  27.544  1.00  0.00    -0.267 OA
BRANCH  12  15
ATOM     15  C   UNL A   1      32.961  25.424  26.120  1.00  0.00     0.085 A 
ATOM     16  C   UNL A   1      35.274  24.565  25.136  1.00  0.00     0.071 C 
ATOM     17  C   UNL A   1      34.106  25.450  25.275  1.00  0.00     0.083 A 
ATOM     18  N   UNL A   1      34.035  26.471  24.423  1.00  0.00    -0.175 NA
ATOM     19  N   UNL A   1      33.119  27.279  24.975  1.00  0.00    -0.263 N 
ATOM     20  C   UNL A   1      32.544  26.739  26.098  1.00  0.00     0.060 A 
ATOM     21  C   UNL A   1      31.840  27.546  27.118  1.00  0.00     0.069 C 
BRANCH  19  22
ATOM     22  C   UNL A   1      33.063  28.643  24.465  1.00  0.00     0.181 C 
BRANCH  22  23
ATOM     23  C   UNL A   1      31.646  28.927  24.020  1.00  0.00    -0.008 A 
ATOM     24  C   UNL A   1      31.111  28.172  22.953  1.00  0.00     0.009 A 
ATOM     25  C   UNL A   1      30.915  30.021  24.496  1.00  0.00     0.047 A 
ATOM     26  C   UNL A   1      29.932  28.558  22.322  1.00  0.00     0.021 A 
ATOM     27  C   UNL A   1      29.748  30.423  23.848  1.00  0.00     0.041 A 
ATOM     28  Cl  UNL A   1      31.403  30.916  25.893  1.00  0.00    -0.084 Cl
ATOM     29  C   UNL A   1      29.269  29.698  22.760  1.00  0.00     0.042 A 
ATOM     30  Cl  UNL A   1      27.835  30.212  21.968  1.00  0.00    -0.084 Cl
ENDBRANCH  22  23
ENDBRANCH  19  22
ENDBRANCH  12  15
ENDBRANCH   6  11
ENDBRANCH   3   5
ENDBRANCH   2   3
ENDBRANCH   1   2
BRANCH   1  31
ATOM     31  C   UNL A   1      37.302  20.207  24.992  1.00  0.00     0.275 C 
BRANCH  31  32
ATOM     32  O   UNL A   1      38.472  20.829  25.564  1.00  0.00    -0.458 OA
BRANCH  32  33
ATOM     33  C   UNL A   1      39.591  20.072  25.708  1.00  0.00     0.338 C 
ATOM     34  O   UNL A   1      39.691  18.880  25.589  1.00  0.00    -0.246 OA
BRANCH  33  35
ATOM     35  C   UNL A   1      40.658  20.900  26.312  1.00  0.00     0.060 A 
ATOM     36  C   UNL A   1      40.607  21.042  27.699  1.00  0.00     0.016 A 
ATOM     37  C   UNL A   1      41.491  21.712  25.539  1.00  0.00     0.016 A 
ATOM     38  C   UNL A   1      41.158  22.173  28.271  1.00  0.00     0.010 A 
ATOM     39  C   UNL A   1      42.120  22.798  26.131  1.00  0.00     0.010 A 
ATOM     40  C   UNL A   1      41.854  23.094  27.469  1.00  0.00    -0.014 A 
BRANCH  40  41
ATOM     41  C   UNL A   1      42.395  24.295  28.124  1.00  0.00     0.031 A 
ATOM     42  C   UNL A   1      41.473  25.463  27.980  1.00  0.00     0.074 A 
ATOM     43  C   UNL A   1      43.533  24.293  28.859  1.00  0.00     0.049 A 
ATOM     44  N   UNL A   1      41.732  26.662  27.568  1.00  0.00    -0.248 NA
ATOM     45  C   UNL A   1      40.023  25.179  28.118  1.00  0.00     0.031 C 
ATOM     46  C   UNL A   1      44.399  23.142  29.153  1.00  0.00     0.029 A 
ATOM     47  N   UNL A   1      44.108  25.277  29.617  1.00  0.00    -0.354 N 
ATOM     48  C   UNL A   1      40.511  27.331  27.624  1.00  0.00     0.074 A 
ATOM     49  C   UNL A   1      39.483  26.334  27.742  1.00  0.00     0.031 C 
ATOM     50  C   UNL A   1      45.182  23.425  30.215  1.00  0.00     0.029 A 
ATOM     51  C   UNL A   1      44.927  24.788  30.636  1.00  0.00     0.049 A 
ATOM     52  H   UNL A   1      43.958  26.237  29.458  1.00  0.00     0.167 HD
ATOM     53  C   UNL A   1      40.428  28.656  27.907  1.00  0.00     0.037 A 
ATOM     54  C   UNL A   1      45.252  25.393  31.810  1.00  0.00     0.037 A 
ATOM     55  C   UNL A   1      41.631  29.361  27.582  1.00  0.00     0.049 A 
ATOM     56  C   UNL A   1      44.972  26.842  31.652  1.00  0.00     0.074 A 
ATOM     57  C   UNL A   1      42.329  29.587  26.413  1.00  0.00     0.029 A 
ATOM     58  N   UNL A   1      42.490  29.667  28.606  1.00  0.00    -0.354 N 
ATOM     59  N   UNL A   1      45.634  27.627  30.848  1.00  0.00    -0.248 NA
ATOM     60  C   UNL A   1      43.648  27.312  32.032  1.00  0.00     0.031 C 
ATOM     61  C   UNL A   1      43.701  29.585  26.790  1.00  0.00     0.029 A 
ATOM     62  C   UNL A   1      43.766  29.413  28.174  1.00  0.00     0.049 A 
ATOM     63  H   UNL A   1      42.234  30.007  29.494  1.00  0.00     0.167 HD
ATOM     64  C   UNL A   1      44.667  28.445  30.280  1.00  0.00     0.074 A 
ATOM     65  C   UNL A   1      43.475  28.254  31.102  1.00  0.00     0.031 C 
ATOM     66  C   UNL A   1      44.840  28.982  29.038  1.00  0.00     0.037 A 
BRANCH  53  67
ATOM     67  C   UNL A   1      39.386  29.174  28.858  1.00  0.00     0.058 A 
ATOM     68  C   UNL A   1      38.336  29.984  28.397  1.00  0.00     0.135 A 
ATOM     69  C   UNL A   1      39.539  29.099  30.264  1.00  0.00     0.135 A 
ATOM     70  F   UNL A   1      38.142  30.160  27.082  1.00  0.00    -0.206 F 
ATOM     71  C   UNL A   1      37.506  30.681  29.276  1.00  0.00     0.059 A 
ATOM     72  C   UNL A   1      38.686  29.729  31.155  1.00  0.00     0.059 A 
ATOM     73  F   UNL A   1      40.587  28.491  30.836  1.00  0.00    -0.206 F 
ATOM     74  C   UNL A   1      37.693  30.548  30.652  1.00  0.00     0.060 A 
BRANCH  74  75
ATOM     75  S   UNL A   1      36.681  31.508  31.790  1.00  0.00     0.124 S 
ATOM     76  O   UNL A   1      35.941  32.362  30.868  1.00  0.00    -0.237 OA
ATOM     77  O   UNL A   1      35.909  30.465  32.459  1.00  0.00    -0.237 OA
ATOM     78  O   UNL A   1      37.667  32.185  32.627  1.00  0.00    -0.744 OA
ENDBRANCH  74  75
ENDBRANCH  53  67
BRANCH  54  79
ATOM     79  C   UNL A   1      45.367  24.738  33.153  1.00  0.00     0.058 A 
ATOM     80  C   UNL A   1      44.452  23.760  33.587  1.00  0.00     0.135 A 
ATOM     81  C   UNL A   1      46.530  24.876  33.941  1.00  0.00     0.135 A 
ATOM     82  F   UNL A   1      43.333  23.526  32.884  1.00  0.00    -0.206 F 
ATOM     83  C   UNL A   1      44.689  22.957  34.715  1.00  0.00     0.059 A 
ATOM     84  C   UNL A   1      46.778  24.102  35.074  1.00  0.00     0.059 A 
ATOM     85  F   UNL A   1      47.519  25.707  33.586  1.00  0.00    -0.206 F 
ATOM     86  C   UNL A   1      45.864  23.128  35.445  1.00  0.00     0.060 A 
BRANCH  86  87
ATOM     87  S   UNL A   1      46.258  22.005  36.809  1.00  0.00     0.124 S 
ATOM     88  O   UNL A   1      47.716  21.982  36.771  1.00  0.00    -0.237 OA
ATOM     89  O   UNL A   1      45.657  22.684  37.952  1.00  0.00    -0.237 OA
ATOM     90  O   UNL A   1      45.606  20.757  36.418  1.00  0.00    -0.744 OA
ENDBRANCH  86  87
ENDBRANCH  54  79
BRANCH  66  91
ATOM     91  C   UNL A   1      46.218  28.939  28.430  1.00  0.00     0.058 A 
ATOM     92  C   UNL A   1      47.227  29.890  28.664  1.00  0.00     0.135 A 
ATOM     93  C   UNL A   1      46.572  27.792  27.704  1.00  0.00     0.135 A 
ATOM     94  F   UNL A   1      46.996  30.966  29.429  1.00  0.00    -0.206 F 
ATOM     95  C   UNL A   1      48.522  29.720  28.167  1.00  0.00     0.059 A 
ATOM     96  C   UNL A   1      47.861  27.587  27.227  1.00  0.00     0.059 A 
ATOM     97  F   UNL A   1      45.666  26.820  27.500  1.00  0.00    -0.206 F 
ATOM     98  C   UNL A   1      48.831  28.561  27.453  1.00  0.00     0.060 A 
BRANCH  98  99
ATOM     99  S   UNL A   1      50.523  28.298  26.879  1.00  0.00     0.124 S 
ATOM    100  O   UNL A   1      50.684  29.368  25.900  1.00  0.00    -0.237 OA
ATOM    101  O   UNL A   1      51.298  28.440  28.109  1.00  0.00    -0.237 OA
ATOM    102  O   UNL A   1      50.491  26.947  26.326  1.00  0.00    -0.744 OA
ENDBRANCH  98  99
ENDBRANCH  66  91
ENDBRANCH  40  41
ENDBRANCH  33  35
ENDBRANCH  32  33
ENDBRANCH  31  32
ENDBRANCH   1  31
TORSDOF 18
ENDMDL
MODEL 2
REMARK VINA RESULT:     -11.6      3.337      6.988
REMARK SMILES Cc1nn(Cc2ccc(Cl)cc2Cl)c(C)c1NC(=O)c1c(C(=O)OCCOC(=O)c2ccc(-c3c4nc(c(-c5c(F)cc(S(=O)(=O)[O-])cc5F)c5ccc([nH]5)c(-c5c(F)cc(S(=O)(=O)[O-])cc5F)c5nc(c(-c6c(F)cc(S(=O)(=O)[O-])cc6F)c6ccc3[nH]6)C=C5)C=C4)cc2)cnn1C
REMARK SMILES IDX 25 1 24 2 22 3 23 4 21 5 20 6 98 7 96 8 97 9 99 10 18 11
REMARK SMILES IDX 17 12 19 14 16 15 1 16 2 17 3 18 4 19 14 20 15 21 5 22 6 23
REMARK SMILES IDX 7 24 12 25 8 26 11 27 13 28 9 29 10 30 26 31 27 32 28 33
REMARK SMILES IDX 29 34 30 35 31 36 95 37 32 38 94 39 33 40 34 41 35 42 88 43
REMARK SMILES IDX 36 44 93 45 87 46 89 47 37 48 92 49 86 50 85 51 38 53 72 54
REMARK SMILES IDX 51 55 71 56 52 57 55 58 70 59 90 60 53 61 54 62 69 64 91 65
REMARK SMILES IDX 56 66 39 67 40 68 49 69 41 70 42 71 48 72 50 73 43 74 44 75
REMARK SMILES IDX 45 76 46 77 47 78 73 79 74 80 83 81 75 82 76 83 82 84 84 85
REMARK SMILES IDX 77 86 78 87 79 88 80 89 81 90 57 91 58 92 67 93 59 94 60 95
REMARK SMILES IDX 66 96 68 97 61 98 62 99 63 100 64 101 65 102
REMARK H PARENT 17 13 89 52 55 63
REMARK Flexibility Score: inf
ROOT
ATOM      1  C   UNL A   1      37.962  21.466  25.115  1.00  0.00     0.275 C 
ENDROOT
BRANCH   1   2
ATOM      2  O   UNL A   1      36.839  21.554  26.013  1.00  0.00    -0.458 OA
BRANCH   2   3
ATOM      3  C   UNL A   1      35.739  20.841  25.650  1.00  0.00     0.342 C 
ATOM      4  O   UNL A   1      35.729  19.964  24.793  1.00  0.00    -0.246 OA
BRANCH   3   5
ATOM      5  C   UNL A   1      34.511  21.369  26.198  1.00  0.00     0.111 A 
ATOM      6  C   UNL A   1      33.204  21.409  25.710  1.00  0.00     0.140 A 
ATOM      7  N   UNL A   1      32.583  22.335  26.527  1.00  0.00    -0.262 N 
ATOM      8  C   UNL A   1      34.467  22.085  27.413  1.00  0.00     0.151 A 
ATOM      9  N   UNL A   1      33.277  22.627  27.647  1.00  0.00    -0.180 NA
ATOM     10  C   UNL A   1      31.275  22.932  26.368  1.00  0.00     0.174 C 
BRANCH   6  11
ATOM     11  C   UNL A   1      32.530  20.826  24.569  1.00  0.00     0.274 C 
ATOM     12  N   UNL A   1      32.375  21.497  23.367  1.00  0.00    -0.317 N 
ATOM     13  H   UNL A   1      31.964  20.963  22.649  1.00  0.00     0.170 HD
ATOM     14  O   UNL A   1      32.115  19.664  24.607  1.00  0.00    -0.267 OA
BRANCH  12  15
ATOM     15  C   UNL A   1      32.700  22.786  23.010  1.00  0.00     0.085 A 
ATOM     16  C   UNL A   1      35.346  22.911  23.212  1.00  0.00     0.071 C 
ATOM     17  C   UNL A   1      33.993  23.359  22.846  1.00  0.00     0.083 A 
ATOM     18  N   UNL A   1      33.912  24.509  22.178  1.00  0.00    -0.175 NA
ATOM     19  N   UNL A   1      32.621  24.847  22.286  1.00  0.00    -0.263 N 
ATOM     20  C   UNL A   1      31.872  23.886  22.919  1.00  0.00     0.060 A 
ATOM     21  C   UNL A   1      30.555  24.157  23.536  1.00  0.00     0.069 C 
BRANCH  19  22
ATOM     22  C   UNL A   1      32.278  26.225  21.956  1.00  0.00     0.181 C 
BRANCH  22  23
ATOM     23  C   UNL A   1      32.346  27.049  23.221  1.00  0.00    -0.008 A 
ATOM     24  C   UNL A   1      33.542  27.031  23.972  1.00  0.00     0.009 A 
ATOM     25  C   UNL A   1      31.222  27.676  23.770  1.00  0.00     0.047 A 
ATOM     26  C   UNL A   1      33.583  27.539  25.268  1.00  0.00     0.021 A 
ATOM     27  C   UNL A   1      31.255  28.162  25.076  1.00  0.00     0.041 A 
ATOM     28  Cl  UNL A   1      29.758  27.889  22.875  1.00  0.00    -0.084 Cl
ATOM     29  C   UNL A   1      32.430  28.082  25.821  1.00  0.00     0.042 A 
ATOM     30  Cl  UNL A   1      32.451  28.676  27.432  1.00  0.00    -0.084 Cl
ENDBRANCH  22  23
ENDBRANCH  19  22
ENDBRANCH  12  15
ENDBRANCH   6  11
ENDBRANCH   3   5
ENDBRANCH   2   3
ENDBRANCH   1   2
BRANCH   1  31
ATOM     31  C   UNL A   1      38.960  20.448  25.648  1.00  0.00     0.275 C 
BRANCH  31  32
ATOM     32  O   UNL A   1      39.989  20.968  26.515  1.00  0.00    -0.458 OA
BRANCH  32  33
ATOM     33  C   UNL A   1      41.283  20.684  26.211  1.00  0.00     0.338 C 
ATOM     34  O   UNL A   1      41.813  19.605  26.193  1.00  0.00    -0.246 OA
BRANCH  33  35
ATOM     35  C   UNL A   1      42.053  21.946  26.159  1.00  0.00     0.060 A 
ATOM     36  C   UNL A   1      43.442  21.813  26.163  1.00  0.00     0.016 A 
ATOM     37  C   UNL A   1      41.453  23.189  26.374  1.00  0.00     0.016 A 
ATOM     38  C   UNL A   1      44.207  22.847  26.666  1.00  0.00     0.010 A 
ATOM     39  C   UNL A   1      42.233  24.256  26.793  1.00  0.00     0.010 A 
ATOM     40  C   UNL A   1      43.589  24.049  27.054  1.00  0.00    -0.014 A 
BRANCH  40  41
ATOM     41  C   UNL A   1      44.447  25.107  27.610  1.00  0.00     0.031 A 
ATOM     42  C   UNL A   1      44.324  25.190  29.097  1.00  0.00     0.074 A 
ATOM     43  C   UNL A   1      45.318  25.828  26.863  1.00  0.00     0.049 A 
ATOM     44  N   UNL A   1      44.094  26.224  29.841  1.00  0.00    -0.248 NA
ATOM     45  C   UNL A   1      44.236  23.900  29.825  1.00  0.00     0.031 C 
ATOM     46  C   UNL A   1      45.584  25.688  25.424  1.00  0.00     0.029 A 
ATOM     47  N   UNL A   1      46.255  26.754  27.233  1.00  0.00    -0.354 N 
ATOM     48  C   UNL A   1      44.069  25.729  31.143  1.00  0.00     0.074 A 
ATOM     49  C   UNL A   1      43.933  24.301  31.055  1.00  0.00     0.031 C 
ATOM     50  C   UNL A   1      46.764  26.267  25.124  1.00  0.00     0.029 A 
ATOM     51  C   UNL A   1      47.307  26.874  26.322  1.00  0.00     0.049 A 
ATOM     52  H   UNL A   1      46.193  27.285  28.059  1.00  0.00     0.167 HD
ATOM     53  C   UNL A   1      44.493  26.466  32.202  1.00  0.00     0.037 A 
ATOM     54  C   UNL A   1      48.577  27.299  26.564  1.00  0.00     0.037 A 
ATOM     55  C   UNL A   1      44.413  27.874  31.955  1.00  0.00     0.049 A 
ATOM     56  C   UNL A   1      48.556  28.045  27.848  1.00  0.00     0.074 A 
ATOM     57  C   UNL A   1      43.380  28.746  31.678  1.00  0.00     0.029 A 
ATOM     58  N   UNL A   1      45.570  28.532  31.623  1.00  0.00    -0.354 N 
ATOM     59  N   UNL A   1      47.944  29.184  28.017  1.00  0.00    -0.248 NA
ATOM     60  C   UNL A   1      48.814  27.288  29.064  1.00  0.00     0.031 C 
ATOM     61  C   UNL A   1      43.930  29.705  30.782  1.00  0.00     0.029 A 
ATOM     62  C   UNL A   1      45.280  29.400  30.602  1.00  0.00     0.049 A 
ATOM     63  H   UNL A   1      46.450  28.402  32.044  1.00  0.00     0.167 HD
ATOM     64  C   UNL A   1      47.356  29.084  29.269  1.00  0.00     0.074 A 
ATOM     65  C   UNL A   1      47.987  27.925  29.896  1.00  0.00     0.031 C 
ATOM     66  C   UNL A   1      46.220  29.776  29.571  1.00  0.00     0.037 A 
BRANCH  53  67
ATOM     67  C   UNL A   1      45.355  25.851  33.269  1.00  0.00     0.058 A 
ATOM     68  C   UNL A   1      46.642  25.380  32.965  1.00  0.00     0.135 A 
ATOM     69  C   UNL A   1      44.844  25.482  34.537  1.00  0.00     0.135 A 
ATOM     70  F   UNL A   1      47.192  25.632  31.767  1.00  0.00    -0.206 F 
ATOM     71  C   UNL A   1      47.364  24.586  33.858  1.00  0.00     0.059 A 
ATOM     72  C   UNL A   1      45.569  24.753  35.465  1.00  0.00     0.059 A 
ATOM     73  F   UNL A   1      43.577  25.731  34.895  1.00  0.00    -0.206 F 
ATOM     74  C   UNL A   1      46.816  24.277  35.102  1.00  0.00     0.060 A 
BRANCH  74  75
ATOM     75  S   UNL A   1      47.703  23.186  36.226  1.00  0.00     0.124 S 
ATOM     76  O   UNL A   1      47.156  21.885  35.855  1.00  0.00    -0.237 OA
ATOM     77  O   UNL A   1      49.092  23.430  35.848  1.00  0.00    -0.237 OA
ATOM     78  O   UNL A   1      47.322  23.680  37.545  1.00  0.00    -0.744 OA
ENDBRANCH  74  75
ENDBRANCH  53  67
BRANCH  54  79
ATOM     79  C   UNL A   1      49.836  26.729  25.985  1.00  0.00     0.058 A 
ATOM     80  C   UNL A   1      50.711  27.501  25.197  1.00  0.00     0.135 A 
ATOM     81  C   UNL A   1      50.338  25.478  26.404  1.00  0.00     0.135 A 
ATOM     82  F   UNL A   1      50.343  28.723  24.781  1.00  0.00    -0.206 F 
ATOM     83  C   UNL A   1      52.007  27.068  24.869  1.00  0.00     0.059 A 
ATOM     84  C   UNL A   1      51.612  25.019  26.076  1.00  0.00     0.059 A 
ATOM     85  F   UNL A   1      49.639  24.688  27.231  1.00  0.00    -0.206 F 
ATOM     86  C   UNL A   1      52.453  25.827  25.325  1.00  0.00     0.060 A 
BRANCH  86  87
ATOM     87  S   UNL A   1      54.166  25.318  25.041  1.00  0.00     0.124 S 
ATOM     88  O   UNL A   1      54.040  23.867  24.956  1.00  0.00    -0.237 OA
ATOM     89  O   UNL A   1      54.490  26.006  23.796  1.00  0.00    -0.237 OA
ATOM     90  O   UNL A   1      54.867  25.813  26.223  1.00  0.00    -0.744 OA
ENDBRANCH  86  87
ENDBRANCH  54  79
BRANCH  66  91
ATOM     91  C   UNL A   1      45.796  30.885  28.644  1.00  0.00     0.058 A 
ATOM     92  C   UNL A   1      46.286  32.202  28.694  1.00  0.00     0.135 A 
ATOM     93  C   UNL A   1      44.972  30.547  27.561  1.00  0.00     0.135 A 
ATOM     94  F   UNL A   1      47.155  32.579  29.644  1.00  0.00    -0.206 F 
ATOM     95  C   UNL A   1      45.943  33.148  27.725  1.00  0.00     0.059 A 
ATOM     96  C   UNL A   1      44.642  31.462  26.568  1.00  0.00     0.059 A 
ATOM     97  F   UNL A   1      44.520  29.288  27.427  1.00  0.00    -0.206 F 
ATOM     98  C   UNL A   1      45.123  32.766  26.661  1.00  0.00     0.060 A 
BRANCH  98  99
ATOM     99  S   UNL A   1      44.743  33.962  25.362  1.00  0.00     0.124 S 
ATOM    100  O   UNL A   1      43.790  34.845  26.027  1.00  0.00    -0.237 OA
ATOM    101  O   UNL A   1      46.053  34.541  25.075  1.00  0.00    -0.237 OA
ATOM    102  O   UNL A   1      44.188  33.139  24.291  1.00  0.00    -0.744 OA
ENDBRANCH  98  99
ENDBRANCH  66  91
ENDBRANCH  40  41
ENDBRANCH  33  35
ENDBRANCH  32  33
ENDBRANCH  31  32
ENDBRANCH   1  31
TORSDOF 18
ENDMDL
MODEL 3
REMARK VINA RESULT:     -11.4      3.309      7.910
REMARK SMILES Cc1nn(Cc2ccc(Cl)cc2Cl)c(C)c1NC(=O)c1c(C(=O)OCCOC(=O)c2ccc(-c3c4nc(c(-c5c(F)cc(S(=O)(=O)[O-])cc5F)c5ccc([nH]5)c(-c5c(F)cc(S(=O)(=O)[O-])cc5F)c5nc(c(-c6c(F)cc(S(=O)(=O)[O-])cc6F)c6ccc3[nH]6)C=C5)C=C4)cc2)cnn1C
REMARK SMILES IDX 25 1 24 2 22 3 23 4 21 5 20 6 98 7 96 8 97 9 99 10 18 11
REMARK SMILES IDX 17 12 19 14 16 15 1 16 2 17 3 18 4 19 14 20 15 21 5 22 6 23
REMARK SMILES IDX 7 24 12 25 8 26 11 27 13 28 9 29 10 30 26 31 27 32 28 33
REMARK SMILES IDX 29 34 30 35 31 36 95 37 32 38 94 39 33 40 34 41 35 42 88 43
REMARK SMILES IDX 36 44 93 45 87 46 89 47 37 48 92 49 86 50 85 51 38 53 72 54
REMARK SMILES IDX 51 55 71 56 52 57 55 58 70 59 90 60 53 61 54 62 69 64 91 65
REMARK SMILES IDX 56 66 39 67 40 68 49 69 41 70 42 71 48 72 50 73 43 74 44 75
REMARK SMILES IDX 45 76 46 77 47 78 73 79 74 80 83 81 75 82 76 83 82 84 84 85
REMARK SMILES IDX 77 86 78 87 79 88 80 89 81 90 57 91 58 92 67 93 59 94 60 95
REMARK SMILES IDX 66 96 68 97 61 98 62 99 63 100 64 101 65 102
REMARK H PARENT 17 13 89 52 55 63
REMARK Flexibility Score: inf
ROOT
ATOM      1  C   UNL A   1      35.069  22.519  25.560  1.00  0.00     0.275 C 
ENDROOT
BRANCH   1   2
ATOM      2  O   UNL A   1      34.480  23.658  26.217  1.00  0.00    -0.458 OA
BRANCH   2   3
ATOM      3  C   UNL A   1      33.264  24.045  25.747  1.00  0.00     0.342 C 
ATOM      4  O   UNL A   1      32.191  23.733  26.251  1.00  0.00    -0.246 OA
BRANCH   3   5
ATOM      5  C   UNL A   1      33.330  24.673  24.447  1.00  0.00     0.111 A 
ATOM      6  C   UNL A   1      32.346  25.195  23.604  1.00  0.00     0.140 A 
ATOM      7  N   UNL A   1      32.996  25.323  22.391  1.00  0.00    -0.262 N 
ATOM      8  C   UNL A   1      34.530  24.781  23.714  1.00  0.00     0.151 A 
ATOM      9  N   UNL A   1      34.340  25.232  22.479  1.00  0.00    -0.180 NA
ATOM     10  C   UNL A   1      32.423  25.626  21.098  1.00  0.00     0.174 C 
BRANCH   6  11
ATOM     11  C   UNL A   1      30.929  25.457  23.741  1.00  0.00     0.274 C 
ATOM     12  N   UNL A   1      30.432  26.650  24.241  1.00  0.00    -0.317 N 
ATOM     13  H   UNL A   1      29.452  26.730  24.214  1.00  0.00     0.170 HD
ATOM     14  O   UNL A   1      30.094  24.636  23.352  1.00  0.00    -0.267 OA
BRANCH  12  15
ATOM     15  C   UNL A   1      31.084  27.742  24.770  1.00  0.00     0.085 A 
ATOM     16  C   UNL A   1      32.286  28.896  22.702  1.00  0.00     0.071 C 
ATOM     17  C   UNL A   1      31.797  28.765  24.084  1.00  0.00     0.083 A 
ATOM     18  N   UNL A   1      31.993  29.813  24.882  1.00  0.00    -0.175 NA
ATOM     19  N   UNL A   1      31.792  29.317  26.110  1.00  0.00    -0.263 N 
ATOM     20  C   UNL A   1      31.377  28.009  26.092  1.00  0.00     0.060 A 
ATOM     21  C   UNL A   1      31.484  27.106  27.258  1.00  0.00     0.069 C 
BRANCH  19  22
ATOM     22  C   UNL A   1      32.267  30.127  27.225  1.00  0.00     0.181 C 
BRANCH  22  23
ATOM     23  C   UNL A   1      33.776  30.174  27.171  1.00  0.00    -0.008 A 
ATOM     24  C   UNL A   1      34.475  28.995  26.830  1.00  0.00     0.009 A 
ATOM     25  C   UNL A   1      34.509  31.278  27.621  1.00  0.00     0.047 A 
ATOM     26  C   UNL A   1      35.851  28.896  27.024  1.00  0.00     0.021 A 
ATOM     27  C   UNL A   1      35.882  31.170  27.840  1.00  0.00     0.041 A 
ATOM     28  Cl  UNL A   1      33.771  32.814  27.918  1.00  0.00    -0.084 Cl
ATOM     29  C   UNL A   1      36.543  29.979  27.551  1.00  0.00     0.042 A 
ATOM     30  Cl  UNL A   1      38.232  29.860  27.835  1.00  0.00    -0.084 Cl
ENDBRANCH  22  23
ENDBRANCH  19  22
ENDBRANCH  12  15
ENDBRANCH   6  11
ENDBRANCH   3   5
ENDBRANCH   2   3
ENDBRANCH   1   2
BRANCH   1  31
ATOM     31  C   UNL A   1      36.435  22.232  26.167  1.00  0.00     0.275 C 
BRANCH  31  32
ATOM     32  O   UNL A   1      37.405  23.294  26.066  1.00  0.00    -0.458 OA
BRANCH  32  33
ATOM     33  C   UNL A   1      38.697  23.010  26.380  1.00  0.00     0.338 C 
ATOM     34  O   UNL A   1      39.187  21.927  26.562  1.00  0.00    -0.246 OA
BRANCH  33  35
ATOM     35  C   UNL A   1      39.392  24.265  26.743  1.00  0.00     0.060 A 
ATOM     36  C   UNL A   1      40.670  24.119  27.285  1.00  0.00     0.016 A 
ATOM     37  C   UNL A   1      38.723  25.489  26.807  1.00  0.00     0.016 A 
ATOM     38  C   UNL A   1      41.146  25.099  28.134  1.00  0.00     0.010 A 
ATOM     39  C   UNL A   1      39.246  26.509  27.587  1.00  0.00     0.010 A 
ATOM     40  C   UNL A   1      40.394  26.268  28.345  1.00  0.00    -0.014 A 
BRANCH  40  41
ATOM     41  C   UNL A   1      40.935  27.266  29.281  1.00  0.00     0.031 A 
ATOM     42  C   UNL A   1      42.174  27.908  28.744  1.00  0.00     0.074 A 
ATOM     43  C   UNL A   1      40.311  27.626  30.428  1.00  0.00     0.049 A 
ATOM     44  N   UNL A   1      43.326  28.062  29.314  1.00  0.00    -0.248 NA
ATOM     45  C   UNL A   1      42.177  28.227  27.295  1.00  0.00     0.031 C 
ATOM     46  C   UNL A   1      39.020  27.133  30.930  1.00  0.00     0.029 A 
ATOM     47  N   UNL A   1      40.612  28.602  31.339  1.00  0.00    -0.354 N 
ATOM     48  C   UNL A   1      44.112  28.708  28.362  1.00  0.00     0.074 A 
ATOM     49  C   UNL A   1      43.444  28.576  27.097  1.00  0.00     0.031 C 
ATOM     50  C   UNL A   1      38.538  27.988  31.855  1.00  0.00     0.029 A 
ATOM     51  C   UNL A   1      39.504  29.048  32.062  1.00  0.00     0.049 A 
ATOM     52  H   UNL A   1      41.521  28.953  31.472  1.00  0.00     0.167 HD
ATOM     53  C   UNL A   1      45.082  29.592  28.709  1.00  0.00     0.037 A 
ATOM     54  C   UNL A   1      39.330  30.258  32.661  1.00  0.00     0.037 A 
ATOM     55  C   UNL A   1      45.577  29.368  30.033  1.00  0.00     0.049 A 
ATOM     56  C   UNL A   1      40.673  30.870  32.818  1.00  0.00     0.074 A 
ATOM     57  C   UNL A   1      46.220  28.318  30.657  1.00  0.00     0.029 A 
ATOM     58  N   UNL A   1      45.118  30.185  31.035  1.00  0.00    -0.354 N 
ATOM     59  N   UNL A   1      41.598  30.402  33.609  1.00  0.00    -0.248 NA
ATOM     60  C   UNL A   1      41.148  31.722  31.738  1.00  0.00     0.031 C 
ATOM     61  C   UNL A   1      45.731  28.320  31.993  1.00  0.00     0.029 A 
ATOM     62  C   UNL A   1      44.859  29.401  32.129  1.00  0.00     0.049 A 
ATOM     63  H   UNL A   1      44.996  31.160  30.976  1.00  0.00     0.167 HD
ATOM     64  C   UNL A   1      42.775  30.529  32.886  1.00  0.00     0.074 A 
ATOM     65  C   UNL A   1      42.446  31.414  31.772  1.00  0.00     0.031 C 
ATOM     66  C   UNL A   1      43.826  29.685  33.099  1.00  0.00     0.037 A 
BRANCH  53  67
ATOM     67  C   UNL A   1      45.242  30.887  27.963  1.00  0.00     0.058 A 
ATOM     68  C   UNL A   1      46.479  31.243  27.405  1.00  0.00     0.135 A 
ATOM     69  C   UNL A   1      44.263  31.910  28.003  1.00  0.00     0.135 A 
ATOM     70  F   UNL A   1      47.487  30.358  27.370  1.00  0.00    -0.206 F 
ATOM     71  C   UNL A   1      46.729  32.532  26.932  1.00  0.00     0.059 A 
ATOM     72  C   UNL A   1      44.466  33.176  27.478  1.00  0.00     0.059 A 
ATOM     73  F   UNL A   1      43.097  31.756  28.644  1.00  0.00    -0.206 F 
ATOM     74  C   UNL A   1      45.716  33.490  26.977  1.00  0.00     0.060 A 
BRANCH  74  75
ATOM     75  S   UNL A   1      46.054  35.177  26.446  1.00  0.00     0.124 S 
ATOM     76  O   UNL A   1      45.112  35.930  27.267  1.00  0.00    -0.237 OA
ATOM     77  O   UNL A   1      47.465  35.323  26.788  1.00  0.00    -0.237 OA
ATOM     78  O   UNL A   1      45.761  35.144  25.016  1.00  0.00    -0.744 OA
ENDBRANCH  74  75
ENDBRANCH  53  67
BRANCH  54  79
ATOM     79  C   UNL A   1      38.068  31.064  32.696  1.00  0.00     0.058 A 
ATOM     80  C   UNL A   1      37.547  31.584  33.896  1.00  0.00     0.135 A 
ATOM     81  C   UNL A   1      37.479  31.559  31.512  1.00  0.00     0.135 A 
ATOM     82  F   UNL A   1      38.065  31.206  35.075  1.00  0.00    -0.206 F 
ATOM     83  C   UNL A   1      36.525  32.549  33.917  1.00  0.00     0.059 A 
ATOM     84  C   UNL A   1      36.453  32.502  31.509  1.00  0.00     0.059 A 
ATOM     85  F   UNL A   1      37.944  31.213  30.304  1.00  0.00    -0.206 F 
ATOM     86  C   UNL A   1      35.993  33.011  32.713  1.00  0.00     0.060 A 
BRANCH  86  87
ATOM     87  S   UNL A   1      34.785  34.359  32.714  1.00  0.00     0.124 S 
ATOM     88  O   UNL A   1      34.832  34.808  31.327  1.00  0.00    -0.237 OA
ATOM     89  O   UNL A   1      33.563  33.678  33.125  1.00  0.00    -0.237 OA
ATOM     90  O   UNL A   1      35.329  35.300  33.691  1.00  0.00    -0.744 OA
ENDBRANCH  86  87
ENDBRANCH  54  79
BRANCH  66  91
ATOM     91  C   UNL A   1      43.810  28.828  34.337  1.00  0.00     0.058 A 
ATOM     92  C   UNL A   1      43.183  27.573  34.435  1.00  0.00     0.135 A 
ATOM     93  C   UNL A   1      44.603  29.235  35.420  1.00  0.00     0.135 A 
ATOM     94  F   UNL A   1      42.485  27.068  33.407  1.00  0.00    -0.206 F 
ATOM     95  C   UNL A   1      43.314  26.776  35.575  1.00  0.00     0.059 A 
ATOM     96  C   UNL A   1      44.774  28.445  36.551  1.00  0.00     0.059 A 
ATOM     97  F   UNL A   1      45.275  30.397  35.360  1.00  0.00    -0.206 F 
ATOM     98  C   UNL A   1      44.117  27.220  36.627  1.00  0.00     0.060 A 
BRANCH  98  99
ATOM     99  S   UNL A   1      44.357  26.157  38.068  1.00  0.00     0.124 S 
ATOM    100  O   UNL A   1      44.169  27.092  39.173  1.00  0.00    -0.237 OA
ATOM    101  O   UNL A   1      43.308  25.155  37.898  1.00  0.00    -0.237 OA
ATOM    102  O   UNL A   1      45.718  25.655  37.900  1.00  0.00    -0.744 OA
ENDBRANCH  98  99
ENDBRANCH  66  91
ENDBRANCH  40  41
ENDBRANCH  33  35
ENDBRANCH  32  33
ENDBRANCH  31  32
ENDBRANCH   1  31
TORSDOF 18
ENDMDL
