MODEL 1
REMARK VINA RESULT:     -12.0      0.000      0.000
REMARK SMILES O=C(Nc1c(F)cc(F)cc1F)N[C@H]1C=C[C@@H](C(=O)OCCOC(=O)c2ccc(-c3c4nc(c(-c5c(F)cc(S(=O)(=O)[O-])cc5F)c5ccc([nH]5)c(-c5c(F)cc(S(=O)(=O)[O-])cc5F)c5nc(c(-c6c(F)cc(S(=O)(=O)[O-])cc6F)c6ccc3[nH]6)C=C5)C=C4)cc2)C1
REMARK SMILES IDX 22 1 21 2 20 3 18 4 19 5 17 6 14 7 15 8 92 9 16 10 13 11
REMARK SMILES IDX 1 12 2 13 3 14 4 17 5 18 11 19 6 20 7 21 10 22 12 23 8 24
REMARK SMILES IDX 9 25 23 26 24 27 25 28 26 29 27 30 91 31 28 32 90 33 29 34
REMARK SMILES IDX 30 35 31 36 84 37 32 38 89 39 83 40 85 41 33 42 88 43 82 44
REMARK SMILES IDX 81 45 34 47 68 48 47 49 67 50 48 51 51 52 66 53 86 54 49 55
REMARK SMILES IDX 50 56 65 58 87 59 52 60 35 61 36 62 45 63 37 64 38 65 44 66
REMARK SMILES IDX 46 67 39 68 40 69 41 70 42 71 43 72 69 73 70 74 79 75 71 76
REMARK SMILES IDX 72 77 78 78 80 79 73 80 74 81 75 82 76 83 77 84 53 85 54 86
REMARK SMILES IDX 63 87 55 88 56 89 62 90 64 91 57 92 58 93 59 94 60 95 61 96
REMARK H PARENT 3 15 13 16 85 46 51 57
REMARK Flexibility Score: inf
ROOT
ATOM      1  C   UNL A   1      39.613  22.423  26.527  1.00  0.00     0.275 C 
ENDROOT
BRANCH   1   2
ATOM      2  C   UNL A   1      38.444  21.821  25.745  1.00  0.00     0.274 C 
BRANCH   2   3
ATOM      3  O   UNL A   1      37.259  22.602  25.975  1.00  0.00    -0.462 OA
BRANCH   3   4
ATOM      4  C   UNL A   1      36.147  22.281  25.269  1.00  0.00     0.312 C 
ATOM      5  O   UNL A   1      36.034  22.414  24.055  1.00  0.00    -0.252 OA
BRANCH   4   6
ATOM      6  C   UNL A   1      35.034  21.704  26.141  1.00  0.00     0.124 C 
ATOM      7  C   UNL A   1      32.856  22.457  27.030  1.00  0.00     0.107 C 
ATOM      8  C   UNL A   1      32.714  21.533  25.857  1.00  0.00    -0.006 C 
ATOM      9  C   UNL A   1      34.372  22.661  27.142  1.00  0.00     0.048 C 
ATOM     10  C   UNL A   1      33.892  21.163  25.343  1.00  0.00    -0.014 C 
BRANCH   7  11
ATOM     11  N   UNL A   1      32.077  23.629  26.705  1.00  0.00    -0.332 N 
ATOM     12  O   UNL A   1      30.012  22.977  27.468  1.00  0.00    -0.248 OA
ATOM     13  C   UNL A   1      30.732  23.769  26.872  1.00  0.00     0.319 C 
ATOM     14  N   UNL A   1      30.225  24.977  26.475  1.00  0.00    -0.303 N 
ATOM     15  H   UNL A   1      29.469  25.315  27.009  1.00  0.00     0.172 HD
ATOM     16  H   UNL A   1      32.562  24.396  26.327  1.00  0.00     0.165 HD
BRANCH  14  17
ATOM     17  C   UNL A   1      30.631  25.808  25.413  1.00  0.00     0.115 A 
ATOM     18  C   UNL A   1      30.616  25.410  24.069  1.00  0.00     0.152 A 
ATOM     19  C   UNL A   1      31.010  27.121  25.703  1.00  0.00     0.152 A 
ATOM     20  F   UNL A   1      30.184  24.192  23.716  1.00  0.00    -0.204 F 
ATOM     21  C   UNL A   1      30.998  26.278  23.053  1.00  0.00     0.081 A 
ATOM     22  C   UNL A   1      31.421  27.996  24.702  1.00  0.00     0.081 A 
ATOM     23  F   UNL A   1      31.024  27.546  26.976  1.00  0.00    -0.204 F 
ATOM     24  C   UNL A   1      31.409  27.562  23.382  1.00  0.00     0.129 A 
ATOM     25  F   UNL A   1      31.791  28.400  22.410  1.00  0.00    -0.207 F 
ENDBRANCH  14  17
ENDBRANCH   7  11
ENDBRANCH   4   6
ENDBRANCH   3   4
ENDBRANCH   2   3
ENDBRANCH   1   2
BRANCH   1  26
ATOM     26  O   UNL A   1      39.558  23.864  26.510  1.00  0.00    -0.458 OA
BRANCH  26  27
ATOM     27  C   UNL A   1      40.744  24.487  26.715  1.00  0.00     0.338 C 
ATOM     28  O   UNL A   1      41.796  24.284  26.140  1.00  0.00    -0.246 OA
BRANCH  27  29
ATOM     29  C   UNL A   1      40.568  25.578  27.684  1.00  0.00     0.060 A 
ATOM     30  C   UNL A   1      41.561  26.558  27.755  1.00  0.00     0.016 A 
ATOM     31  C   UNL A   1      39.496  25.589  28.575  1.00  0.00     0.016 A 
ATOM     32  C   UNL A   1      41.487  27.562  28.715  1.00  0.00     0.010 A 
ATOM     33  C   UNL A   1      39.422  26.598  29.541  1.00  0.00     0.010 A 
ATOM     34  C   UNL A   1      40.421  27.585  29.620  1.00  0.00    -0.014 A 
BRANCH  34  35
ATOM     35  C   UNL A   1      40.381  28.623  30.678  1.00  0.00     0.031 A 
ATOM     36  C   UNL A   1      41.319  28.533  31.847  1.00  0.00     0.074 A 
ATOM     37  C   UNL A   1      39.521  29.652  30.572  1.00  0.00     0.049 A 
ATOM     38  N   UNL A   1      41.379  29.283  32.916  1.00  0.00    -0.248 NA
ATOM     39  C   UNL A   1      42.321  27.457  31.808  1.00  0.00     0.031 C 
ATOM     40  C   UNL A   1      38.598  29.868  29.456  1.00  0.00     0.029 A 
ATOM     41  N   UNL A   1      39.279  30.706  31.416  1.00  0.00    -0.354 N 
ATOM     42  C   UNL A   1      42.409  28.760  33.689  1.00  0.00     0.074 A 
ATOM     43  C   UNL A   1      42.940  27.622  32.969  1.00  0.00     0.031 C 
ATOM     44  C   UNL A   1      37.888  30.985  29.686  1.00  0.00     0.029 A 
ATOM     45  C   UNL A   1      38.272  31.534  30.983  1.00  0.00     0.049 A 
ATOM     46  H   UNL A   1      39.778  30.854  32.251  1.00  0.00     0.167 HD
ATOM     47  C   UNL A   1      42.867  29.193  34.888  1.00  0.00     0.037 A 
ATOM     48  C   UNL A   1      37.701  32.598  31.582  1.00  0.00     0.037 A 
ATOM     49  C   UNL A   1      42.341  30.336  35.589  1.00  0.00     0.049 A 
ATOM     50  C   UNL A   1      38.193  33.030  32.936  1.00  0.00     0.074 A 
ATOM     51  C   UNL A   1      42.737  30.856  36.809  1.00  0.00     0.029 A 
ATOM     52  N   UNL A   1      41.305  31.137  35.130  1.00  0.00    -0.354 N 
ATOM     53  N   UNL A   1      39.153  32.513  33.665  1.00  0.00    -0.248 NA
ATOM     54  C   UNL A   1      37.521  34.181  33.553  1.00  0.00     0.031 C 
ATOM     55  C   UNL A   1      41.919  31.954  37.102  1.00  0.00     0.029 A 
ATOM     56  C   UNL A   1      41.039  32.140  36.048  1.00  0.00     0.049 A 
ATOM     57  H   UNL A   1      40.830  31.012  34.277  1.00  0.00     0.167 HD
ATOM     58  C   UNL A   1      39.210  33.284  34.820  1.00  0.00     0.074 A 
ATOM     59  C   UNL A   1      38.196  34.311  34.687  1.00  0.00     0.031 C 
ATOM     60  C   UNL A   1      40.026  33.154  35.895  1.00  0.00     0.037 A 
BRANCH  47  61
ATOM     61  C   UNL A   1      43.974  28.406  35.531  1.00  0.00     0.058 A 
ATOM     62  C   UNL A   1      43.712  27.307  36.363  1.00  0.00     0.135 A 
ATOM     63  C   UNL A   1      45.316  28.743  35.291  1.00  0.00     0.135 A 
ATOM     64  F   UNL A   1      42.446  26.954  36.637  1.00  0.00    -0.206 F 
ATOM     65  C   UNL A   1      44.742  26.583  36.955  1.00  0.00     0.059 A 
ATOM     66  C   UNL A   1      46.362  28.020  35.857  1.00  0.00     0.059 A 
ATOM     67  F   UNL A   1      45.621  29.788  34.505  1.00  0.00    -0.206 F 
ATOM     68  C   UNL A   1      46.064  26.951  36.700  1.00  0.00     0.060 A 
BRANCH  68  69
ATOM     69  S   UNL A   1      47.394  26.007  37.477  1.00  0.00     0.124 S 
ATOM     70  O   UNL A   1      48.243  25.703  36.330  1.00  0.00    -0.237 OA
ATOM     71  O   UNL A   1      47.941  26.963  38.435  1.00  0.00    -0.237 OA
ATOM     72  O   UNL A   1      46.700  24.865  38.066  1.00  0.00    -0.744 OA
ENDBRANCH  68  69
ENDBRANCH  47  61
BRANCH  48  73
ATOM     73  C   UNL A   1      36.581  33.310  30.912  1.00  0.00     0.058 A 
ATOM     74  C   UNL A   1      36.811  34.152  29.815  1.00  0.00     0.135 A 
ATOM     75  C   UNL A   1      35.256  33.144  31.346  1.00  0.00     0.135 A 
ATOM     76  F   UNL A   1      38.061  34.349  29.370  1.00  0.00    -0.206 F 
ATOM     77  C   UNL A   1      35.768  34.812  29.174  1.00  0.00     0.059 A 
ATOM     78  C   UNL A   1      34.194  33.775  30.707  1.00  0.00     0.059 A 
ATOM     79  F   UNL A   1      34.985  32.339  32.384  1.00  0.00    -0.206 F 
ATOM     80  C   UNL A   1      34.461  34.615  29.627  1.00  0.00     0.060 A 
BRANCH  80  81
ATOM     81  S   UNL A   1      33.104  35.429  28.755  1.00  0.00     0.124 S 
ATOM     82  O   UNL A   1      33.817  36.442  27.985  1.00  0.00    -0.237 OA
ATOM     83  O   UNL A   1      32.527  34.331  27.986  1.00  0.00    -0.237 OA
ATOM     84  O   UNL A   1      32.266  35.931  29.839  1.00  0.00    -0.744 OA
ENDBRANCH  80  81
ENDBRANCH  48  73
BRANCH  60  85
ATOM     85  C   UNL A   1      39.873  34.159  37.000  1.00  0.00     0.058 A 
ATOM     86  C   UNL A   1      40.464  35.428  36.924  1.00  0.00     0.135 A 
ATOM     87  C   UNL A   1      39.083  33.866  38.123  1.00  0.00     0.135 A 
ATOM     88  F   UNL A   1      41.235  35.753  35.874  1.00  0.00    -0.206 F 
ATOM     89  C   UNL A   1      40.291  36.370  37.933  1.00  0.00     0.059 A 
ATOM     90  C   UNL A   1      38.880  34.799  39.134  1.00  0.00     0.059 A 
ATOM     91  F   UNL A   1      38.488  32.667  38.238  1.00  0.00    -0.206 F 
ATOM     92  C   UNL A   1      39.497  36.046  39.035  1.00  0.00     0.060 A 
BRANCH  92  93
ATOM     93  S   UNL A   1      39.247  37.287  40.322  1.00  0.00     0.124 S 
ATOM     94  O   UNL A   1      38.531  36.520  41.335  1.00  0.00    -0.237 OA
ATOM     95  O   UNL A   1      40.615  37.668  40.663  1.00  0.00    -0.237 OA
ATOM     96  O   UNL A   1      38.467  38.321  39.647  1.00  0.00    -0.744 OA
ENDBRANCH  92  93
ENDBRANCH  60  85
ENDBRANCH  34  35
ENDBRANCH  27  29
ENDBRANCH  26  27
ENDBRANCH   1  26
TORSDOF 16
ENDMDL
MODEL 2
REMARK VINA RESULT:     -11.9      6.572     11.903
REMARK SMILES O=C(Nc1c(F)cc(F)cc1F)N[C@H]1C=C[C@@H](C(=O)OCCOC(=O)c2ccc(-c3c4nc(c(-c5c(F)cc(S(=O)(=O)[O-])cc5F)c5ccc([nH]5)c(-c5c(F)cc(S(=O)(=O)[O-])cc5F)c5nc(c(-c6c(F)cc(S(=O)(=O)[O-])cc6F)c6ccc3[nH]6)C=C5)C=C4)cc2)C1
REMARK SMILES IDX 22 1 21 2 20 3 18 4 19 5 17 6 14 7 15 8 92 9 16 10 13 11
REMARK SMILES IDX 1 12 2 13 3 14 4 17 5 18 11 19 6 20 7 21 10 22 12 23 8 24
REMARK SMILES IDX 9 25 23 26 24 27 25 28 26 29 27 30 91 31 28 32 90 33 29 34
REMARK SMILES IDX 30 35 31 36 84 37 32 38 89 39 83 40 85 41 33 42 88 43 82 44
REMARK SMILES IDX 81 45 34 47 68 48 47 49 67 50 48 51 51 52 66 53 86 54 49 55
REMARK SMILES IDX 50 56 65 58 87 59 52 60 35 61 36 62 45 63 37 64 38 65 44 66
REMARK SMILES IDX 46 67 39 68 40 69 41 70 42 71 43 72 69 73 70 74 79 75 71 76
REMARK SMILES IDX 72 77 78 78 80 79 73 80 74 81 75 82 76 83 77 84 53 85 54 86
REMARK SMILES IDX 63 87 55 88 56 89 62 90 64 91 57 92 58 93 59 94 60 95 61 96
REMARK H PARENT 3 15 13 16 85 46 51 57
REMARK Flexibility Score: inf
ROOT
ATOM      1  C   UNL A   1      34.993  32.528  29.939  1.00  0.00     0.275 C 
ENDROOT
BRANCH   1   2
ATOM      2  C   UNL A   1      33.979  32.411  28.798  1.00  0.00     0.274 C 
BRANCH   2   3
ATOM      3  O   UNL A   1      34.327  31.296  27.959  1.00  0.00    -0.462 OA
BRANCH   3   4
ATOM      4  C   UNL A   1      33.319  30.647  27.326  1.00  0.00     0.312 C 
ATOM      5  O   UNL A   1      32.368  31.202  26.785  1.00  0.00    -0.252 OA
BRANCH   4   6
ATOM      6  C   UNL A   1      33.494  29.130  27.327  1.00  0.00     0.124 C 
ATOM      7  C   UNL A   1      32.263  27.166  26.474  1.00  0.00     0.107 C 
ATOM      8  C   UNL A   1      33.449  27.520  25.626  1.00  0.00    -0.006 C 
ATOM      9  C   UNL A   1      32.225  28.288  27.519  1.00  0.00     0.048 C 
ATOM     10  C   UNL A   1      34.088  28.612  26.058  1.00  0.00    -0.014 C 
BRANCH   7  11
ATOM     11  N   UNL A   1      31.139  27.097  25.571  1.00  0.00    -0.332 N 
ATOM     12  O   UNL A   1      31.389  24.963  24.762  1.00  0.00    -0.248 OA
ATOM     13  C   UNL A   1      30.837  26.056  24.745  1.00  0.00     0.319 C 
ATOM     14  N   UNL A   1      29.720  26.238  23.974  1.00  0.00    -0.303 N 
ATOM     15  H   UNL A   1      29.194  25.425  23.794  1.00  0.00     0.172 HD
ATOM     16  H   UNL A   1      30.536  27.874  25.549  1.00  0.00     0.165 HD
BRANCH  14  17
ATOM     17  C   UNL A   1      29.216  27.422  23.402  1.00  0.00     0.115 A 
ATOM     18  C   UNL A   1      29.993  28.309  22.645  1.00  0.00     0.152 A 
ATOM     19  C   UNL A   1      27.854  27.700  23.542  1.00  0.00     0.152 A 
ATOM     20  F   UNL A   1      31.287  28.058  22.403  1.00  0.00    -0.204 F 
ATOM     21  C   UNL A   1      29.440  29.451  22.075  1.00  0.00     0.081 A 
ATOM     22  C   UNL A   1      27.289  28.851  23.000  1.00  0.00     0.081 A 
ATOM     23  F   UNL A   1      27.071  26.868  24.247  1.00  0.00    -0.204 F 
ATOM     24  C   UNL A   1      28.093  29.716  22.269  1.00  0.00     0.129 A 
ATOM     25  F   UNL A   1      27.556  30.820  21.735  1.00  0.00    -0.207 F 
ENDBRANCH  14  17
ENDBRANCH   7  11
ENDBRANCH   4   6
ENDBRANCH   3   4
ENDBRANCH   2   3
ENDBRANCH   1   2
BRANCH   1  26
ATOM     26  O   UNL A   1      36.221  31.846  29.611  1.00  0.00    -0.458 OA
BRANCH  26  27
ATOM     27  C   UNL A   1      36.546  30.821  30.434  1.00  0.00     0.338 C 
ATOM     28  O   UNL A   1      35.868  30.338  31.320  1.00  0.00    -0.246 OA
BRANCH  27  29
ATOM     29  C   UNL A   1      37.840  30.253  30.027  1.00  0.00     0.060 A 
ATOM     30  C   UNL A   1      38.732  29.870  31.031  1.00  0.00     0.016 A 
ATOM     31  C   UNL A   1      38.211  30.184  28.685  1.00  0.00     0.016 A 
ATOM     32  C   UNL A   1      40.003  29.410  30.702  1.00  0.00     0.010 A 
ATOM     33  C   UNL A   1      39.489  29.722  28.353  1.00  0.00     0.010 A 
ATOM     34  C   UNL A   1      40.393  29.340  29.360  1.00  0.00    -0.014 A 
BRANCH  34  35
ATOM     35  C   UNL A   1      41.769  28.906  29.021  1.00  0.00     0.031 A 
ATOM     36  C   UNL A   1      42.902  29.888  29.097  1.00  0.00     0.074 A 
ATOM     37  C   UNL A   1      41.998  27.627  28.667  1.00  0.00     0.049 A 
ATOM     38  N   UNL A   1      44.154  29.732  28.754  1.00  0.00    -0.248 NA
ATOM     39  C   UNL A   1      42.584  31.222  29.630  1.00  0.00     0.031 C 
ATOM     40  C   UNL A   1      40.983  26.574  28.607  1.00  0.00     0.029 A 
ATOM     41  N   UNL A   1      43.157  26.998  28.289  1.00  0.00    -0.354 N 
ATOM     42  C   UNL A   1      44.771  30.951  29.008  1.00  0.00     0.074 A 
ATOM     43  C   UNL A   1      43.752  31.840  29.525  1.00  0.00     0.031 C 
ATOM     44  C   UNL A   1      41.564  25.430  28.212  1.00  0.00     0.029 A 
ATOM     45  C   UNL A   1      42.978  25.679  27.947  1.00  0.00     0.049 A 
ATOM     46  H   UNL A   1      44.032  27.448  28.265  1.00  0.00     0.167 HD
ATOM     47  C   UNL A   1      46.069  31.293  28.825  1.00  0.00     0.037 A 
ATOM     48  C   UNL A   1      43.850  24.783  27.446  1.00  0.00     0.037 A 
ATOM     49  C   UNL A   1      47.078  30.397  28.323  1.00  0.00     0.049 A 
ATOM     50  C   UNL A   1      45.274  25.201  27.204  1.00  0.00     0.074 A 
ATOM     51  C   UNL A   1      48.421  30.647  28.103  1.00  0.00     0.029 A 
ATOM     52  N   UNL A   1      46.854  29.074  27.966  1.00  0.00    -0.354 N 
ATOM     53  N   UNL A   1      45.840  26.363  27.428  1.00  0.00    -0.248 NA
ATOM     54  C   UNL A   1      46.177  24.191  26.635  1.00  0.00     0.031 C 
ATOM     55  C   UNL A   1      49.003  29.485  27.583  1.00  0.00     0.029 A 
ATOM     56  C   UNL A   1      48.030  28.500  27.514  1.00  0.00     0.049 A 
ATOM     57  H   UNL A   1      45.987  28.613  28.026  1.00  0.00     0.167 HD
ATOM     58  C   UNL A   1      47.166  26.221  27.041  1.00  0.00     0.074 A 
ATOM     59  C   UNL A   1      47.323  24.856  26.581  1.00  0.00     0.031 C 
ATOM     60  C   UNL A   1      48.166  27.137  27.062  1.00  0.00     0.037 A 
BRANCH  47  61
ATOM     61  C   UNL A   1      46.462  32.708  29.141  1.00  0.00     0.058 A 
ATOM     62  C   UNL A   1      46.868  33.093  30.429  1.00  0.00     0.135 A 
ATOM     63  C   UNL A   1      46.457  33.688  28.135  1.00  0.00     0.135 A 
ATOM     64  F   UNL A   1      46.875  32.198  31.430  1.00  0.00    -0.206 F 
ATOM     65  C   UNL A   1      47.230  34.405  30.714  1.00  0.00     0.059 A 
ATOM     66  C   UNL A   1      46.835  35.002  28.393  1.00  0.00     0.059 A 
ATOM     67  F   UNL A   1      46.074  33.373  26.887  1.00  0.00    -0.206 F 
ATOM     68  C   UNL A   1      47.206  35.354  29.691  1.00  0.00     0.060 A 
BRANCH  68  69
ATOM     69  S   UNL A   1      47.675  37.056  30.072  1.00  0.00     0.124 S 
ATOM     70  O   UNL A   1      47.713  37.652  28.741  1.00  0.00    -0.237 OA
ATOM     71  O   UNL A   1      46.581  37.499  30.933  1.00  0.00    -0.237 OA
ATOM     72  O   UNL A   1      48.968  36.912  30.734  1.00  0.00    -0.744 OA
ENDBRANCH  68  69
ENDBRANCH  47  61
BRANCH  48  73
ATOM     73  C   UNL A   1      43.388  23.409  27.114  1.00  0.00     0.058 A 
ATOM     74  C   UNL A   1      43.145  23.029  25.787  1.00  0.00     0.135 A 
ATOM     75  C   UNL A   1      43.200  22.447  28.118  1.00  0.00     0.135 A 
ATOM     76  F   UNL A   1      43.301  23.917  24.794  1.00  0.00    -0.206 F 
ATOM     77  C   UNL A   1      42.724  21.743  25.466  1.00  0.00     0.059 A 
ATOM     78  C   UNL A   1      42.802  21.148  27.820  1.00  0.00     0.059 A 
ATOM     79  F   UNL A   1      43.431  22.761  29.402  1.00  0.00    -0.206 F 
ATOM     80  C   UNL A   1      42.557  20.808  26.489  1.00  0.00     0.060 A 
BRANCH  80  81
ATOM     81  S   UNL A   1      42.066  19.123  26.061  1.00  0.00     0.124 S 
ATOM     82  O   UNL A   1      42.515  18.380  27.233  1.00  0.00    -0.237 OA
ATOM     83  O   UNL A   1      40.621  19.252  25.903  1.00  0.00    -0.237 OA
ATOM     84  O   UNL A   1      42.802  18.865  24.827  1.00  0.00    -0.744 OA
ENDBRANCH  80  81
ENDBRANCH  48  73
BRANCH  60  85
ATOM     85  C   UNL A   1      49.520  26.688  26.598  1.00  0.00     0.058 A 
ATOM     86  C   UNL A   1      50.416  26.042  27.463  1.00  0.00     0.135 A 
ATOM     87  C   UNL A   1      49.906  26.860  25.258  1.00  0.00     0.135 A 
ATOM     88  F   UNL A   1      50.096  25.862  28.754  1.00  0.00    -0.206 F 
ATOM     89  C   UNL A   1      51.657  25.595  27.020  1.00  0.00     0.059 A 
ATOM     90  C   UNL A   1      51.133  26.402  24.790  1.00  0.00     0.059 A 
ATOM     91  F   UNL A   1      49.081  27.463  24.389  1.00  0.00    -0.206 F 
ATOM     92  C   UNL A   1      52.007  25.780  25.681  1.00  0.00     0.060 A 
BRANCH  92  93
ATOM     93  S   UNL A   1      53.603  25.163  25.107  1.00  0.00     0.124 S 
ATOM     94  O   UNL A   1      54.519  25.795  26.052  1.00  0.00    -0.237 OA
ATOM     95  O   UNL A   1      53.451  23.718  25.242  1.00  0.00    -0.237 OA
ATOM     96  O   UNL A   1      53.680  25.653  23.734  1.00  0.00    -0.744 OA
ENDBRANCH  92  93
ENDBRANCH  60  85
ENDBRANCH  34  35
ENDBRANCH  27  29
ENDBRANCH  26  27
ENDBRANCH   1  26
TORSDOF 16
ENDMDL
MODEL 3
REMARK VINA RESULT:     -11.9      6.611     11.994
REMARK SMILES O=C(Nc1c(F)cc(F)cc1F)N[C@H]1C=C[C@@H](C(=O)OCCOC(=O)c2ccc(-c3c4nc(c(-c5c(F)cc(S(=O)(=O)[O-])cc5F)c5ccc([nH]5)c(-c5c(F)cc(S(=O)(=O)[O-])cc5F)c5nc(c(-c6c(F)cc(S(=O)(=O)[O-])cc6F)c6ccc3[nH]6)C=C5)C=C4)cc2)C1
REMARK SMILES IDX 22 1 21 2 20 3 18 4 19 5 17 6 14 7 15 8 92 9 16 10 13 11
REMARK SMILES IDX 1 12 2 13 3 14 4 17 5 18 11 19 6 20 7 21 10 22 12 23 8 24
REMARK SMILES IDX 9 25 23 26 24 27 25 28 26 29 27 30 91 31 28 32 90 33 29 34
REMARK SMILES IDX 30 35 31 36 84 37 32 38 89 39 83 40 85 41 33 42 88 43 82 44
REMARK SMILES IDX 81 45 34 47 68 48 47 49 67 50 48 51 51 52 66 53 86 54 49 55
REMARK SMILES IDX 50 56 65 58 87 59 52 60 35 61 36 62 45 63 37 64 38 65 44 66
REMARK SMILES IDX 46 67 39 68 40 69 41 70 42 71 43 72 69 73 70 74 79 75 71 76
REMARK SMILES IDX 72 77 78 78 80 79 73 80 74 81 75 82 76 83 77 84 53 85 54 86
REMARK SMILES IDX 63 87 55 88 56 89 62 90 64 91 57 92 58 93 59 94 60 95 61 96
REMARK H PARENT 3 15 13 16 85 46 51 57
REMARK Flexibility Score: inf
ROOT
ATOM      1  C   UNL A   1      34.508  31.626  28.749  1.00  0.00     0.275 C 
ENDROOT
BRANCH   1   2
ATOM      2  C   UNL A   1      34.254  30.956  27.396  1.00  0.00     0.274 C 
BRANCH   2   3
ATOM      3  O   UNL A   1      32.846  30.985  27.103  1.00  0.00    -0.462 OA
BRANCH   3   4
ATOM      4  C   UNL A   1      32.265  29.830  26.697  1.00  0.00     0.312 C 
ATOM      5  O   UNL A   1      31.746  29.012  27.450  1.00  0.00    -0.252 OA
BRANCH   4   6
ATOM      6  C   UNL A   1      32.293  29.650  25.181  1.00  0.00     0.124 C 
ATOM      7  C   UNL A   1      33.075  27.944  23.575  1.00  0.00     0.107 C 
ATOM      8  C   UNL A   1      31.588  27.919  23.769  1.00  0.00    -0.006 C 
ATOM      9  C   UNL A   1      33.548  28.997  24.585  1.00  0.00     0.048 C 
ATOM     10  C   UNL A   1      31.168  28.808  24.674  1.00  0.00    -0.014 C 
BRANCH   7  11
ATOM     11  N   UNL A   1      33.526  26.592  23.805  1.00  0.00    -0.332 N 
ATOM     12  O   UNL A   1      33.599  25.808  21.649  1.00  0.00    -0.248 OA
ATOM     13  C   UNL A   1      33.676  25.624  22.857  1.00  0.00     0.319 C 
ATOM     14  N   UNL A   1      34.108  24.415  23.332  1.00  0.00    -0.303 N 
ATOM     15  H   UNL A   1      34.696  23.908  22.725  1.00  0.00     0.172 HD
ATOM     16  H   UNL A   1      33.743  26.346  24.732  1.00  0.00     0.165 HD
BRANCH  14  17
ATOM     17  C   UNL A   1      33.833  23.792  24.565  1.00  0.00     0.115 A 
ATOM     18  C   UNL A   1      32.608  23.183  24.869  1.00  0.00     0.152 A 
ATOM     19  C   UNL A   1      34.854  23.719  25.515  1.00  0.00     0.152 A 
ATOM     20  F   UNL A   1      31.615  23.146  23.969  1.00  0.00    -0.204 F 
ATOM     21  C   UNL A   1      32.395  22.554  26.090  1.00  0.00     0.081 A 
ATOM     22  C   UNL A   1      34.651  23.116  26.753  1.00  0.00     0.081 A 
ATOM     23  F   UNL A   1      36.047  24.276  25.257  1.00  0.00    -0.204 F 
ATOM     24  C   UNL A   1      33.418  22.538  27.027  1.00  0.00     0.129 A 
ATOM     25  F   UNL A   1      33.217  21.945  28.210  1.00  0.00    -0.207 F 
ENDBRANCH  14  17
ENDBRANCH   7  11
ENDBRANCH   4   6
ENDBRANCH   3   4
ENDBRANCH   2   3
ENDBRANCH   1   2
BRANCH   1  26
ATOM     26  O   UNL A   1      35.921  31.799  28.982  1.00  0.00    -0.458 OA
BRANCH  26  27
ATOM     27  C   UNL A   1      36.417  31.117  30.042  1.00  0.00     0.338 C 
ATOM     28  O   UNL A   1      35.872  30.910  31.110  1.00  0.00    -0.246 OA
BRANCH  27  29
ATOM     29  C   UNL A   1      37.714  30.524  29.686  1.00  0.00     0.060 A 
ATOM     30  C   UNL A   1      38.635  30.297  30.711  1.00  0.00     0.016 A 
ATOM     31  C   UNL A   1      38.059  30.283  28.357  1.00  0.00     0.016 A 
ATOM     32  C   UNL A   1      39.907  29.820  30.417  1.00  0.00     0.010 A 
ATOM     33  C   UNL A   1      39.340  29.805  28.060  1.00  0.00     0.010 A 
ATOM     34  C   UNL A   1      40.273  29.578  29.088  1.00  0.00    -0.014 A 
BRANCH  34  35
ATOM     35  C   UNL A   1      41.650  29.128  28.778  1.00  0.00     0.031 A 
ATOM     36  C   UNL A   1      42.786  30.109  28.833  1.00  0.00     0.074 A 
ATOM     37  C   UNL A   1      41.879  27.838  28.472  1.00  0.00     0.049 A 
ATOM     38  N   UNL A   1      44.041  29.937  28.509  1.00  0.00    -0.248 NA
ATOM     39  C   UNL A   1      42.467  31.461  29.316  1.00  0.00     0.031 C 
ATOM     40  C   UNL A   1      40.860  26.786  28.437  1.00  0.00     0.029 A 
ATOM     41  N   UNL A   1      43.039  27.192  28.128  1.00  0.00    -0.354 N 
ATOM     42  C   UNL A   1      44.660  31.163  28.727  1.00  0.00     0.074 A 
ATOM     43  C   UNL A   1      43.638  32.072  29.202  1.00  0.00     0.031 C 
ATOM     44  C   UNL A   1      41.441  25.627  28.087  1.00  0.00     0.029 A 
ATOM     45  C   UNL A   1      42.859  25.863  27.829  1.00  0.00     0.049 A 
ATOM     46  H   UNL A   1      43.915  27.638  28.097  1.00  0.00     0.167 HD
ATOM     47  C   UNL A   1      45.960  31.494  28.547  1.00  0.00     0.037 A 
ATOM     48  C   UNL A   1      43.733  24.947  27.368  1.00  0.00     0.037 A 
ATOM     49  C   UNL A   1      46.971  30.578  28.086  1.00  0.00     0.049 A 
ATOM     50  C   UNL A   1      45.161  25.352  27.127  1.00  0.00     0.074 A 
ATOM     51  C   UNL A   1      48.318  30.816  27.872  1.00  0.00     0.029 A 
ATOM     52  N   UNL A   1      46.747  29.245  27.772  1.00  0.00    -0.354 N 
ATOM     53  N   UNL A   1      45.728  26.519  27.316  1.00  0.00    -0.248 NA
ATOM     54  C   UNL A   1      46.066  24.321  26.603  1.00  0.00     0.031 C 
ATOM     55  C   UNL A   1      48.901  29.635  27.398  1.00  0.00     0.029 A 
ATOM     56  C   UNL A   1      47.925  28.651  27.352  1.00  0.00     0.049 A 
ATOM     57  H   UNL A   1      45.877  28.788  27.838  1.00  0.00     0.167 HD
ATOM     58  C   UNL A   1      47.058  26.360  26.949  1.00  0.00     0.074 A 
ATOM     59  C   UNL A   1      47.215  24.979  26.537  1.00  0.00     0.031 C 
ATOM     60  C   UNL A   1      48.061  27.273  26.949  1.00  0.00     0.037 A 
BRANCH  47  61
ATOM     61  C   UNL A   1      46.355  32.918  28.818  1.00  0.00     0.058 A 
ATOM     62  C   UNL A   1      46.806  33.332  30.081  1.00  0.00     0.135 A 
ATOM     63  C   UNL A   1      46.305  33.876  27.793  1.00  0.00     0.135 A 
ATOM     64  F   UNL A   1      46.858  32.459  31.100  1.00  0.00    -0.206 F 
ATOM     65  C   UNL A   1      47.170  34.653  30.325  1.00  0.00     0.059 A 
ATOM     66  C   UNL A   1      46.683  35.198  28.009  1.00  0.00     0.059 A 
ATOM     67  F   UNL A   1      45.878  33.533  26.567  1.00  0.00    -0.206 F 
ATOM     68  C   UNL A   1      47.100  35.579  29.284  1.00  0.00     0.060 A 
BRANCH  68  69
ATOM     69  S   UNL A   1      47.571  37.292  29.612  1.00  0.00     0.124 S 
ATOM     70  O   UNL A   1      47.874  37.773  28.268  1.00  0.00    -0.237 OA
ATOM     71  O   UNL A   1      46.363  37.839  30.223  1.00  0.00    -0.237 OA
ATOM     72  O   UNL A   1      48.718  37.164  30.506  1.00  0.00    -0.744 OA
ENDBRANCH  68  69
ENDBRANCH  47  61
BRANCH  48  73
ATOM     73  C   UNL A   1      43.269  23.565  27.078  1.00  0.00     0.058 A 
ATOM     74  C   UNL A   1      43.014  23.147  25.765  1.00  0.00     0.135 A 
ATOM     75  C   UNL A   1      43.092  22.630  28.111  1.00  0.00     0.135 A 
ATOM     76  F   UNL A   1      43.161  24.008  24.746  1.00  0.00    -0.206 F 
ATOM     77  C   UNL A   1      42.592  21.852  25.483  1.00  0.00     0.059 A 
ATOM     78  C   UNL A   1      42.692  21.323  27.852  1.00  0.00     0.059 A 
ATOM     79  F   UNL A   1      43.334  22.980  29.383  1.00  0.00    -0.206 F 
ATOM     80  C   UNL A   1      42.436  20.946  26.534  1.00  0.00     0.060 A 
BRANCH  80  81
ATOM     81  S   UNL A   1      41.943  19.249  26.157  1.00  0.00     0.124 S 
ATOM     82  O   UNL A   1      42.343  18.551  27.373  1.00  0.00    -0.237 OA
ATOM     83  O   UNL A   1      40.506  19.385  25.942  1.00  0.00    -0.237 OA
ATOM     84  O   UNL A   1      42.720  18.935  24.961  1.00  0.00    -0.744 OA
ENDBRANCH  80  81
ENDBRANCH  48  73
BRANCH  60  85
ATOM     85  C   UNL A   1      49.418  26.804  26.515  1.00  0.00     0.058 A 
ATOM     86  C   UNL A   1      50.282  26.139  27.397  1.00  0.00     0.135 A 
ATOM     87  C   UNL A   1      49.839  26.977  25.186  1.00  0.00     0.135 A 
ATOM     88  F   UNL A   1      49.928  25.956  28.679  1.00  0.00    -0.206 F 
ATOM     89  C   UNL A   1      51.525  25.674  26.982  1.00  0.00     0.059 A 
ATOM     90  C   UNL A   1      51.070  26.502  24.745  1.00  0.00     0.059 A 
ATOM     91  F   UNL A   1      49.045  27.600  24.301  1.00  0.00    -0.206 F 
ATOM     92  C   UNL A   1      51.911  25.860  25.653  1.00  0.00     0.060 A 
BRANCH  92  93
ATOM     93  S   UNL A   1      53.510  25.220  25.114  1.00  0.00     0.124 S 
ATOM     94  O   UNL A   1      53.334  23.785  25.312  1.00  0.00    -0.237 OA
ATOM     95  O   UNL A   1      53.577  25.665  23.725  1.00  0.00    -0.237 OA
ATOM     96  O   UNL A   1      54.456  25.869  26.018  1.00  0.00    -0.744 OA
ENDBRANCH  92  93
ENDBRANCH  60  85
ENDBRANCH  34  35
ENDBRANCH  27  29
ENDBRANCH  26  27
ENDBRANCH   1  26
TORSDOF 16
ENDMDL
