MODEL 1
REMARK VINA RESULT:     -12.5      0.000      0.000
REMARK SMILES NS(=O)(=O)c1ccc(C#Cc2cc(Cl)cc3c2O[C@H](C(F)(F)F)C(C(=O)OCCOC(=O)c2ccc(-c4c5nc(c(-c6c(F)cc(S(=O)(=O)[O-])cc6F)c6ccc([nH]6)c(-c6c(F)cc(S(=O)(=O)[O-])cc6F)c6nc(c(-c7c(F)cc(S(=O)(=O)[O-])cc7F)c7ccc4[nH]7)C=C6)C=C5)cc2)=C3)cc1
REMARK SMILES IDX 28 1 27 2 25 3 26 4 24 5 11 6 12 7 17 8 13 9 16 10 18 11
REMARK SMILES IDX 14 12 15 13 99 14 19 15 10 16 9 17 8 18 5 19 6 20 101 21
REMARK SMILES IDX 7 22 100 23 2 24 3 25 4 26 1 27 20 30 21 31 22 32 23 33
REMARK SMILES IDX 29 34 30 35 31 36 32 37 33 38 34 39 98 40 35 41 97 42 36 43
REMARK SMILES IDX 37 44 38 45 91 46 39 47 96 48 90 49 92 50 40 51 95 52 89 53
REMARK SMILES IDX 88 54 41 56 75 57 54 58 74 59 55 60 58 61 73 62 93 63 56 64
REMARK SMILES IDX 57 65 72 67 94 68 59 69 42 70 43 71 52 72 44 73 45 74 51 75
REMARK SMILES IDX 53 76 46 77 47 78 48 79 49 80 50 81 76 82 77 83 86 84 78 85
REMARK SMILES IDX 79 86 85 87 87 88 80 89 81 90 82 91 83 92 84 93 60 94 61 95
REMARK SMILES IDX 70 96 62 97 63 98 69 99 71 100 64 101 65 102 66 103 67 104
REMARK SMILES IDX 68 105
REMARK H PARENT 1 28 1 29 92 55 58 66
REMARK Flexibility Score: inf
ROOT
ATOM      1  C   UNL A   1      34.823  32.041  27.909  1.00  0.00     0.275 C 
ENDROOT
BRANCH   1   2
ATOM      2  O   UNL A   1      34.091  30.984  27.247  1.00  0.00    -0.459 OA
BRANCH   2   3
ATOM      3  C   UNL A   1      32.803  31.266  26.940  1.00  0.00     0.338 C 
ATOM      4  O   UNL A   1      32.158  32.221  27.341  1.00  0.00    -0.246 OA
BRANCH   3   5
ATOM      5  C   UNL A   1      32.249  30.261  26.008  1.00  0.00     0.087 C 
ATOM      6  C   UNL A   1      30.359  27.385  23.619  1.00  0.00     0.069 A 
ATOM      7  C   UNL A   1      29.287  27.768  22.801  1.00  0.00     0.041 A 
ATOM      8  C   UNL A   1      31.041  28.331  24.395  1.00  0.00     0.143 A 
ATOM      9  C   UNL A   1      28.908  29.103  22.737  1.00  0.00     0.043 A 
ATOM     10  C   UNL A   1      30.635  29.661  24.331  1.00  0.00     0.020 A 
ATOM     11  O   UNL A   1      32.086  27.913  25.178  1.00  0.00    -0.474 OA
ATOM     12  Cl  UNL A   1      27.589  29.572  21.740  1.00  0.00    -0.084 Cl
ATOM     13  C   UNL A   1      29.581  30.054  23.493  1.00  0.00     0.032 A 
ATOM     14  C   UNL A   1      31.281  30.644  25.170  1.00  0.00     0.027 C 
ATOM     15  C   UNL A   1      32.677  28.831  26.143  1.00  0.00     0.316 C 
BRANCH   6  16
ATOM     16  C   UNL A   1      30.711  26.007  23.659  1.00  0.00    -0.058 C 
ATOM     17  C   UNL A   1      31.015  24.848  23.730  1.00  0.00    -0.062 C 
BRANCH  17  18
ATOM     18  C   UNL A   1      31.406  23.485  23.847  1.00  0.00     0.025 A 
ATOM     19  C   UNL A   1      32.278  20.865  24.081  1.00  0.00     0.082 A 
ATOM     20  C   UNL A   1      32.256  21.474  22.822  1.00  0.00     0.023 A 
ATOM     21  C   UNL A   1      31.835  21.546  25.219  1.00  0.00     0.023 A 
ATOM     22  C   UNL A   1      31.822  22.791  22.708  1.00  0.00     0.018 A 
ATOM     23  C   UNL A   1      31.401  22.865  25.098  1.00  0.00     0.018 A 
BRANCH  19  24
ATOM     24  S   UNL A   1      32.883  19.214  24.233  1.00  0.00     0.238 S 
ATOM     25  O   UNL A   1      34.304  19.243  24.493  1.00  0.00    -0.207 OA
ATOM     26  O   UNL A   1      32.302  18.393  23.198  1.00  0.00    -0.207 OA
BRANCH  24  27
ATOM     27  N   UNL A   1      32.166  18.734  25.672  1.00  0.00    -0.225 NA
ATOM     28  H   UNL A   1      32.777  18.974  26.453  1.00  0.00     0.137 HD
ATOM     29  H   UNL A   1      32.015  17.725  25.656  1.00  0.00     0.137 HD
ENDBRANCH  24  27
ENDBRANCH  19  24
ENDBRANCH  17  18
ENDBRANCH   6  16
BRANCH  15  30
ATOM     30  C   UNL A   1      32.392  28.312  27.564  1.00  0.00     0.430 C 
ATOM     31  F   UNL A   1      32.148  26.979  27.564  1.00  0.00    -0.167 F 
ATOM     32  F   UNL A   1      33.449  28.507  28.390  1.00  0.00    -0.167 F 
ATOM     33  F   UNL A   1      31.322  28.920  28.125  1.00  0.00    -0.167 F 
ENDBRANCH  15  30
ENDBRANCH   3   5
ENDBRANCH   2   3
ENDBRANCH   1   2
BRANCH   1  34
ATOM     34  C   UNL A   1      34.959  31.782  29.412  1.00  0.00     0.275 C 
BRANCH  34  35
ATOM     35  O   UNL A   1      36.339  31.652  29.798  1.00  0.00    -0.458 OA
BRANCH  35  36
ATOM     36  C   UNL A   1      36.657  30.473  30.376  1.00  0.00     0.338 C 
ATOM     37  O   UNL A   1      35.989  29.832  31.169  1.00  0.00    -0.246 OA
BRANCH  36  38
ATOM     38  C   UNL A   1      37.899  29.961  29.787  1.00  0.00     0.060 A 
ATOM     39  C   UNL A   1      38.161  30.024  28.427  1.00  0.00     0.016 A 
ATOM     40  C   UNL A   1      38.885  29.537  30.664  1.00  0.00     0.016 A 
ATOM     41  C   UNL A   1      39.424  29.632  27.968  1.00  0.00     0.010 A 
ATOM     42  C   UNL A   1      40.186  29.334  30.233  1.00  0.00     0.010 A 
ATOM     43  C   UNL A   1      40.464  29.314  28.867  1.00  0.00    -0.014 A 
BRANCH  43  44
ATOM     44  C   UNL A   1      41.822  28.907  28.408  1.00  0.00     0.031 A 
ATOM     45  C   UNL A   1      42.952  29.916  28.365  1.00  0.00     0.074 A 
ATOM     46  C   UNL A   1      42.032  27.642  27.995  1.00  0.00     0.049 A 
ATOM     47  N   UNL A   1      44.192  29.750  27.978  1.00  0.00    -0.248 NA
ATOM     48  C   UNL A   1      42.645  31.300  28.768  1.00  0.00     0.031 C 
ATOM     49  C   UNL A   1      41.008  26.597  27.906  1.00  0.00     0.029 A 
ATOM     50  N   UNL A   1      43.180  27.009  27.590  1.00  0.00    -0.354 N 
ATOM     51  C   UNL A   1      44.795  31.001  28.081  1.00  0.00     0.074 A 
ATOM     52  C   UNL A   1      43.767  31.935  28.469  1.00  0.00     0.031 C 
ATOM     53  C   UNL A   1      41.587  25.440  27.555  1.00  0.00     0.029 A 
ATOM     54  C   UNL A   1      43.010  25.667  27.334  1.00  0.00     0.049 A 
ATOM     55  H   UNL A   1      44.044  27.470  27.492  1.00  0.00     0.167 HD
ATOM     56  C   UNL A   1      46.097  31.337  27.922  1.00  0.00     0.037 A 
ATOM     57  C   UNL A   1      43.902  24.725  26.971  1.00  0.00     0.037 A 
ATOM     58  C   UNL A   1      47.127  30.392  27.585  1.00  0.00     0.049 A 
ATOM     59  C   UNL A   1      45.343  25.119  26.806  1.00  0.00     0.074 A 
ATOM     60  C   UNL A   1      48.487  30.609  27.458  1.00  0.00     0.029 A 
ATOM     61  N   UNL A   1      46.911  29.045  27.331  1.00  0.00    -0.354 N 
ATOM     62  N   UNL A   1      45.903  26.294  26.974  1.00  0.00    -0.248 NA
ATOM     63  C   UNL A   1      46.276  24.059  26.403  1.00  0.00     0.031 C 
ATOM     64  C   UNL A   1      49.086  29.406  27.076  1.00  0.00     0.029 A 
ATOM     65  C   UNL A   1      48.109  28.424  27.022  1.00  0.00     0.049 A 
ATOM     66  H   UNL A   1      46.034  28.597  27.363  1.00  0.00     0.167 HD
ATOM     67  C   UNL A   1      47.256  26.112  26.712  1.00  0.00     0.074 A 
ATOM     68  C   UNL A   1      47.433  24.706  26.407  1.00  0.00     0.031 C 
ATOM     69  C   UNL A   1      48.260  27.024  26.712  1.00  0.00     0.037 A 
BRANCH  56  70
ATOM     70  C   UNL A   1      46.490  32.776  28.148  1.00  0.00     0.058 A 
ATOM     71  C   UNL A   1      46.415  33.729  27.118  1.00  0.00     0.135 A 
ATOM     72  C   UNL A   1      46.896  33.220  29.416  1.00  0.00     0.135 A 
ATOM     73  F   UNL A   1      46.051  33.360  25.879  1.00  0.00    -0.206 F 
ATOM     74  C   UNL A   1      46.751  35.062  27.330  1.00  0.00     0.059 A 
ATOM     75  C   UNL A   1      47.203  34.557  29.661  1.00  0.00     0.059 A 
ATOM     76  F   UNL A   1      46.989  32.356  30.439  1.00  0.00    -0.206 F 
ATOM     77  C   UNL A   1      47.137  35.469  28.608  1.00  0.00     0.060 A 
BRANCH  77  78
ATOM     78  S   UNL A   1      47.539  37.209  28.867  1.00  0.00     0.124 S 
ATOM     79  O   UNL A   1      48.993  37.162  28.974  1.00  0.00    -0.237 OA
ATOM     80  O   UNL A   1      47.013  37.830  27.655  1.00  0.00    -0.237 OA
ATOM     81  O   UNL A   1      46.831  37.545  30.099  1.00  0.00    -0.744 OA
ENDBRANCH  77  78
ENDBRANCH  56  70
BRANCH  57  82
ATOM     82  C   UNL A   1      43.458  23.316  26.790  1.00  0.00     0.058 A 
ATOM     83  C   UNL A   1      43.398  22.738  25.514  1.00  0.00     0.135 A 
ATOM     84  C   UNL A   1      43.120  22.507  27.888  1.00  0.00     0.135 A 
ATOM     85  F   UNL A   1      43.706  23.469  24.431  1.00  0.00    -0.206 F 
ATOM     86  C   UNL A   1      43.011  21.415  25.328  1.00  0.00     0.059 A 
ATOM     87  C   UNL A   1      42.759  21.172  27.731  1.00  0.00     0.059 A 
ATOM     88  F   UNL A   1      43.178  23.005  29.133  1.00  0.00    -0.206 F 
ATOM     89  C   UNL A   1      42.702  20.638  26.446  1.00  0.00     0.060 A 
BRANCH  89  90
ATOM     90  S   UNL A   1      42.257  18.905  26.193  1.00  0.00     0.124 S 
ATOM     91  O   UNL A   1      42.522  18.337  27.510  1.00  0.00    -0.237 OA
ATOM     92  O   UNL A   1      40.851  19.006  25.812  1.00  0.00    -0.237 OA
ATOM     93  O   UNL A   1      43.160  18.477  25.129  1.00  0.00    -0.744 OA
ENDBRANCH  89  90
ENDBRANCH  57  82
BRANCH  69  94
ATOM     94  C   UNL A   1      49.640  26.528  26.376  1.00  0.00     0.058 A 
ATOM     95  C   UNL A   1      50.175  26.668  25.086  1.00  0.00     0.135 A 
ATOM     96  C   UNL A   1      50.452  25.947  27.363  1.00  0.00     0.135 A 
ATOM     97  F   UNL A   1      49.440  27.217  24.104  1.00  0.00    -0.206 F 
ATOM     98  C   UNL A   1      51.449  26.211  24.775  1.00  0.00     0.059 A 
ATOM     99  C   UNL A   1      51.744  25.516  27.083  1.00  0.00     0.059 A 
ATOM    100  F   UNL A   1      49.997  25.805  28.618  1.00  0.00    -0.206 F 
ATOM    101  C   UNL A   1      52.227  25.636  25.781  1.00  0.00     0.060 A 
BRANCH 101 102
ATOM    102  S   UNL A   1      53.881  25.050  25.360  1.00  0.00     0.124 S 
ATOM    103  O   UNL A   1      54.087  25.669  24.055  1.00  0.00    -0.237 OA
ATOM    104  O   UNL A   1      54.687  25.588  26.451  1.00  0.00    -0.237 OA
ATOM    105  O   UNL A   1      53.737  23.598  25.349  1.00  0.00    -0.744 OA
ENDBRANCH 101 102
ENDBRANCH  69  94
ENDBRANCH  43  44
ENDBRANCH  36  38
ENDBRANCH  35  36
ENDBRANCH  34  35
ENDBRANCH   1  34
TORSDOF 19
ENDMDL
MODEL 2
REMARK VINA RESULT:     -12.1      6.736     14.371
REMARK SMILES NS(=O)(=O)c1ccc(C#Cc2cc(Cl)cc3c2O[C@H](C(F)(F)F)C(C(=O)OCCOC(=O)c2ccc(-c4c5nc(c(-c6c(F)cc(S(=O)(=O)[O-])cc6F)c6ccc([nH]6)c(-c6c(F)cc(S(=O)(=O)[O-])cc6F)c6nc(c(-c7c(F)cc(S(=O)(=O)[O-])cc7F)c7ccc4[nH]7)C=C6)C=C5)cc2)=C3)cc1
REMARK SMILES IDX 28 1 27 2 25 3 26 4 24 5 11 6 12 7 17 8 13 9 16 10 18 11
REMARK SMILES IDX 14 12 15 13 99 14 19 15 10 16 9 17 8 18 5 19 6 20 101 21
REMARK SMILES IDX 7 22 100 23 2 24 3 25 4 26 1 27 20 30 21 31 22 32 23 33
REMARK SMILES IDX 29 34 30 35 31 36 32 37 33 38 34 39 98 40 35 41 97 42 36 43
REMARK SMILES IDX 37 44 38 45 91 46 39 47 96 48 90 49 92 50 40 51 95 52 89 53
REMARK SMILES IDX 88 54 41 56 75 57 54 58 74 59 55 60 58 61 73 62 93 63 56 64
REMARK SMILES IDX 57 65 72 67 94 68 59 69 42 70 43 71 52 72 44 73 45 74 51 75
REMARK SMILES IDX 53 76 46 77 47 78 48 79 49 80 50 81 76 82 77 83 86 84 78 85
REMARK SMILES IDX 79 86 85 87 87 88 80 89 81 90 82 91 83 92 84 93 60 94 61 95
REMARK SMILES IDX 70 96 62 97 63 98 69 99 71 100 64 101 65 102 66 103 67 104
REMARK SMILES IDX 68 105
REMARK H PARENT 1 28 1 29 92 55 58 66
REMARK Flexibility Score: inf
ROOT
ATOM      1  C   UNL A   1      40.937  21.596  26.228  1.00  0.00     0.275 C 
ENDROOT
BRANCH   1   2
ATOM      2  O   UNL A   1      42.056  21.930  25.376  1.00  0.00    -0.459 OA
BRANCH   2   3
ATOM      3  C   UNL A   1      43.281  21.801  25.940  1.00  0.00     0.338 C 
ATOM      4  O   UNL A   1      43.819  20.756  26.268  1.00  0.00    -0.246 OA
BRANCH   3   5
ATOM      5  C   UNL A   1      43.931  23.120  26.099  1.00  0.00     0.087 C 
ATOM      6  C   UNL A   1      46.034  26.674  26.804  1.00  0.00     0.069 A 
ATOM      7  C   UNL A   1      47.270  26.877  26.176  1.00  0.00     0.041 A 
ATOM      8  C   UNL A   1      45.285  25.517  26.554  1.00  0.00     0.143 A 
ATOM      9  C   UNL A   1      47.752  25.934  25.276  1.00  0.00     0.043 A 
ATOM     10  C   UNL A   1      45.792  24.576  25.662  1.00  0.00     0.020 A 
ATOM     11  O   UNL A   1      44.079  25.361  27.187  1.00  0.00    -0.474 OA
ATOM     12  Cl  UNL A   1      49.271  26.180  24.510  1.00  0.00    -0.084 Cl
ATOM     13  C   UNL A   1      47.016  24.787  25.010  1.00  0.00     0.032 A 
ATOM     14  C   UNL A   1      45.069  23.346  25.437  1.00  0.00     0.027 C 
ATOM     15  C   UNL A   1      43.380  24.084  27.105  1.00  0.00     0.316 C 
BRANCH   6  16
ATOM     16  C   UNL A   1      45.580  27.661  27.723  1.00  0.00    -0.058 C 
ATOM     17  C   UNL A   1      45.164  28.474  28.501  1.00  0.00    -0.062 C 
BRANCH  17  18
ATOM     18  C   UNL A   1      44.628  29.433  29.406  1.00  0.00     0.025 A 
ATOM     19  C   UNL A   1      43.678  31.367  31.148  1.00  0.00     0.082 A 
ATOM     20  C   UNL A   1      44.573  30.399  31.615  1.00  0.00     0.023 A 
ATOM     21  C   UNL A   1      43.228  31.355  29.824  1.00  0.00     0.023 A 
ATOM     22  C   UNL A   1      45.052  29.431  30.736  1.00  0.00     0.018 A 
ATOM     23  C   UNL A   1      43.712  30.383  28.949  1.00  0.00     0.018 A 
BRANCH  19  24
ATOM     24  S   UNL A   1      43.116  32.628  32.248  1.00  0.00     0.238 S 
ATOM     25  O   UNL A   1      43.237  33.916  31.607  1.00  0.00    -0.207 OA
ATOM     26  O   UNL A   1      43.628  32.371  33.573  1.00  0.00    -0.207 OA
BRANCH  24  27
ATOM     27  N   UNL A   1      41.472  32.300  32.309  1.00  0.00    -0.225 NA
ATOM     28  H   UNL A   1      41.142  32.394  33.270  1.00  0.00     0.137 HD
ATOM     29  H   UNL A   1      41.302  31.349  31.983  1.00  0.00     0.137 HD
ENDBRANCH  24  27
ENDBRANCH  19  24
ENDBRANCH  17  18
ENDBRANCH   6  16
BRANCH  15  30
ATOM     30  C   UNL A   1      43.343  23.445  28.504  1.00  0.00     0.430 C 
ATOM     31  F   UNL A   1      42.258  22.648  28.655  1.00  0.00    -0.167 F 
ATOM     32  F   UNL A   1      44.426  22.661  28.726  1.00  0.00    -0.167 F 
ATOM     33  F   UNL A   1      43.306  24.372  29.489  1.00  0.00    -0.167 F 
ENDBRANCH  15  30
ENDBRANCH   3   5
ENDBRANCH   2   3
ENDBRANCH   1   2
BRANCH   1  34
ATOM     34  C   UNL A   1      39.811  22.629  26.116  1.00  0.00     0.275 C 
BRANCH  34  35
ATOM     35  O   UNL A   1      39.941  23.655  27.116  1.00  0.00    -0.458 OA
BRANCH  35  36
ATOM     36  C   UNL A   1      40.338  24.858  26.645  1.00  0.00     0.338 C 
ATOM     37  O   UNL A   1      40.481  25.187  25.480  1.00  0.00    -0.246 OA
BRANCH  36  38
ATOM     38  C   UNL A   1      40.436  25.809  27.757  1.00  0.00     0.060 A 
ATOM     39  C   UNL A   1      41.299  26.894  27.738  1.00  0.00     0.016 A 
ATOM     40  C   UNL A   1      39.517  25.672  28.787  1.00  0.00     0.016 A 
ATOM     41  C   UNL A   1      41.233  27.823  28.784  1.00  0.00     0.010 A 
ATOM     42  C   UNL A   1      39.324  26.685  29.711  1.00  0.00     0.010 A 
ATOM     43  C   UNL A   1      40.223  27.749  29.766  1.00  0.00    -0.014 A 
BRANCH  43  44
ATOM     44  C   UNL A   1      40.120  28.731  30.881  1.00  0.00     0.031 A 
ATOM     45  C   UNL A   1      41.050  28.636  32.075  1.00  0.00     0.074 A 
ATOM     46  C   UNL A   1      39.171  29.687  30.841  1.00  0.00     0.049 A 
ATOM     47  N   UNL A   1      41.097  29.389  33.146  1.00  0.00    -0.248 NA
ATOM     48  C   UNL A   1      42.025  27.532  32.093  1.00  0.00     0.031 C 
ATOM     49  C   UNL A   1      38.160  29.833  29.790  1.00  0.00     0.029 A 
ATOM     50  N   UNL A   1      38.909  30.729  31.694  1.00  0.00    -0.354 N 
ATOM     51  C   UNL A   1      42.088  28.840  33.955  1.00  0.00     0.074 A 
ATOM     52  C   UNL A   1      42.548  27.638  33.304  1.00  0.00     0.031 C 
ATOM     53  C   UNL A   1      37.445  30.945  30.017  1.00  0.00     0.029 A 
ATOM     54  C   UNL A   1      37.903  31.560  31.257  1.00  0.00     0.049 A 
ATOM     55  H   UNL A   1      39.396  30.870  32.538  1.00  0.00     0.167 HD
ATOM     56  C   UNL A   1      42.611  29.319  35.109  1.00  0.00     0.037 A 
ATOM     57  C   UNL A   1      37.410  32.693  31.793  1.00  0.00     0.037 A 
ATOM     58  C   UNL A   1      42.183  30.544  35.727  1.00  0.00     0.049 A 
ATOM     59  C   UNL A   1      38.008  33.210  33.071  1.00  0.00     0.074 A 
ATOM     60  C   UNL A   1      42.683  31.156  36.863  1.00  0.00     0.029 A 
ATOM     61  N   UNL A   1      41.158  31.352  35.255  1.00  0.00    -0.354 N 
ATOM     62  N   UNL A   1      38.991  32.711  33.784  1.00  0.00    -0.248 NA
ATOM     63  C   UNL A   1      37.433  34.444  33.619  1.00  0.00     0.031 C 
ATOM     64  C   UNL A   1      41.927  32.305  37.107  1.00  0.00     0.029 A 
ATOM     65  C   UNL A   1      40.994  32.443  36.091  1.00  0.00     0.049 A 
ATOM     66  H   UNL A   1      40.626  31.175  34.446  1.00  0.00     0.167 HD
ATOM     67  C   UNL A   1      39.162  33.579  34.856  1.00  0.00     0.074 A 
ATOM     68  C   UNL A   1      38.202  34.651  34.679  1.00  0.00     0.031 C 
ATOM     69  C   UNL A   1      40.025  33.494  35.900  1.00  0.00     0.037 A 
BRANCH  56  70
ATOM     70  C   UNL A   1      43.727  28.540  35.758  1.00  0.00     0.058 A 
ATOM     71  C   UNL A   1      45.077  28.860  35.530  1.00  0.00     0.135 A 
ATOM     72  C   UNL A   1      43.450  27.496  36.655  1.00  0.00     0.135 A 
ATOM     73  F   UNL A   1      45.406  29.837  34.669  1.00  0.00    -0.206 F 
ATOM     74  C   UNL A   1      46.108  28.161  36.149  1.00  0.00     0.059 A 
ATOM     75  C   UNL A   1      44.466  26.804  37.313  1.00  0.00     0.059 A 
ATOM     76  F   UNL A   1      42.180  27.142  36.911  1.00  0.00    -0.206 F 
ATOM     77  C   UNL A   1      45.792  27.139  37.045  1.00  0.00     0.060 A 
BRANCH  77  78
ATOM     78  S   UNL A   1      47.146  26.265  37.858  1.00  0.00     0.124 S 
ATOM     79  O   UNL A   1      48.244  26.488  36.922  1.00  0.00    -0.237 OA
ATOM     80  O   UNL A   1      47.248  26.971  39.132  1.00  0.00    -0.237 OA
ATOM     81  O   UNL A   1      46.665  24.889  37.942  1.00  0.00    -0.744 OA
ENDBRANCH  77  78
ENDBRANCH  56  70
BRANCH  57  82
ATOM     82  C   UNL A   1      36.326  33.434  31.091  1.00  0.00     0.058 A 
ATOM     83  C   UNL A   1      35.016  33.439  31.592  1.00  0.00     0.135 A 
ATOM     84  C   UNL A   1      36.581  34.178  29.927  1.00  0.00     0.135 A 
ATOM     85  F   UNL A   1      34.718  32.740  32.698  1.00  0.00    -0.206 F 
ATOM     86  C   UNL A   1      33.996  34.146  30.964  1.00  0.00     0.059 A 
ATOM     87  C   UNL A   1      35.585  34.918  29.297  1.00  0.00     0.059 A 
ATOM     88  F   UNL A   1      37.821  34.221  29.415  1.00  0.00    -0.206 F 
ATOM     89  C   UNL A   1      34.294  34.890  29.820  1.00  0.00     0.060 A 
BRANCH  89  90
ATOM     90  S   UNL A   1      32.972  35.850  29.049  1.00  0.00     0.124 S 
ATOM     91  O   UNL A   1      32.358  34.857  28.175  1.00  0.00    -0.237 OA
ATOM     92  O   UNL A   1      32.181  36.260  30.206  1.00  0.00    -0.237 OA
ATOM     93  O   UNL A   1      33.688  36.928  28.374  1.00  0.00    -0.744 OA
ENDBRANCH  89  90
ENDBRANCH  57  82
BRANCH  69  94
ATOM     94  C   UNL A   1      39.973  34.592  36.927  1.00  0.00     0.058 A 
ATOM     95  C   UNL A   1      39.099  34.528  38.023  1.00  0.00     0.135 A 
ATOM     96  C   UNL A   1      40.834  35.697  36.838  1.00  0.00     0.135 A 
ATOM     97  F   UNL A   1      38.254  33.492  38.156  1.00  0.00    -0.206 F 
ATOM     98  C   UNL A   1      39.051  35.541  38.973  1.00  0.00     0.059 A 
ATOM     99  C   UNL A   1      40.829  36.704  37.796  1.00  0.00     0.059 A 
ATOM    100  F   UNL A   1      41.703  35.799  35.819  1.00  0.00    -0.206 F 
ATOM    101  C   UNL A   1      39.921  36.626  38.850  1.00  0.00     0.060 A 
BRANCH 101 102
ATOM    102  S   UNL A   1      39.846  37.932  40.094  1.00  0.00     0.124 S 
ATOM    103  O   UNL A   1      39.767  37.157  41.328  1.00  0.00    -0.237 OA
ATOM    104  O   UNL A   1      41.101  38.643  39.872  1.00  0.00    -0.237 OA
ATOM    105  O   UNL A   1      38.639  38.672  39.741  1.00  0.00    -0.744 OA
ENDBRANCH 101 102
ENDBRANCH  69  94
ENDBRANCH  43  44
ENDBRANCH  36  38
ENDBRANCH  35  36
ENDBRANCH  34  35
ENDBRANCH   1  34
TORSDOF 19
ENDMDL
MODEL 3
REMARK VINA RESULT:     -11.9      6.360     13.280
REMARK SMILES NS(=O)(=O)c1ccc(C#Cc2cc(Cl)cc3c2O[C@H](C(F)(F)F)C(C(=O)OCCOC(=O)c2ccc(-c4c5nc(c(-c6c(F)cc(S(=O)(=O)[O-])cc6F)c6ccc([nH]6)c(-c6c(F)cc(S(=O)(=O)[O-])cc6F)c6nc(c(-c7c(F)cc(S(=O)(=O)[O-])cc7F)c7ccc4[nH]7)C=C6)C=C5)cc2)=C3)cc1
REMARK SMILES IDX 28 1 27 2 25 3 26 4 24 5 11 6 12 7 17 8 13 9 16 10 18 11
REMARK SMILES IDX 14 12 15 13 99 14 19 15 10 16 9 17 8 18 5 19 6 20 101 21
REMARK SMILES IDX 7 22 100 23 2 24 3 25 4 26 1 27 20 30 21 31 22 32 23 33
REMARK SMILES IDX 29 34 30 35 31 36 32 37 33 38 34 39 98 40 35 41 97 42 36 43
REMARK SMILES IDX 37 44 38 45 91 46 39 47 96 48 90 49 92 50 40 51 95 52 89 53
REMARK SMILES IDX 88 54 41 56 75 57 54 58 74 59 55 60 58 61 73 62 93 63 56 64
REMARK SMILES IDX 57 65 72 67 94 68 59 69 42 70 43 71 52 72 44 73 45 74 51 75
REMARK SMILES IDX 53 76 46 77 47 78 48 79 49 80 50 81 76 82 77 83 86 84 78 85
REMARK SMILES IDX 79 86 85 87 87 88 80 89 81 90 82 91 83 92 84 93 60 94 61 95
REMARK SMILES IDX 70 96 62 97 63 98 69 99 71 100 64 101 65 102 66 103 67 104
REMARK SMILES IDX 68 105
REMARK H PARENT 1 28 1 29 92 55 58 66
REMARK Flexibility Score: inf
ROOT
ATOM      1  C   UNL A   1      40.758  21.117  26.175  1.00  0.00     0.275 C 
ENDROOT
BRANCH   1   2
ATOM      2  O   UNL A   1      41.781  21.806  25.421  1.00  0.00    -0.459 OA
BRANCH   2   3
ATOM      3  C   UNL A   1      43.039  21.704  25.911  1.00  0.00     0.338 C 
ATOM      4  O   UNL A   1      43.591  20.678  26.277  1.00  0.00    -0.246 OA
BRANCH   3   5
ATOM      5  C   UNL A   1      43.708  23.022  25.931  1.00  0.00     0.087 C 
ATOM      6  C   UNL A   1      45.856  26.603  26.266  1.00  0.00     0.069 A 
ATOM      7  C   UNL A   1      47.108  26.715  25.647  1.00  0.00     0.041 A 
ATOM      8  C   UNL A   1      45.093  25.436  26.136  1.00  0.00     0.143 A 
ATOM      9  C   UNL A   1      47.593  25.668  24.874  1.00  0.00     0.043 A 
ATOM     10  C   UNL A   1      45.603  24.391  25.370  1.00  0.00     0.020 A 
ATOM     11  O   UNL A   1      43.872  25.372  26.755  1.00  0.00    -0.474 OA
ATOM     12  Cl  UNL A   1      49.131  25.800  24.119  1.00  0.00    -0.084 Cl
ATOM     13  C   UNL A   1      46.843  24.508  24.725  1.00  0.00     0.032 A 
ATOM     14  C   UNL A   1      44.864  23.154  25.272  1.00  0.00     0.027 C 
ATOM     15  C   UNL A   1      43.154  24.105  26.806  1.00  0.00     0.316 C 
BRANCH   6  16
ATOM     16  C   UNL A   1      45.400  27.698  27.055  1.00  0.00    -0.058 C 
ATOM     17  C   UNL A   1      44.999  28.634  27.688  1.00  0.00    -0.062 C 
BRANCH  17  18
ATOM     18  C   UNL A   1      44.530  29.772  28.402  1.00  0.00     0.025 A 
ATOM     19  C   UNL A   1      43.678  32.055  29.722  1.00  0.00     0.082 A 
ATOM     20  C   UNL A   1      44.895  31.466  30.080  1.00  0.00     0.023 A 
ATOM     21  C   UNL A   1      42.867  31.492  28.732  1.00  0.00     0.023 A 
ATOM     22  C   UNL A   1      45.322  30.322  29.412  1.00  0.00     0.018 A 
ATOM     23  C   UNL A   1      43.301  30.345  28.067  1.00  0.00     0.018 A 
BRANCH  19  24
ATOM     24  S   UNL A   1      43.165  33.539  30.529  1.00  0.00     0.238 S 
ATOM     25  O   UNL A   1      41.787  33.411  30.942  1.00  0.00    -0.207 OA
ATOM     26  O   UNL A   1      43.648  34.679  29.786  1.00  0.00    -0.207 OA
BRANCH  24  27
ATOM     27  N   UNL A   1      44.072  33.477  31.938  1.00  0.00    -0.225 NA
ATOM     28  H   UNL A   1      44.349  34.422  32.206  1.00  0.00     0.137 HD
ATOM     29  H   UNL A   1      44.906  32.910  31.781  1.00  0.00     0.137 HD
ENDBRANCH  24  27
ENDBRANCH  19  24
ENDBRANCH  17  18
ENDBRANCH   6  16
BRANCH  15  30
ATOM     30  C   UNL A   1      43.077  23.633  28.268  1.00  0.00     0.430 C 
ATOM     31  F   UNL A   1      43.097  24.681  29.128  1.00  0.00    -0.167 F 
ATOM     32  F   UNL A   1      41.928  22.958  28.517  1.00  0.00    -0.167 F 
ATOM     33  F   UNL A   1      44.105  22.818  28.597  1.00  0.00    -0.167 F 
ENDBRANCH  15  30
ENDBRANCH   3   5
ENDBRANCH   2   3
ENDBRANCH   1   2
BRANCH   1  34
ATOM     34  C   UNL A   1      39.440  21.897  26.188  1.00  0.00     0.275 C 
BRANCH  34  35
ATOM     35  O   UNL A   1      39.504  23.017  27.088  1.00  0.00    -0.458 OA
BRANCH  35  36
ATOM     36  C   UNL A   1      39.230  24.214  26.524  1.00  0.00     0.338 C 
ATOM     37  O   UNL A   1      38.585  24.426  25.512  1.00  0.00    -0.246 OA
BRANCH  36  38
ATOM     38  C   UNL A   1      39.703  25.287  27.405  1.00  0.00     0.060 A 
ATOM     39  C   UNL A   1      40.429  26.372  26.936  1.00  0.00     0.016 A 
ATOM     40  C   UNL A   1      39.269  25.260  28.722  1.00  0.00     0.016 A 
ATOM     41  C   UNL A   1      40.726  27.414  27.823  1.00  0.00     0.010 A 
ATOM     42  C   UNL A   1      39.397  26.370  29.539  1.00  0.00     0.010 A 
ATOM     43  C   UNL A   1      40.185  27.443  29.127  1.00  0.00    -0.014 A 
BRANCH  43  44
ATOM     44  C   UNL A   1      40.473  28.546  30.086  1.00  0.00     0.031 A 
ATOM     45  C   UNL A   1      39.520  29.717  30.218  1.00  0.00     0.074 A 
ATOM     46  C   UNL A   1      41.606  28.514  30.815  1.00  0.00     0.049 A 
ATOM     47  N   UNL A   1      39.613  30.775  30.985  1.00  0.00    -0.248 NA
ATOM     48  C   UNL A   1      38.330  29.728  29.349  1.00  0.00     0.031 C 
ATOM     49  C   UNL A   1      42.648  27.487  30.719  1.00  0.00     0.029 A 
ATOM     50  N   UNL A   1      42.068  29.357  31.794  1.00  0.00    -0.354 N 
ATOM     51  C   UNL A   1      38.510  31.567  30.678  1.00  0.00     0.074 A 
ATOM     52  C   UNL A   1      37.816  30.923  29.590  1.00  0.00     0.031 C 
ATOM     53  C   UNL A   1      43.580  27.715  31.656  1.00  0.00     0.029 A 
ATOM     54  C   UNL A   1      43.239  28.934  32.379  1.00  0.00     0.049 A 
ATOM     55  H   UNL A   1      41.606  30.187  32.053  1.00  0.00     0.167 HD
ATOM     56  C   UNL A   1      38.078  32.700  31.281  1.00  0.00     0.037 A 
ATOM     57  C   UNL A   1      43.954  29.464  33.391  1.00  0.00     0.037 A 
ATOM     58  C   UNL A   1      38.747  33.310  32.399  1.00  0.00     0.049 A 
ATOM     59  C   UNL A   1      43.453  30.719  34.050  1.00  0.00     0.074 A 
ATOM     60  C   UNL A   1      38.366  34.423  33.127  1.00  0.00     0.029 A 
ATOM     61  N   UNL A   1      39.931  32.851  32.958  1.00  0.00    -0.354 N 
ATOM     62  N   UNL A   1      42.371  31.414  33.789  1.00  0.00    -0.248 NA
ATOM     63  C   UNL A   1      44.269  31.262  35.143  1.00  0.00     0.031 C 
ATOM     64  C   UNL A   1      39.347  34.668  34.091  1.00  0.00     0.029 A 
ATOM     65  C   UNL A   1      40.310  33.674  34.005  1.00  0.00     0.049 A 
ATOM     66  H   UNL A   1      40.430  32.059  32.654  1.00  0.00     0.167 HD
ATOM     67  C   UNL A   1      42.369  32.469  34.695  1.00  0.00     0.074 A 
ATOM     68  C   UNL A   1      43.540  32.299  35.531  1.00  0.00     0.031 C 
ATOM     69  C   UNL A   1      41.486  33.491  34.818  1.00  0.00     0.037 A 
BRANCH  56  70
ATOM     70  C   UNL A   1      36.807  33.332  30.774  1.00  0.00     0.058 A 
ATOM     71  C   UNL A   1      35.608  33.263  31.505  1.00  0.00     0.135 A 
ATOM     72  C   UNL A   1      36.794  34.058  29.572  1.00  0.00     0.135 A 
ATOM     73  F   UNL A   1      35.554  32.568  32.652  1.00  0.00    -0.206 F 
ATOM     74  C   UNL A   1      34.441  33.869  31.052  1.00  0.00     0.059 A 
ATOM     75  C   UNL A   1      35.645  34.703  29.117  1.00  0.00     0.059 A 
ATOM     76  F   UNL A   1      37.908  34.158  28.829  1.00  0.00    -0.206 F 
ATOM     77  C   UNL A   1      34.471  34.594  29.860  1.00  0.00     0.060 A 
BRANCH  77  78
ATOM     78  S   UNL A   1      32.951  35.396  29.307  1.00  0.00     0.124 S 
ATOM     79  O   UNL A   1      32.458  34.442  28.319  1.00  0.00    -0.237 OA
ATOM     80  O   UNL A   1      32.181  35.481  30.544  1.00  0.00    -0.237 OA
ATOM     81  O   UNL A   1      33.413  36.672  28.769  1.00  0.00    -0.744 OA
ENDBRANCH  77  78
ENDBRANCH  56  70
BRANCH  57  82
ATOM     82  C   UNL A   1      45.186  28.778  33.867  1.00  0.00     0.058 A 
ATOM     83  C   UNL A   1      45.115  27.737  34.804  1.00  0.00     0.135 A 
ATOM     84  C   UNL A   1      46.454  29.122  33.370  1.00  0.00     0.135 A 
ATOM     85  F   UNL A   1      43.928  27.373  35.314  1.00  0.00    -0.206 F 
ATOM     86  C   UNL A   1      46.253  27.068  35.240  1.00  0.00     0.059 A 
ATOM     87  C   UNL A   1      47.605  28.447  33.768  1.00  0.00     0.059 A 
ATOM     88  F   UNL A   1      46.577  30.099  32.458  1.00  0.00    -0.206 F 
ATOM     89  C   UNL A   1      47.494  27.425  34.709  1.00  0.00     0.060 A 
BRANCH  89  90
ATOM     90  S   UNL A   1      48.956  26.508  35.241  1.00  0.00     0.124 S 
ATOM     91  O   UNL A   1      48.364  25.463  36.068  1.00  0.00    -0.237 OA
ATOM     92  O   UNL A   1      49.520  26.072  33.967  1.00  0.00    -0.237 OA
ATOM     93  O   UNL A   1      49.740  27.510  35.956  1.00  0.00    -0.744 OA
ENDBRANCH  89  90
ENDBRANCH  57  82
BRANCH  69  94
ATOM     94  C   UNL A   1      41.751  34.503  35.900  1.00  0.00     0.058 A 
ATOM     95  C   UNL A   1      41.241  34.339  37.197  1.00  0.00     0.135 A 
ATOM     96  C   UNL A   1      42.558  35.624  35.649  1.00  0.00     0.135 A 
ATOM     97  F   UNL A   1      40.463  33.283  37.490  1.00  0.00    -0.206 F 
ATOM     98  C   UNL A   1      41.485  35.273  38.196  1.00  0.00     0.059 A 
ATOM     99  C   UNL A   1      42.846  36.552  36.644  1.00  0.00     0.059 A 
ATOM    100  F   UNL A   1      43.086  35.820  34.431  1.00  0.00    -0.206 F 
ATOM    101  C   UNL A   1      42.290  36.377  37.910  1.00  0.00     0.060 A 
BRANCH 101 102
ATOM    102  S   UNL A   1      42.599  37.577  39.221  1.00  0.00     0.124 S 
ATOM    103  O   UNL A   1      43.472  38.531  38.545  1.00  0.00    -0.237 OA
ATOM    104  O   UNL A   1      41.254  38.055  39.527  1.00  0.00    -0.237 OA
ATOM    105  O   UNL A   1      43.231  36.783  40.270  1.00  0.00    -0.744 OA
ENDBRANCH 101 102
ENDBRANCH  69  94
ENDBRANCH  43  44
ENDBRANCH  36  38
ENDBRANCH  35  36
ENDBRANCH  34  35
ENDBRANCH   1  34
TORSDOF 19
ENDMDL
