MODEL 1
REMARK VINA RESULT:     -10.2      0.000      0.000
REMARK SMILES C[C@@H](NC(=O)CCCN1C(=O)/C(=C\c2c3ccccc3cc3ccccc23)SC1=S)C(=O)OCCOC(=O)c1ccc(-c2c3nc(c(-c4c(F)cc(S(=O)(=O)[O-])cc4F)c4ccc([nH]4)c(-c4c(F)cc(S(=O)(=O)[O-])cc4F)c4nc(c(-c5c(F)cc(S(=O)(=O)[O-])cc5F)c5ccc2[nH]5)C=C4)C=C3)cc1
REMARK SMILES IDX 33 1 31 2 32 3 2 4 1 5 3 6 4 7 5 9 6 10 7 11 8 12 9 13 10 14
REMARK SMILES IDX 29 15 11 16 12 17 28 18 30 19 13 20 14 21 15 22 27 23 16 24
REMARK SMILES IDX 20 25 22 26 26 27 17 28 19 29 21 30 23 31 25 32 18 33 24 34
REMARK SMILES IDX 34 35 35 36 36 37 37 38 38 39 39 40 40 41 104 42 41 43
REMARK SMILES IDX 103 44 42 45 43 46 44 47 97 48 45 49 102 50 96 51 98 52
REMARK SMILES IDX 46 53 101 54 95 55 94 56 47 58 81 59 60 60 80 61 61 62 64 63
REMARK SMILES IDX 79 64 99 65 62 66 63 67 78 69 100 70 65 71 48 72 49 73 58 74
REMARK SMILES IDX 50 75 51 76 57 77 59 78 52 79 53 80 54 81 55 82 56 83 82 84
REMARK SMILES IDX 83 85 92 86 84 87 85 88 91 89 93 90 86 91 87 92 88 93 89 94
REMARK SMILES IDX 90 95 66 96 67 97 76 98 68 99 69 100 75 101 77 102 70 103
REMARK SMILES IDX 71 104 72 105 73 106 74 107
REMARK H PARENT 3 8 98 57 64 68
REMARK Flexibility Score: inf
ROOT
ATOM      1  O   UNL A   1      40.205  20.578  27.137  1.00  0.00    -0.461 OA
ENDROOT
BRANCH   1   2
ATOM      2  C   UNL A   1      40.008  21.861  26.655  1.00  0.00     0.328 C 
ATOM      3  O   UNL A   1      38.927  22.229  26.198  1.00  0.00    -0.250 OA
BRANCH   2   4
ATOM      4  C   UNL A   1      41.356  22.766  26.521  1.00  0.00     0.189 C 
ATOM      5  C   UNL A   1      42.320  23.189  25.398  1.00  0.00     0.043 C 
BRANCH   4   6
ATOM      6  N   UNL A   1      40.903  24.017  27.073  1.00  0.00    -0.343 N 
ATOM      7  C   UNL A   1      41.280  24.442  28.307  1.00  0.00     0.220 C 
ATOM      8  H   UNL A   1      40.301  24.583  26.538  1.00  0.00     0.164 HD
ATOM      9  O   UNL A   1      40.926  25.561  28.676  1.00  0.00    -0.275 OA
BRANCH   7  10
ATOM     10  C   UNL A   1      42.283  23.599  29.112  1.00  0.00     0.102 C 
BRANCH  10  11
ATOM     11  C   UNL A   1      43.890  23.854  29.178  1.00  0.00     0.032 C 
BRANCH  11  12
ATOM     12  C   UNL A   1      45.138  24.812  30.016  1.00  0.00     0.128 C 
BRANCH  12  13
ATOM     13  N   UNL A   1      45.693  25.313  31.546  1.00  0.00    -0.293 N 
ATOM     14  C   UNL A   1      45.455  24.371  33.029  1.00  0.00     0.266 C 
ATOM     15  C   UNL A   1      47.291  26.170  31.416  1.00  0.00     0.148 C 
ATOM     16  O   UNL A   1      44.561  23.647  33.398  1.00  0.00    -0.268 OA
ATOM     17  C   UNL A   1      47.137  24.091  34.001  1.00  0.00     0.081 C 
ATOM     18  S   UNL A   1      48.847  25.207  32.907  1.00  0.00    -0.054 SA
ATOM     19  S   UNL A   1      47.684  27.397  30.340  1.00  0.00    -0.052 S 
ATOM     20  C   UNL A   1      46.935  23.404  35.127  1.00  0.00     0.030 C 
BRANCH  20  21
ATOM     21  C   UNL A   1      45.476  23.303  35.914  1.00  0.00    -0.009 A 
ATOM     22  C   UNL A   1      45.064  24.218  37.076  1.00  0.00    -0.010 A 
ATOM     23  C   UNL A   1      45.473  21.925  36.150  1.00  0.00    -0.010 A 
ATOM     24  C   UNL A   1      44.171  25.409  37.161  1.00  0.00     0.009 A 
ATOM     25  C   UNL A   1      45.486  23.874  38.317  1.00  0.00    -0.017 A 
ATOM     26  C   UNL A   1      45.978  21.524  37.368  1.00  0.00    -0.017 A 
ATOM     27  C   UNL A   1      45.305  20.993  35.119  1.00  0.00     0.009 A 
ATOM     28  C   UNL A   1      43.933  26.328  38.235  1.00  0.00     0.001 A 
ATOM     29  C   UNL A   1      45.264  24.944  39.399  1.00  0.00     0.009 A 
ATOM     30  C   UNL A   1      46.091  22.527  38.346  1.00  0.00     0.017 A 
ATOM     31  C   UNL A   1      46.411  20.189  37.537  1.00  0.00     0.009 A 
ATOM     32  C   UNL A   1      45.712  19.675  35.288  1.00  0.00     0.001 A 
ATOM     33  C   UNL A   1      44.532  26.107  39.410  1.00  0.00     0.001 A 
ATOM     34  C   UNL A   1      46.284  19.274  36.492  1.00  0.00     0.001 A 
ENDBRANCH  20  21
ENDBRANCH  12  13
ENDBRANCH  11  12
ENDBRANCH  10  11
ENDBRANCH   7  10
ENDBRANCH   4   6
ENDBRANCH   2   4
ENDBRANCH   1   2
BRANCH   1  35
ATOM     35  C   UNL A   1      41.480  20.012  27.626  1.00  0.00     0.274 C 
BRANCH  35  36
ATOM     36  C   UNL A   1      41.894  18.810  26.732  1.00  0.00     0.275 C 
BRANCH  36  37
ATOM     37  O   UNL A   1      42.251  19.343  25.437  1.00  0.00    -0.458 OA
BRANCH  37  38
ATOM     38  C   UNL A   1      43.646  19.305  24.936  1.00  0.00     0.338 C 
ATOM     39  O   UNL A   1      43.783  18.078  24.629  1.00  0.00    -0.246 OA
BRANCH  38  40
ATOM     40  C   UNL A   1      44.991  21.002  24.850  1.00  0.00     0.060 A 
ATOM     41  C   UNL A   1      45.374  22.045  23.878  1.00  0.00     0.016 A 
ATOM     42  C   UNL A   1      45.766  21.722  26.108  1.00  0.00     0.016 A 
ATOM     43  C   UNL A   1      46.112  23.418  24.167  1.00  0.00     0.010 A 
ATOM     44  C   UNL A   1      46.406  23.000  26.391  1.00  0.00     0.010 A 
ATOM     45  C   UNL A   1      46.471  23.993  25.451  1.00  0.00    -0.014 A 
BRANCH  45  46
ATOM     46  C   UNL A   1      46.988  25.507  26.028  1.00  0.00     0.031 A 
ATOM     47  C   UNL A   1      45.793  26.339  26.336  1.00  0.00     0.074 A 
ATOM     48  C   UNL A   1      48.243  26.185  26.205  1.00  0.00     0.049 A 
ATOM     49  N   UNL A   1      45.770  27.561  26.770  1.00  0.00    -0.248 NA
ATOM     50  C   UNL A   1      44.479  25.677  26.279  1.00  0.00     0.031 C 
ATOM     51  C   UNL A   1      49.633  25.671  26.442  1.00  0.00     0.029 A 
ATOM     52  N   UNL A   1      48.646  27.521  25.970  1.00  0.00    -0.354 N 
ATOM     53  C   UNL A   1      44.455  27.792  27.105  1.00  0.00     0.074 A 
ATOM     54  C   UNL A   1      43.692  26.615  26.769  1.00  0.00     0.031 C 
ATOM     55  C   UNL A   1      50.608  26.408  25.923  1.00  0.00     0.029 A 
ATOM     56  C   UNL A   1      50.039  27.693  25.726  1.00  0.00     0.049 A 
ATOM     57  H   UNL A   1      48.011  28.274  25.975  1.00  0.00     0.167 HD
ATOM     58  C   UNL A   1      43.962  28.906  27.673  1.00  0.00     0.037 A 
ATOM     59  C   UNL A   1      50.923  28.717  25.624  1.00  0.00     0.037 A 
ATOM     60  C   UNL A   1      44.772  30.077  27.860  1.00  0.00     0.049 A 
ATOM     61  C   UNL A   1      50.350  29.953  26.186  1.00  0.00     0.074 A 
ATOM     62  C   UNL A   1      44.375  31.326  28.284  1.00  0.00     0.029 A 
ATOM     63  N   UNL A   1      46.141  30.158  27.578  1.00  0.00    -0.354 N 
ATOM     64  N   UNL A   1      49.097  30.114  26.534  1.00  0.00    -0.248 NA
ATOM     65  C   UNL A   1      51.238  31.075  26.480  1.00  0.00     0.031 C 
ATOM     66  C   UNL A   1      45.465  32.186  28.140  1.00  0.00     0.029 A 
ATOM     67  C   UNL A   1      46.582  31.459  27.742  1.00  0.00     0.049 A 
ATOM     68  H   UNL A   1      46.707  29.400  27.303  1.00  0.00     0.167 HD
ATOM     69  C   UNL A   1      49.027  31.346  27.112  1.00  0.00     0.074 A 
ATOM     70  C   UNL A   1      50.381  31.895  27.081  1.00  0.00     0.031 C 
ATOM     71  C   UNL A   1      47.931  31.961  27.605  1.00  0.00     0.037 A 
BRANCH  58  72
ATOM     72  C   UNL A   1      42.484  28.895  27.916  1.00  0.00     0.058 A 
ATOM     73  C   UNL A   1      41.547  29.122  26.889  1.00  0.00     0.135 A 
ATOM     74  C   UNL A   1      42.013  28.838  29.234  1.00  0.00     0.135 A 
ATOM     75  F   UNL A   1      41.954  29.266  25.617  1.00  0.00    -0.206 F 
ATOM     76  C   UNL A   1      40.200  29.328  27.171  1.00  0.00     0.059 A 
ATOM     77  C   UNL A   1      40.669  29.005  29.535  1.00  0.00     0.059 A 
ATOM     78  F   UNL A   1      42.874  28.680  30.251  1.00  0.00    -0.206 F 
ATOM     79  C   UNL A   1      39.772  29.266  28.499  1.00  0.00     0.060 A 
BRANCH  79  80
ATOM     80  S   UNL A   1      38.027  29.543  28.860  1.00  0.00     0.124 S 
ATOM     81  O   UNL A   1      38.032  30.939  29.284  1.00  0.00    -0.237 OA
ATOM     82  O   UNL A   1      37.403  29.275  27.568  1.00  0.00    -0.237 OA
ATOM     83  O   UNL A   1      37.740  28.569  29.908  1.00  0.00    -0.744 OA
ENDBRANCH  79  80
ENDBRANCH  58  72
BRANCH  59  84
ATOM     84  C   UNL A   1      52.404  28.490  25.334  1.00  0.00     0.058 A 
ATOM     85  C   UNL A   1      53.385  28.247  26.321  1.00  0.00     0.135 A 
ATOM     86  C   UNL A   1      52.832  28.327  24.001  1.00  0.00     0.135 A 
ATOM     87  F   UNL A   1      53.061  28.324  27.620  1.00  0.00    -0.206 F 
ATOM     88  C   UNL A   1      54.706  27.877  26.001  1.00  0.00     0.059 A 
ATOM     89  C   UNL A   1      54.137  27.946  23.657  1.00  0.00     0.059 A 
ATOM     90  F   UNL A   1      51.954  28.502  22.999  1.00  0.00    -0.206 F 
ATOM     91  C   UNL A   1      55.076  27.730  24.663  1.00  0.00     0.060 A 
BRANCH  91  92
ATOM     92  S   UNL A   1      56.775  27.236  24.249  1.00  0.00     0.124 S 
ATOM     93  O   UNL A   1      57.065  26.257  25.291  1.00  0.00    -0.237 OA
ATOM     94  O   UNL A   1      56.628  26.701  22.899  1.00  0.00    -0.237 OA
ATOM     95  O   UNL A   1      57.526  28.485  24.342  1.00  0.00    -0.744 OA
ENDBRANCH  91  92
ENDBRANCH  59  84
BRANCH  71  96
ATOM     96  C   UNL A   1      48.170  33.360  28.021  1.00  0.00     0.058 A 
ATOM     97  C   UNL A   1      48.538  33.650  29.343  1.00  0.00     0.135 A 
ATOM     98  C   UNL A   1      48.094  34.390  27.080  1.00  0.00     0.135 A 
ATOM     99  F   UNL A   1      48.594  32.677  30.267  1.00  0.00    -0.206 F 
ATOM    100  C   UNL A   1      48.816  34.945  29.725  1.00  0.00     0.059 A 
ATOM    101  C   UNL A   1      48.415  35.686  27.432  1.00  0.00     0.059 A 
ATOM    102  F   UNL A   1      47.739  34.129  25.811  1.00  0.00    -0.206 F 
ATOM    103  C   UNL A   1      48.769  35.950  28.756  1.00  0.00     0.060 A 
BRANCH 103 104
ATOM    104  S   UNL A   1      49.228  37.612  29.252  1.00  0.00     0.124 S 
ATOM    105  O   UNL A   1      50.485  37.368  29.950  1.00  0.00    -0.237 OA
ATOM    106  O   UNL A   1      49.333  38.295  27.967  1.00  0.00    -0.237 OA
ATOM    107  O   UNL A   1      48.111  38.032  30.093  1.00  0.00    -0.744 OA
ENDBRANCH 103 104
ENDBRANCH  71  96
ENDBRANCH  45  46
ENDBRANCH  38  40
ENDBRANCH  37  38
ENDBRANCH  36  37
ENDBRANCH  35  36
ENDBRANCH   1  35
TORSDOF 20
ENDMDL
MODEL 2
REMARK VINA RESULT:     -10.1      4.975     13.057
REMARK SMILES C[C@@H](NC(=O)CCCN1C(=O)/C(=C\c2c3ccccc3cc3ccccc23)SC1=S)C(=O)OCCOC(=O)c1ccc(-c2c3nc(c(-c4c(F)cc(S(=O)(=O)[O-])cc4F)c4ccc([nH]4)c(-c4c(F)cc(S(=O)(=O)[O-])cc4F)c4nc(c(-c5c(F)cc(S(=O)(=O)[O-])cc5F)c5ccc2[nH]5)C=C4)C=C3)cc1
REMARK SMILES IDX 33 1 31 2 32 3 2 4 1 5 3 6 4 7 5 9 6 10 7 11 8 12 9 13 10 14
REMARK SMILES IDX 29 15 11 16 12 17 28 18 30 19 13 20 14 21 15 22 27 23 16 24
REMARK SMILES IDX 20 25 22 26 26 27 17 28 19 29 21 30 23 31 25 32 18 33 24 34
REMARK SMILES IDX 34 35 35 36 36 37 37 38 38 39 39 40 40 41 104 42 41 43
REMARK SMILES IDX 103 44 42 45 43 46 44 47 97 48 45 49 102 50 96 51 98 52
REMARK SMILES IDX 46 53 101 54 95 55 94 56 47 58 81 59 60 60 80 61 61 62 64 63
REMARK SMILES IDX 79 64 99 65 62 66 63 67 78 69 100 70 65 71 48 72 49 73 58 74
REMARK SMILES IDX 50 75 51 76 57 77 59 78 52 79 53 80 54 81 55 82 56 83 82 84
REMARK SMILES IDX 83 85 92 86 84 87 85 88 91 89 93 90 86 91 87 92 88 93 89 94
REMARK SMILES IDX 90 95 66 96 67 97 76 98 68 99 69 100 75 101 77 102 70 103
REMARK SMILES IDX 71 104 72 105 73 106 74 107
REMARK H PARENT 3 8 98 57 64 68
REMARK Flexibility Score: inf
ROOT
ATOM      1  O   UNL A   1      43.940  41.355  31.642  1.00  0.00    -0.461 OA
ENDROOT
BRANCH   1   2
ATOM      2  C   UNL A   1      43.969  41.326  33.025  1.00  0.00     0.328 C 
ATOM      3  O   UNL A   1      43.503  42.237  33.707  1.00  0.00    -0.250 OA
BRANCH   2   4
ATOM      4  C   UNL A   1      44.860  40.127  33.676  1.00  0.00     0.189 C 
ATOM      5  C   UNL A   1      46.154  40.009  34.502  1.00  0.00     0.043 C 
BRANCH   4   6
ATOM      6  N   UNL A   1      43.875  39.461  34.486  1.00  0.00    -0.343 N 
ATOM      7  C   UNL A   1      43.274  38.307  34.093  1.00  0.00     0.220 C 
ATOM      8  H   UNL A   1      43.627  39.854  35.354  1.00  0.00     0.164 HD
ATOM      9  O   UNL A   1      42.509  37.746  34.876  1.00  0.00    -0.275 OA
BRANCH   7  10
ATOM     10  C   UNL A   1      43.717  37.648  32.776  1.00  0.00     0.102 C 
BRANCH  10  11
ATOM     11  C   UNL A   1      43.622  36.059  32.437  1.00  0.00     0.032 C 
BRANCH  11  12
ATOM     12  C   UNL A   1      42.543  34.646  32.563  1.00  0.00     0.128 C 
BRANCH  12  13
ATOM     13  N   UNL A   1      40.925  34.131  32.419  1.00  0.00    -0.293 N 
ATOM     14  C   UNL A   1      40.382  32.939  31.224  1.00  0.00     0.266 C 
ATOM     15  C   UNL A   1      40.123  34.024  34.045  1.00  0.00     0.148 C 
ATOM     16  O   UNL A   1      40.743  32.693  30.098  1.00  0.00    -0.268 OA
ATOM     17  C   UNL A   1      39.362  31.480  32.051  1.00  0.00     0.081 C 
ATOM     18  S   UNL A   1      39.127  31.902  34.317  1.00  0.00    -0.054 SA
ATOM     19  S   UNL A   1      40.146  35.192  35.252  1.00  0.00    -0.052 S 
ATOM     20  C   UNL A   1      38.939  30.607  31.136  1.00  0.00     0.030 C 
BRANCH  20  21
ATOM     21  C   UNL A   1      38.760  30.956  29.521  1.00  0.00    -0.009 A 
ATOM     22  C   UNL A   1      37.471  31.516  28.903  1.00  0.00    -0.010 A 
ATOM     23  C   UNL A   1      39.249  29.752  29.004  1.00  0.00    -0.010 A 
ATOM     24  C   UNL A   1      37.067  32.885  28.469  1.00  0.00     0.009 A 
ATOM     25  C   UNL A   1      36.502  30.628  28.574  1.00  0.00    -0.017 A 
ATOM     26  C   UNL A   1      38.303  28.786  28.737  1.00  0.00    -0.017 A 
ATOM     27  C   UNL A   1      40.604  29.408  29.072  1.00  0.00     0.009 A 
ATOM     28  C   UNL A   1      35.799  33.396  28.039  1.00  0.00     0.001 A 
ATOM     29  C   UNL A   1      35.149  31.253  28.197  1.00  0.00     0.009 A 
ATOM     30  C   UNL A   1      36.971  29.231  28.670  1.00  0.00     0.017 A 
ATOM     31  C   UNL A   1      38.700  27.434  28.628  1.00  0.00     0.009 A 
ATOM     32  C   UNL A   1      41.001  28.082  28.945  1.00  0.00     0.001 A 
ATOM     33  C   UNL A   1      34.773  32.546  27.924  1.00  0.00     0.001 A 
ATOM     34  C   UNL A   1      40.048  27.088  28.741  1.00  0.00     0.001 A 
ENDBRANCH  20  21
ENDBRANCH  12  13
ENDBRANCH  11  12
ENDBRANCH  10  11
ENDBRANCH   7  10
ENDBRANCH   4   6
ENDBRANCH   2   4
ENDBRANCH   1   2
BRANCH   1  35
ATOM     35  C   UNL A   1      42.951  42.062  30.800  1.00  0.00     0.274 C 
BRANCH  35  36
ATOM     36  C   UNL A   1      41.997  41.030  30.137  1.00  0.00     0.275 C 
BRANCH  36  37
ATOM     37  O   UNL A   1      42.793  40.230  29.234  1.00  0.00    -0.458 OA
BRANCH  37  38
ATOM     38  C   UNL A   1      42.175  39.448  28.135  1.00  0.00     0.338 C 
ATOM     39  O   UNL A   1      41.394  40.303  27.610  1.00  0.00    -0.246 OA
BRANCH  38  40
ATOM     40  C   UNL A   1      42.587  37.366  27.697  1.00  0.00     0.060 A 
ATOM     41  C   UNL A   1      42.634  36.486  26.512  1.00  0.00     0.016 A 
ATOM     42  C   UNL A   1      43.279  36.257  28.694  1.00  0.00     0.016 A 
ATOM     43  C   UNL A   1      43.327  35.067  26.382  1.00  0.00     0.010 A 
ATOM     44  C   UNL A   1      43.957  34.973  28.574  1.00  0.00     0.010 A 
ATOM     45  C   UNL A   1      44.154  34.378  27.356  1.00  0.00    -0.014 A 
BRANCH  45  46
ATOM     46  C   UNL A   1      45.204  33.040  27.364  1.00  0.00     0.031 A 
ATOM     47  C   UNL A   1      46.586  33.509  27.071  1.00  0.00     0.074 A 
ATOM     48  C   UNL A   1      45.078  31.614  27.493  1.00  0.00     0.049 A 
ATOM     49  N   UNL A   1      47.659  32.791  26.963  1.00  0.00    -0.248 NA
ATOM     50  C   UNL A   1      46.808  34.965  27.031  1.00  0.00     0.031 C 
ATOM     51  C   UNL A   1      44.056  30.758  28.183  1.00  0.00     0.029 A 
ATOM     52  N   UNL A   1      45.707  30.537  26.824  1.00  0.00    -0.354 N 
ATOM     53  C   UNL A   1      48.691  33.701  26.914  1.00  0.00     0.074 A 
ATOM     54  C   UNL A   1      48.122  35.026  26.938  1.00  0.00     0.031 C 
ATOM     55  C   UNL A   1      43.820  29.583  27.612  1.00  0.00     0.029 A 
ATOM     56  C   UNL A   1      44.960  29.323  26.808  1.00  0.00     0.049 A 
ATOM     57  H   UNL A   1      46.593  30.620  26.402  1.00  0.00     0.167 HD
ATOM     58  C   UNL A   1      50.004  33.416  26.877  1.00  0.00     0.037 A 
ATOM     59  C   UNL A   1      45.161  28.023  26.477  1.00  0.00     0.037 A 
ATOM     60  C   UNL A   1      50.477  32.068  26.731  1.00  0.00     0.049 A 
ATOM     61  C   UNL A   1      46.602  27.734  26.370  1.00  0.00     0.074 A 
ATOM     62  C   UNL A   1      51.770  31.639  26.530  1.00  0.00     0.029 A 
ATOM     63  N   UNL A   1      49.662  30.930  26.713  1.00  0.00    -0.354 N 
ATOM     64  N   UNL A   1      47.555  28.633  26.373  1.00  0.00    -0.248 NA
ATOM     65  C   UNL A   1      47.045  26.342  26.354  1.00  0.00     0.031 C 
ATOM     66  C   UNL A   1      51.724  30.269  26.267  1.00  0.00     0.029 A 
ATOM     67  C   UNL A   1      50.420  29.810  26.421  1.00  0.00     0.049 A 
ATOM     68  H   UNL A   1      48.691  30.927  26.882  1.00  0.00     0.167 HD
ATOM     69  C   UNL A   1      48.725  27.935  26.379  1.00  0.00     0.074 A 
ATOM     70  C   UNL A   1      48.362  26.519  26.395  1.00  0.00     0.031 C 
ATOM     71  C   UNL A   1      49.979  28.434  26.360  1.00  0.00     0.037 A 
BRANCH  58  72
ATOM     72  C   UNL A   1      50.911  34.605  26.810  1.00  0.00     0.058 A 
ATOM     73  C   UNL A   1      51.335  35.298  27.960  1.00  0.00     0.135 A 
ATOM     74  C   UNL A   1      51.207  35.164  25.560  1.00  0.00     0.135 A 
ATOM     75  F   UNL A   1      51.009  34.850  29.184  1.00  0.00    -0.206 F 
ATOM     76  C   UNL A   1      51.990  36.523  27.867  1.00  0.00     0.059 A 
ATOM     77  C   UNL A   1      51.890  36.366  25.443  1.00  0.00     0.059 A 
ATOM     78  F   UNL A   1      50.776  34.570  24.437  1.00  0.00    -0.206 F 
ATOM     79  C   UNL A   1      52.263  37.047  26.601  1.00  0.00     0.060 A 
BRANCH  79  80
ATOM     80  S   UNL A   1      53.103  38.639  26.487  1.00  0.00     0.124 S 
ATOM     81  O   UNL A   1      52.208  39.500  27.251  1.00  0.00    -0.237 OA
ATOM     82  O   UNL A   1      54.391  38.349  27.110  1.00  0.00    -0.237 OA
ATOM     83  O   UNL A   1      53.148  38.895  25.051  1.00  0.00    -0.744 OA
ENDBRANCH  79  80
ENDBRANCH  58  72
BRANCH  59  84
ATOM     84  C   UNL A   1      44.062  26.972  26.598  1.00  0.00     0.058 A 
ATOM     85  C   UNL A   1      43.193  26.598  25.549  1.00  0.00     0.135 A 
ATOM     86  C   UNL A   1      43.991  26.174  27.758  1.00  0.00     0.135 A 
ATOM     87  F   UNL A   1      43.225  27.262  24.385  1.00  0.00    -0.206 F 
ATOM     88  C   UNL A   1      42.306  25.508  25.652  1.00  0.00     0.059 A 
ATOM     89  C   UNL A   1      43.126  25.076  27.880  1.00  0.00     0.059 A 
ATOM     90  F   UNL A   1      44.808  26.436  28.791  1.00  0.00    -0.206 F 
ATOM     91  C   UNL A   1      42.277  24.752  26.825  1.00  0.00     0.060 A 
BRANCH  91  92
ATOM     92  S   UNL A   1      41.144  23.336  26.953  1.00  0.00     0.124 S 
ATOM     93  O   UNL A   1      41.559  22.516  25.820  1.00  0.00    -0.237 OA
ATOM     94  O   UNL A   1      41.460  22.799  28.274  1.00  0.00    -0.237 OA
ATOM     95  O   UNL A   1      39.822  23.943  26.831  1.00  0.00    -0.744 OA
ENDBRANCH  91  92
ENDBRANCH  59  84
BRANCH  71  96
ATOM     96  C   UNL A   1      51.028  27.401  26.215  1.00  0.00     0.058 A 
ATOM     97  C   UNL A   1      51.431  26.976  24.941  1.00  0.00     0.135 A 
ATOM     98  C   UNL A   1      51.668  26.893  27.349  1.00  0.00     0.135 A 
ATOM     99  F   UNL A   1      50.813  27.436  23.840  1.00  0.00    -0.206 F 
ATOM    100  C   UNL A   1      52.446  26.056  24.797  1.00  0.00     0.059 A 
ATOM    101  C   UNL A   1      52.718  26.007  27.224  1.00  0.00     0.059 A 
ATOM    102  F   UNL A   1      51.291  27.287  28.577  1.00  0.00    -0.206 F 
ATOM    103  C   UNL A   1      53.093  25.593  25.945  1.00  0.00     0.060 A 
BRANCH 103 104
ATOM    104  S   UNL A   1      54.475  24.469  25.730  1.00  0.00     0.124 S 
ATOM    105  O   UNL A   1      55.041  24.447  27.074  1.00  0.00    -0.237 OA
ATOM    106  O   UNL A   1      53.807  23.245  25.298  1.00  0.00    -0.237 OA
ATOM    107  O   UNL A   1      55.289  25.127  24.713  1.00  0.00    -0.744 OA
ENDBRANCH 103 104
ENDBRANCH  71  96
ENDBRANCH  45  46
ENDBRANCH  38  40
ENDBRANCH  37  38
ENDBRANCH  36  37
ENDBRANCH  35  36
ENDBRANCH   1  35
TORSDOF 20
ENDMDL
MODEL 3
REMARK VINA RESULT:     -10.0      6.278     12.558
REMARK SMILES C[C@@H](NC(=O)CCCN1C(=O)/C(=C\c2c3ccccc3cc3ccccc23)SC1=S)C(=O)OCCOC(=O)c1ccc(-c2c3nc(c(-c4c(F)cc(S(=O)(=O)[O-])cc4F)c4ccc([nH]4)c(-c4c(F)cc(S(=O)(=O)[O-])cc4F)c4nc(c(-c5c(F)cc(S(=O)(=O)[O-])cc5F)c5ccc2[nH]5)C=C4)C=C3)cc1
REMARK SMILES IDX 33 1 31 2 32 3 2 4 1 5 3 6 4 7 5 9 6 10 7 11 8 12 9 13 10 14
REMARK SMILES IDX 29 15 11 16 12 17 28 18 30 19 13 20 14 21 15 22 27 23 16 24
REMARK SMILES IDX 20 25 22 26 26 27 17 28 19 29 21 30 23 31 25 32 18 33 24 34
REMARK SMILES IDX 34 35 35 36 36 37 37 38 38 39 39 40 40 41 104 42 41 43
REMARK SMILES IDX 103 44 42 45 43 46 44 47 97 48 45 49 102 50 96 51 98 52
REMARK SMILES IDX 46 53 101 54 95 55 94 56 47 58 81 59 60 60 80 61 61 62 64 63
REMARK SMILES IDX 79 64 99 65 62 66 63 67 78 69 100 70 65 71 48 72 49 73 58 74
REMARK SMILES IDX 50 75 51 76 57 77 59 78 52 79 53 80 54 81 55 82 56 83 82 84
REMARK SMILES IDX 83 85 92 86 84 87 85 88 91 89 93 90 86 91 87 92 88 93 89 94
REMARK SMILES IDX 90 95 66 96 67 97 76 98 68 99 69 100 75 101 77 102 70 103
REMARK SMILES IDX 71 104 72 105 73 106 74 107
REMARK H PARENT 3 8 98 57 64 68
REMARK Flexibility Score: inf
ROOT
ATOM      1  O   UNL A   1      51.385  23.969  34.842  1.00  0.00    -0.461 OA
ENDROOT
BRANCH   1   2
ATOM      2  C   UNL A   1      51.965  22.728  35.043  1.00  0.00     0.328 C 
ATOM      3  O   UNL A   1      51.649  21.744  34.376  1.00  0.00    -0.250 OA
BRANCH   2   4
ATOM      4  C   UNL A   1      52.913  22.610  36.362  1.00  0.00     0.189 C 
ATOM      5  C   UNL A   1      54.367  22.949  36.737  1.00  0.00     0.043 C 
BRANCH   4   6
ATOM      6  N   UNL A   1      52.132  23.339  37.327  1.00  0.00    -0.343 N 
ATOM      7  C   UNL A   1      51.314  22.717  38.217  1.00  0.00     0.220 C 
ATOM      8  H   UNL A   1      52.192  24.322  37.344  1.00  0.00     0.164 HD
ATOM      9  O   UNL A   1      50.747  23.397  39.070  1.00  0.00    -0.275 OA
BRANCH   7  10
ATOM     10  C   UNL A   1      51.280  21.180  38.247  1.00  0.00     0.102 C 
BRANCH  10  11
ATOM     11  C   UNL A   1      50.012  20.273  38.718  1.00  0.00     0.032 C 
BRANCH  11  12
ATOM     12  C   UNL A   1      48.238  20.300  38.888  1.00  0.00     0.128 C 
BRANCH  12  13
ATOM     13  N   UNL A   1      46.784  20.704  38.097  1.00  0.00    -0.293 N 
ATOM     14  C   UNL A   1      46.600  22.128  37.056  1.00  0.00     0.266 C 
ATOM     15  C   UNL A   1      45.905  19.214  37.540  1.00  0.00     0.148 C 
ATOM     16  O   UNL A   1      47.089  23.232  37.095  1.00  0.00    -0.268 OA
ATOM     17  C   UNL A   1      45.860  21.664  35.299  1.00  0.00     0.081 C 
ATOM     18  S   UNL A   1      45.373  19.400  35.248  1.00  0.00    -0.054 SA
ATOM     19  S   UNL A   1      45.587  17.840  38.451  1.00  0.00    -0.052 S 
ATOM     20  C   UNL A   1      45.703  22.750  34.540  1.00  0.00     0.030 C 
BRANCH  20  21
ATOM     21  C   UNL A   1      45.573  24.297  35.132  1.00  0.00    -0.009 A 
ATOM     22  C   UNL A   1      44.258  24.921  35.615  1.00  0.00    -0.010 A 
ATOM     23  C   UNL A   1      46.261  24.958  34.109  1.00  0.00    -0.010 A 
ATOM     24  C   UNL A   1      43.688  25.163  36.972  1.00  0.00     0.009 A 
ATOM     25  C   UNL A   1      43.448  25.469  34.676  1.00  0.00    -0.017 A 
ATOM     26  C   UNL A   1      45.482  25.454  33.086  1.00  0.00    -0.017 A 
ATOM     27  C   UNL A   1      47.645  24.833  33.940  1.00  0.00     0.009 A 
ATOM     28  C   UNL A   1      42.387  25.609  37.377  1.00  0.00     0.001 A 
ATOM     29  C   UNL A   1      42.044  25.852  35.172  1.00  0.00     0.009 A 
ATOM     30  C   UNL A   1      44.107  25.560  33.357  1.00  0.00     0.017 A 
ATOM     31  C   UNL A   1      46.076  25.746  31.837  1.00  0.00     0.009 A 
ATOM     32  C   UNL A   1      48.236  25.137  32.720  1.00  0.00     0.001 A 
ATOM     33  C   UNL A   1      41.503  25.945  36.431  1.00  0.00     0.001 A 
ATOM     34  C   UNL A   1      47.450  25.577  31.659  1.00  0.00     0.001 A 
ENDBRANCH  20  21
ENDBRANCH  12  13
ENDBRANCH  11  12
ENDBRANCH  10  11
ENDBRANCH   7  10
ENDBRANCH   4   6
ENDBRANCH   2   4
ENDBRANCH   1   2
BRANCH   1  35
ATOM     35  C   UNL A   1      51.971  25.099  34.090  1.00  0.00     0.274 C 
BRANCH  35  36
ATOM     36  C   UNL A   1      51.149  26.389  34.364  1.00  0.00     0.275 C 
BRANCH  36  37
ATOM     37  O   UNL A   1      50.855  26.417  35.779  1.00  0.00    -0.458 OA
BRANCH  37  38
ATOM     38  C   UNL A   1      49.461  26.396  36.285  1.00  0.00     0.338 C 
ATOM     39  O   UNL A   1      49.410  25.267  36.868  1.00  0.00    -0.246 OA
BRANCH  38  40
ATOM     40  C   UNL A   1      47.998  27.966  35.985  1.00  0.00     0.060 A 
ATOM     41  C   UNL A   1      47.897  29.239  35.244  1.00  0.00     0.016 A 
ATOM     42  C   UNL A   1      46.399  27.921  36.360  1.00  0.00     0.016 A 
ATOM     43  C   UNL A   1      46.584  30.045  34.870  1.00  0.00     0.010 A 
ATOM     44  C   UNL A   1      45.182  28.630  35.984  1.00  0.00     0.010 A 
ATOM     45  C   UNL A   1      45.201  29.654  35.074  1.00  0.00    -0.014 A 
BRANCH  45  46
ATOM     46  C   UNL A   1      43.674  30.176  34.537  1.00  0.00     0.031 A 
ATOM     47  C   UNL A   1      43.509  29.794  33.109  1.00  0.00     0.074 A 
ATOM     48  C   UNL A   1      42.582  30.940  35.076  1.00  0.00     0.049 A 
ATOM     49  N   UNL A   1      42.497  30.037  32.336  1.00  0.00    -0.248 NA
ATOM     50  C   UNL A   1      44.540  28.920  32.522  1.00  0.00     0.031 C 
ATOM     51  C   UNL A   1      42.109  31.154  36.484  1.00  0.00     0.029 A 
ATOM     52  N   UNL A   1      41.748  31.936  34.515  1.00  0.00    -0.354 N 
ATOM     53  C   UNL A   1      42.731  29.294  31.202  1.00  0.00     0.074 A 
ATOM     54  C   UNL A   1      44.007  28.637  31.349  1.00  0.00     0.031 C 
ATOM     55  C   UNL A   1      41.565  32.340  36.727  1.00  0.00     0.029 A 
ATOM     56  C   UNL A   1      41.175  32.839  35.457  1.00  0.00     0.049 A 
ATOM     57  H   UNL A   1      41.576  31.999  33.547  1.00  0.00     0.167 HD
ATOM     58  C   UNL A   1      41.908  29.171  30.146  1.00  0.00     0.037 A 
ATOM     59  C   UNL A   1      40.224  33.807  35.472  1.00  0.00     0.037 A 
ATOM     60  C   UNL A   1      40.712  29.958  30.028  1.00  0.00     0.049 A 
ATOM     61  C   UNL A   1      39.368  33.710  34.277  1.00  0.00     0.074 A 
ATOM     62  C   UNL A   1      39.859  30.051  28.952  1.00  0.00     0.029 A 
ATOM     63  N   UNL A   1      40.231  30.835  31.008  1.00  0.00    -0.354 N 
ATOM     64  N   UNL A   1      39.608  32.951  33.236  1.00  0.00    -0.248 NA
ATOM     65  C   UNL A   1      38.097  34.428  34.257  1.00  0.00     0.031 C 
ATOM     66  C   UNL A   1      38.942  31.067  29.227  1.00  0.00     0.029 A 
ATOM     67  C   UNL A   1      39.138  31.531  30.523  1.00  0.00     0.049 A 
ATOM     68  H   UNL A   1      40.613  30.940  31.910  1.00  0.00     0.167 HD
ATOM     69  C   UNL A   1      38.516  33.071  32.429  1.00  0.00     0.074 A 
ATOM     70  C   UNL A   1      37.594  33.974  33.113  1.00  0.00     0.031 C 
ATOM     71  C   UNL A   1      38.316  32.491  31.227  1.00  0.00     0.037 A 
BRANCH  58  72
ATOM     72  C   UNL A   1      42.422  28.307  29.036  1.00  0.00     0.058 A 
ATOM     73  C   UNL A   1      42.078  26.948  28.913  1.00  0.00     0.135 A 
ATOM     74  C   UNL A   1      43.420  28.811  28.191  1.00  0.00     0.135 A 
ATOM     75  F   UNL A   1      41.185  26.394  29.752  1.00  0.00    -0.206 F 
ATOM     76  C   UNL A   1      42.735  26.112  28.015  1.00  0.00     0.059 A 
ATOM     77  C   UNL A   1      44.064  28.004  27.263  1.00  0.00     0.059 A 
ATOM     78  F   UNL A   1      43.823  30.085  28.307  1.00  0.00    -0.206 F 
ATOM     79  C   UNL A   1      43.727  26.653  27.193  1.00  0.00     0.060 A 
BRANCH  79  80
ATOM     80  S   UNL A   1      44.581  25.564  26.037  1.00  0.00     0.124 S 
ATOM     81  O   UNL A   1      45.619  26.446  25.514  1.00  0.00    -0.237 OA
ATOM     82  O   UNL A   1      45.042  24.491  26.912  1.00  0.00    -0.237 OA
ATOM     83  O   UNL A   1      43.537  25.192  25.088  1.00  0.00    -0.744 OA
ENDBRANCH  79  80
ENDBRANCH  58  72
BRANCH  59  84
ATOM     84  C   UNL A   1      39.883  34.594  36.734  1.00  0.00     0.058 A 
ATOM     85  C   UNL A   1      39.004  34.146  37.744  1.00  0.00     0.135 A 
ATOM     86  C   UNL A   1      40.606  35.767  37.035  1.00  0.00     0.135 A 
ATOM     87  F   UNL A   1      38.312  33.010  37.573  1.00  0.00    -0.206 F 
ATOM     88  C   UNL A   1      38.846  34.825  38.968  1.00  0.00     0.059 A 
ATOM     89  C   UNL A   1      40.478  36.454  38.252  1.00  0.00     0.059 A 
ATOM     90  F   UNL A   1      41.493  36.244  36.146  1.00  0.00    -0.206 F 
ATOM     91  C   UNL A   1      39.587  35.983  39.214  1.00  0.00     0.060 A 
BRANCH  91  92
ATOM     92  S   UNL A   1      39.398  36.852  40.799  1.00  0.00     0.124 S 
ATOM     93  O   UNL A   1      40.780  36.941  41.259  1.00  0.00    -0.237 OA
ATOM     94  O   UNL A   1      38.780  38.112  40.396  1.00  0.00    -0.237 OA
ATOM     95  O   UNL A   1      38.540  35.962  41.576  1.00  0.00    -0.744 OA
ENDBRANCH  91  92
ENDBRANCH  59  84
BRANCH  71  96
ATOM     96  C   UNL A   1      37.090  32.952  30.540  1.00  0.00     0.058 A 
ATOM     97  C   UNL A   1      35.836  32.449  30.919  1.00  0.00     0.135 A 
ATOM     98  C   UNL A   1      37.172  33.941  29.556  1.00  0.00     0.135 A 
ATOM     99  F   UNL A   1      35.739  31.483  31.846  1.00  0.00    -0.206 F 
ATOM    100  C   UNL A   1      34.685  32.915  30.322  1.00  0.00     0.059 A 
ATOM    101  C   UNL A   1      36.027  34.454  28.981  1.00  0.00     0.059 A 
ATOM    102  F   UNL A   1      38.365  34.429  29.179  1.00  0.00    -0.206 F 
ATOM    103  C   UNL A   1      34.793  33.930  29.368  1.00  0.00     0.060 A 
BRANCH 103 104
ATOM    104  S   UNL A   1      33.275  34.589  28.673  1.00  0.00     0.124 S 
ATOM    105  O   UNL A   1      33.760  35.796  28.013  1.00  0.00    -0.237 OA
ATOM    106  O   UNL A   1      32.850  33.506  27.792  1.00  0.00    -0.237 OA
ATOM    107  O   UNL A   1      32.435  34.806  29.847  1.00  0.00    -0.744 OA
ENDBRANCH 103 104
ENDBRANCH  71  96
ENDBRANCH  45  46
ENDBRANCH  38  40
ENDBRANCH  37  38
ENDBRANCH  36  37
ENDBRANCH  35  36
ENDBRANCH   1  35
TORSDOF 20
ENDMDL
