MODEL 1
REMARK VINA RESULT:     -10.3      0.000      0.000
REMARK SMILES C[C@](NC(=O)c1ccc(Br)o1)(C(=O)OCCOC(=O)c1ccc(-c2c3nc(c(-c4c(F)cc(S(=O)(=O)[O-])cc4F)c4ccc([nH]4)c(-c4c(F)cc(S(=O)(=O)[O-])cc4F)c4nc(c(-c5c(F)cc(S(=O)(=O)[O-])cc5F)c5ccc2[nH]5)C=C4)C=C3)cc1)C(F)(F)F
REMARK SMILES IDX 16 1 15 2 14 3 12 4 13 5 2 6 1 7 86 8 87 9 88 10 89 11 3 12
REMARK SMILES IDX 4 13 5 15 6 16 7 17 11 18 8 19 9 20 10 21 17 22 18 23 19 24
REMARK SMILES IDX 20 25 21 26 85 27 22 28 84 29 23 30 24 31 25 32 78 33 26 34
REMARK SMILES IDX 83 35 77 36 79 37 27 38 82 39 76 40 75 41 28 43 62 44 41 45
REMARK SMILES IDX 61 46 42 47 45 48 60 49 80 50 43 51 44 52 59 54 81 55 46 56
REMARK SMILES IDX 29 57 30 58 39 59 31 60 32 61 38 62 40 63 33 64 34 65 35 66
REMARK SMILES IDX 36 67 37 68 63 69 64 70 73 71 65 72 66 73 72 74 74 75 67 76
REMARK SMILES IDX 68 77 69 78 70 79 71 80 47 81 48 82 57 83 49 84 50 85 56 86
REMARK SMILES IDX 58 87 51 88 52 89 53 90 54 91 55 92
REMARK H PARENT 3 14 79 42 45 53
REMARK Flexibility Score: inf
ROOT
ATOM      1  C   UNL A   1      33.862  33.067  28.196  1.00  0.00     0.275 C 
ENDROOT
BRANCH   1   2
ATOM      2  C   UNL A   1      33.617  34.237  29.142  1.00  0.00     0.274 C 
BRANCH   2   3
ATOM      3  O   UNL A   1      34.781  34.528  29.948  1.00  0.00    -0.460 OA
BRANCH   3   4
ATOM      4  C   UNL A   1      34.589  34.458  31.300  1.00  0.00     0.341 C 
ATOM      5  O   UNL A   1      33.516  34.699  31.841  1.00  0.00    -0.249 OA
BRANCH   4   6
ATOM      6  C   UNL A   1      35.879  34.142  32.072  1.00  0.00     0.231 C 
ATOM      7  C   UNL A   1      35.696  34.760  33.465  1.00  0.00     0.058 C 
BRANCH   6   8
ATOM      8  C   UNL A   1      35.912  32.608  32.142  1.00  0.00     0.422 C 
ATOM      9  F   UNL A   1      36.843  32.114  31.294  1.00  0.00    -0.168 F 
ATOM     10  F   UNL A   1      36.257  32.176  33.378  1.00  0.00    -0.168 F 
ATOM     11  F   UNL A   1      34.730  32.030  31.854  1.00  0.00    -0.168 F 
ENDBRANCH   6   8
BRANCH   6  12
ATOM     12  N   UNL A   1      37.070  34.688  31.343  1.00  0.00    -0.326 N 
ATOM     13  C   UNL A   1      38.416  34.550  31.580  1.00  0.00     0.288 C 
ATOM     14  H   UNL A   1      36.849  35.240  30.559  1.00  0.00     0.165 HD
ATOM     15  O   UNL A   1      39.190  34.835  30.669  1.00  0.00    -0.266 OA
BRANCH  13  16
ATOM     16  C   UNL A   1      38.860  34.148  32.890  1.00  0.00     0.192 A 
ATOM     17  C   UNL A   1      39.330  32.953  33.399  1.00  0.00     0.057 A 
ATOM     18  O   UNL A   1      38.865  35.098  33.876  1.00  0.00    -0.444 OA
ATOM     19  C   UNL A   1      39.592  33.173  34.775  1.00  0.00     0.059 A 
ATOM     20  C   UNL A   1      39.320  34.501  35.008  1.00  0.00     0.170 A 
ATOM     21  Br  UNL A   1      39.527  35.374  36.643  1.00  0.00    -0.008 Br
ENDBRANCH  13  16
ENDBRANCH   6  12
ENDBRANCH   4   6
ENDBRANCH   3   4
ENDBRANCH   2   3
ENDBRANCH   1   2
BRANCH   1  22
ATOM     22  O   UNL A   1      34.437  31.967  28.919  1.00  0.00    -0.458 OA
BRANCH  22  23
ATOM     23  C   UNL A   1      34.418  30.775  28.275  1.00  0.00     0.338 C 
ATOM     24  O   UNL A   1      33.478  30.285  27.673  1.00  0.00    -0.246 OA
BRANCH  23  25
ATOM     25  C   UNL A   1      35.737  30.120  28.372  1.00  0.00     0.060 A 
ATOM     26  C   UNL A   1      36.172  29.593  29.585  1.00  0.00     0.016 A 
ATOM     27  C   UNL A   1      36.607  30.167  27.284  1.00  0.00     0.016 A 
ATOM     28  C   UNL A   1      37.512  29.253  29.756  1.00  0.00     0.010 A 
ATOM     29  C   UNL A   1      37.918  29.697  27.424  1.00  0.00     0.010 A 
ATOM     30  C   UNL A   1      38.407  29.283  28.677  1.00  0.00    -0.014 A 
BRANCH  30  31
ATOM     31  C   UNL A   1      39.850  28.936  28.857  1.00  0.00     0.031 A 
ATOM     32  C   UNL A   1      40.816  29.963  29.401  1.00  0.00     0.074 A 
ATOM     33  C   UNL A   1      40.315  27.709  28.542  1.00  0.00     0.049 A 
ATOM     34  N   UNL A   1      42.125  29.955  29.393  1.00  0.00    -0.248 NA
ATOM     35  C   UNL A   1      40.231  31.167  30.015  1.00  0.00     0.031 C 
ATOM     36  C   UNL A   1      39.507  26.590  28.050  1.00  0.00     0.029 A 
ATOM     37  N   UNL A   1      41.588  27.193  28.594  1.00  0.00    -0.354 N 
ATOM     38  C   UNL A   1      42.518  31.183  29.918  1.00  0.00     0.074 A 
ATOM     39  C   UNL A   1      41.308  31.904  30.251  1.00  0.00     0.031 C 
ATOM     40  C   UNL A   1      40.289  25.512  27.897  1.00  0.00     0.029 A 
ATOM     41  C   UNL A   1      41.672  25.886  28.171  1.00  0.00     0.049 A 
ATOM     42  H   UNL A   1      42.366  27.710  28.904  1.00  0.00     0.167 HD
ATOM     43  C   UNL A   1      43.771  31.665  30.096  1.00  0.00     0.037 A 
ATOM     44  C   UNL A   1      42.737  25.088  27.970  1.00  0.00     0.037 A 
ATOM     45  C   UNL A   1      44.973  30.910  29.848  1.00  0.00     0.049 A 
ATOM     46  C   UNL A   1      44.119  25.635  28.187  1.00  0.00     0.074 A 
ATOM     47  C   UNL A   1      46.290  31.306  30.012  1.00  0.00     0.029 A 
ATOM     48  N   UNL A   1      45.005  29.594  29.413  1.00  0.00    -0.354 N 
ATOM     49  N   UNL A   1      44.475  26.831  28.585  1.00  0.00    -0.248 NA
ATOM     50  C   UNL A   1      45.243  24.734  27.897  1.00  0.00     0.031 C 
ATOM     51  C   UNL A   1      47.118  30.234  29.658  1.00  0.00     0.029 A 
ATOM     52  C   UNL A   1      46.316  29.162  29.303  1.00  0.00     0.049 A 
ATOM     53  H   UNL A   1      44.211  29.047  29.211  1.00  0.00     0.167 HD
ATOM     54  C   UNL A   1      45.865  26.831  28.589  1.00  0.00     0.074 A 
ATOM     55  C   UNL A   1      46.284  25.507  28.178  1.00  0.00     0.031 C 
ATOM     56  C   UNL A   1      46.716  27.841  28.892  1.00  0.00     0.037 A 
BRANCH  43  57
ATOM     57  C   UNL A   1      43.914  33.094  30.547  1.00  0.00     0.058 A 
ATOM     58  C   UNL A   1      43.995  34.161  29.641  1.00  0.00     0.135 A 
ATOM     59  C   UNL A   1      43.936  33.395  31.920  1.00  0.00     0.135 A 
ATOM     60  F   UNL A   1      43.994  33.929  28.320  1.00  0.00    -0.206 F 
ATOM     61  C   UNL A   1      44.117  35.477  30.080  1.00  0.00     0.059 A 
ATOM     62  C   UNL A   1      44.035  34.704  32.380  1.00  0.00     0.059 A 
ATOM     63  F   UNL A   1      43.860  32.410  32.829  1.00  0.00    -0.206 F 
ATOM     64  C   UNL A   1      44.142  35.738  31.452  1.00  0.00     0.060 A 
BRANCH  64  65
ATOM     65  S   UNL A   1      44.301  37.448  32.012  1.00  0.00     0.124 S 
ATOM     66  O   UNL A   1      43.451  37.446  33.199  1.00  0.00    -0.237 OA
ATOM     67  O   UNL A   1      45.734  37.568  32.259  1.00  0.00    -0.237 OA
ATOM     68  O   UNL A   1      43.798  38.222  30.881  1.00  0.00    -0.744 OA
ENDBRANCH  64  65
ENDBRANCH  43  57
BRANCH  44  69
ATOM     69  C   UNL A   1      42.534  23.700  27.480  1.00  0.00     0.058 A 
ATOM     70  C   UNL A   1      42.580  23.403  26.111  1.00  0.00     0.135 A 
ATOM     71  C   UNL A   1      42.334  22.636  28.375  1.00  0.00     0.135 A 
ATOM     72  F   UNL A   1      42.755  24.387  25.216  1.00  0.00    -0.206 F 
ATOM     73  C   UNL A   1      42.442  22.099  25.644  1.00  0.00     0.059 A 
ATOM     74  C   UNL A   1      42.219  21.323  27.935  1.00  0.00     0.059 A 
ATOM     75  F   UNL A   1      42.294  22.868  29.697  1.00  0.00    -0.206 F 
ATOM     76  C   UNL A   1      42.270  21.064  26.566  1.00  0.00     0.060 A 
BRANCH  76  77
ATOM     77  S   UNL A   1      42.179  19.363  25.965  1.00  0.00     0.124 S 
ATOM     78  O   UNL A   1      42.710  18.622  27.103  1.00  0.00    -0.237 OA
ATOM     79  O   UNL A   1      40.752  19.200  25.705  1.00  0.00    -0.237 OA
ATOM     80  O   UNL A   1      43.023  19.387  24.775  1.00  0.00    -0.744 OA
ENDBRANCH  76  77
ENDBRANCH  44  69
BRANCH  56  81
ATOM     81  C   UNL A   1      48.184  27.545  28.808  1.00  0.00     0.058 A 
ATOM     82  C   UNL A   1      48.923  27.839  27.651  1.00  0.00     0.135 A 
ATOM     83  C   UNL A   1      48.866  26.996  29.905  1.00  0.00     0.135 A 
ATOM     84  F   UNL A   1      48.313  28.356  26.573  1.00  0.00    -0.206 F 
ATOM     85  C   UNL A   1      50.288  27.579  27.578  1.00  0.00     0.059 A 
ATOM     86  C   UNL A   1      50.234  26.746  29.860  1.00  0.00     0.059 A 
ATOM     87  F   UNL A   1      48.203  26.705  31.036  1.00  0.00    -0.206 F 
ATOM     88  C   UNL A   1      50.934  27.029  28.687  1.00  0.00     0.060 A 
BRANCH  88  89
ATOM     89  S   UNL A   1      52.710  26.719  28.593  1.00  0.00     0.124 S 
ATOM     90  O   UNL A   1      53.220  28.042  28.251  1.00  0.00    -0.237 OA
ATOM     91  O   UNL A   1      53.021  26.248  29.939  1.00  0.00    -0.237 OA
ATOM     92  O   UNL A   1      52.821  25.710  27.543  1.00  0.00    -0.744 OA
ENDBRANCH  88  89
ENDBRANCH  56  81
ENDBRANCH  30  31
ENDBRANCH  23  25
ENDBRANCH  22  23
ENDBRANCH   1  22
TORSDOF 17
ENDMDL
MODEL 2
REMARK VINA RESULT:     -10.0      4.091      6.213
REMARK SMILES C[C@](NC(=O)c1ccc(Br)o1)(C(=O)OCCOC(=O)c1ccc(-c2c3nc(c(-c4c(F)cc(S(=O)(=O)[O-])cc4F)c4ccc([nH]4)c(-c4c(F)cc(S(=O)(=O)[O-])cc4F)c4nc(c(-c5c(F)cc(S(=O)(=O)[O-])cc5F)c5ccc2[nH]5)C=C4)C=C3)cc1)C(F)(F)F
REMARK SMILES IDX 16 1 15 2 14 3 12 4 13 5 2 6 1 7 86 8 87 9 88 10 89 11 3 12
REMARK SMILES IDX 4 13 5 15 6 16 7 17 11 18 8 19 9 20 10 21 17 22 18 23 19 24
REMARK SMILES IDX 20 25 21 26 85 27 22 28 84 29 23 30 24 31 25 32 78 33 26 34
REMARK SMILES IDX 83 35 77 36 79 37 27 38 82 39 76 40 75 41 28 43 62 44 41 45
REMARK SMILES IDX 61 46 42 47 45 48 60 49 80 50 43 51 44 52 59 54 81 55 46 56
REMARK SMILES IDX 29 57 30 58 39 59 31 60 32 61 38 62 40 63 33 64 34 65 35 66
REMARK SMILES IDX 36 67 37 68 63 69 64 70 73 71 65 72 66 73 72 74 74 75 67 76
REMARK SMILES IDX 68 77 69 78 70 79 71 80 47 81 48 82 57 83 49 84 50 85 56 86
REMARK SMILES IDX 58 87 51 88 52 89 53 90 54 91 55 92
REMARK H PARENT 3 14 79 42 45 53
REMARK Flexibility Score: inf
ROOT
ATOM      1  C   UNL A   1      32.594  30.805  27.064  1.00  0.00     0.275 C 
ENDROOT
BRANCH   1   2
ATOM      2  C   UNL A   1      31.762  29.860  26.204  1.00  0.00     0.274 C 
BRANCH   2   3
ATOM      3  O   UNL A   1      32.576  28.830  25.598  1.00  0.00    -0.460 OA
BRANCH   3   4
ATOM      4  C   UNL A   1      32.107  28.335  24.412  1.00  0.00     0.341 C 
ATOM      5  O   UNL A   1      31.383  28.973  23.656  1.00  0.00    -0.249 OA
BRANCH   4   6
ATOM      6  C   UNL A   1      32.501  26.869  24.177  1.00  0.00     0.231 C 
ATOM      7  C   UNL A   1      33.622  26.571  25.181  1.00  0.00     0.058 C 
BRANCH   6   8
ATOM      8  C   UNL A   1      31.228  26.076  24.508  1.00  0.00     0.422 C 
ATOM      9  F   UNL A   1      31.537  24.932  25.160  1.00  0.00    -0.168 F 
ATOM     10  F   UNL A   1      30.411  26.774  25.332  1.00  0.00    -0.168 F 
ATOM     11  F   UNL A   1      30.494  25.759  23.424  1.00  0.00    -0.168 F 
ENDBRANCH   6   8
BRANCH   6  12
ATOM     12  N   UNL A   1      32.925  26.665  22.753  1.00  0.00    -0.326 N 
ATOM     13  C   UNL A   1      33.265  25.525  22.066  1.00  0.00     0.288 C 
ATOM     14  H   UNL A   1      32.966  27.490  22.218  1.00  0.00     0.165 HD
ATOM     15  O   UNL A   1      33.275  25.579  20.838  1.00  0.00    -0.266 OA
BRANCH  13  16
ATOM     16  C   UNL A   1      33.655  24.352  22.804  1.00  0.00     0.192 A 
ATOM     17  C   UNL A   1      34.800  24.017  23.502  1.00  0.00     0.057 A 
ATOM     18  O   UNL A   1      32.750  23.329  22.893  1.00  0.00    -0.444 OA
ATOM     19  C   UNL A   1      34.600  22.706  24.004  1.00  0.00     0.059 A 
ATOM     20  C   UNL A   1      33.327  22.344  23.630  1.00  0.00     0.170 A 
ATOM     21  Br  UNL A   1      32.497  20.728  24.052  1.00  0.00    -0.008 Br
ENDBRANCH  13  16
ENDBRANCH   6  12
ENDBRANCH   4   6
ENDBRANCH   3   4
ENDBRANCH   2   3
ENDBRANCH   1   2
BRANCH   1  22
ATOM     22  O   UNL A   1      33.686  30.088  27.662  1.00  0.00    -0.458 OA
BRANCH  22  23
ATOM     23  C   UNL A   1      34.556  30.842  28.375  1.00  0.00     0.338 C 
ATOM     24  O   UNL A   1      34.322  31.908  28.919  1.00  0.00    -0.246 OA
BRANCH  23  25
ATOM     25  C   UNL A   1      35.873  30.181  28.441  1.00  0.00     0.060 A 
ATOM     26  C   UNL A   1      36.357  29.700  29.654  1.00  0.00     0.016 A 
ATOM     27  C   UNL A   1      36.696  30.179  27.316  1.00  0.00     0.016 A 
ATOM     28  C   UNL A   1      37.702  29.357  29.782  1.00  0.00     0.010 A 
ATOM     29  C   UNL A   1      38.009  29.705  27.418  1.00  0.00     0.010 A 
ATOM     30  C   UNL A   1      38.550  29.338  28.664  1.00  0.00    -0.014 A 
BRANCH  30  31
ATOM     31  C   UNL A   1      39.997  28.987  28.796  1.00  0.00     0.031 A 
ATOM     32  C   UNL A   1      40.988  30.022  29.272  1.00  0.00     0.074 A 
ATOM     33  C   UNL A   1      40.443  27.749  28.496  1.00  0.00     0.049 A 
ATOM     34  N   UNL A   1      42.296  30.006  29.212  1.00  0.00    -0.248 NA
ATOM     35  C   UNL A   1      40.434  31.245  29.876  1.00  0.00     0.031 C 
ATOM     36  C   UNL A   1      39.610  26.622  28.068  1.00  0.00     0.029 A 
ATOM     37  N   UNL A   1      41.714  27.227  28.511  1.00  0.00    -0.354 N 
ATOM     38  C   UNL A   1      42.716  31.245  29.687  1.00  0.00     0.074 A 
ATOM     39  C   UNL A   1      41.524  31.983  30.048  1.00  0.00     0.031 C 
ATOM     40  C   UNL A   1      40.380  25.536  27.913  1.00  0.00     0.029 A 
ATOM     41  C   UNL A   1      41.774  25.908  28.122  1.00  0.00     0.049 A 
ATOM     42  H   UNL A   1      42.507  27.747  28.775  1.00  0.00     0.167 HD
ATOM     43  C   UNL A   1      43.978  31.725  29.801  1.00  0.00     0.037 A 
ATOM     44  C   UNL A   1      42.827  25.099  27.900  1.00  0.00     0.037 A 
ATOM     45  C   UNL A   1      45.165  30.956  29.526  1.00  0.00     0.049 A 
ATOM     46  C   UNL A   1      44.219  25.643  28.047  1.00  0.00     0.074 A 
ATOM     47  C   UNL A   1      46.489  31.348  29.627  1.00  0.00     0.029 A 
ATOM     48  N   UNL A   1      45.173  29.628  29.127  1.00  0.00    -0.354 N 
ATOM     49  N   UNL A   1      44.596  26.848  28.397  1.00  0.00    -0.248 NA
ATOM     50  C   UNL A   1      45.325  24.728  27.736  1.00  0.00     0.031 C 
ATOM     51  C   UNL A   1      47.297  30.262  29.269  1.00  0.00     0.029 A 
ATOM     52  C   UNL A   1      46.476  29.186  28.976  1.00  0.00     0.049 A 
ATOM     53  H   UNL A   1      44.369  29.081  28.972  1.00  0.00     0.167 HD
ATOM     54  C   UNL A   1      45.985  26.839  28.345  1.00  0.00     0.074 A 
ATOM     55  C   UNL A   1      46.381  25.501  27.954  1.00  0.00     0.031 C 
ATOM     56  C   UNL A   1      46.853  27.852  28.586  1.00  0.00     0.037 A 
BRANCH  43  57
ATOM     57  C   UNL A   1      44.146  33.164  30.207  1.00  0.00     0.058 A 
ATOM     58  C   UNL A   1      44.271  33.555  31.547  1.00  0.00     0.135 A 
ATOM     59  C   UNL A   1      44.217  34.165  29.222  1.00  0.00     0.135 A 
ATOM     60  F   UNL A   1      44.194  32.643  32.528  1.00  0.00    -0.206 F 
ATOM     61  C   UNL A   1      44.435  34.892  31.901  1.00  0.00     0.059 A 
ATOM     62  C   UNL A   1      44.404  35.504  29.551  1.00  0.00     0.059 A 
ATOM     63  F   UNL A   1      44.106  33.844  27.923  1.00  0.00    -0.206 F 
ATOM     64  C   UNL A   1      44.495  35.860  30.895  1.00  0.00     0.060 A 
BRANCH  64  65
ATOM     65  S   UNL A   1      44.709  37.591  31.363  1.00  0.00     0.124 S 
ATOM     66  O   UNL A   1      43.946  38.271  30.321  1.00  0.00    -0.237 OA
ATOM     67  O   UNL A   1      44.128  37.632  32.701  1.00  0.00    -0.237 OA
ATOM     68  O   UNL A   1      46.156  37.781  31.307  1.00  0.00    -0.744 OA
ENDBRANCH  64  65
ENDBRANCH  43  57
BRANCH  44  69
ATOM     69  C   UNL A   1      42.597  23.699  27.457  1.00  0.00     0.058 A 
ATOM     70  C   UNL A   1      42.597  23.362  26.096  1.00  0.00     0.135 A 
ATOM     71  C   UNL A   1      42.419  22.662  28.388  1.00  0.00     0.135 A 
ATOM     72  F   UNL A   1      42.750  24.320  25.168  1.00  0.00    -0.206 F 
ATOM     73  C   UNL A   1      42.433  22.048  25.671  1.00  0.00     0.059 A 
ATOM     74  C   UNL A   1      42.279  21.338  27.990  1.00  0.00     0.059 A 
ATOM     75  F   UNL A   1      42.422  22.932  29.703  1.00  0.00    -0.206 F 
ATOM     76  C   UNL A   1      42.284  21.040  26.627  1.00  0.00     0.060 A 
BRANCH  76  77
ATOM     77  S   UNL A   1      42.160  19.324  26.079  1.00  0.00     0.124 S 
ATOM     78  O   UNL A   1      42.607  18.605  27.266  1.00  0.00    -0.237 OA
ATOM     79  O   UNL A   1      40.743  19.202  25.753  1.00  0.00    -0.237 OA
ATOM     80  O   UNL A   1      43.063  19.277  24.933  1.00  0.00    -0.744 OA
ENDBRANCH  76  77
ENDBRANCH  44  69
BRANCH  56  81
ATOM     81  C   UNL A   1      48.315  27.545  28.451  1.00  0.00     0.058 A 
ATOM     82  C   UNL A   1      49.014  27.827  27.267  1.00  0.00     0.135 A 
ATOM     83  C   UNL A   1      49.032  26.996  29.526  1.00  0.00     0.135 A 
ATOM     84  F   UNL A   1      48.370  28.344  26.210  1.00  0.00    -0.206 F 
ATOM     85  C   UNL A   1      50.374  27.557  27.147  1.00  0.00     0.059 A 
ATOM     86  C   UNL A   1      50.395  26.736  29.434  1.00  0.00     0.059 A 
ATOM     87  F   UNL A   1      48.407  26.715  30.681  1.00  0.00    -0.206 F 
ATOM     88  C   UNL A   1      51.055  27.009  28.236  1.00  0.00     0.060 A 
BRANCH  88  89
ATOM     89  S   UNL A   1      52.824  26.685  28.080  1.00  0.00     0.124 S 
ATOM     90  O   UNL A   1      53.319  27.979  27.623  1.00  0.00    -0.237 OA
ATOM     91  O   UNL A   1      53.198  26.307  29.439  1.00  0.00    -0.237 OA
ATOM     92  O   UNL A   1      52.885  25.606  27.099  1.00  0.00    -0.744 OA
ENDBRANCH  88  89
ENDBRANCH  56  81
ENDBRANCH  30  31
ENDBRANCH  23  25
ENDBRANCH  22  23
ENDBRANCH   1  22
TORSDOF 17
ENDMDL
MODEL 3
REMARK VINA RESULT:      -9.7      4.326      6.502
REMARK SMILES C[C@](NC(=O)c1ccc(Br)o1)(C(=O)OCCOC(=O)c1ccc(-c2c3nc(c(-c4c(F)cc(S(=O)(=O)[O-])cc4F)c4ccc([nH]4)c(-c4c(F)cc(S(=O)(=O)[O-])cc4F)c4nc(c(-c5c(F)cc(S(=O)(=O)[O-])cc5F)c5ccc2[nH]5)C=C4)C=C3)cc1)C(F)(F)F
REMARK SMILES IDX 16 1 15 2 14 3 12 4 13 5 2 6 1 7 86 8 87 9 88 10 89 11 3 12
REMARK SMILES IDX 4 13 5 15 6 16 7 17 11 18 8 19 9 20 10 21 17 22 18 23 19 24
REMARK SMILES IDX 20 25 21 26 85 27 22 28 84 29 23 30 24 31 25 32 78 33 26 34
REMARK SMILES IDX 83 35 77 36 79 37 27 38 82 39 76 40 75 41 28 43 62 44 41 45
REMARK SMILES IDX 61 46 42 47 45 48 60 49 80 50 43 51 44 52 59 54 81 55 46 56
REMARK SMILES IDX 29 57 30 58 39 59 31 60 32 61 38 62 40 63 33 64 34 65 35 66
REMARK SMILES IDX 36 67 37 68 63 69 64 70 73 71 65 72 66 73 72 74 74 75 67 76
REMARK SMILES IDX 68 77 69 78 70 79 71 80 47 81 48 82 57 83 49 84 50 85 56 86
REMARK SMILES IDX 58 87 51 88 52 89 53 90 54 91 55 92
REMARK H PARENT 3 14 79 42 45 53
REMARK Flexibility Score: inf
ROOT
ATOM      1  C   UNL A   1      34.173  30.200  27.644  1.00  0.00     0.275 C 
ENDROOT
BRANCH   1   2
ATOM      2  C   UNL A   1      34.399  29.064  26.652  1.00  0.00     0.274 C 
BRANCH   2   3
ATOM      3  O   UNL A   1      33.276  28.155  26.612  1.00  0.00    -0.460 OA
BRANCH   3   4
ATOM      4  C   UNL A   1      32.666  28.031  25.394  1.00  0.00     0.341 C 
ATOM      5  O   UNL A   1      32.081  28.953  24.837  1.00  0.00    -0.249 OA
BRANCH   4   6
ATOM      6  C   UNL A   1      32.710  26.596  24.847  1.00  0.00     0.231 C 
ATOM      7  C   UNL A   1      33.619  25.811  25.801  1.00  0.00     0.058 C 
BRANCH   6   8
ATOM      8  C   UNL A   1      31.255  26.112  24.938  1.00  0.00     0.422 C 
ATOM      9  F   UNL A   1      30.615  26.721  25.962  1.00  0.00    -0.168 F 
ATOM     10  F   UNL A   1      30.559  26.420  23.818  1.00  0.00    -0.168 F 
ATOM     11  F   UNL A   1      31.140  24.780  25.102  1.00  0.00    -0.168 F 
ENDBRANCH   6   8
BRANCH   6  12
ATOM     12  N   UNL A   1      33.206  26.592  23.432  1.00  0.00    -0.326 N 
ATOM     13  C   UNL A   1      33.572  25.558  22.606  1.00  0.00     0.288 C 
ATOM     14  H   UNL A   1      33.282  27.485  23.025  1.00  0.00     0.165 HD
ATOM     15  O   UNL A   1      33.649  25.787  21.401  1.00  0.00    -0.266 OA
BRANCH  13  16
ATOM     16  C   UNL A   1      33.913  24.285  23.185  1.00  0.00     0.192 A 
ATOM     17  C   UNL A   1      35.080  23.780  23.728  1.00  0.00     0.057 A 
ATOM     18  O   UNL A   1      32.925  23.341  23.269  1.00  0.00    -0.444 OA
ATOM     19  C   UNL A   1      34.800  22.447  24.121  1.00  0.00     0.059 A 
ATOM     20  C   UNL A   1      33.469  22.238  23.847  1.00  0.00     0.170 A 
ATOM     21  Br  UNL A   1      32.528  20.667  24.197  1.00  0.00    -0.008 Br
ENDBRANCH  13  16
ENDBRANCH   6  12
ENDBRANCH   4   6
ENDBRANCH   3   4
ENDBRANCH   2   3
ENDBRANCH   1   2
BRANCH   1  22
ATOM     22  O   UNL A   1      35.378  30.967  27.791  1.00  0.00    -0.458 OA
BRANCH  22  23
ATOM     23  C   UNL A   1      36.012  30.831  28.981  1.00  0.00     0.338 C 
ATOM     24  O   UNL A   1      35.623  31.229  30.065  1.00  0.00    -0.246 OA
BRANCH  23  25
ATOM     25  C   UNL A   1      37.275  30.088  28.807  1.00  0.00     0.060 A 
ATOM     26  C   UNL A   1      37.975  29.624  29.917  1.00  0.00     0.016 A 
ATOM     27  C   UNL A   1      37.843  29.989  27.538  1.00  0.00     0.016 A 
ATOM     28  C   UNL A   1      39.295  29.198  29.781  1.00  0.00     0.010 A 
ATOM     29  C   UNL A   1      39.120  29.434  27.391  1.00  0.00     0.010 A 
ATOM     30  C   UNL A   1      39.888  29.081  28.516  1.00  0.00    -0.014 A 
BRANCH  30  31
ATOM     31  C   UNL A   1      41.308  28.642  28.363  1.00  0.00     0.031 A 
ATOM     32  C   UNL A   1      42.433  29.636  28.531  1.00  0.00     0.074 A 
ATOM     33  C   UNL A   1      41.613  27.358  28.077  1.00  0.00     0.049 A 
ATOM     34  N   UNL A   1      43.693  29.527  28.194  1.00  0.00    -0.248 NA
ATOM     35  C   UNL A   1      42.088  30.933  29.137  1.00  0.00     0.031 C 
ATOM     36  C   UNL A   1      40.650  26.264  27.930  1.00  0.00     0.029 A 
ATOM     37  N   UNL A   1      42.828  26.753  27.863  1.00  0.00    -0.354 N 
ATOM     38  C   UNL A   1      44.270  30.764  28.466  1.00  0.00     0.074 A 
ATOM     39  C   UNL A   1      43.226  31.604  29.012  1.00  0.00     0.031 C 
ATOM     40  C   UNL A   1      41.310  25.120  27.703  1.00  0.00     0.029 A 
ATOM     41  C   UNL A   1      42.734  25.410  27.578  1.00  0.00     0.049 A 
ATOM     42  H   UNL A   1      43.685  27.235  27.908  1.00  0.00     0.167 HD
ATOM     43  C   UNL A   1      45.550  31.163  28.269  1.00  0.00     0.037 A 
ATOM     44  C   UNL A   1      43.669  24.517  27.203  1.00  0.00     0.037 A 
ATOM     45  C   UNL A   1      46.606  30.298  27.810  1.00  0.00     0.049 A 
ATOM     46  C   UNL A   1      45.085  24.973  27.004  1.00  0.00     0.074 A 
ATOM     47  C   UNL A   1      47.940  30.604  27.593  1.00  0.00     0.029 A 
ATOM     48  N   UNL A   1      46.458  28.949  27.527  1.00  0.00    -0.354 N 
ATOM     49  N   UNL A   1      45.593  26.170  27.167  1.00  0.00    -0.248 NA
ATOM     50  C   UNL A   1      46.049  23.965  26.540  1.00  0.00     0.031 C 
ATOM     51  C   UNL A   1      48.592  29.444  27.161  1.00  0.00     0.029 A 
ATOM     52  C   UNL A   1      47.672  28.408  27.138  1.00  0.00     0.049 A 
ATOM     53  H   UNL A   1      45.612  28.448  27.593  1.00  0.00     0.167 HD
ATOM     54  C   UNL A   1      46.934  26.063  26.820  1.00  0.00     0.074 A 
ATOM     55  C   UNL A   1      47.165  24.678  26.464  1.00  0.00     0.031 C 
ATOM     56  C   UNL A   1      47.885  27.028  26.787  1.00  0.00     0.037 A 
BRANCH  43  57
ATOM     57  C   UNL A   1      45.877  32.612  28.510  1.00  0.00     0.058 A 
ATOM     58  C   UNL A   1      45.762  33.584  27.506  1.00  0.00     0.135 A 
ATOM     59  C   UNL A   1      46.281  33.034  29.789  1.00  0.00     0.135 A 
ATOM     60  F   UNL A   1      45.396  33.233  26.264  1.00  0.00    -0.206 F 
ATOM     61  C   UNL A   1      46.061  34.921  27.754  1.00  0.00     0.059 A 
ATOM     62  C   UNL A   1      46.562  34.368  30.064  1.00  0.00     0.059 A 
ATOM     63  F   UNL A   1      46.404  32.144  30.787  1.00  0.00    -0.206 F 
ATOM     64  C   UNL A   1      46.465  35.303  29.035  1.00  0.00     0.060 A 
BRANCH  64  65
ATOM     65  S   UNL A   1      46.851  37.040  29.347  1.00  0.00     0.124 S 
ATOM     66  O   UNL A   1      47.439  37.440  28.072  1.00  0.00    -0.237 OA
ATOM     67  O   UNL A   1      45.539  37.607  29.644  1.00  0.00    -0.237 OA
ATOM     68  O   UNL A   1      47.775  36.984  30.476  1.00  0.00    -0.744 OA
ENDBRANCH  64  65
ENDBRANCH  43  57
BRANCH  44  69
ATOM     69  C   UNL A   1      43.275  23.109  26.935  1.00  0.00     0.058 A 
ATOM     70  C   UNL A   1      43.210  22.614  25.625  1.00  0.00     0.135 A 
ATOM     71  C   UNL A   1      43.001  22.219  27.986  1.00  0.00     0.135 A 
ATOM     72  F   UNL A   1      43.451  23.429  24.587  1.00  0.00    -0.206 F 
ATOM     73  C   UNL A   1      42.893  21.284  25.364  1.00  0.00     0.059 A 
ATOM     74  C   UNL A   1      42.707  20.881  27.753  1.00  0.00     0.059 A 
ATOM     75  F   UNL A   1      43.061  22.642  29.258  1.00  0.00    -0.206 F 
ATOM     76  C   UNL A   1      42.650  20.423  26.437  1.00  0.00     0.060 A 
BRANCH  76  77
ATOM     77  S   UNL A   1      42.325  18.678  26.102  1.00  0.00     0.124 S 
ATOM     78  O   UNL A   1      40.909  18.706  25.758  1.00  0.00    -0.237 OA
ATOM     79  O   UNL A   1      43.245  18.395  25.004  1.00  0.00    -0.237 OA
ATOM     80  O   UNL A   1      42.658  18.031  27.367  1.00  0.00    -0.744 OA
ENDBRANCH  76  77
ENDBRANCH  44  69
BRANCH  56  81
ATOM     81  C   UNL A   1      49.265  26.613  26.369  1.00  0.00     0.058 A 
ATOM     82  C   UNL A   1      50.164  26.045  27.284  1.00  0.00     0.135 A 
ATOM     83  C   UNL A   1      49.679  26.753  25.035  1.00  0.00     0.135 A 
ATOM     84  F   UNL A   1      49.817  25.899  28.571  1.00  0.00    -0.206 F 
ATOM     85  C   UNL A   1      51.439  25.646  26.893  1.00  0.00     0.059 A 
ATOM     86  C   UNL A   1      50.942  26.344  24.620  1.00  0.00     0.059 A 
ATOM     87  F   UNL A   1      48.851  27.286  24.122  1.00  0.00    -0.206 F 
ATOM     88  C   UNL A   1      51.819  25.802  25.559  1.00  0.00     0.060 A 
BRANCH  88  89
ATOM     89  S   UNL A   1      53.465  25.258  25.055  1.00  0.00     0.124 S 
ATOM     90  O   UNL A   1      53.416  23.837  25.378  1.00  0.00    -0.237 OA
ATOM     91  O   UNL A   1      53.485  25.586  23.633  1.00  0.00    -0.237 OA
ATOM     92  O   UNL A   1      54.356  26.062  25.887  1.00  0.00    -0.744 OA
ENDBRANCH  88  89
ENDBRANCH  56  81
ENDBRANCH  30  31
ENDBRANCH  23  25
ENDBRANCH  22  23
ENDBRANCH   1  22
TORSDOF 17
ENDMDL
