MODEL 1
REMARK VINA RESULT:     -13.7      0.000      0.000
REMARK SMILES CC1=Nc2c(c(C)nn2-c2ccc(F)cc2)[C@H](c2ccc(C(=O)OCCOC(=O)c3ccc(-c4c5nc(c(-c6c(F)cc(S(=O)(=O)[O-])cc6F)c6ccc([nH]6)c(-c6c(F)cc(S(=O)(=O)[O-])cc6F)c6nc(c(-c7c(F)cc(S(=O)(=O)[O-])cc7F)c7ccc4[nH]7)C=C6)C=C5)cc3)cc2)S1
REMARK SMILES IDX 26 1 25 2 24 3 22 4 23 5 21 6 18 7 19 8 97 9 20 10 96 11
REMARK SMILES IDX 17 12 1 13 2 14 3 15 98 16 4 17 5 18 9 19 6 20 8 21 7 22
REMARK SMILES IDX 10 23 11 24 16 25 12 26 15 27 13 28 14 29 27 30 28 31 29 32
REMARK SMILES IDX 30 33 31 34 95 35 32 36 94 37 33 38 34 39 35 40 88 41 36 42
REMARK SMILES IDX 93 43 87 44 89 45 37 46 92 47 86 48 85 49 38 51 72 52 51 53
REMARK SMILES IDX 71 54 52 55 55 56 70 57 90 58 53 59 54 60 69 62 91 63 56 64
REMARK SMILES IDX 39 65 40 66 49 67 41 68 42 69 48 70 50 71 43 72 44 73 45 74
REMARK SMILES IDX 46 75 47 76 73 77 74 78 83 79 75 80 76 81 82 82 84 83 77 84
REMARK SMILES IDX 78 85 79 86 80 87 81 88 57 89 58 90 67 91 59 92 60 93 66 94
REMARK SMILES IDX 68 95 61 96 62 97 63 98 64 99 65 100
REMARK H PARENT 89 50 55 61
REMARK Flexibility Score: inf
ROOT
ATOM      1  C   UNL A   1      32.801  30.769  26.842  1.00  0.00     0.275 C 
ENDROOT
BRANCH   1   2
ATOM      2  C   UNL A   1      32.747  30.029  25.512  1.00  0.00     0.275 C 
BRANCH   2   3
ATOM      3  O   UNL A   1      31.397  29.941  25.024  1.00  0.00    -0.458 OA
BRANCH   3   4
ATOM      4  C   UNL A   1      31.164  28.929  24.151  1.00  0.00     0.338 C 
ATOM      5  O   UNL A   1      30.576  29.028  23.083  1.00  0.00    -0.246 OA
BRANCH   4   6
ATOM      6  C   UNL A   1      31.770  27.654  24.616  1.00  0.00     0.060 A 
ATOM      7  C   UNL A   1      32.922  25.291  25.684  1.00  0.00    -0.030 A 
ATOM      8  C   UNL A   1      31.907  25.984  26.369  1.00  0.00     0.006 A 
ATOM      9  C   UNL A   1      33.299  25.776  24.417  1.00  0.00     0.006 A 
ATOM     10  C   UNL A   1      31.329  27.139  25.839  1.00  0.00     0.016 A 
ATOM     11  C   UNL A   1      32.740  26.953  23.894  1.00  0.00     0.016 A 
BRANCH   7  12
ATOM     12  C   UNL A   1      33.585  24.105  26.372  1.00  0.00     0.119 C 
ATOM     13  C   UNL A   1      36.992  23.090  24.227  1.00  0.00     0.075 C 
ATOM     14  C   UNL A   1      35.674  22.952  24.944  1.00  0.00     0.074 C 
ATOM     15  N   UNL A   1      34.874  22.020  24.540  1.00  0.00    -0.227 NA
ATOM     16  S   UNL A   1      35.407  24.094  26.250  1.00  0.00    -0.098 SA
ATOM     17  C   UNL A   1      33.644  21.938  25.099  1.00  0.00     0.161 A 
ATOM     18  C   UNL A   1      32.969  22.854  25.875  1.00  0.00     0.038 A 
ATOM     19  N   UNL A   1      32.776  20.876  24.895  1.00  0.00    -0.215 N 
ATOM     20  C   UNL A   1      31.694  22.267  26.095  1.00  0.00     0.067 A 
ATOM     21  N   UNL A   1      31.552  21.118  25.422  1.00  0.00    -0.171 NA
ATOM     22  C   UNL A   1      30.568  22.753  26.933  1.00  0.00     0.069 C 
BRANCH  19  23
ATOM     23  C   UNL A   1      33.074  19.636  24.282  1.00  0.00     0.067 A 
ATOM     24  C   UNL A   1      34.141  18.860  24.762  1.00  0.00     0.031 A 
ATOM     25  C   UNL A   1      32.313  19.204  23.190  1.00  0.00     0.031 A 
ATOM     26  C   UNL A   1      34.458  17.659  24.131  1.00  0.00     0.041 A 
ATOM     27  C   UNL A   1      32.673  18.027  22.531  1.00  0.00     0.041 A 
ATOM     28  C   UNL A   1      33.737  17.266  23.009  1.00  0.00     0.123 A 
ATOM     29  F   UNL A   1      34.079  16.135  22.377  1.00  0.00    -0.207 F 
ENDBRANCH  19  23
ENDBRANCH   7  12
ENDBRANCH   4   6
ENDBRANCH   3   4
ENDBRANCH   2   3
ENDBRANCH   1   2
BRANCH   1  30
ATOM     30  O   UNL A   1      33.958  30.417  27.601  1.00  0.00    -0.458 OA
BRANCH  30  31
ATOM     31  C   UNL A   1      34.758  31.457  27.930  1.00  0.00     0.338 C 
ATOM     32  O   UNL A   1      34.653  32.611  27.550  1.00  0.00    -0.246 OA
BRANCH  31  33
ATOM     33  C   UNL A   1      35.952  30.946  28.618  1.00  0.00     0.060 A 
ATOM     34  C   UNL A   1      36.981  31.858  28.868  1.00  0.00     0.016 A 
ATOM     35  C   UNL A   1      36.145  29.563  28.758  1.00  0.00     0.016 A 
ATOM     36  C   UNL A   1      38.250  31.373  29.111  1.00  0.00     0.010 A 
ATOM     37  C   UNL A   1      37.414  29.081  28.989  1.00  0.00     0.010 A 
ATOM     38  C   UNL A   1      38.464  29.991  29.098  1.00  0.00    -0.014 A 
BRANCH  38  39
ATOM     39  C   UNL A   1      39.819  29.514  29.291  1.00  0.00     0.031 A 
ATOM     40  C   UNL A   1      40.198  29.339  30.713  1.00  0.00     0.074 A 
ATOM     41  C   UNL A   1      40.610  29.128  28.272  1.00  0.00     0.049 A 
ATOM     42  N   UNL A   1      41.114  29.959  31.379  1.00  0.00    -0.248 NA
ATOM     43  C   UNL A   1      39.353  28.451  31.527  1.00  0.00     0.031 C 
ATOM     44  C   UNL A   1      40.243  28.960  26.864  1.00  0.00     0.029 A 
ATOM     45  N   UNL A   1      41.895  28.686  28.314  1.00  0.00    -0.354 N 
ATOM     46  C   UNL A   1      41.108  29.379  32.642  1.00  0.00     0.074 A 
ATOM     47  C   UNL A   1      39.902  28.597  32.732  1.00  0.00     0.031 C 
ATOM     48  C   UNL A   1      41.207  28.245  26.240  1.00  0.00     0.029 A 
ATOM     49  C   UNL A   1      42.302  28.017  27.168  1.00  0.00     0.049 A 
ATOM     50  H   UNL A   1      42.485  28.828  29.089  1.00  0.00     0.167 HD
ATOM     51  C   UNL A   1      42.215  29.379  33.432  1.00  0.00     0.037 A 
ATOM     52  C   UNL A   1      43.418  27.256  27.039  1.00  0.00     0.037 A 
ATOM     53  C   UNL A   1      43.164  30.379  33.022  1.00  0.00     0.049 A 
ATOM     54  C   UNL A   1      44.358  27.665  28.118  1.00  0.00     0.074 A 
ATOM     55  C   UNL A   1      43.126  31.753  32.878  1.00  0.00     0.029 A 
ATOM     56  N   UNL A   1      44.282  29.962  32.341  1.00  0.00    -0.354 N 
ATOM     57  N   UNL A   1      44.936  28.833  28.188  1.00  0.00    -0.248 NA
ATOM     58  C   UNL A   1      44.349  26.904  29.358  1.00  0.00     0.031 C 
ATOM     59  C   UNL A   1      43.944  32.032  31.745  1.00  0.00     0.029 A 
ATOM     60  C   UNL A   1      44.464  30.820  31.287  1.00  0.00     0.049 A 
ATOM     61  H   UNL A   1      44.847  29.189  32.567  1.00  0.00     0.167 HD
ATOM     62  C   UNL A   1      44.985  29.128  29.542  1.00  0.00     0.074 A 
ATOM     63  C   UNL A   1      44.717  27.860  30.214  1.00  0.00     0.031 C 
ATOM     64  C   UNL A   1      44.964  30.418  29.989  1.00  0.00     0.037 A 
BRANCH  51  65
ATOM     65  C   UNL A   1      42.581  28.225  34.331  1.00  0.00     0.058 A 
ATOM     66  C   UNL A   1      43.067  26.988  33.847  1.00  0.00     0.135 A 
ATOM     67  C   UNL A   1      42.726  28.439  35.715  1.00  0.00     0.135 A 
ATOM     68  F   UNL A   1      43.099  26.691  32.542  1.00  0.00    -0.206 F 
ATOM     69  C   UNL A   1      43.645  26.033  34.669  1.00  0.00     0.059 A 
ATOM     70  C   UNL A   1      43.361  27.517  36.551  1.00  0.00     0.059 A 
ATOM     71  F   UNL A   1      42.321  29.591  36.273  1.00  0.00    -0.206 F 
ATOM     72  C   UNL A   1      43.822  26.319  36.014  1.00  0.00     0.060 A 
BRANCH  72  73
ATOM     73  S   UNL A   1      44.775  25.149  36.995  1.00  0.00     0.124 S 
ATOM     74  O   UNL A   1      44.538  23.905  36.271  1.00  0.00    -0.237 OA
ATOM     75  O   UNL A   1      46.123  25.699  36.893  1.00  0.00    -0.237 OA
ATOM     76  O   UNL A   1      44.160  25.240  38.314  1.00  0.00    -0.744 OA
ENDBRANCH  72  73
ENDBRANCH  51  65
BRANCH  52  77
ATOM     77  C   UNL A   1      43.564  25.976  26.296  1.00  0.00     0.058 A 
ATOM     78  C   UNL A   1      42.829  24.825  26.645  1.00  0.00     0.135 A 
ATOM     79  C   UNL A   1      44.641  25.776  25.412  1.00  0.00     0.135 A 
ATOM     80  F   UNL A   1      41.812  24.882  27.518  1.00  0.00    -0.206 F 
ATOM     81  C   UNL A   1      43.168  23.553  26.191  1.00  0.00     0.059 A 
ATOM     82  C   UNL A   1      45.009  24.506  24.953  1.00  0.00     0.059 A 
ATOM     83  F   UNL A   1      45.405  26.814  25.036  1.00  0.00    -0.206 F 
ATOM     84  C   UNL A   1      44.282  23.397  25.374  1.00  0.00     0.060 A 
BRANCH  84  85
ATOM     85  S   UNL A   1      44.797  21.715  24.967  1.00  0.00     0.124 S 
ATOM     86  O   UNL A   1      46.171  21.697  25.462  1.00  0.00    -0.237 OA
ATOM     87  O   UNL A   1      43.845  20.912  25.728  1.00  0.00    -0.237 OA
ATOM     88  O   UNL A   1      44.650  21.652  23.518  1.00  0.00    -0.744 OA
ENDBRANCH  84  85
ENDBRANCH  52  77
BRANCH  64  89
ATOM     89  C   UNL A   1      45.236  31.523  28.999  1.00  0.00     0.058 A 
ATOM     90  C   UNL A   1      44.144  32.077  28.313  1.00  0.00     0.135 A 
ATOM     91  C   UNL A   1      46.520  31.935  28.600  1.00  0.00     0.135 A 
ATOM     92  F   UNL A   1      42.893  31.685  28.608  1.00  0.00    -0.206 F 
ATOM     93  C   UNL A   1      44.311  32.992  27.279  1.00  0.00     0.059 A 
ATOM     94  C   UNL A   1      46.711  32.878  27.588  1.00  0.00     0.059 A 
ATOM     95  F   UNL A   1      47.619  31.383  29.136  1.00  0.00    -0.206 F 
ATOM     96  C   UNL A   1      45.599  33.390  26.923  1.00  0.00     0.060 A 
BRANCH  96  97
ATOM     97  S   UNL A   1      45.786  34.559  25.561  1.00  0.00     0.124 S 
ATOM     98  O   UNL A   1      44.923  33.972  24.539  1.00  0.00    -0.237 OA
ATOM     99  O   UNL A   1      45.301  35.805  26.150  1.00  0.00    -0.237 OA
ATOM    100  O   UNL A   1      47.214  34.527  25.264  1.00  0.00    -0.744 OA
ENDBRANCH  96  97
ENDBRANCH  64  89
ENDBRANCH  38  39
ENDBRANCH  31  33
ENDBRANCH  30  31
ENDBRANCH   1  30
TORSDOF 16
ENDMDL
MODEL 2
REMARK VINA RESULT:     -13.5      1.574      2.269
REMARK SMILES CC1=Nc2c(c(C)nn2-c2ccc(F)cc2)[C@H](c2ccc(C(=O)OCCOC(=O)c3ccc(-c4c5nc(c(-c6c(F)cc(S(=O)(=O)[O-])cc6F)c6ccc([nH]6)c(-c6c(F)cc(S(=O)(=O)[O-])cc6F)c6nc(c(-c7c(F)cc(S(=O)(=O)[O-])cc7F)c7ccc4[nH]7)C=C6)C=C5)cc3)cc2)S1
REMARK SMILES IDX 26 1 25 2 24 3 22 4 23 5 21 6 18 7 19 8 97 9 20 10 96 11
REMARK SMILES IDX 17 12 1 13 2 14 3 15 98 16 4 17 5 18 9 19 6 20 8 21 7 22
REMARK SMILES IDX 10 23 11 24 16 25 12 26 15 27 13 28 14 29 27 30 28 31 29 32
REMARK SMILES IDX 30 33 31 34 95 35 32 36 94 37 33 38 34 39 35 40 88 41 36 42
REMARK SMILES IDX 93 43 87 44 89 45 37 46 92 47 86 48 85 49 38 51 72 52 51 53
REMARK SMILES IDX 71 54 52 55 55 56 70 57 90 58 53 59 54 60 69 62 91 63 56 64
REMARK SMILES IDX 39 65 40 66 49 67 41 68 42 69 48 70 50 71 43 72 44 73 45 74
REMARK SMILES IDX 46 75 47 76 73 77 74 78 83 79 75 80 76 81 82 82 84 83 77 84
REMARK SMILES IDX 78 85 79 86 80 87 81 88 57 89 58 90 67 91 59 92 60 93 66 94
REMARK SMILES IDX 68 95 61 96 62 97 63 98 64 99 65 100
REMARK H PARENT 89 50 55 61
REMARK Flexibility Score: inf
ROOT
ATOM      1  C   UNL A   1      32.694  30.537  27.274  1.00  0.00     0.275 C 
ENDROOT
BRANCH   1   2
ATOM      2  C   UNL A   1      31.827  30.771  26.044  1.00  0.00     0.275 C 
BRANCH   2   3
ATOM      3  O   UNL A   1      32.113  29.804  25.018  1.00  0.00    -0.458 OA
BRANCH   3   4
ATOM      4  C   UNL A   1      31.025  29.270  24.409  1.00  0.00     0.338 C 
ATOM      5  O   UNL A   1      30.093  29.902  23.930  1.00  0.00    -0.246 OA
BRANCH   4   6
ATOM      6  C   UNL A   1      31.113  27.789  24.329  1.00  0.00     0.060 A 
ATOM      7  C   UNL A   1      31.438  24.970  24.288  1.00  0.00    -0.030 A 
ATOM      8  C   UNL A   1      31.683  25.718  25.454  1.00  0.00     0.006 A 
ATOM      9  C   UNL A   1      30.960  25.664  23.160  1.00  0.00     0.006 A 
ATOM     10  C   UNL A   1      31.511  27.103  25.480  1.00  0.00     0.016 A 
ATOM     11  C   UNL A   1      30.812  27.061  23.174  1.00  0.00     0.016 A 
BRANCH   7  12
ATOM     12  C   UNL A   1      31.755  23.480  24.299  1.00  0.00     0.119 C 
ATOM     13  C   UNL A   1      32.586  22.351  28.206  1.00  0.00     0.075 C 
ATOM     14  C   UNL A   1      32.734  22.517  26.716  1.00  0.00     0.074 C 
ATOM     15  N   UNL A   1      33.936  22.569  26.242  1.00  0.00    -0.227 NA
ATOM     16  S   UNL A   1      31.228  22.617  25.819  1.00  0.00    -0.098 SA
ATOM     17  C   UNL A   1      34.098  22.819  24.922  1.00  0.00     0.161 A 
ATOM     18  C   UNL A   1      33.192  23.291  23.999  1.00  0.00     0.038 A 
ATOM     19  N   UNL A   1      35.313  22.706  24.261  1.00  0.00    -0.215 N 
ATOM     20  C   UNL A   1      33.943  23.441  22.802  1.00  0.00     0.067 A 
ATOM     21  N   UNL A   1      35.242  23.176  22.993  1.00  0.00    -0.171 NA
ATOM     22  C   UNL A   1      33.482  23.834  21.446  1.00  0.00     0.069 C 
BRANCH  19  23
ATOM     23  C   UNL A   1      36.503  22.126  24.758  1.00  0.00     0.067 A 
ATOM     24  C   UNL A   1      37.456  22.932  25.401  1.00  0.00     0.031 A 
ATOM     25  C   UNL A   1      36.727  20.755  24.588  1.00  0.00     0.031 A 
ATOM     26  C   UNL A   1      38.646  22.365  25.854  1.00  0.00     0.041 A 
ATOM     27  C   UNL A   1      37.945  20.207  24.996  1.00  0.00     0.041 A 
ATOM     28  C   UNL A   1      38.889  21.015  25.626  1.00  0.00     0.123 A 
ATOM     29  F   UNL A   1      40.056  20.488  26.020  1.00  0.00    -0.207 F 
ENDBRANCH  19  23
ENDBRANCH   7  12
ENDBRANCH   4   6
ENDBRANCH   3   4
ENDBRANCH   2   3
ENDBRANCH   1   2
BRANCH   1  30
ATOM     30  O   UNL A   1      34.086  30.632  26.972  1.00  0.00    -0.458 OA
BRANCH  30  31
ATOM     31  C   UNL A   1      34.754  31.576  27.674  1.00  0.00     0.338 C 
ATOM     32  O   UNL A   1      34.600  32.784  27.610  1.00  0.00    -0.246 OA
BRANCH  31  33
ATOM     33  C   UNL A   1      35.897  30.949  28.354  1.00  0.00     0.060 A 
ATOM     34  C   UNL A   1      36.842  31.804  28.929  1.00  0.00     0.016 A 
ATOM     35  C   UNL A   1      36.152  29.580  28.184  1.00  0.00     0.016 A 
ATOM     36  C   UNL A   1      38.104  31.314  29.194  1.00  0.00     0.010 A 
ATOM     37  C   UNL A   1      37.415  29.095  28.438  1.00  0.00     0.010 A 
ATOM     38  C   UNL A   1      38.396  29.982  28.878  1.00  0.00    -0.014 A 
BRANCH  38  39
ATOM     39  C   UNL A   1      39.748  29.513  29.106  1.00  0.00     0.031 A 
ATOM     40  C   UNL A   1      40.089  29.335  30.538  1.00  0.00     0.074 A 
ATOM     41  C   UNL A   1      40.569  29.137  28.108  1.00  0.00     0.049 A 
ATOM     42  N   UNL A   1      40.982  29.958  31.231  1.00  0.00    -0.248 NA
ATOM     43  C   UNL A   1      39.228  28.438  31.325  1.00  0.00     0.031 C 
ATOM     44  C   UNL A   1      40.242  28.972  26.690  1.00  0.00     0.029 A 
ATOM     45  N   UNL A   1      41.855  28.703  28.184  1.00  0.00    -0.354 N 
ATOM     46  C   UNL A   1      40.945  29.373  32.492  1.00  0.00     0.074 A 
ATOM     47  C   UNL A   1      39.743  28.583  32.545  1.00  0.00     0.031 C 
ATOM     48  C   UNL A   1      41.228  28.266  26.090  1.00  0.00     0.029 A 
ATOM     49  C   UNL A   1      42.299  28.042  27.047  1.00  0.00     0.049 A 
ATOM     50  H   UNL A   1      42.423  28.846  28.976  1.00  0.00     0.167 HD
ATOM     51  C   UNL A   1      42.030  29.377  33.312  1.00  0.00     0.037 A 
ATOM     52  C   UNL A   1      43.422  27.289  26.946  1.00  0.00     0.037 A 
ATOM     53  C   UNL A   1      42.983  30.385  32.932  1.00  0.00     0.049 A 
ATOM     54  C   UNL A   1      44.330  27.700  28.051  1.00  0.00     0.074 A 
ATOM     55  C   UNL A   1      42.940  31.759  32.792  1.00  0.00     0.029 A 
ATOM     56  N   UNL A   1      44.122  29.979  32.280  1.00  0.00    -0.354 N 
ATOM     57  N   UNL A   1      44.898  28.871  28.142  1.00  0.00    -0.248 NA
ATOM     58  C   UNL A   1      44.292  26.933  29.288  1.00  0.00     0.031 C 
ATOM     59  C   UNL A   1      43.787  32.049  31.683  1.00  0.00     0.029 A 
ATOM     60  C   UNL A   1      44.327  30.842  31.234  1.00  0.00     0.049 A 
ATOM     61  H   UNL A   1      44.686  29.208  32.519  1.00  0.00     0.167 HD
ATOM     62  C   UNL A   1      44.908  29.161  29.499  1.00  0.00     0.074 A 
ATOM     63  C   UNL A   1      44.629  27.889  30.158  1.00  0.00     0.031 C 
ATOM     64  C   UNL A   1      44.866  30.448  29.949  1.00  0.00     0.037 A 
BRANCH  51  65
ATOM     65  C   UNL A   1      42.379  28.222  34.215  1.00  0.00     0.058 A 
ATOM     66  C   UNL A   1      42.939  27.011  33.747  1.00  0.00     0.135 A 
ATOM     67  C   UNL A   1      42.427  28.418  35.609  1.00  0.00     0.135 A 
ATOM     68  F   UNL A   1      43.065  26.737  32.442  1.00  0.00    -0.206 F 
ATOM     69  C   UNL A   1      43.498  26.064  34.590  1.00  0.00     0.059 A 
ATOM     70  C   UNL A   1      43.040  27.505  36.471  1.00  0.00     0.059 A 
ATOM     71  F   UNL A   1      41.946  29.545  36.156  1.00  0.00    -0.206 F 
ATOM     72  C   UNL A   1      43.577  26.333  35.948  1.00  0.00     0.060 A 
BRANCH  72  73
ATOM     73  S   UNL A   1      44.507  25.181  36.972  1.00  0.00     0.124 S 
ATOM     74  O   UNL A   1      44.218  23.911  36.313  1.00  0.00    -0.237 OA
ATOM     75  O   UNL A   1      45.870  25.680  36.824  1.00  0.00    -0.237 OA
ATOM     76  O   UNL A   1      43.916  25.356  38.293  1.00  0.00    -0.744 OA
ENDBRANCH  72  73
ENDBRANCH  51  65
BRANCH  52  77
ATOM     77  C   UNL A   1      43.598  26.013  26.202  1.00  0.00     0.058 A 
ATOM     78  C   UNL A   1      42.781  24.890  26.448  1.00  0.00     0.135 A 
ATOM     79  C   UNL A   1      44.758  25.777  25.439  1.00  0.00     0.135 A 
ATOM     80  F   UNL A   1      41.677  24.980  27.203  1.00  0.00    -0.206 F 
ATOM     81  C   UNL A   1      43.116  23.611  26.013  1.00  0.00     0.059 A 
ATOM     82  C   UNL A   1      45.121  24.499  25.003  1.00  0.00     0.059 A 
ATOM     83  F   UNL A   1      45.601  26.786  25.169  1.00  0.00    -0.206 F 
ATOM     84  C   UNL A   1      44.306  23.416  25.322  1.00  0.00     0.060 A 
BRANCH  84  85
ATOM     85  S   UNL A   1      44.794  21.719  24.946  1.00  0.00     0.124 S 
ATOM     86  O   UNL A   1      44.641  21.680  23.495  1.00  0.00    -0.237 OA
ATOM     87  O   UNL A   1      46.169  21.682  25.435  1.00  0.00    -0.237 OA
ATOM     88  O   UNL A   1      43.840  20.913  25.700  1.00  0.00    -0.744 OA
ENDBRANCH  84  85
ENDBRANCH  52  77
BRANCH  64  89
ATOM     89  C   UNL A   1      45.157  31.559  28.972  1.00  0.00     0.058 A 
ATOM     90  C   UNL A   1      44.101  32.035  28.180  1.00  0.00     0.135 A 
ATOM     91  C   UNL A   1      46.444  32.049  28.686  1.00  0.00     0.135 A 
ATOM     92  F   UNL A   1      42.855  31.565  28.365  1.00  0.00    -0.206 F 
ATOM     93  C   UNL A   1      44.304  32.949  27.152  1.00  0.00     0.059 A 
ATOM     94  C   UNL A   1      46.667  32.994  27.682  1.00  0.00     0.059 A 
ATOM     95  F   UNL A   1      47.521  31.575  29.328  1.00  0.00    -0.206 F 
ATOM     96  C   UNL A   1      45.591  33.426  26.909  1.00  0.00     0.060 A 
BRANCH  96  97
ATOM     97  S   UNL A   1      45.829  34.592  25.552  1.00  0.00     0.124 S 
ATOM     98  O   UNL A   1      45.465  35.861  26.178  1.00  0.00    -0.237 OA
ATOM     99  O   UNL A   1      47.247  34.429  25.244  1.00  0.00    -0.237 OA
ATOM    100  O   UNL A   1      44.910  34.121  24.520  1.00  0.00    -0.744 OA
ENDBRANCH  96  97
ENDBRANCH  64  89
ENDBRANCH  38  39
ENDBRANCH  31  33
ENDBRANCH  30  31
ENDBRANCH   1  30
TORSDOF 16
ENDMDL
MODEL 3
REMARK VINA RESULT:     -13.2      4.816      8.955
REMARK SMILES CC1=Nc2c(c(C)nn2-c2ccc(F)cc2)[C@H](c2ccc(C(=O)OCCOC(=O)c3ccc(-c4c5nc(c(-c6c(F)cc(S(=O)(=O)[O-])cc6F)c6ccc([nH]6)c(-c6c(F)cc(S(=O)(=O)[O-])cc6F)c6nc(c(-c7c(F)cc(S(=O)(=O)[O-])cc7F)c7ccc4[nH]7)C=C6)C=C5)cc3)cc2)S1
REMARK SMILES IDX 26 1 25 2 24 3 22 4 23 5 21 6 18 7 19 8 97 9 20 10 96 11
REMARK SMILES IDX 17 12 1 13 2 14 3 15 98 16 4 17 5 18 9 19 6 20 8 21 7 22
REMARK SMILES IDX 10 23 11 24 16 25 12 26 15 27 13 28 14 29 27 30 28 31 29 32
REMARK SMILES IDX 30 33 31 34 95 35 32 36 94 37 33 38 34 39 35 40 88 41 36 42
REMARK SMILES IDX 93 43 87 44 89 45 37 46 92 47 86 48 85 49 38 51 72 52 51 53
REMARK SMILES IDX 71 54 52 55 55 56 70 57 90 58 53 59 54 60 69 62 91 63 56 64
REMARK SMILES IDX 39 65 40 66 49 67 41 68 42 69 48 70 50 71 43 72 44 73 45 74
REMARK SMILES IDX 46 75 47 76 73 77 74 78 83 79 75 80 76 81 82 82 84 83 77 84
REMARK SMILES IDX 78 85 79 86 80 87 81 88 57 89 58 90 67 91 59 92 60 93 66 94
REMARK SMILES IDX 68 95 61 96 62 97 63 98 64 99 65 100
REMARK H PARENT 89 50 55 61
REMARK Flexibility Score: inf
ROOT
ATOM      1  C   UNL A   1      33.746  33.822  28.004  1.00  0.00     0.275 C 
ENDROOT
BRANCH   1   2
ATOM      2  C   UNL A   1      34.004  34.848  29.099  1.00  0.00     0.275 C 
BRANCH   2   3
ATOM      3  O   UNL A   1      33.278  34.520  30.296  1.00  0.00    -0.458 OA
BRANCH   3   4
ATOM      4  C   UNL A   1      33.760  35.080  31.434  1.00  0.00     0.338 C 
ATOM      5  O   UNL A   1      33.322  36.086  31.975  1.00  0.00    -0.246 OA
BRANCH   4   6
ATOM      6  C   UNL A   1      34.876  34.283  32.008  1.00  0.00     0.060 A 
ATOM      7  C   UNL A   1      37.124  32.909  33.060  1.00  0.00    -0.030 A 
ATOM      8  C   UNL A   1      36.969  34.297  33.231  1.00  0.00     0.006 A 
ATOM      9  C   UNL A   1      36.088  32.216  32.406  1.00  0.00     0.006 A 
ATOM     10  C   UNL A   1      35.857  34.973  32.726  1.00  0.00     0.016 A 
ATOM     11  C   UNL A   1      34.981  32.896  31.872  1.00  0.00     0.016 A 
BRANCH   7  12
ATOM     12  C   UNL A   1      38.415  32.257  33.538  1.00  0.00     0.119 C 
ATOM     13  C   UNL A   1      38.547  32.504  37.680  1.00  0.00     0.075 C 
ATOM     14  C   UNL A   1      38.970  32.617  36.238  1.00  0.00     0.074 C 
ATOM     15  N   UNL A   1      39.793  33.567  35.935  1.00  0.00    -0.227 NA
ATOM     16  S   UNL A   1      38.275  31.423  35.156  1.00  0.00    -0.098 SA
ATOM     17  C   UNL A   1      40.111  33.754  34.633  1.00  0.00     0.161 A 
ATOM     18  C   UNL A   1      39.504  33.259  33.500  1.00  0.00     0.038 A 
ATOM     19  N   UNL A   1      41.121  34.601  34.202  1.00  0.00    -0.215 N 
ATOM     20  C   UNL A   1      40.209  33.860  32.423  1.00  0.00     0.067 A 
ATOM     21  N   UNL A   1      41.120  34.741  32.854  1.00  0.00    -0.171 NA
ATOM     22  C   UNL A   1      40.059  33.638  30.962  1.00  0.00     0.069 C 
BRANCH  19  23
ATOM     23  C   UNL A   1      42.108  35.226  34.999  1.00  0.00     0.067 A 
ATOM     24  C   UNL A   1      43.251  34.509  35.383  1.00  0.00     0.031 A 
ATOM     25  C   UNL A   1      41.926  36.551  35.413  1.00  0.00     0.031 A 
ATOM     26  C   UNL A   1      44.203  35.114  36.202  1.00  0.00     0.041 A 
ATOM     27  C   UNL A   1      42.857  37.129  36.278  1.00  0.00     0.041 A 
ATOM     28  C   UNL A   1      43.985  36.408  36.660  1.00  0.00     0.123 A 
ATOM     29  F   UNL A   1      44.880  36.966  37.488  1.00  0.00    -0.207 F 
ENDBRANCH  19  23
ENDBRANCH   7  12
ENDBRANCH   4   6
ENDBRANCH   3   4
ENDBRANCH   2   3
ENDBRANCH   1   2
BRANCH   1  30
ATOM     30  O   UNL A   1      34.905  33.036  27.725  1.00  0.00    -0.458 OA
BRANCH  30  31
ATOM     31  C   UNL A   1      34.742  31.705  27.902  1.00  0.00     0.338 C 
ATOM     32  O   UNL A   1      33.722  31.061  27.721  1.00  0.00    -0.246 OA
BRANCH  31  33
ATOM     33  C   UNL A   1      35.915  31.166  28.604  1.00  0.00     0.060 A 
ATOM     34  C   UNL A   1      36.956  32.058  28.880  1.00  0.00     0.016 A 
ATOM     35  C   UNL A   1      36.083  29.779  28.732  1.00  0.00     0.016 A 
ATOM     36  C   UNL A   1      38.213  31.549  29.137  1.00  0.00     0.010 A 
ATOM     37  C   UNL A   1      37.340  29.273  28.979  1.00  0.00     0.010 A 
ATOM     38  C   UNL A   1      38.403  30.163  29.113  1.00  0.00    -0.014 A 
BRANCH  38  39
ATOM     39  C   UNL A   1      39.747  29.661  29.322  1.00  0.00     0.031 A 
ATOM     40  C   UNL A   1      40.109  29.488  30.749  1.00  0.00     0.074 A 
ATOM     41  C   UNL A   1      40.540  29.254  28.314  1.00  0.00     0.049 A 
ATOM     42  N   UNL A   1      41.029  30.094  31.421  1.00  0.00    -0.248 NA
ATOM     43  C   UNL A   1      39.238  28.620  31.560  1.00  0.00     0.031 C 
ATOM     44  C   UNL A   1      40.184  29.085  26.903  1.00  0.00     0.029 A 
ATOM     45  N   UNL A   1      41.816  28.788  28.371  1.00  0.00    -0.354 N 
ATOM     46  C   UNL A   1      40.999  29.522  32.687  1.00  0.00     0.074 A 
ATOM     47  C   UNL A   1      39.778  28.764  32.769  1.00  0.00     0.031 C 
ATOM     48  C   UNL A   1      41.140  28.347  26.293  1.00  0.00     0.029 A 
ATOM     49  C   UNL A   1      42.222  28.104  27.234  1.00  0.00     0.049 A 
ATOM     50  H   UNL A   1      42.401  28.923  29.152  1.00  0.00     0.167 HD
ATOM     51  C   UNL A   1      42.098  29.505  33.488  1.00  0.00     0.037 A 
ATOM     52  C   UNL A   1      43.323  27.321  27.120  1.00  0.00     0.037 A 
ATOM     53  C   UNL A   1      43.071  30.484  33.082  1.00  0.00     0.049 A 
ATOM     54  C   UNL A   1      44.260  27.718  28.206  1.00  0.00     0.074 A 
ATOM     55  C   UNL A   1      43.061  31.857  32.930  1.00  0.00     0.029 A 
ATOM     56  N   UNL A   1      44.187  30.041  32.415  1.00  0.00    -0.354 N 
ATOM     57  N   UNL A   1      44.861  28.875  28.275  1.00  0.00    -0.248 NA
ATOM     58  C   UNL A   1      44.225  26.964  29.450  1.00  0.00     0.031 C 
ATOM     59  C   UNL A   1      43.895  32.114  31.804  1.00  0.00     0.029 A 
ATOM     60  C   UNL A   1      44.396  30.889  31.357  1.00  0.00     0.049 A 
ATOM     61  H   UNL A   1      44.735  29.259  32.651  1.00  0.00     0.167 HD
ATOM     62  C   UNL A   1      44.902  29.177  29.628  1.00  0.00     0.074 A 
ATOM     63  C   UNL A   1      44.602  27.919  30.304  1.00  0.00     0.031 C 
ATOM     64  C   UNL A   1      44.902  30.469  30.067  1.00  0.00     0.037 A 
BRANCH  51  65
ATOM     65  C   UNL A   1      42.433  28.349  34.397  1.00  0.00     0.058 A 
ATOM     66  C   UNL A   1      42.904  27.102  33.926  1.00  0.00     0.135 A 
ATOM     67  C   UNL A   1      42.563  28.567  35.782  1.00  0.00     0.135 A 
ATOM     68  F   UNL A   1      42.949  26.798  32.623  1.00  0.00    -0.206 F 
ATOM     69  C   UNL A   1      43.456  26.142  34.760  1.00  0.00     0.059 A 
ATOM     70  C   UNL A   1      43.172  27.639  36.631  1.00  0.00     0.059 A 
ATOM     71  F   UNL A   1      42.171  29.729  36.329  1.00  0.00    -0.206 F 
ATOM     72  C   UNL A   1      43.619  26.431  36.106  1.00  0.00     0.060 A 
BRANCH  72  73
ATOM     73  S   UNL A   1      44.539  25.249  37.105  1.00  0.00     0.124 S 
ATOM     74  O   UNL A   1      45.916  25.626  36.803  1.00  0.00    -0.237 OA
ATOM     75  O   UNL A   1      44.073  25.567  38.451  1.00  0.00    -0.237 OA
ATOM     76  O   UNL A   1      44.106  23.960  36.582  1.00  0.00    -0.744 OA
ENDBRANCH  72  73
ENDBRANCH  51  65
BRANCH  52  77
ATOM     77  C   UNL A   1      43.452  26.034  26.385  1.00  0.00     0.058 A 
ATOM     78  C   UNL A   1      42.771  24.870  26.798  1.00  0.00     0.135 A 
ATOM     79  C   UNL A   1      44.473  25.847  25.434  1.00  0.00     0.135 A 
ATOM     80  F   UNL A   1      41.814  24.916  27.736  1.00  0.00    -0.206 F 
ATOM     81  C   UNL A   1      43.111  23.601  26.339  1.00  0.00     0.059 A 
ATOM     82  C   UNL A   1      44.841  24.580  24.968  1.00  0.00     0.059 A 
ATOM     83  F   UNL A   1      45.184  26.898  24.995  1.00  0.00    -0.206 F 
ATOM     84  C   UNL A   1      44.172  23.459  25.452  1.00  0.00     0.060 A 
BRANCH  84  85
ATOM     85  S   UNL A   1      44.701  21.785  25.034  1.00  0.00     0.124 S 
ATOM     86  O   UNL A   1      46.060  21.760  25.568  1.00  0.00    -0.237 OA
ATOM     87  O   UNL A   1      43.728  20.969  25.754  1.00  0.00    -0.237 OA
ATOM     88  O   UNL A   1      44.597  21.745  23.580  1.00  0.00    -0.744 OA
ENDBRANCH  84  85
ENDBRANCH  52  77
BRANCH  64  89
ATOM     89  C   UNL A   1      45.205  31.563  29.074  1.00  0.00     0.058 A 
ATOM     90  C   UNL A   1      44.147  32.057  28.294  1.00  0.00     0.135 A 
ATOM     91  C   UNL A   1      46.499  32.018  28.763  1.00  0.00     0.135 A 
ATOM     92  F   UNL A   1      42.894  31.621  28.503  1.00  0.00    -0.206 F 
ATOM     93  C   UNL A   1      44.357  32.956  27.253  1.00  0.00     0.059 A 
ATOM     94  C   UNL A   1      46.729  32.947  27.745  1.00  0.00     0.059 A 
ATOM     95  F   UNL A   1      47.574  31.523  29.393  1.00  0.00    -0.206 F 
ATOM     96  C   UNL A   1      45.651  33.398  26.986  1.00  0.00     0.060 A 
BRANCH  96  97
ATOM     97  S   UNL A   1      45.895  34.545  25.613  1.00  0.00     0.124 S 
ATOM     98  O   UNL A   1      44.918  34.063  24.640  1.00  0.00    -0.237 OA
ATOM     99  O   UNL A   1      45.587  35.835  26.225  1.00  0.00    -0.237 OA
ATOM    100  O   UNL A   1      47.293  34.353  25.239  1.00  0.00    -0.744 OA
ENDBRANCH  96  97
ENDBRANCH  64  89
ENDBRANCH  38  39
ENDBRANCH  31  33
ENDBRANCH  30  31
ENDBRANCH   1  30
TORSDOF 16
ENDMDL
