MODEL 1
REMARK VINA RESULT:     -12.0      0.000      0.000
REMARK SMILES Cc1cccc(O[C@H](C)C(=O)N2CCC[C@@H](C(=O)OCCOC(=O)c3ccc(-c4c5nc(c(-c6c(F)cc(S(=O)(=O)[O-])cc6F)c6ccc([nH]6)c(-c6c(F)cc(S(=O)(=O)[O-])cc6F)c6nc(c(-c7c(F)cc(S(=O)(=O)[O-])cc7F)c7ccc4[nH]7)C=C6)C=C5)cc3)C2)c1
REMARK SMILES IDX 20 1 19 2 17 3 18 4 16 5 12 6 13 7 91 8 14 9 15 10 10 11
REMARK SMILES IDX 11 12 8 13 9 14 7 15 6 16 1 17 2 18 3 19 92 20 4 21 5 22
REMARK SMILES IDX 21 23 22 24 23 25 24 26 25 27 26 28 90 29 27 30 89 31 28 32
REMARK SMILES IDX 29 33 30 34 83 35 31 36 88 37 82 38 84 39 32 40 87 41 81 42
REMARK SMILES IDX 80 43 33 45 67 46 46 47 66 48 47 49 50 50 65 51 85 52 48 53
REMARK SMILES IDX 49 54 64 56 86 57 51 58 34 59 35 60 44 61 36 62 37 63 43 64
REMARK SMILES IDX 45 65 38 66 39 67 40 68 41 69 42 70 68 71 69 72 78 73 70 74
REMARK SMILES IDX 71 75 77 76 79 77 72 78 73 79 74 80 75 81 76 82 52 83 53 84
REMARK SMILES IDX 62 85 54 86 55 87 61 88 63 89 56 90 57 91 58 92 59 93 60 94
REMARK H PARENT 84 44 50 55
REMARK Flexibility Score: inf
ROOT
ATOM      1  C   UNL A   1      37.459  22.656  25.439  1.00  0.00     0.274 C 
ENDROOT
BRANCH   1   2
ATOM      2  O   UNL A   1      36.134  22.873  24.964  1.00  0.00    -0.462 OA
BRANCH   2   3
ATOM      3  C   UNL A   1      35.069  22.408  25.673  1.00  0.00     0.310 C 
ATOM      4  O   UNL A   1      35.115  21.518  26.513  1.00  0.00    -0.252 OA
BRANCH   3   5
ATOM      5  C   UNL A   1      33.835  23.128  25.186  1.00  0.00     0.119 C 
ATOM      6  N   UNL A   1      33.079  24.183  23.110  1.00  0.00    -0.339 N 
ATOM      7  C   UNL A   1      31.732  23.626  23.242  1.00  0.00     0.119 C 
ATOM      8  C   UNL A   1      34.111  23.399  23.728  1.00  0.00     0.134 C 
ATOM      9  C   UNL A   1      31.392  23.279  24.698  1.00  0.00     0.022 C 
ATOM     10  C   UNL A   1      32.489  22.435  25.367  1.00  0.00     0.019 C 
BRANCH   6  11
ATOM     11  C   UNL A   1      33.329  25.334  22.383  1.00  0.00     0.263 C 
ATOM     12  O   UNL A   1      33.414  25.287  21.147  1.00  0.00    -0.271 OA
BRANCH  11  13
ATOM     13  C   UNL A   1      33.502  26.734  23.101  1.00  0.00     0.259 C 
ATOM     14  C   UNL A   1      32.455  27.776  22.701  1.00  0.00     0.064 C 
BRANCH  13  15
ATOM     15  O   UNL A   1      34.026  26.846  24.434  1.00  0.00    -0.481 OA
BRANCH  15  16
ATOM     16  C   UNL A   1      33.332  27.388  25.473  1.00  0.00     0.120 A 
ATOM     17  C   UNL A   1      33.405  30.718  27.356  1.00  0.00     0.044 C 
ATOM     18  C   UNL A   1      33.036  29.331  26.929  1.00  0.00    -0.047 A 
ATOM     19  C   UNL A   1      31.944  28.709  27.533  1.00  0.00     0.003 A 
ATOM     20  C   UNL A   1      33.732  28.657  25.910  1.00  0.00     0.049 A 
ATOM     21  C   UNL A   1      31.494  27.488  27.046  1.00  0.00     0.004 A 
ATOM     22  C   UNL A   1      32.170  26.837  26.007  1.00  0.00     0.046 A 
ENDBRANCH  15  16
ENDBRANCH  13  15
ENDBRANCH  11  13
ENDBRANCH   6  11
ENDBRANCH   3   5
ENDBRANCH   2   3
ENDBRANCH   1   2
BRANCH   1  23
ATOM     23  C   UNL A   1      37.940  23.945  26.143  1.00  0.00     0.275 C 
BRANCH  23  24
ATOM     24  O   UNL A   1      39.321  24.390  26.004  1.00  0.00    -0.458 OA
BRANCH  24  25
ATOM     25  C   UNL A   1      40.052  24.672  27.123  1.00  0.00     0.338 C 
ATOM     26  O   UNL A   1      41.097  24.109  27.393  1.00  0.00    -0.246 OA
BRANCH  25  27
ATOM     27  C   UNL A   1      39.546  25.932  27.736  1.00  0.00     0.060 A 
ATOM     28  C   UNL A   1      39.116  25.934  29.073  1.00  0.00     0.016 A 
ATOM     29  C   UNL A   1      39.914  27.118  27.102  1.00  0.00     0.016 A 
ATOM     30  C   UNL A   1      39.218  27.099  29.828  1.00  0.00     0.010 A 
ATOM     31  C   UNL A   1      40.222  28.190  27.890  1.00  0.00     0.010 A 
ATOM     32  C   UNL A   1      39.834  28.198  29.237  1.00  0.00    -0.014 A 
BRANCH  32  33
ATOM     33  C   UNL A   1      39.808  29.540  29.789  1.00  0.00     0.031 A 
ATOM     34  C   UNL A   1      38.696  30.462  29.507  1.00  0.00     0.074 A 
ATOM     35  C   UNL A   1      40.853  29.702  30.632  1.00  0.00     0.049 A 
ATOM     36  N   UNL A   1      38.821  31.723  29.275  1.00  0.00    -0.248 NA
ATOM     37  C   UNL A   1      37.306  30.012  29.392  1.00  0.00     0.031 C 
ATOM     38  C   UNL A   1      41.196  30.705  31.612  1.00  0.00     0.029 A 
ATOM     39  N   UNL A   1      41.986  28.867  30.617  1.00  0.00    -0.354 N 
ATOM     40  C   UNL A   1      37.552  32.266  29.416  1.00  0.00     0.074 A 
ATOM     41  C   UNL A   1      36.644  31.165  29.232  1.00  0.00     0.031 C 
ATOM     42  C   UNL A   1      42.529  30.632  31.835  1.00  0.00     0.029 A 
ATOM     43  C   UNL A   1      43.090  29.637  30.919  1.00  0.00     0.049 A 
ATOM     44  H   UNL A   1      41.989  27.901  30.426  1.00  0.00     0.167 HD
ATOM     45  C   UNL A   1      37.410  33.488  30.013  1.00  0.00     0.037 A 
ATOM     46  C   UNL A   1      43.958  29.858  29.886  1.00  0.00     0.037 A 
ATOM     47  C   UNL A   1      38.726  33.940  30.458  1.00  0.00     0.049 A 
ATOM     48  C   UNL A   1      43.863  31.304  29.483  1.00  0.00     0.074 A 
ATOM     49  C   UNL A   1      39.351  33.782  31.686  1.00  0.00     0.029 A 
ATOM     50  N   UNL A   1      39.724  34.227  29.536  1.00  0.00    -0.354 N 
ATOM     51  N   UNL A   1      42.758  32.001  29.479  1.00  0.00    -0.248 NA
ATOM     52  C   UNL A   1      45.052  32.095  29.203  1.00  0.00     0.031 C 
ATOM     53  C   UNL A   1      40.744  33.905  31.483  1.00  0.00     0.029 A 
ATOM     54  C   UNL A   1      40.967  34.103  30.131  1.00  0.00     0.049 A 
ATOM     55  H   UNL A   1      39.571  34.481  28.598  1.00  0.00     0.167 HD
ATOM     56  C   UNL A   1      43.079  33.320  29.297  1.00  0.00     0.074 A 
ATOM     57  C   UNL A   1      44.521  33.323  29.106  1.00  0.00     0.031 C 
ATOM     58  C   UNL A   1      42.180  34.346  29.378  1.00  0.00     0.037 A 
BRANCH  45  59
ATOM     59  C   UNL A   1      36.113  34.050  30.580  1.00  0.00     0.058 A 
ATOM     60  C   UNL A   1      35.120  34.574  29.716  1.00  0.00     0.135 A 
ATOM     61  C   UNL A   1      35.780  34.104  31.949  1.00  0.00     0.135 A 
ATOM     62  F   UNL A   1      35.242  34.519  28.385  1.00  0.00    -0.206 F 
ATOM     63  C   UNL A   1      33.947  35.178  30.168  1.00  0.00     0.059 A 
ATOM     64  C   UNL A   1      34.615  34.727  32.430  1.00  0.00     0.059 A 
ATOM     65  F   UNL A   1      36.553  33.514  32.873  1.00  0.00    -0.206 F 
ATOM     66  C   UNL A   1      33.707  35.269  31.528  1.00  0.00     0.060 A 
BRANCH  66  67
ATOM     67  S   UNL A   1      32.176  36.058  32.068  1.00  0.00     0.124 S 
ATOM     68  O   UNL A   1      32.671  37.133  32.922  1.00  0.00    -0.237 OA
ATOM     69  O   UNL A   1      31.584  36.476  30.803  1.00  0.00    -0.237 OA
ATOM     70  O   UNL A   1      31.469  34.988  32.766  1.00  0.00    -0.744 OA
ENDBRANCH  66  67
ENDBRANCH  45  59
BRANCH  46  71
ATOM     71  C   UNL A   1      44.150  28.690  28.947  1.00  0.00     0.058 A 
ATOM     72  C   UNL A   1      43.672  28.805  27.620  1.00  0.00     0.135 A 
ATOM     73  C   UNL A   1      44.973  27.584  29.210  1.00  0.00     0.135 A 
ATOM     74  F   UNL A   1      42.870  29.830  27.282  1.00  0.00    -0.206 F 
ATOM     75  C   UNL A   1      44.065  27.944  26.594  1.00  0.00     0.059 A 
ATOM     76  C   UNL A   1      45.366  26.691  28.196  1.00  0.00     0.059 A 
ATOM     77  F   UNL A   1      45.473  27.388  30.439  1.00  0.00    -0.206 F 
ATOM     78  C   UNL A   1      44.933  26.899  26.886  1.00  0.00     0.060 A 
BRANCH  78  79
ATOM     79  S   UNL A   1      45.628  25.951  25.502  1.00  0.00     0.124 S 
ATOM     80  O   UNL A   1      46.598  25.099  26.177  1.00  0.00    -0.237 OA
ATOM     81  O   UNL A   1      44.444  25.271  24.980  1.00  0.00    -0.237 OA
ATOM     82  O   UNL A   1      46.185  26.991  24.642  1.00  0.00    -0.744 OA
ENDBRANCH  78  79
ENDBRANCH  46  71
BRANCH  58  83
ATOM     83  C   UNL A   1      42.446  35.739  28.885  1.00  0.00     0.058 A 
ATOM     84  C   UNL A   1      43.258  36.649  29.578  1.00  0.00     0.135 A 
ATOM     85  C   UNL A   1      42.000  36.154  27.607  1.00  0.00     0.135 A 
ATOM     86  F   UNL A   1      43.863  36.315  30.727  1.00  0.00    -0.206 F 
ATOM     87  C   UNL A   1      43.507  37.928  29.100  1.00  0.00     0.059 A 
ATOM     88  C   UNL A   1      42.301  37.399  27.077  1.00  0.00     0.059 A 
ATOM     89  F   UNL A   1      41.262  35.358  26.819  1.00  0.00    -0.206 F 
ATOM     90  C   UNL A   1      43.015  38.298  27.852  1.00  0.00     0.060 A 
BRANCH  90  91
ATOM     91  S   UNL A   1      43.330  39.956  27.242  1.00  0.00     0.124 S 
ATOM     92  O   UNL A   1      44.754  39.880  26.934  1.00  0.00    -0.237 OA
ATOM     93  O   UNL A   1      42.437  40.047  26.090  1.00  0.00    -0.237 OA
ATOM     94  O   UNL A   1      42.970  40.804  28.374  1.00  0.00    -0.744 OA
ENDBRANCH  90  91
ENDBRANCH  58  83
ENDBRANCH  32  33
ENDBRANCH  25  27
ENDBRANCH  24  25
ENDBRANCH  23  24
ENDBRANCH   1  23
TORSDOF 18
ENDMDL
MODEL 2
REMARK VINA RESULT:     -10.9      1.294      2.172
REMARK SMILES Cc1cccc(O[C@H](C)C(=O)N2CCC[C@@H](C(=O)OCCOC(=O)c3ccc(-c4c5nc(c(-c6c(F)cc(S(=O)(=O)[O-])cc6F)c6ccc([nH]6)c(-c6c(F)cc(S(=O)(=O)[O-])cc6F)c6nc(c(-c7c(F)cc(S(=O)(=O)[O-])cc7F)c7ccc4[nH]7)C=C6)C=C5)cc3)C2)c1
REMARK SMILES IDX 20 1 19 2 17 3 18 4 16 5 12 6 13 7 91 8 14 9 15 10 10 11
REMARK SMILES IDX 11 12 8 13 9 14 7 15 6 16 1 17 2 18 3 19 92 20 4 21 5 22
REMARK SMILES IDX 21 23 22 24 23 25 24 26 25 27 26 28 90 29 27 30 89 31 28 32
REMARK SMILES IDX 29 33 30 34 83 35 31 36 88 37 82 38 84 39 32 40 87 41 81 42
REMARK SMILES IDX 80 43 33 45 67 46 46 47 66 48 47 49 50 50 65 51 85 52 48 53
REMARK SMILES IDX 49 54 64 56 86 57 51 58 34 59 35 60 44 61 36 62 37 63 43 64
REMARK SMILES IDX 45 65 38 66 39 67 40 68 41 69 42 70 68 71 69 72 78 73 70 74
REMARK SMILES IDX 71 75 77 76 79 77 72 78 73 79 74 80 75 81 76 82 52 83 53 84
REMARK SMILES IDX 62 85 54 86 55 87 61 88 63 89 56 90 57 91 58 92 59 93 60 94
REMARK H PARENT 84 44 50 55
REMARK Flexibility Score: inf
ROOT
ATOM      1  C   UNL A   1      36.866  23.184  26.176  1.00  0.00     0.274 C 
ENDROOT
BRANCH   1   2
ATOM      2  O   UNL A   1      36.145  23.502  24.990  1.00  0.00    -0.462 OA
BRANCH   2   3
ATOM      3  C   UNL A   1      34.860  23.080  24.837  1.00  0.00     0.310 C 
ATOM      4  O   UNL A   1      34.461  21.943  25.050  1.00  0.00    -0.252 OA
BRANCH   3   5
ATOM      5  C   UNL A   1      34.052  24.235  24.295  1.00  0.00     0.119 C 
ATOM      6  N   UNL A   1      33.908  26.651  24.666  1.00  0.00    -0.339 N 
ATOM      7  C   UNL A   1      33.783  26.928  23.235  1.00  0.00     0.119 C 
ATOM      8  C   UNL A   1      34.629  25.449  24.979  1.00  0.00     0.134 C 
ATOM      9  C   UNL A   1      33.244  25.719  22.458  1.00  0.00     0.022 C 
ATOM     10  C   UNL A   1      34.013  24.428  22.783  1.00  0.00     0.019 C 
BRANCH   6  11
ATOM     11  C   UNL A   1      33.428  27.523  25.627  1.00  0.00     0.263 C 
ATOM     12  O   UNL A   1      34.186  27.974  26.498  1.00  0.00    -0.271 OA
BRANCH  11  13
ATOM     13  C   UNL A   1      31.911  27.976  25.638  1.00  0.00     0.259 C 
ATOM     14  C   UNL A   1      31.698  29.442  26.025  1.00  0.00     0.064 C 
BRANCH  13  15
ATOM     15  O   UNL A   1      30.944  27.415  24.736  1.00  0.00    -0.481 OA
BRANCH  15  16
ATOM     16  C   UNL A   1      30.274  28.144  23.801  1.00  0.00     0.120 A 
ATOM     17  C   UNL A   1      26.596  28.789  22.967  1.00  0.00     0.044 C 
ATOM     18  C   UNL A   1      28.093  28.819  22.924  1.00  0.00    -0.047 A 
ATOM     19  C   UNL A   1      28.723  29.664  22.012  1.00  0.00     0.003 A 
ATOM     20  C   UNL A   1      28.877  28.052  23.805  1.00  0.00     0.049 A 
ATOM     21  C   UNL A   1      30.104  29.820  22.061  1.00  0.00     0.004 A 
ATOM     22  C   UNL A   1      30.876  29.080  22.964  1.00  0.00     0.046 A 
ENDBRANCH  15  16
ENDBRANCH  13  15
ENDBRANCH  11  13
ENDBRANCH   6  11
ENDBRANCH   3   5
ENDBRANCH   2   3
ENDBRANCH   1   2
BRANCH   1  23
ATOM     23  C   UNL A   1      37.822  24.356  26.492  1.00  0.00     0.275 C 
BRANCH  23  24
ATOM     24  O   UNL A   1      39.243  24.252  26.182  1.00  0.00    -0.458 OA
BRANCH  24  25
ATOM     25  C   UNL A   1      40.163  24.708  27.083  1.00  0.00     0.338 C 
ATOM     26  O   UNL A   1      41.302  24.284  27.141  1.00  0.00    -0.246 OA
BRANCH  25  27
ATOM     27  C   UNL A   1      39.655  25.959  27.714  1.00  0.00     0.060 A 
ATOM     28  C   UNL A   1      39.312  25.964  29.075  1.00  0.00     0.016 A 
ATOM     29  C   UNL A   1      39.940  27.148  27.045  1.00  0.00     0.016 A 
ATOM     30  C   UNL A   1      39.422  27.140  29.810  1.00  0.00     0.010 A 
ATOM     31  C   UNL A   1      40.262  28.240  27.800  1.00  0.00     0.010 A 
ATOM     32  C   UNL A   1      39.960  28.252  29.169  1.00  0.00    -0.014 A 
BRANCH  32  33
ATOM     33  C   UNL A   1      39.924  29.600  29.707  1.00  0.00     0.031 A 
ATOM     34  C   UNL A   1      38.797  30.504  29.429  1.00  0.00     0.074 A 
ATOM     35  C   UNL A   1      40.978  29.783  30.535  1.00  0.00     0.049 A 
ATOM     36  N   UNL A   1      38.904  31.764  29.182  1.00  0.00    -0.248 NA
ATOM     37  C   UNL A   1      37.412  30.035  29.335  1.00  0.00     0.031 C 
ATOM     38  C   UNL A   1      41.320  30.801  31.500  1.00  0.00     0.029 A 
ATOM     39  N   UNL A   1      42.121  28.962  30.516  1.00  0.00    -0.354 N 
ATOM     40  C   UNL A   1      37.630  32.292  29.332  1.00  0.00     0.074 A 
ATOM     41  C   UNL A   1      36.734  31.178  29.172  1.00  0.00     0.031 C 
ATOM     42  C   UNL A   1      42.655  30.747  31.708  1.00  0.00     0.029 A 
ATOM     43  C   UNL A   1      43.219  29.749  30.795  1.00  0.00     0.049 A 
ATOM     44  H   UNL A   1      42.133  27.995  30.334  1.00  0.00     0.167 HD
ATOM     45  C   UNL A   1      37.479  33.519  29.919  1.00  0.00     0.037 A 
ATOM     46  C   UNL A   1      44.071  29.971  29.750  1.00  0.00     0.037 A 
ATOM     47  C   UNL A   1      38.795  33.992  30.343  1.00  0.00     0.049 A 
ATOM     48  C   UNL A   1      43.953  31.411  29.333  1.00  0.00     0.074 A 
ATOM     49  C   UNL A   1      39.437  33.855  31.565  1.00  0.00     0.029 A 
ATOM     50  N   UNL A   1      39.779  34.282  29.406  1.00  0.00    -0.354 N 
ATOM     51  N   UNL A   1      42.839  32.094  29.335  1.00  0.00    -0.248 NA
ATOM     52  C   UNL A   1      45.128  32.213  29.030  1.00  0.00     0.031 C 
ATOM     53  C   UNL A   1      40.826  33.994  31.344  1.00  0.00     0.029 A 
ATOM     54  C   UNL A   1      41.030  34.180  29.987  1.00  0.00     0.049 A 
ATOM     55  H   UNL A   1      39.610  34.524  28.467  1.00  0.00     0.167 HD
ATOM     56  C   UNL A   1      43.141  33.415  29.135  1.00  0.00     0.074 A 
ATOM     57  C   UNL A   1      44.581  33.434  28.927  1.00  0.00     0.031 C 
ATOM     58  C   UNL A   1      42.231  34.430  29.217  1.00  0.00     0.037 A 
BRANCH  45  59
ATOM     59  C   UNL A   1      36.183  34.070  30.495  1.00  0.00     0.058 A 
ATOM     60  C   UNL A   1      35.162  34.548  29.637  1.00  0.00     0.135 A 
ATOM     61  C   UNL A   1      35.876  34.159  31.869  1.00  0.00     0.135 A 
ATOM     62  F   UNL A   1      35.257  34.455  28.306  1.00  0.00    -0.206 F 
ATOM     63  C   UNL A   1      33.985  35.140  30.095  1.00  0.00     0.059 A 
ATOM     64  C   UNL A   1      34.707  34.772  32.355  1.00  0.00     0.059 A 
ATOM     65  F   UNL A   1      36.680  33.614  32.794  1.00  0.00    -0.206 F 
ATOM     66  C   UNL A   1      33.770  35.267  31.457  1.00  0.00     0.060 A 
BRANCH  66  67
ATOM     67  S   UNL A   1      32.234  36.040  32.005  1.00  0.00     0.124 S 
ATOM     68  O   UNL A   1      31.567  34.939  32.693  1.00  0.00    -0.237 OA
ATOM     69  O   UNL A   1      32.721  37.118  32.858  1.00  0.00    -0.237 OA
ATOM     70  O   UNL A   1      31.603  36.466  30.759  1.00  0.00    -0.744 OA
ENDBRANCH  66  67
ENDBRANCH  45  59
BRANCH  46  71
ATOM     71  C   UNL A   1      44.267  28.795  28.821  1.00  0.00     0.058 A 
ATOM     72  C   UNL A   1      43.761  28.885  27.503  1.00  0.00     0.135 A 
ATOM     73  C   UNL A   1      45.115  27.707  29.081  1.00  0.00     0.135 A 
ATOM     74  F   UNL A   1      42.933  29.891  27.169  1.00  0.00    -0.206 F 
ATOM     75  C   UNL A   1      44.150  28.020  26.479  1.00  0.00     0.059 A 
ATOM     76  C   UNL A   1      45.505  26.810  28.070  1.00  0.00     0.059 A 
ATOM     77  F   UNL A   1      45.643  27.535  30.301  1.00  0.00    -0.206 F 
ATOM     78  C   UNL A   1      45.043  26.994  26.766  1.00  0.00     0.060 A 
BRANCH  78  79
ATOM     79  S   UNL A   1      45.728  26.043  25.379  1.00  0.00     0.124 S 
ATOM     80  O   UNL A   1      46.084  27.098  24.438  1.00  0.00    -0.237 OA
ATOM     81  O   UNL A   1      46.851  25.355  26.013  1.00  0.00    -0.237 OA
ATOM     82  O   UNL A   1      44.611  25.191  24.985  1.00  0.00    -0.744 OA
ENDBRANCH  78  79
ENDBRANCH  46  71
BRANCH  58  83
ATOM     83  C   UNL A   1      42.472  35.821  28.706  1.00  0.00     0.058 A 
ATOM     84  C   UNL A   1      43.176  36.788  29.438  1.00  0.00     0.135 A 
ATOM     85  C   UNL A   1      42.121  36.179  27.382  1.00  0.00     0.135 A 
ATOM     86  F   UNL A   1      43.694  36.515  30.644  1.00  0.00    -0.206 F 
ATOM     87  C   UNL A   1      43.406  38.065  28.944  1.00  0.00     0.059 A 
ATOM     88  C   UNL A   1      42.409  37.424  26.842  1.00  0.00     0.059 A 
ATOM     89  F   UNL A   1      41.494  35.327  26.557  1.00  0.00    -0.206 F 
ATOM     90  C   UNL A   1      43.009  38.376  27.648  1.00  0.00     0.060 A 
BRANCH  90  91
ATOM     91  S   UNL A   1      43.297  40.032  27.017  1.00  0.00     0.124 S 
ATOM     92  O   UNL A   1      44.618  39.880  26.414  1.00  0.00    -0.237 OA
ATOM     93  O   UNL A   1      42.191  40.213  26.080  1.00  0.00    -0.237 OA
ATOM     94  O   UNL A   1      43.238  40.863  28.214  1.00  0.00    -0.744 OA
ENDBRANCH  90  91
ENDBRANCH  58  83
ENDBRANCH  32  33
ENDBRANCH  25  27
ENDBRANCH  24  25
ENDBRANCH  23  24
ENDBRANCH   1  23
TORSDOF 18
ENDMDL
MODEL 3
REMARK VINA RESULT:     -10.9      4.708     11.402
REMARK SMILES Cc1cccc(O[C@H](C)C(=O)N2CCC[C@@H](C(=O)OCCOC(=O)c3ccc(-c4c5nc(c(-c6c(F)cc(S(=O)(=O)[O-])cc6F)c6ccc([nH]6)c(-c6c(F)cc(S(=O)(=O)[O-])cc6F)c6nc(c(-c7c(F)cc(S(=O)(=O)[O-])cc7F)c7ccc4[nH]7)C=C6)C=C5)cc3)C2)c1
REMARK SMILES IDX 20 1 19 2 17 3 18 4 16 5 12 6 13 7 91 8 14 9 15 10 10 11
REMARK SMILES IDX 11 12 8 13 9 14 7 15 6 16 1 17 2 18 3 19 92 20 4 21 5 22
REMARK SMILES IDX 21 23 22 24 23 25 24 26 25 27 26 28 90 29 27 30 89 31 28 32
REMARK SMILES IDX 29 33 30 34 83 35 31 36 88 37 82 38 84 39 32 40 87 41 81 42
REMARK SMILES IDX 80 43 33 45 67 46 46 47 66 48 47 49 50 50 65 51 85 52 48 53
REMARK SMILES IDX 49 54 64 56 86 57 51 58 34 59 35 60 44 61 36 62 37 63 43 64
REMARK SMILES IDX 45 65 38 66 39 67 40 68 41 69 42 70 68 71 69 72 78 73 70 74
REMARK SMILES IDX 71 75 77 76 79 77 72 78 73 79 74 80 75 81 76 82 52 83 53 84
REMARK SMILES IDX 62 85 54 86 55 87 61 88 63 89 56 90 57 91 58 92 59 93 60 94
REMARK H PARENT 84 44 50 55
REMARK Flexibility Score: inf
ROOT
ATOM      1  C   UNL A   1      35.133  34.097  29.330  1.00  0.00     0.274 C 
ENDROOT
BRANCH   1   2
ATOM      2  O   UNL A   1      34.020  33.208  29.330  1.00  0.00    -0.462 OA
BRANCH   2   3
ATOM      3  C   UNL A   1      33.508  32.753  28.153  1.00  0.00     0.310 C 
ATOM      4  O   UNL A   1      32.831  33.414  27.377  1.00  0.00    -0.252 OA
BRANCH   3   5
ATOM      5  C   UNL A   1      33.863  31.292  28.025  1.00  0.00     0.119 C 
ATOM      6  N   UNL A   1      33.034  29.348  26.788  1.00  0.00    -0.339 N 
ATOM      7  C   UNL A   1      34.388  28.885  26.481  1.00  0.00     0.119 C 
ATOM      8  C   UNL A   1      32.917  30.767  26.974  1.00  0.00     0.134 C 
ATOM      9  C   UNL A   1      35.420  29.417  27.484  1.00  0.00     0.022 C 
ATOM     10  C   UNL A   1      35.307  30.937  27.685  1.00  0.00     0.019 C 
BRANCH   6  11
ATOM     11  C   UNL A   1      31.953  28.484  26.822  1.00  0.00     0.263 C 
ATOM     12  O   UNL A   1      31.214  28.445  27.817  1.00  0.00    -0.271 OA
BRANCH  11  13
ATOM     13  C   UNL A   1      31.625  27.535  25.599  1.00  0.00     0.259 C 
ATOM     14  C   UNL A   1      30.846  26.272  25.978  1.00  0.00     0.064 C 
BRANCH  13  15
ATOM     15  O   UNL A   1      31.388  28.049  24.279  1.00  0.00    -0.481 OA
BRANCH  15  16
ATOM     16  C   UNL A   1      30.204  28.597  23.885  1.00  0.00     0.120 A 
ATOM     17  C   UNL A   1      28.859  32.152  23.445  1.00  0.00     0.044 C 
ATOM     18  C   UNL A   1      28.951  30.657  23.476  1.00  0.00    -0.047 A 
ATOM     19  C   UNL A   1      27.875  29.906  23.004  1.00  0.00     0.003 A 
ATOM     20  C   UNL A   1      30.106  29.992  23.928  1.00  0.00     0.049 A 
ATOM     21  C   UNL A   1      28.001  28.528  22.882  1.00  0.00     0.004 A 
ATOM     22  C   UNL A   1      29.167  27.875  23.301  1.00  0.00     0.046 A 
ENDBRANCH  15  16
ENDBRANCH  13  15
ENDBRANCH  11  13
ENDBRANCH   6  11
ENDBRANCH   3   5
ENDBRANCH   2   3
ENDBRANCH   1   2
BRANCH   1  23
ATOM     23  C   UNL A   1      35.950  33.852  30.619  1.00  0.00     0.275 C 
BRANCH  23  24
ATOM     24  O   UNL A   1      37.073  32.922  30.614  1.00  0.00    -0.458 OA
BRANCH  24  25
ATOM     25  C   UNL A   1      36.863  31.613  30.941  1.00  0.00     0.338 C 
ATOM     26  O   UNL A   1      35.797  31.193  31.352  1.00  0.00    -0.246 OA
BRANCH  25  27
ATOM     27  C   UNL A   1      37.995  30.791  30.428  1.00  0.00     0.060 A 
ATOM     28  C   UNL A   1      39.094  31.419  29.819  1.00  0.00     0.016 A 
ATOM     29  C   UNL A   1      38.106  29.501  30.945  1.00  0.00     0.016 A 
ATOM     30  C   UNL A   1      40.350  30.823  29.882  1.00  0.00     0.010 A 
ATOM     31  C   UNL A   1      39.360  29.026  31.202  1.00  0.00     0.010 A 
ATOM     32  C   UNL A   1      40.474  29.659  30.633  1.00  0.00    -0.014 A 
BRANCH  32  33
ATOM     33  C   UNL A   1      41.639  28.793  30.607  1.00  0.00     0.031 A 
ATOM     34  C   UNL A   1      41.616  27.502  29.902  1.00  0.00     0.074 A 
ATOM     35  C   UNL A   1      42.680  29.419  31.202  1.00  0.00     0.049 A 
ATOM     36  N   UNL A   1      42.159  26.415  30.331  1.00  0.00    -0.248 NA
ATOM     37  C   UNL A   1      40.898  27.303  28.640  1.00  0.00     0.031 C 
ATOM     38  C   UNL A   1      44.098  29.155  31.262  1.00  0.00     0.029 A 
ATOM     39  N   UNL A   1      42.521  30.517  32.068  1.00  0.00    -0.354 N 
ATOM     40  C   UNL A   1      42.220  25.561  29.240  1.00  0.00     0.074 A 
ATOM     41  C   UNL A   1      41.223  26.043  28.322  1.00  0.00     0.031 C 
ATOM     42  C   UNL A   1      44.599  29.808  32.335  1.00  0.00     0.029 A 
ATOM     43  C   UNL A   1      43.483  30.430  33.053  1.00  0.00     0.049 A 
ATOM     44  H   UNL A   1      41.841  31.224  31.985  1.00  0.00     0.167 HD
ATOM     45  C   UNL A   1      43.322  24.769  29.071  1.00  0.00     0.037 A 
ATOM     46  C   UNL A   1      43.026  30.118  34.303  1.00  0.00     0.037 A 
ATOM     47  C   UNL A   1      44.282  25.084  30.127  1.00  0.00     0.049 A 
ATOM     48  C   UNL A   1      43.474  28.723  34.642  1.00  0.00     0.074 A 
ATOM     49  C   UNL A   1      45.338  25.984  30.128  1.00  0.00     0.029 A 
ATOM     50  N   UNL A   1      43.985  24.817  31.456  1.00  0.00    -0.354 N 
ATOM     51  N   UNL A   1      43.550  27.740  33.785  1.00  0.00    -0.248 NA
ATOM     52  C   UNL A   1      44.012  28.396  35.954  1.00  0.00     0.031 C 
ATOM     53  C   UNL A   1      45.626  26.312  31.472  1.00  0.00     0.029 A 
ATOM     54  C   UNL A   1      44.727  25.641  32.282  1.00  0.00     0.049 A 
ATOM     55  H   UNL A   1      43.340  24.140  31.765  1.00  0.00     0.167 HD
ATOM     56  C   UNL A   1      44.217  26.700  34.376  1.00  0.00     0.074 A 
ATOM     57  C   UNL A   1      44.463  27.150  35.738  1.00  0.00     0.031 C 
ATOM     58  C   UNL A   1      44.597  25.563  33.723  1.00  0.00     0.037 A 
BRANCH  45  59
ATOM     59  C   UNL A   1      43.724  24.077  27.776  1.00  0.00     0.058 A 
ATOM     60  C   UNL A   1      43.254  22.772  27.485  1.00  0.00     0.135 A 
ATOM     61  C   UNL A   1      44.557  24.629  26.781  1.00  0.00     0.135 A 
ATOM     62  F   UNL A   1      42.384  22.140  28.282  1.00  0.00    -0.206 F 
ATOM     63  C   UNL A   1      43.644  22.046  26.360  1.00  0.00     0.059 A 
ATOM     64  C   UNL A   1      44.983  23.908  25.651  1.00  0.00     0.059 A 
ATOM     65  F   UNL A   1      44.959  25.907  26.847  1.00  0.00    -0.206 F 
ATOM     66  C   UNL A   1      44.525  22.611  25.454  1.00  0.00     0.060 A 
BRANCH  66  67
ATOM     67  S   UNL A   1      45.003  21.636  24.013  1.00  0.00     0.124 S 
ATOM     68  O   UNL A   1      44.484  22.441  22.913  1.00  0.00    -0.237 OA
ATOM     69  O   UNL A   1      46.456  21.596  24.139  1.00  0.00    -0.237 OA
ATOM     70  O   UNL A   1      44.323  20.361  24.224  1.00  0.00    -0.744 OA
ENDBRANCH  66  67
ENDBRANCH  45  59
BRANCH  46  71
ATOM     71  C   UNL A   1      41.697  30.734  34.672  1.00  0.00     0.058 A 
ATOM     72  C   UNL A   1      41.659  32.109  35.005  1.00  0.00     0.135 A 
ATOM     73  C   UNL A   1      40.452  30.112  34.488  1.00  0.00     0.135 A 
ATOM     74  F   UNL A   1      42.806  32.781  35.209  1.00  0.00    -0.206 F 
ATOM     75  C   UNL A   1      40.476  32.847  35.049  1.00  0.00     0.059 A 
ATOM     76  C   UNL A   1      39.245  30.832  34.547  1.00  0.00     0.059 A 
ATOM     77  F   UNL A   1      40.384  28.811  34.172  1.00  0.00    -0.206 F 
ATOM     78  C   UNL A   1      39.270  32.204  34.796  1.00  0.00     0.060 A 
BRANCH  78  79
ATOM     79  S   UNL A   1      37.779  33.225  34.609  1.00  0.00     0.124 S 
ATOM     80  O   UNL A   1      36.761  32.221  34.328  1.00  0.00    -0.237 OA
ATOM     81  O   UNL A   1      37.689  33.868  35.918  1.00  0.00    -0.237 OA
ATOM     82  O   UNL A   1      38.126  34.107  33.498  1.00  0.00    -0.744 OA
ENDBRANCH  78  79
ENDBRANCH  46  71
BRANCH  58  83
ATOM     83  C   UNL A   1      45.043  24.305  34.411  1.00  0.00     0.058 A 
ATOM     84  C   UNL A   1      44.154  23.287  34.785  1.00  0.00     0.135 A 
ATOM     85  C   UNL A   1      46.419  24.023  34.587  1.00  0.00     0.135 A 
ATOM     86  F   UNL A   1      42.841  23.374  34.529  1.00  0.00    -0.206 F 
ATOM     87  C   UNL A   1      44.585  22.122  35.406  1.00  0.00     0.059 A 
ATOM     88  C   UNL A   1      46.875  22.833  35.135  1.00  0.00     0.059 A 
ATOM     89  F   UNL A   1      47.375  24.889  34.220  1.00  0.00    -0.206 F 
ATOM     90  C   UNL A   1      45.947  21.909  35.587  1.00  0.00     0.060 A 
BRANCH  90  91
ATOM     91  S   UNL A   1      46.500  20.408  36.400  1.00  0.00     0.124 S 
ATOM     92  O   UNL A   1      47.945  20.503  36.220  1.00  0.00    -0.237 OA
ATOM     93  O   UNL A   1      46.019  20.591  37.767  1.00  0.00    -0.237 OA
ATOM     94  O   UNL A   1      45.834  19.352  35.644  1.00  0.00    -0.744 OA
ENDBRANCH  90  91
ENDBRANCH  58  83
ENDBRANCH  32  33
ENDBRANCH  25  27
ENDBRANCH  24  25
ENDBRANCH  23  24
ENDBRANCH   1  23
TORSDOF 18
ENDMDL
