MODEL 1
REMARK VINA RESULT:     -11.0      0.000      0.000
REMARK SMILES C[C@@H]1C[N@@H+](C[C@]2(C(=O)OCCOC(=O)c3ccc(-c4c5nc(c(-c6c(F)cc(S(=O)(=O)[O-])cc6F)c6ccc([nH]6)c(-c6c(F)cc(S(=O)(=O)[O-])cc6F)c6nc(c(-c7c(F)cc(S(=O)(=O)[O-])cc7F)c7ccc4[nH]7)C=C6)C=C5)cc3)CCOC2)C[C@@H]1C
REMARK SMILES IDX 11 1 10 2 9 3 7 4 8 5 6 6 81 7 84 8 82 9 83 10 5 11 4 12
REMARK SMILES IDX 1 13 2 14 3 15 86 16 85 17 87 18 12 20 13 21 14 22 15 23
REMARK SMILES IDX 16 24 80 25 17 26 79 27 18 28 19 29 20 30 73 31 21 32 78 33
REMARK SMILES IDX 72 34 74 35 22 36 77 37 71 38 70 39 23 41 57 42 36 43 56 44
REMARK SMILES IDX 37 45 40 46 55 47 75 48 38 49 39 50 54 52 76 53 41 54 24 55
REMARK SMILES IDX 25 56 34 57 26 58 27 59 33 60 35 61 28 62 29 63 30 64 31 65
REMARK SMILES IDX 32 66 58 67 59 68 68 69 60 70 61 71 67 72 69 73 62 74 63 75
REMARK SMILES IDX 64 76 65 77 66 78 42 79 43 80 52 81 44 82 45 83 51 84 53 85
REMARK SMILES IDX 46 86 47 87 48 88 49 89 50 90
REMARK H PARENT 4 19 74 40 40 51
REMARK Flexibility Score: inf
ROOT
ATOM      1  C   UNL A   1      38.847  22.487  26.453  1.00  0.00     0.275 C 
ENDROOT
BRANCH   1   2
ATOM      2  C   UNL A   1      37.918  21.967  25.356  1.00  0.00     0.274 C 
BRANCH   2   3
ATOM      3  O   UNL A   1      36.547  22.008  25.807  1.00  0.00    -0.461 OA
BRANCH   3   4
ATOM      4  C   UNL A   1      35.747  20.999  25.376  1.00  0.00     0.320 C 
ATOM      5  O   UNL A   1      36.167  19.935  24.933  1.00  0.00    -0.251 OA
BRANCH   4   6
ATOM      6  C   UNL A   1      34.256  21.307  25.501  1.00  0.00     0.142 C 
ATOM      7  C   UNL A   1      33.769  21.812  24.150  1.00  0.00     0.055 C 
ATOM      8  C   UNL A   1      33.395  20.058  25.631  1.00  0.00     0.185 C 
ATOM      9  C   UNL A   1      32.333  21.363  24.034  1.00  0.00     0.161 C 
ATOM     10  O   UNL A   1      32.130  20.341  25.016  1.00  0.00    -0.380 OA
BRANCH   6  11
ATOM     11  C   UNL A   1      34.150  22.317  26.680  1.00  0.00     0.283 C 
BRANCH  11  12
ATOM     12  N   UNL A   1      33.665  23.680  26.545  1.00  0.00    -0.333 N 
ATOM     13  C   UNL A   1      30.732  25.710  25.544  1.00  0.00     0.014 C 
ATOM     14  C   UNL A   1      32.005  24.892  25.416  1.00  0.00     0.049 C 
ATOM     15  C   UNL A   1      32.249  23.972  26.604  1.00  0.00     0.265 C 
ATOM     16  C   UNL A   1      33.325  25.661  25.271  1.00  0.00     0.049 C 
ATOM     17  C   UNL A   1      34.372  24.614  25.683  1.00  0.00     0.265 C 
ATOM     18  C   UNL A   1      33.421  26.920  26.128  1.00  0.00     0.014 C 
ATOM     19  H   UNL A   1      33.995  23.873  27.490  1.00  0.00     0.348 HD
ENDBRANCH  11  12
ENDBRANCH   6  11
ENDBRANCH   4   6
ENDBRANCH   3   4
ENDBRANCH   2   3
ENDBRANCH   1   2
BRANCH   1  20
ATOM     20  O   UNL A   1      39.191  23.856  26.178  1.00  0.00    -0.458 OA
BRANCH  20  21
ATOM     21  C   UNL A   1      40.392  24.272  26.647  1.00  0.00     0.338 C 
ATOM     22  O   UNL A   1      41.476  23.781  26.380  1.00  0.00    -0.246 OA
BRANCH  21  23
ATOM     23  C   UNL A   1      40.230  25.457  27.526  1.00  0.00     0.060 A 
ATOM     24  C   UNL A   1      41.043  26.581  27.385  1.00  0.00     0.016 A 
ATOM     25  C   UNL A   1      39.329  25.401  28.590  1.00  0.00     0.016 A 
ATOM     26  C   UNL A   1      41.066  27.561  28.378  1.00  0.00     0.010 A 
ATOM     27  C   UNL A   1      39.252  26.461  29.507  1.00  0.00     0.010 A 
ATOM     28  C   UNL A   1      40.152  27.538  29.444  1.00  0.00    -0.014 A 
BRANCH  28  29
ATOM     29  C   UNL A   1      40.156  28.615  30.486  1.00  0.00     0.031 A 
ATOM     30  C   UNL A   1      41.176  28.608  31.603  1.00  0.00     0.074 A 
ATOM     31  C   UNL A   1      39.252  29.618  30.442  1.00  0.00     0.049 A 
ATOM     32  N   UNL A   1      41.206  29.324  32.701  1.00  0.00    -0.248 NA
ATOM     33  C   UNL A   1      42.294  27.658  31.487  1.00  0.00     0.031 C 
ATOM     34  C   UNL A   1      38.210  29.784  29.426  1.00  0.00     0.029 A 
ATOM     35  N   UNL A   1      39.072  30.701  31.269  1.00  0.00    -0.354 N 
ATOM     36  C   UNL A   1      42.286  28.852  33.440  1.00  0.00     0.074 A 
ATOM     37  C   UNL A   1      42.899  27.799  32.659  1.00  0.00     0.031 C 
ATOM     38  C   UNL A   1      37.554  30.932  29.644  1.00  0.00     0.029 A 
ATOM     39  C   UNL A   1      38.049  31.533  30.876  1.00  0.00     0.049 A 
ATOM     40  H   UNL A   1      39.625  30.867  32.068  1.00  0.00     0.167 HD
ATOM     41  C   UNL A   1      42.723  29.255  34.659  1.00  0.00     0.037 A 
ATOM     42  C   UNL A   1      37.526  32.631  31.456  1.00  0.00     0.037 A 
ATOM     43  C   UNL A   1      42.173  30.364  35.397  1.00  0.00     0.049 A 
ATOM     44  C   UNL A   1      38.058  33.089  32.781  1.00  0.00     0.074 A 
ATOM     45  C   UNL A   1      42.563  30.859  36.631  1.00  0.00     0.029 A 
ATOM     46  N   UNL A   1      41.137  31.174  34.956  1.00  0.00    -0.354 N 
ATOM     47  N   UNL A   1      39.018  32.568  33.506  1.00  0.00    -0.248 NA
ATOM     48  C   UNL A   1      37.415  34.267  33.380  1.00  0.00     0.031 C 
ATOM     49  C   UNL A   1      41.753  31.957  36.943  1.00  0.00     0.029 A 
ATOM     50  C   UNL A   1      40.879  32.164  35.890  1.00  0.00     0.049 A 
ATOM     51  H   UNL A   1      40.656  31.061  34.104  1.00  0.00     0.167 HD
ATOM     52  C   UNL A   1      39.084  33.345  34.656  1.00  0.00     0.074 A 
ATOM     53  C   UNL A   1      38.094  34.393  34.512  1.00  0.00     0.031 C 
ATOM     54  C   UNL A   1      39.883  33.193  35.740  1.00  0.00     0.037 A 
BRANCH  41  55
ATOM     55  C   UNL A   1      43.838  28.471  35.298  1.00  0.00     0.058 A 
ATOM     56  C   UNL A   1      45.187  28.813  35.127  1.00  0.00     0.135 A 
ATOM     57  C   UNL A   1      43.539  27.385  36.139  1.00  0.00     0.135 A 
ATOM     58  F   UNL A   1      45.529  29.831  34.322  1.00  0.00    -0.206 F 
ATOM     59  C   UNL A   1      46.203  28.093  35.750  1.00  0.00     0.059 A 
ATOM     60  C   UNL A   1      44.537  26.666  36.789  1.00  0.00     0.059 A 
ATOM     61  F   UNL A   1      42.264  27.017  36.340  1.00  0.00    -0.206 F 
ATOM     62  C   UNL A   1      45.869  27.019  36.577  1.00  0.00     0.060 A 
BRANCH  62  63
ATOM     63  S   UNL A   1      47.193  26.098  37.389  1.00  0.00     0.124 S 
ATOM     64  O   UNL A   1      46.577  25.776  38.673  1.00  0.00    -0.237 OA
ATOM     65  O   UNL A   1      47.396  24.971  36.483  1.00  0.00    -0.237 OA
ATOM     66  O   UNL A   1      48.290  27.058  37.443  1.00  0.00    -0.744 OA
ENDBRANCH  62  63
ENDBRANCH  41  55
BRANCH  42  67
ATOM     67  C   UNL A   1      36.398  33.342  30.799  1.00  0.00     0.058 A 
ATOM     68  C   UNL A   1      35.088  33.217  31.281  1.00  0.00     0.135 A 
ATOM     69  C   UNL A   1      36.615  34.190  29.701  1.00  0.00     0.135 A 
ATOM     70  F   UNL A   1      34.829  32.406  32.319  1.00  0.00    -0.206 F 
ATOM     71  C   UNL A   1      34.030  33.912  30.702  1.00  0.00     0.059 A 
ATOM     72  C   UNL A   1      35.580  34.915  29.123  1.00  0.00     0.059 A 
ATOM     73  F   UNL A   1      37.854  34.353  29.212  1.00  0.00    -0.206 F 
ATOM     74  C   UNL A   1      34.289  34.764  29.626  1.00  0.00     0.060 A 
BRANCH  74  75
ATOM     75  S   UNL A   1      32.933  35.733  28.930  1.00  0.00     0.124 S 
ATOM     76  O   UNL A   1      33.652  36.837  28.307  1.00  0.00    -0.237 OA
ATOM     77  O   UNL A   1      32.305  34.784  28.017  1.00  0.00    -0.237 OA
ATOM     78  O   UNL A   1      32.137  36.077  30.105  1.00  0.00    -0.744 OA
ENDBRANCH  74  75
ENDBRANCH  42  67
BRANCH  54  79
ATOM     79  C   UNL A   1      39.714  34.192  36.847  1.00  0.00     0.058 A 
ATOM     80  C   UNL A   1      40.351  35.442  36.806  1.00  0.00     0.135 A 
ATOM     81  C   UNL A   1      38.916  33.896  37.963  1.00  0.00     0.135 A 
ATOM     82  F   UNL A   1      41.131  35.768  35.763  1.00  0.00    -0.206 F 
ATOM     83  C   UNL A   1      40.232  36.352  37.851  1.00  0.00     0.059 A 
ATOM     84  C   UNL A   1      38.768  34.798  39.011  1.00  0.00     0.059 A 
ATOM     85  F   UNL A   1      38.279  32.716  38.045  1.00  0.00    -0.206 F 
ATOM     86  C   UNL A   1      39.446  36.016  38.955  1.00  0.00     0.060 A 
BRANCH  86  87
ATOM     87  S   UNL A   1      39.305  37.195  40.316  1.00  0.00     0.124 S 
ATOM     88  O   UNL A   1      40.706  37.513  40.572  1.00  0.00    -0.237 OA
ATOM     89  O   UNL A   1      38.509  38.267  39.727  1.00  0.00    -0.237 OA
ATOM     90  O   UNL A   1      38.634  36.425  41.359  1.00  0.00    -0.744 OA
ENDBRANCH  86  87
ENDBRANCH  54  79
ENDBRANCH  28  29
ENDBRANCH  21  23
ENDBRANCH  20  21
ENDBRANCH   1  20
TORSDOF 16
ENDMDL
MODEL 2
REMARK VINA RESULT:     -10.9      7.006     12.308
REMARK SMILES C[C@@H]1C[N@@H+](C[C@]2(C(=O)OCCOC(=O)c3ccc(-c4c5nc(c(-c6c(F)cc(S(=O)(=O)[O-])cc6F)c6ccc([nH]6)c(-c6c(F)cc(S(=O)(=O)[O-])cc6F)c6nc(c(-c7c(F)cc(S(=O)(=O)[O-])cc7F)c7ccc4[nH]7)C=C6)C=C5)cc3)CCOC2)C[C@@H]1C
REMARK SMILES IDX 11 1 10 2 9 3 7 4 8 5 6 6 81 7 84 8 82 9 83 10 5 11 4 12
REMARK SMILES IDX 1 13 2 14 3 15 86 16 85 17 87 18 12 20 13 21 14 22 15 23
REMARK SMILES IDX 16 24 80 25 17 26 79 27 18 28 19 29 20 30 73 31 21 32 78 33
REMARK SMILES IDX 72 34 74 35 22 36 77 37 71 38 70 39 23 41 57 42 36 43 56 44
REMARK SMILES IDX 37 45 40 46 55 47 75 48 38 49 39 50 54 52 76 53 41 54 24 55
REMARK SMILES IDX 25 56 34 57 26 58 27 59 33 60 35 61 28 62 29 63 30 64 31 65
REMARK SMILES IDX 32 66 58 67 59 68 68 69 60 70 61 71 67 72 69 73 62 74 63 75
REMARK SMILES IDX 64 76 65 77 66 78 42 79 43 80 52 81 44 82 45 83 51 84 53 85
REMARK SMILES IDX 46 86 47 87 48 88 49 89 50 90
REMARK H PARENT 4 19 74 40 40 51
REMARK Flexibility Score: inf
ROOT
ATOM      1  C   UNL A   1      34.373  30.257  27.255  1.00  0.00     0.275 C 
ENDROOT
BRANCH   1   2
ATOM      2  C   UNL A   1      33.070  29.487  27.039  1.00  0.00     0.274 C 
BRANCH   2   3
ATOM      3  O   UNL A   1      33.348  28.080  26.876  1.00  0.00    -0.461 OA
BRANCH   3   4
ATOM      4  C   UNL A   1      32.268  27.274  26.706  1.00  0.00     0.320 C 
ATOM      5  O   UNL A   1      31.194  27.441  27.277  1.00  0.00    -0.251 OA
BRANCH   4   6
ATOM      6  C   UNL A   1      32.508  26.130  25.723  1.00  0.00     0.142 C 
ATOM      7  C   UNL A   1      33.977  25.743  25.808  1.00  0.00     0.055 C 
ATOM      8  C   UNL A   1      31.873  24.818  26.164  1.00  0.00     0.185 C 
ATOM      9  C   UNL A   1      34.032  24.262  25.521  1.00  0.00     0.161 C 
ATOM     10  O   UNL A   1      32.703  23.754  25.676  1.00  0.00    -0.380 OA
BRANCH   6  11
ATOM     11  C   UNL A   1      32.028  26.675  24.346  1.00  0.00     0.283 C 
BRANCH  11  12
ATOM     12  N   UNL A   1      31.052  27.738  24.186  1.00  0.00    -0.333 N 
ATOM     13  C   UNL A   1      27.628  28.478  22.979  1.00  0.00     0.014 C 
ATOM     14  C   UNL A   1      29.127  28.237  22.943  1.00  0.00     0.049 C 
ATOM     15  C   UNL A   1      29.635  27.442  24.137  1.00  0.00     0.265 C 
ATOM     16  C   UNL A   1      30.038  29.472  22.911  1.00  0.00     0.049 C 
ATOM     17  C   UNL A   1      31.384  28.910  23.393  1.00  0.00     0.265 C 
ATOM     18  C   UNL A   1      29.565  30.630  23.785  1.00  0.00     0.014 C 
ATOM     19  H   UNL A   1      31.212  28.007  25.157  1.00  0.00     0.348 HD
ENDBRANCH  11  12
ENDBRANCH   6  11
ENDBRANCH   4   6
ENDBRANCH   3   4
ENDBRANCH   2   3
ENDBRANCH   1   2
BRANCH   1  20
ATOM     20  O   UNL A   1      35.248  29.488  28.097  1.00  0.00    -0.458 OA
BRANCH  20  21
ATOM     21  C   UNL A   1      35.959  30.190  29.012  1.00  0.00     0.338 C 
ATOM     22  O   UNL A   1      35.498  30.874  29.910  1.00  0.00    -0.246 OA
BRANCH  21  23
ATOM     23  C   UNL A   1      37.417  29.992  28.808  1.00  0.00     0.060 A 
ATOM     24  C   UNL A   1      37.956  29.836  27.531  1.00  0.00     0.016 A 
ATOM     25  C   UNL A   1      38.248  29.841  29.918  1.00  0.00     0.016 A 
ATOM     26  C   UNL A   1      39.266  29.382  27.372  1.00  0.00     0.010 A 
ATOM     27  C   UNL A   1      39.605  29.529  29.746  1.00  0.00     0.010 A 
ATOM     28  C   UNL A   1      40.127  29.247  28.472  1.00  0.00    -0.014 A 
BRANCH  28  29
ATOM     29  C   UNL A   1      41.545  28.797  28.291  1.00  0.00     0.031 A 
ATOM     30  C   UNL A   1      42.693  29.766  28.461  1.00  0.00     0.074 A 
ATOM     31  C   UNL A   1      41.824  27.512  27.978  1.00  0.00     0.049 A 
ATOM     32  N   UNL A   1      43.956  29.618  28.142  1.00  0.00    -0.248 NA
ATOM     33  C   UNL A   1      42.381  31.082  29.042  1.00  0.00     0.031 C 
ATOM     34  C   UNL A   1      40.838  26.445  27.791  1.00  0.00     0.029 A 
ATOM     35  N   UNL A   1      43.027  26.879  27.775  1.00  0.00    -0.354 N 
ATOM     36  C   UNL A   1      44.566  30.842  28.399  1.00  0.00     0.074 A 
ATOM     37  C   UNL A   1      43.538  31.719  28.919  1.00  0.00     0.031 C 
ATOM     38  C   UNL A   1      41.473  25.285  27.578  1.00  0.00     0.029 A 
ATOM     39  C   UNL A   1      42.906  25.536  27.500  1.00  0.00     0.049 A 
ATOM     40  H   UNL A   1      43.895  27.343  27.822  1.00  0.00     0.167 HD
ATOM     41  C   UNL A   1      45.860  31.203  28.214  1.00  0.00     0.037 A 
ATOM     42  C   UNL A   1      43.829  24.610  27.174  1.00  0.00     0.037 A 
ATOM     43  C   UNL A   1      46.903  30.306  27.786  1.00  0.00     0.049 A 
ATOM     44  C   UNL A   1      45.264  25.021  27.024  1.00  0.00     0.074 A 
ATOM     45  C   UNL A   1      48.248  30.576  27.589  1.00  0.00     0.029 A 
ATOM     46  N   UNL A   1      46.729  28.956  27.519  1.00  0.00    -0.354 N 
ATOM     47  N   UNL A   1      45.800  26.206  27.180  1.00  0.00    -0.248 NA
ATOM     48  C   UNL A   1      46.213  23.973  26.624  1.00  0.00     0.031 C 
ATOM     49  C   UNL A   1      48.883  29.394  27.190  1.00  0.00     0.029 A 
ATOM     50  C   UNL A   1      47.939  28.382  27.166  1.00  0.00     0.049 A 
ATOM     51  H   UNL A   1      45.870  28.476  27.574  1.00  0.00     0.167 HD
ATOM     52  C   UNL A   1      47.148  26.051  26.882  1.00  0.00     0.074 A 
ATOM     53  C   UNL A   1      47.351  24.650  26.574  1.00  0.00     0.031 C 
ATOM     54  C   UNL A   1      48.126  26.990  26.850  1.00  0.00     0.037 A 
BRANCH  41  55
ATOM     55  C   UNL A   1      46.225  32.646  28.442  1.00  0.00     0.058 A 
ATOM     56  C   UNL A   1      46.692  33.113  29.679  1.00  0.00     0.135 A 
ATOM     57  C   UNL A   1      46.149  33.564  27.380  1.00  0.00     0.135 A 
ATOM     58  F   UNL A   1      46.768  32.282  30.730  1.00  0.00    -0.206 F 
ATOM     59  C   UNL A   1      47.051  34.446  29.862  1.00  0.00     0.059 A 
ATOM     60  C   UNL A   1      46.524  34.895  27.535  1.00  0.00     0.059 A 
ATOM     61  F   UNL A   1      45.710  33.169  26.175  1.00  0.00    -0.206 F 
ATOM     62  C   UNL A   1      46.962  35.330  28.785  1.00  0.00     0.060 A 
BRANCH  62  63
ATOM     63  S   UNL A   1      47.441  37.054  29.030  1.00  0.00     0.124 S 
ATOM     64  O   UNL A   1      48.627  36.910  29.869  1.00  0.00    -0.237 OA
ATOM     65  O   UNL A   1      47.683  37.512  27.665  1.00  0.00    -0.237 OA
ATOM     66  O   UNL A   1      46.276  37.640  29.685  1.00  0.00    -0.744 OA
ENDBRANCH  62  63
ENDBRANCH  41  55
BRANCH  42  67
ATOM     67  C   UNL A   1      43.405  23.208  26.921  1.00  0.00     0.058 A 
ATOM     68  C   UNL A   1      43.361  22.693  25.618  1.00  0.00     0.135 A 
ATOM     69  C   UNL A   1      43.075  22.347  27.979  1.00  0.00     0.135 A 
ATOM     70  F   UNL A   1      43.654  23.483  24.574  1.00  0.00    -0.206 F 
ATOM     71  C   UNL A   1      43.008  21.370  25.371  1.00  0.00     0.059 A 
ATOM     72  C   UNL A   1      42.746  21.015  27.760  1.00  0.00     0.059 A 
ATOM     73  F   UNL A   1      43.116  22.790  29.245  1.00  0.00    -0.206 F 
ATOM     74  C   UNL A   1      42.709  20.536  26.451  1.00  0.00     0.060 A 
BRANCH  74  75
ATOM     75  S   UNL A   1      42.337  18.797  26.139  1.00  0.00     0.124 S 
ATOM     76  O   UNL A   1      43.261  18.490  25.053  1.00  0.00    -0.237 OA
ATOM     77  O   UNL A   1      42.636  18.176  27.425  1.00  0.00    -0.237 OA
ATOM     78  O   UNL A   1      40.922  18.821  25.780  1.00  0.00    -0.744 OA
ENDBRANCH  74  75
ENDBRANCH  42  67
BRANCH  54  79
ATOM     79  C   UNL A   1      49.500  26.519  26.473  1.00  0.00     0.058 A 
ATOM     80  C   UNL A   1      49.954  26.581  25.146  1.00  0.00     0.135 A 
ATOM     81  C   UNL A   1      50.368  25.994  27.443  1.00  0.00     0.135 A 
ATOM     82  F   UNL A   1      49.158  27.068  24.182  1.00  0.00    -0.206 F 
ATOM     83  C   UNL A   1      51.210  26.104  24.787  1.00  0.00     0.059 A 
ATOM     84  C   UNL A   1      51.635  25.529  27.109  1.00  0.00     0.059 A 
ATOM     85  F   UNL A   1      49.982  25.922  28.727  1.00  0.00    -0.206 F 
ATOM     86  C   UNL A   1      52.040  25.570  25.775  1.00  0.00     0.060 A 
BRANCH  86  87
ATOM     87  S   UNL A   1      53.665  24.940  25.302  1.00  0.00     0.124 S 
ATOM     88  O   UNL A   1      54.452  25.240  26.494  1.00  0.00    -0.237 OA
ATOM     89  O   UNL A   1      53.398  23.525  25.058  1.00  0.00    -0.237 OA
ATOM     90  O   UNL A   1      53.996  25.722  24.115  1.00  0.00    -0.744 OA
ENDBRANCH  86  87
ENDBRANCH  54  79
ENDBRANCH  28  29
ENDBRANCH  21  23
ENDBRANCH  20  21
ENDBRANCH   1  20
TORSDOF 16
ENDMDL
MODEL 3
REMARK VINA RESULT:     -10.5      6.906     12.244
REMARK SMILES C[C@@H]1C[N@@H+](C[C@]2(C(=O)OCCOC(=O)c3ccc(-c4c5nc(c(-c6c(F)cc(S(=O)(=O)[O-])cc6F)c6ccc([nH]6)c(-c6c(F)cc(S(=O)(=O)[O-])cc6F)c6nc(c(-c7c(F)cc(S(=O)(=O)[O-])cc7F)c7ccc4[nH]7)C=C6)C=C5)cc3)CCOC2)C[C@@H]1C
REMARK SMILES IDX 11 1 10 2 9 3 7 4 8 5 6 6 81 7 84 8 82 9 83 10 5 11 4 12
REMARK SMILES IDX 1 13 2 14 3 15 86 16 85 17 87 18 12 20 13 21 14 22 15 23
REMARK SMILES IDX 16 24 80 25 17 26 79 27 18 28 19 29 20 30 73 31 21 32 78 33
REMARK SMILES IDX 72 34 74 35 22 36 77 37 71 38 70 39 23 41 57 42 36 43 56 44
REMARK SMILES IDX 37 45 40 46 55 47 75 48 38 49 39 50 54 52 76 53 41 54 24 55
REMARK SMILES IDX 25 56 34 57 26 58 27 59 33 60 35 61 28 62 29 63 30 64 31 65
REMARK SMILES IDX 32 66 58 67 59 68 68 69 60 70 61 71 67 72 69 73 62 74 63 75
REMARK SMILES IDX 64 76 65 77 66 78 42 79 43 80 52 81 44 82 45 83 51 84 53 85
REMARK SMILES IDX 46 86 47 87 48 88 49 89 50 90
REMARK H PARENT 4 19 74 40 40 51
REMARK Flexibility Score: inf
ROOT
ATOM      1  C   UNL A   1      34.201  29.938  27.238  1.00  0.00     0.275 C 
ENDROOT
BRANCH   1   2
ATOM      2  C   UNL A   1      32.988  29.008  27.231  1.00  0.00     0.274 C 
BRANCH   2   3
ATOM      3  O   UNL A   1      33.302  27.791  26.520  1.00  0.00    -0.461 OA
BRANCH   3   4
ATOM      4  C   UNL A   1      32.297  26.882  26.422  1.00  0.00     0.320 C 
ATOM      5  O   UNL A   1      31.300  26.884  27.138  1.00  0.00    -0.251 OA
BRANCH   4   6
ATOM      6  C   UNL A   1      32.516  25.846  25.321  1.00  0.00     0.142 C 
ATOM      7  C   UNL A   1      31.446  26.059  24.260  1.00  0.00     0.055 C 
ATOM      8  C   UNL A   1      33.760  26.116  24.485  1.00  0.00     0.185 C 
ATOM      9  C   UNL A   1      32.080  25.669  22.947  1.00  0.00     0.161 C 
ATOM     10  O   UNL A   1      33.496  25.641  23.156  1.00  0.00    -0.380 OA
BRANCH   6  11
ATOM     11  C   UNL A   1      32.485  24.471  26.049  1.00  0.00     0.283 C 
BRANCH  11  12
ATOM     12  N   UNL A   1      33.344  23.350  25.708  1.00  0.00    -0.333 N 
ATOM     13  C   UNL A   1      33.343  19.727  24.935  1.00  0.00     0.014 C 
ATOM     14  C   UNL A   1      33.340  21.005  25.754  1.00  0.00     0.049 C 
ATOM     15  C   UNL A   1      32.823  22.211  24.982  1.00  0.00     0.265 C 
ATOM     16  C   UNL A   1      34.685  21.482  26.320  1.00  0.00     0.049 C 
ATOM     17  C   UNL A   1      34.423  22.968  26.606  1.00  0.00     0.265 C 
ATOM     18  C   UNL A   1      35.871  21.291  25.378  1.00  0.00     0.014 C 
ATOM     19  H   UNL A   1      33.777  23.924  24.985  1.00  0.00     0.348 HD
ENDBRANCH  11  12
ENDBRANCH   6  11
ENDBRANCH   4   6
ENDBRANCH   3   4
ENDBRANCH   2   3
ENDBRANCH   1   2
BRANCH   1  20
ATOM     20  O   UNL A   1      35.226  29.378  28.076  1.00  0.00    -0.458 OA
BRANCH  20  21
ATOM     21  C   UNL A   1      35.928  30.262  28.825  1.00  0.00     0.338 C 
ATOM     22  O   UNL A   1      35.458  31.108  29.566  1.00  0.00    -0.246 OA
BRANCH  21  23
ATOM     23  C   UNL A   1      37.388  30.048  28.659  1.00  0.00     0.060 A 
ATOM     24  C   UNL A   1      37.961  29.900  27.396  1.00  0.00     0.016 A 
ATOM     25  C   UNL A   1      38.186  29.872  29.790  1.00  0.00     0.016 A 
ATOM     26  C   UNL A   1      39.269  29.432  27.268  1.00  0.00     0.010 A 
ATOM     27  C   UNL A   1      39.544  29.544  29.652  1.00  0.00     0.010 A 
ATOM     28  C   UNL A   1      40.097  29.272  28.389  1.00  0.00    -0.014 A 
BRANCH  28  29
ATOM     29  C   UNL A   1      41.513  28.805  28.241  1.00  0.00     0.031 A 
ATOM     30  C   UNL A   1      42.668  29.763  28.432  1.00  0.00     0.074 A 
ATOM     31  C   UNL A   1      41.785  27.516  27.941  1.00  0.00     0.049 A 
ATOM     32  N   UNL A   1      43.936  29.599  28.142  1.00  0.00    -0.248 NA
ATOM     33  C   UNL A   1      42.358  31.085  28.999  1.00  0.00     0.031 C 
ATOM     34  C   UNL A   1      40.792  26.459  27.738  1.00  0.00     0.029 A 
ATOM     35  N   UNL A   1      42.986  26.869  27.768  1.00  0.00    -0.354 N 
ATOM     36  C   UNL A   1      44.553  30.818  28.406  1.00  0.00     0.074 A 
ATOM     37  C   UNL A   1      43.525  31.709  28.898  1.00  0.00     0.031 C 
ATOM     38  C   UNL A   1      41.419  25.290  27.545  1.00  0.00     0.029 A 
ATOM     39  C   UNL A   1      42.856  25.526  27.497  1.00  0.00     0.049 A 
ATOM     40  H   UNL A   1      43.857  27.323  27.832  1.00  0.00     0.167 HD
ATOM     41  C   UNL A   1      45.855  31.164  28.248  1.00  0.00     0.037 A 
ATOM     42  C   UNL A   1      43.776  24.588  27.196  1.00  0.00     0.037 A 
ATOM     43  C   UNL A   1      46.898  30.254  27.847  1.00  0.00     0.049 A 
ATOM     44  C   UNL A   1      45.218  24.982  27.076  1.00  0.00     0.074 A 
ATOM     45  C   UNL A   1      48.249  30.508  27.679  1.00  0.00     0.029 A 
ATOM     46  N   UNL A   1      46.715  28.904  27.583  1.00  0.00    -0.354 N 
ATOM     47  N   UNL A   1      45.763  26.163  27.238  1.00  0.00    -0.248 NA
ATOM     48  C   UNL A   1      46.164  23.922  26.702  1.00  0.00     0.031 C 
ATOM     49  C   UNL A   1      48.880  29.317  27.300  1.00  0.00     0.029 A 
ATOM     50  C   UNL A   1      47.926  28.315  27.260  1.00  0.00     0.049 A 
ATOM     51  H   UNL A   1      45.850  28.434  27.622  1.00  0.00     0.167 HD
ATOM     52  C   UNL A   1      47.116  25.992  26.970  1.00  0.00     0.074 A 
ATOM     53  C   UNL A   1      47.310  24.587  26.674  1.00  0.00     0.031 C 
ATOM     54  C   UNL A   1      48.104  26.919  26.955  1.00  0.00     0.037 A 
BRANCH  41  55
ATOM     55  C   UNL A   1      46.231  32.604  28.476  1.00  0.00     0.058 A 
ATOM     56  C   UNL A   1      46.781  33.051  29.686  1.00  0.00     0.135 A 
ATOM     57  C   UNL A   1      46.078  33.541  27.440  1.00  0.00     0.135 A 
ATOM     58  F   UNL A   1      46.933  32.201  30.714  1.00  0.00    -0.206 F 
ATOM     59  C   UNL A   1      47.149  34.381  29.869  1.00  0.00     0.059 A 
ATOM     60  C   UNL A   1      46.459  34.870  27.593  1.00  0.00     0.059 A 
ATOM     61  F   UNL A   1      45.558  33.166  26.261  1.00  0.00    -0.206 F 
ATOM     62  C   UNL A   1      46.982  35.285  28.817  1.00  0.00     0.060 A 
BRANCH  62  63
ATOM     63  S   UNL A   1      47.472  37.006  29.060  1.00  0.00     0.124 S 
ATOM     64  O   UNL A   1      47.794  37.411  27.695  1.00  0.00    -0.237 OA
ATOM     65  O   UNL A   1      46.266  37.600  29.630  1.00  0.00    -0.237 OA
ATOM     66  O   UNL A   1      48.608  36.909  29.971  1.00  0.00    -0.744 OA
ENDBRANCH  62  63
ENDBRANCH  41  55
BRANCH  42  67
ATOM     67  C   UNL A   1      43.342  23.189  26.941  1.00  0.00     0.058 A 
ATOM     68  C   UNL A   1      43.334  22.663  25.641  1.00  0.00     0.135 A 
ATOM     69  C   UNL A   1      42.966  22.342  27.994  1.00  0.00     0.135 A 
ATOM     70  F   UNL A   1      43.671  23.441  24.601  1.00  0.00    -0.206 F 
ATOM     71  C   UNL A   1      42.972  21.343  25.394  1.00  0.00     0.059 A 
ATOM     72  C   UNL A   1      42.628  21.012  27.775  1.00  0.00     0.059 A 
ATOM     73  F   UNL A   1      42.972  22.795  29.257  1.00  0.00    -0.206 F 
ATOM     74  C   UNL A   1      42.627  20.522  26.470  1.00  0.00     0.060 A 
BRANCH  74  75
ATOM     75  S   UNL A   1      42.243  18.785  26.160  1.00  0.00     0.124 S 
ATOM     76  O   UNL A   1      43.231  18.444  25.144  1.00  0.00    -0.237 OA
ATOM     77  O   UNL A   1      42.443  18.180  27.473  1.00  0.00    -0.237 OA
ATOM     78  O   UNL A   1      40.856  18.830  25.707  1.00  0.00    -0.744 OA
ENDBRANCH  74  75
ENDBRANCH  42  67
BRANCH  54  79
ATOM     79  C   UNL A   1      49.481  26.432  26.611  1.00  0.00     0.058 A 
ATOM     80  C   UNL A   1      50.366  25.986  27.606  1.00  0.00     0.135 A 
ATOM     81  C   UNL A   1      49.924  26.417  25.280  1.00  0.00     0.135 A 
ATOM     82  F   UNL A   1      49.992  25.988  28.894  1.00  0.00    -0.206 F 
ATOM     83  C   UNL A   1      51.659  25.576  27.295  1.00  0.00     0.059 A 
ATOM     84  C   UNL A   1      51.205  25.993  24.944  1.00  0.00     0.059 A 
ATOM     85  F   UNL A   1      49.111  26.826  24.293  1.00  0.00    -0.206 F 
ATOM     86  C   UNL A   1      52.072  25.593  25.961  1.00  0.00     0.060 A 
BRANCH  86  87
ATOM     87  S   UNL A   1      53.755  25.072  25.564  1.00  0.00     0.124 S 
ATOM     88  O   UNL A   1      54.461  25.403  26.798  1.00  0.00    -0.237 OA
ATOM     89  O   UNL A   1      53.590  23.647  25.290  1.00  0.00    -0.237 OA
ATOM     90  O   UNL A   1      54.095  25.891  24.405  1.00  0.00    -0.744 OA
ENDBRANCH  86  87
ENDBRANCH  54  79
ENDBRANCH  28  29
ENDBRANCH  21  23
ENDBRANCH  20  21
ENDBRANCH   1  20
TORSDOF 16
ENDMDL
