MODEL 1
REMARK VINA RESULT:     -11.8      0.000      0.000
REMARK SMILES CC(C)(C)c1cc2c(cc1Cl)C=C(C(=O)OCCOC(=O)c1ccc(-c3c4nc(c(-c5c(F)cc(S(=O)(=O)[O-])cc5F)c5ccc([nH]5)c(-c5c(F)cc(S(=O)(=O)[O-])cc5F)c5nc(c(-c6c(F)cc(S(=O)(=O)[O-])cc6F)c6ccc3[nH]6)C=C5)C=C4)cc1)[C@@H](C(F)(F)F)O2
REMARK SMILES IDX 18 1 17 2 16 3 14 4 15 5 13 6 5 7 6 8 10 9 7 10 9 11 11 12
REMARK SMILES IDX 8 13 93 14 12 15 88 16 2 17 1 18 3 19 4 20 89 21 90 22 91 23
REMARK SMILES IDX 92 24 19 25 20 26 21 27 22 28 23 29 87 30 24 31 86 32 25 33
REMARK SMILES IDX 26 34 27 35 80 36 28 37 85 38 79 39 81 40 29 41 84 42 78 43
REMARK SMILES IDX 77 44 30 46 64 47 43 48 63 49 44 50 47 51 62 52 82 53 45 54
REMARK SMILES IDX 46 55 61 57 83 58 48 59 31 60 32 61 41 62 33 63 34 64 40 65
REMARK SMILES IDX 42 66 35 67 36 68 37 69 38 70 39 71 65 72 66 73 75 74 67 75
REMARK SMILES IDX 68 76 74 77 76 78 69 79 70 80 71 81 72 82 73 83 49 84 50 85
REMARK SMILES IDX 59 86 51 87 52 88 58 89 60 90 53 91 54 92 55 93 56 94 57 95
REMARK H PARENT 81 45 47 56
REMARK Flexibility Score: inf
ROOT
ATOM      1  C   UNL A   1      37.818  20.994  25.043  1.00  0.00     0.275 C 
ENDROOT
BRANCH   1   2
ATOM      2  C   UNL A   1      36.323  20.716  25.209  1.00  0.00     0.275 C 
BRANCH   2   3
ATOM      3  O   UNL A   1      35.527  21.566  24.353  1.00  0.00    -0.459 OA
BRANCH   3   4
ATOM      4  C   UNL A   1      34.189  21.433  24.492  1.00  0.00     0.338 C 
ATOM      5  O   UNL A   1      33.538  20.413  24.323  1.00  0.00    -0.246 OA
BRANCH   4   6
ATOM      6  C   UNL A   1      33.575  22.704  24.914  1.00  0.00     0.087 C 
ATOM      7  C   UNL A   1      32.726  27.640  25.671  1.00  0.00    -0.020 A 
ATOM      8  C   UNL A   1      32.356  26.435  26.327  1.00  0.00     0.053 A 
ATOM      9  C   UNL A   1      33.386  27.497  24.430  1.00  0.00     0.045 A 
ATOM     10  C   UNL A   1      32.699  25.172  25.834  1.00  0.00     0.128 A 
ATOM     11  C   UNL A   1      33.742  26.233  23.947  1.00  0.00     0.032 A 
ATOM     12  Cl  UNL A   1      33.774  28.799  23.362  1.00  0.00    -0.084 Cl
ATOM     13  C   UNL A   1      33.419  25.079  24.659  1.00  0.00     0.019 A 
ATOM     14  O   UNL A   1      32.286  24.085  26.555  1.00  0.00    -0.475 OA
ATOM     15  C   UNL A   1      33.863  23.789  24.188  1.00  0.00     0.027 C 
ATOM     16  C   UNL A   1      32.788  22.763  26.189  1.00  0.00     0.316 C 
BRANCH   7  17
ATOM     17  C   UNL A   1      32.355  29.000  26.314  1.00  0.00    -0.012 C 
ATOM     18  C   UNL A   1      31.578  28.725  27.614  1.00  0.00     0.016 C 
ATOM     19  C   UNL A   1      31.519  29.927  25.396  1.00  0.00     0.016 C 
ATOM     20  C   UNL A   1      33.609  29.842  26.681  1.00  0.00     0.016 C 
ENDBRANCH   7  17
BRANCH  16  21
ATOM     21  C   UNL A   1      33.588  22.205  27.376  1.00  0.00     0.430 C 
ATOM     22  F   UNL A   1      34.844  22.715  27.404  1.00  0.00    -0.167 F 
ATOM     23  F   UNL A   1      33.018  22.531  28.562  1.00  0.00    -0.167 F 
ATOM     24  F   UNL A   1      33.699  20.859  27.335  1.00  0.00    -0.167 F 
ENDBRANCH  16  21
ENDBRANCH   4   6
ENDBRANCH   3   4
ENDBRANCH   2   3
ENDBRANCH   1   2
BRANCH   1  25
ATOM     25  O   UNL A   1      38.252  22.006  25.968  1.00  0.00    -0.458 OA
BRANCH  25  26
ATOM     26  C   UNL A   1      39.512  21.856  26.435  1.00  0.00     0.338 C 
ATOM     27  O   UNL A   1      40.235  20.881  26.312  1.00  0.00    -0.246 OA
BRANCH  26  28
ATOM     28  C   UNL A   1      39.964  23.107  27.060  1.00  0.00     0.060 A 
ATOM     29  C   UNL A   1      40.961  23.113  28.027  1.00  0.00     0.016 A 
ATOM     30  C   UNL A   1      39.502  24.305  26.530  1.00  0.00     0.016 A 
ATOM     31  C   UNL A   1      41.486  24.339  28.454  1.00  0.00     0.010 A 
ATOM     32  C   UNL A   1      40.151  25.499  26.821  1.00  0.00     0.010 A 
ATOM     33  C   UNL A   1      41.129  25.547  27.819  1.00  0.00    -0.014 A 
BRANCH  33  34
ATOM     34  C   UNL A   1      41.755  26.851  28.196  1.00  0.00     0.031 A 
ATOM     35  C   UNL A   1      43.201  27.150  27.857  1.00  0.00     0.074 A 
ATOM     36  C   UNL A   1      41.038  27.762  28.888  1.00  0.00     0.049 A 
ATOM     37  N   UNL A   1      43.905  28.224  28.116  1.00  0.00    -0.248 NA
ATOM     38  C   UNL A   1      43.973  26.092  27.183  1.00  0.00     0.031 C 
ATOM     39  C   UNL A   1      39.670  27.569  29.379  1.00  0.00     0.029 A 
ATOM     40  N   UNL A   1      41.346  29.041  29.284  1.00  0.00    -0.354 N 
ATOM     41  C   UNL A   1      45.195  27.954  27.666  1.00  0.00     0.074 A 
ATOM     42  C   UNL A   1      45.200  26.589  27.197  1.00  0.00     0.031 C 
ATOM     43  C   UNL A   1      39.230  28.710  29.927  1.00  0.00     0.029 A 
ATOM     44  C   UNL A   1      40.295  29.704  29.876  1.00  0.00     0.049 A 
ATOM     45  H   UNL A   1      42.235  29.444  29.156  1.00  0.00     0.167 HD
ATOM     46  C   UNL A   1      46.269  28.779  27.599  1.00  0.00     0.037 A 
ATOM     47  C   UNL A   1      40.191  30.976  30.313  1.00  0.00     0.037 A 
ATOM     48  C   UNL A   1      46.245  30.160  28.003  1.00  0.00     0.049 A 
ATOM     49  C   UNL A   1      41.370  31.897  30.167  1.00  0.00     0.074 A 
ATOM     50  C   UNL A   1      47.251  31.103  27.905  1.00  0.00     0.029 A 
ATOM     51  N   UNL A   1      45.149  30.799  28.566  1.00  0.00    -0.354 N 
ATOM     52  N   UNL A   1      42.559  31.640  29.678  1.00  0.00    -0.248 NA
ATOM     53  C   UNL A   1      41.192  33.281  30.626  1.00  0.00     0.031 C 
ATOM     54  C   UNL A   1      46.776  32.306  28.439  1.00  0.00     0.029 A 
ATOM     55  C   UNL A   1      45.458  32.124  28.826  1.00  0.00     0.049 A 
ATOM     56  H   UNL A   1      44.281  30.373  28.753  1.00  0.00     0.167 HD
ATOM     57  C   UNL A   1      43.267  32.834  29.752  1.00  0.00     0.074 A 
ATOM     58  C   UNL A   1      42.366  33.817  30.318  1.00  0.00     0.031 C 
ATOM     59  C   UNL A   1      44.548  33.091  29.386  1.00  0.00     0.037 A 
BRANCH  46  60
ATOM     60  C   UNL A   1      47.549  28.220  27.032  1.00  0.00     0.058 A 
ATOM     61  C   UNL A   1      47.771  28.150  25.645  1.00  0.00     0.135 A 
ATOM     62  C   UNL A   1      48.580  27.778  27.877  1.00  0.00     0.135 A 
ATOM     63  F   UNL A   1      46.817  28.546  24.788  1.00  0.00    -0.206 F 
ATOM     64  C   UNL A   1      48.948  27.630  25.119  1.00  0.00     0.059 A 
ATOM     65  C   UNL A   1      49.781  27.283  27.372  1.00  0.00     0.059 A 
ATOM     66  F   UNL A   1      48.429  27.824  29.210  1.00  0.00    -0.206 F 
ATOM     67  C   UNL A   1      49.949  27.199  25.990  1.00  0.00     0.060 A 
BRANCH  67  68
ATOM     68  S   UNL A   1      51.472  26.534  25.286  1.00  0.00     0.124 S 
ATOM     69  O   UNL A   1      52.474  27.422  25.866  1.00  0.00    -0.237 OA
ATOM     70  O   UNL A   1      51.474  25.164  25.788  1.00  0.00    -0.237 OA
ATOM     71  O   UNL A   1      51.271  26.671  23.846  1.00  0.00    -0.744 OA
ENDBRANCH  67  68
ENDBRANCH  46  60
BRANCH  47  72
ATOM     72  C   UNL A   1      38.893  31.460  30.855  1.00  0.00     0.058 A 
ATOM     73  C   UNL A   1      38.679  31.533  32.239  1.00  0.00     0.135 A 
ATOM     74  C   UNL A   1      37.871  31.921  30.012  1.00  0.00     0.135 A 
ATOM     75  F   UNL A   1      39.624  31.098  33.088  1.00  0.00    -0.206 F 
ATOM     76  C   UNL A   1      37.500  32.048  32.771  1.00  0.00     0.059 A 
ATOM     77  C   UNL A   1      36.693  32.464  30.518  1.00  0.00     0.059 A 
ATOM     78  F   UNL A   1      38.033  31.891  28.680  1.00  0.00    -0.206 F 
ATOM     79  C   UNL A   1      36.517  32.521  31.901  1.00  0.00     0.060 A 
BRANCH  79  80
ATOM     80  S   UNL A   1      35.031  33.270  32.605  1.00  0.00     0.124 S 
ATOM     81  O   UNL A   1      35.214  34.674  32.256  1.00  0.00    -0.237 OA
ATOM     82  O   UNL A   1      33.968  32.568  31.891  1.00  0.00    -0.237 OA
ATOM     83  O   UNL A   1      35.135  32.954  34.026  1.00  0.00    -0.744 OA
ENDBRANCH  79  80
ENDBRANCH  47  72
BRANCH  59  84
ATOM     84  C   UNL A   1      45.050  34.496  29.558  1.00  0.00     0.058 A 
ATOM     85  C   UNL A   1      45.714  34.902  30.725  1.00  0.00     0.135 A 
ATOM     86  C   UNL A   1      44.921  35.428  28.515  1.00  0.00     0.135 A 
ATOM     87  F   UNL A   1      45.859  34.050  31.752  1.00  0.00    -0.206 F 
ATOM     88  C   UNL A   1      46.216  36.192  30.861  1.00  0.00     0.059 A 
ATOM     89  C   UNL A   1      45.440  36.715  28.620  1.00  0.00     0.059 A 
ATOM     90  F   UNL A   1      44.306  35.086  27.373  1.00  0.00    -0.206 F 
ATOM     91  C   UNL A   1      46.076  37.090  29.802  1.00  0.00     0.060 A 
BRANCH  91  92
ATOM     92  S   UNL A   1      46.761  38.751  29.983  1.00  0.00     0.124 S 
ATOM     93  O   UNL A   1      47.895  38.704  29.066  1.00  0.00    -0.237 OA
ATOM     94  O   UNL A   1      45.645  39.595  29.570  1.00  0.00    -0.237 OA
ATOM     95  O   UNL A   1      47.103  38.824  31.402  1.00  0.00    -0.744 OA
ENDBRANCH  91  92
ENDBRANCH  59  84
ENDBRANCH  33  34
ENDBRANCH  26  28
ENDBRANCH  25  26
ENDBRANCH   1  25
TORSDOF 16
ENDMDL
MODEL 2
REMARK VINA RESULT:     -11.8      3.887      6.649
REMARK SMILES CC(C)(C)c1cc2c(cc1Cl)C=C(C(=O)OCCOC(=O)c1ccc(-c3c4nc(c(-c5c(F)cc(S(=O)(=O)[O-])cc5F)c5ccc([nH]5)c(-c5c(F)cc(S(=O)(=O)[O-])cc5F)c5nc(c(-c6c(F)cc(S(=O)(=O)[O-])cc6F)c6ccc3[nH]6)C=C5)C=C4)cc1)[C@@H](C(F)(F)F)O2
REMARK SMILES IDX 18 1 17 2 16 3 14 4 15 5 13 6 5 7 6 8 10 9 7 10 9 11 11 12
REMARK SMILES IDX 8 13 93 14 12 15 88 16 2 17 1 18 3 19 4 20 89 21 90 22 91 23
REMARK SMILES IDX 92 24 19 25 20 26 21 27 22 28 23 29 87 30 24 31 86 32 25 33
REMARK SMILES IDX 26 34 27 35 80 36 28 37 85 38 79 39 81 40 29 41 84 42 78 43
REMARK SMILES IDX 77 44 30 46 64 47 43 48 63 49 44 50 47 51 62 52 82 53 45 54
REMARK SMILES IDX 46 55 61 57 83 58 48 59 31 60 32 61 41 62 33 63 34 64 40 65
REMARK SMILES IDX 42 66 35 67 36 68 37 69 38 70 39 71 65 72 66 73 75 74 67 75
REMARK SMILES IDX 68 76 74 77 76 78 69 79 70 80 71 81 72 82 73 83 49 84 50 85
REMARK SMILES IDX 59 86 51 87 52 88 58 89 60 90 53 91 54 92 55 93 56 94 57 95
REMARK H PARENT 81 45 47 56
REMARK Flexibility Score: inf
ROOT
ATOM      1  C   UNL A   1      40.832  20.170  26.368  1.00  0.00     0.275 C 
ENDROOT
BRANCH   1   2
ATOM      2  C   UNL A   1      42.271  20.055  26.870  1.00  0.00     0.275 C 
BRANCH   2   3
ATOM      3  O   UNL A   1      43.219  20.492  25.870  1.00  0.00    -0.459 OA
BRANCH   3   4
ATOM      4  C   UNL A   1      43.252  21.826  25.650  1.00  0.00     0.338 C 
ATOM      5  O   UNL A   1      42.495  22.464  24.933  1.00  0.00    -0.246 OA
BRANCH   4   6
ATOM      6  C   UNL A   1      44.333  22.459  26.424  1.00  0.00     0.087 C 
ATOM      7  C   UNL A   1      46.859  25.451  29.639  1.00  0.00    -0.020 A 
ATOM      8  C   UNL A   1      47.173  24.755  28.440  1.00  0.00     0.053 A 
ATOM      9  C   UNL A   1      45.586  25.189  30.195  1.00  0.00     0.045 A 
ATOM     10  C   UNL A   1      46.256  23.929  27.784  1.00  0.00     0.128 A 
ATOM     11  C   UNL A   1      44.665  24.374  29.528  1.00  0.00     0.032 A 
ATOM     12  Cl  UNL A   1      45.042  25.767  31.730  1.00  0.00    -0.084 Cl
ATOM     13  C   UNL A   1      44.992  23.767  28.318  1.00  0.00     0.019 A 
ATOM     14  O   UNL A   1      46.676  23.314  26.637  1.00  0.00    -0.475 OA
ATOM     15  C   UNL A   1      44.003  22.995  27.604  1.00  0.00     0.027 C 
ATOM     16  C   UNL A   1      45.696  22.605  25.816  1.00  0.00     0.316 C 
BRANCH   7  17
ATOM     17  C   UNL A   1      47.914  26.392  30.271  1.00  0.00    -0.012 C 
ATOM     18  C   UNL A   1      48.270  25.851  31.668  1.00  0.00     0.016 C 
ATOM     19  C   UNL A   1      47.456  27.868  30.388  1.00  0.00     0.016 C 
ATOM     20  C   UNL A   1      49.225  26.455  29.439  1.00  0.00     0.016 C 
ENDBRANCH   7  17
BRANCH  16  21
ATOM     21  C   UNL A   1      45.636  23.287  24.441  1.00  0.00     0.430 C 
ATOM     22  F   UNL A   1      44.839  24.383  24.473  1.00  0.00    -0.167 F 
ATOM     23  F   UNL A   1      46.857  23.715  24.039  1.00  0.00    -0.167 F 
ATOM     24  F   UNL A   1      45.155  22.467  23.481  1.00  0.00    -0.167 F 
ENDBRANCH  16  21
ENDBRANCH   4   6
ENDBRANCH   3   4
ENDBRANCH   2   3
ENDBRANCH   1   2
BRANCH   1  25
ATOM     25  O   UNL A   1      40.077  21.076  27.193  1.00  0.00    -0.458 OA
BRANCH  25  26
ATOM     26  C   UNL A   1      39.438  22.063  26.526  1.00  0.00     0.338 C 
ATOM     27  O   UNL A   1      38.582  21.941  25.665  1.00  0.00    -0.246 OA
BRANCH  26  28
ATOM     28  C   UNL A   1      39.850  23.370  27.056  1.00  0.00     0.060 A 
ATOM     29  C   UNL A   1      40.755  23.471  28.106  1.00  0.00     0.016 A 
ATOM     30  C   UNL A   1      39.459  24.509  26.364  1.00  0.00     0.016 A 
ATOM     31  C   UNL A   1      41.258  24.732  28.450  1.00  0.00     0.010 A 
ATOM     32  C   UNL A   1      40.098  25.723  26.589  1.00  0.00     0.010 A 
ATOM     33  C   UNL A   1      40.981  25.869  27.663  1.00  0.00    -0.014 A 
BRANCH  33  34
ATOM     34  C   UNL A   1      41.590  27.201  27.959  1.00  0.00     0.031 A 
ATOM     35  C   UNL A   1      42.980  27.550  27.467  1.00  0.00     0.074 A 
ATOM     36  C   UNL A   1      40.913  28.094  28.713  1.00  0.00     0.049 A 
ATOM     37  N   UNL A   1      43.664  28.654  27.640  1.00  0.00    -0.248 NA
ATOM     38  C   UNL A   1      43.719  26.513  26.727  1.00  0.00     0.031 C 
ATOM     39  C   UNL A   1      39.613  27.855  29.346  1.00  0.00     0.029 A 
ATOM     40  N   UNL A   1      41.210  29.389  29.061  1.00  0.00    -0.354 N 
ATOM     41  C   UNL A   1      44.909  28.428  27.060  1.00  0.00     0.074 A 
ATOM     42  C   UNL A   1      44.919  27.057  26.607  1.00  0.00     0.031 C 
ATOM     43  C   UNL A   1      39.188  28.987  29.926  1.00  0.00     0.029 A 
ATOM     44  C   UNL A   1      40.202  30.020  29.753  1.00  0.00     0.049 A 
ATOM     45  H   UNL A   1      42.065  29.824  28.837  1.00  0.00     0.167 HD
ATOM     46  C   UNL A   1      45.937  29.292  26.872  1.00  0.00     0.037 A 
ATOM     47  C   UNL A   1      40.093  31.293  30.185  1.00  0.00     0.037 A 
ATOM     48  C   UNL A   1      45.900  30.676  27.262  1.00  0.00     0.049 A 
ATOM     49  C   UNL A   1      41.213  32.257  29.907  1.00  0.00     0.074 A 
ATOM     50  C   UNL A   1      46.853  31.656  27.050  1.00  0.00     0.029 A 
ATOM     51  N   UNL A   1      44.845  31.281  27.930  1.00  0.00    -0.354 N 
ATOM     52  N   UNL A   1      42.354  32.038  29.299  1.00  0.00    -0.248 NA
ATOM     53  C   UNL A   1      41.029  33.639  30.367  1.00  0.00     0.031 C 
ATOM     54  C   UNL A   1      46.389  32.847  27.618  1.00  0.00     0.029 A 
ATOM     55  C   UNL A   1      45.127  32.620  28.143  1.00  0.00     0.049 A 
ATOM     56  H   UNL A   1      44.019  30.825  28.211  1.00  0.00     0.167 HD
ATOM     57  C   UNL A   1      43.018  33.259  29.286  1.00  0.00     0.074 A 
ATOM     58  C   UNL A   1      42.142  34.216  29.933  1.00  0.00     0.031 C 
ATOM     59  C   UNL A   1      44.242  33.560  28.785  1.00  0.00     0.037 A 
BRANCH  46  60
ATOM     60  C   UNL A   1      47.172  28.774  26.180  1.00  0.00     0.058 A 
ATOM     61  C   UNL A   1      48.424  28.763  26.819  1.00  0.00     0.135 A 
ATOM     62  C   UNL A   1      47.104  28.253  24.878  1.00  0.00     0.135 A 
ATOM     63  F   UNL A   1      48.554  29.259  28.059  1.00  0.00    -0.206 F 
ATOM     64  C   UNL A   1      49.566  28.291  26.181  1.00  0.00     0.059 A 
ATOM     65  C   UNL A   1      48.229  27.744  24.231  1.00  0.00     0.059 A 
ATOM     66  F   UNL A   1      45.935  28.231  24.217  1.00  0.00    -0.206 F 
ATOM     67  C   UNL A   1      49.459  27.782  24.887  1.00  0.00     0.060 A 
BRANCH  67  68
ATOM     68  S   UNL A   1      50.952  27.168  24.080  1.00  0.00     0.124 S 
ATOM     69  O   UNL A   1      51.856  28.302  24.235  1.00  0.00    -0.237 OA
ATOM     70  O   UNL A   1      51.274  25.989  24.878  1.00  0.00    -0.237 OA
ATOM     71  O   UNL A   1      50.516  26.895  22.714  1.00  0.00    -0.744 OA
ENDBRANCH  67  68
ENDBRANCH  46  60
BRANCH  47  72
ATOM     72  C   UNL A   1      38.840  31.735  30.855  1.00  0.00     0.058 A 
ATOM     73  C   UNL A   1      38.719  31.680  32.252  1.00  0.00     0.135 A 
ATOM     74  C   UNL A   1      37.771  32.280  30.129  1.00  0.00     0.135 A 
ATOM     75  F   UNL A   1      39.712  31.162  32.992  1.00  0.00    -0.206 F 
ATOM     76  C   UNL A   1      37.585  32.153  32.906  1.00  0.00     0.059 A 
ATOM     77  C   UNL A   1      36.637  32.783  30.761  1.00  0.00     0.059 A 
ATOM     78  F   UNL A   1      37.845  32.372  28.792  1.00  0.00    -0.206 F 
ATOM     79  C   UNL A   1      36.554  32.713  32.151  1.00  0.00     0.060 A 
BRANCH  79  80
ATOM     80  S   UNL A   1      35.128  33.404  33.019  1.00  0.00     0.124 S 
ATOM     81  O   UNL A   1      35.437  33.074  34.405  1.00  0.00    -0.237 OA
ATOM     82  O   UNL A   1      35.213  34.818  32.666  1.00  0.00    -0.237 OA
ATOM     83  O   UNL A   1      33.998  32.688  32.437  1.00  0.00    -0.744 OA
ENDBRANCH  79  80
ENDBRANCH  47  72
BRANCH  59  84
ATOM     84  C   UNL A   1      44.703  34.986  28.889  1.00  0.00     0.058 A 
ATOM     85  C   UNL A   1      45.473  35.433  29.974  1.00  0.00     0.135 A 
ATOM     86  C   UNL A   1      44.426  35.898  27.858  1.00  0.00     0.135 A 
ATOM     87  F   UNL A   1      45.761  34.600  30.987  1.00  0.00    -0.206 F 
ATOM     88  C   UNL A   1      45.934  36.743  30.043  1.00  0.00     0.059 A 
ATOM     89  C   UNL A   1      44.902  37.206  27.894  1.00  0.00     0.059 A 
ATOM     90  F   UNL A   1      43.705  35.517  26.792  1.00  0.00    -0.206 F 
ATOM     91  C   UNL A   1      45.646  37.621  28.997  1.00  0.00     0.060 A 
BRANCH  91  92
ATOM     92  S   UNL A   1      46.280  39.309  29.088  1.00  0.00     0.124 S 
ATOM     93  O   UNL A   1      46.015  39.796  27.739  1.00  0.00    -0.237 OA
ATOM     94  O   UNL A   1      45.460  39.892  30.146  1.00  0.00    -0.237 OA
ATOM     95  O   UNL A   1      47.689  39.125  29.425  1.00  0.00    -0.744 OA
ENDBRANCH  91  92
ENDBRANCH  59  84
ENDBRANCH  33  34
ENDBRANCH  26  28
ENDBRANCH  25  26
ENDBRANCH   1  25
TORSDOF 16
ENDMDL
MODEL 3
REMARK VINA RESULT:     -11.7      3.288      7.644
REMARK SMILES CC(C)(C)c1cc2c(cc1Cl)C=C(C(=O)OCCOC(=O)c1ccc(-c3c4nc(c(-c5c(F)cc(S(=O)(=O)[O-])cc5F)c5ccc([nH]5)c(-c5c(F)cc(S(=O)(=O)[O-])cc5F)c5nc(c(-c6c(F)cc(S(=O)(=O)[O-])cc6F)c6ccc3[nH]6)C=C5)C=C4)cc1)[C@@H](C(F)(F)F)O2
REMARK SMILES IDX 18 1 17 2 16 3 14 4 15 5 13 6 5 7 6 8 10 9 7 10 9 11 11 12
REMARK SMILES IDX 8 13 93 14 12 15 88 16 2 17 1 18 3 19 4 20 89 21 90 22 91 23
REMARK SMILES IDX 92 24 19 25 20 26 21 27 22 28 23 29 87 30 24 31 86 32 25 33
REMARK SMILES IDX 26 34 27 35 80 36 28 37 85 38 79 39 81 40 29 41 84 42 78 43
REMARK SMILES IDX 77 44 30 46 64 47 43 48 63 49 44 50 47 51 62 52 82 53 45 54
REMARK SMILES IDX 46 55 61 57 83 58 48 59 31 60 32 61 41 62 33 63 34 64 40 65
REMARK SMILES IDX 42 66 35 67 36 68 37 69 38 70 39 71 65 72 66 73 75 74 67 75
REMARK SMILES IDX 68 76 74 77 76 78 69 79 70 80 71 81 72 82 73 83 49 84 50 85
REMARK SMILES IDX 59 86 51 87 52 88 58 89 60 90 53 91 54 92 55 93 56 94 57 95
REMARK H PARENT 81 45 47 56
REMARK Flexibility Score: inf
ROOT
ATOM      1  C   UNL A   1      32.362  30.985  27.031  1.00  0.00     0.275 C 
ENDROOT
BRANCH   1   2
ATOM      2  C   UNL A   1      31.862  30.469  25.681  1.00  0.00     0.275 C 
BRANCH   2   3
ATOM      3  O   UNL A   1      31.393  29.105  25.775  1.00  0.00    -0.459 OA
BRANCH   3   4
ATOM      4  C   UNL A   1      31.060  28.527  24.600  1.00  0.00     0.338 C 
ATOM      5  O   UNL A   1      30.189  28.898  23.827  1.00  0.00    -0.246 OA
BRANCH   4   6
ATOM      6  C   UNL A   1      31.918  27.361  24.326  1.00  0.00     0.087 C 
ATOM      7  C   UNL A   1      35.090  23.454  24.910  1.00  0.00    -0.020 A 
ATOM      8  C   UNL A   1      34.754  24.339  23.849  1.00  0.00     0.053 A 
ATOM      9  C   UNL A   1      34.295  23.549  26.075  1.00  0.00     0.045 A 
ATOM     10  C   UNL A   1      33.761  25.316  23.967  1.00  0.00     0.128 A 
ATOM     11  C   UNL A   1      33.313  24.538  26.196  1.00  0.00     0.032 A 
ATOM     12  Cl  UNL A   1      34.387  22.470  27.421  1.00  0.00    -0.084 Cl
ATOM     13  C   UNL A   1      33.065  25.430  25.155  1.00  0.00     0.019 A 
ATOM     14  O   UNL A   1      33.530  26.109  22.877  1.00  0.00    -0.475 OA
ATOM     15  C   UNL A   1      32.104  26.494  25.326  1.00  0.00     0.027 C 
ATOM     16  C   UNL A   1      32.648  27.265  23.019  1.00  0.00     0.316 C 
BRANCH   7  17
ATOM     17  C   UNL A   1      36.243  22.438  24.716  1.00  0.00    -0.012 C 
ATOM     18  C   UNL A   1      36.796  22.601  23.289  1.00  0.00     0.016 C 
ATOM     19  C   UNL A   1      35.831  20.962  24.947  1.00  0.00     0.016 C 
ATOM     20  C   UNL A   1      37.414  22.676  25.708  1.00  0.00     0.016 C 
ENDBRANCH   7  17
BRANCH  16  21
ATOM     21  C   UNL A   1      33.464  28.534  22.729  1.00  0.00     0.430 C 
ATOM     22  F   UNL A   1      34.113  28.962  23.840  1.00  0.00    -0.167 F 
ATOM     23  F   UNL A   1      34.418  28.313  21.792  1.00  0.00    -0.167 F 
ATOM     24  F   UNL A   1      32.693  29.554  22.293  1.00  0.00    -0.167 F 
ENDBRANCH  16  21
ENDBRANCH   4   6
ENDBRANCH   3   4
ENDBRANCH   2   3
ENDBRANCH   1   2
BRANCH   1  25
ATOM     25  O   UNL A   1      33.778  30.770  27.164  1.00  0.00    -0.458 OA
BRANCH  25  26
ATOM     26  C   UNL A   1      34.130  29.623  27.786  1.00  0.00     0.338 C 
ATOM     27  O   UNL A   1      33.438  28.634  27.961  1.00  0.00    -0.246 OA
BRANCH  26  28
ATOM     28  C   UNL A   1      35.549  29.677  28.164  1.00  0.00     0.060 A 
ATOM     29  C   UNL A   1      35.975  29.289  29.428  1.00  0.00     0.016 A 
ATOM     30  C   UNL A   1      36.480  29.948  27.170  1.00  0.00     0.016 A 
ATOM     31  C   UNL A   1      37.349  29.180  29.678  1.00  0.00     0.010 A 
ATOM     32  C   UNL A   1      37.826  29.662  27.369  1.00  0.00     0.010 A 
ATOM     33  C   UNL A   1      38.293  29.311  28.639  1.00  0.00    -0.014 A 
BRANCH  33  34
ATOM     34  C   UNL A   1      39.754  29.100  28.869  1.00  0.00     0.031 A 
ATOM     35  C   UNL A   1      40.419  27.786  28.511  1.00  0.00     0.074 A 
ATOM     36  C   UNL A   1      40.490  30.075  29.445  1.00  0.00     0.049 A 
ATOM     37  N   UNL A   1      41.672  27.428  28.651  1.00  0.00    -0.248 NA
ATOM     38  C   UNL A   1      39.562  26.716  27.971  1.00  0.00     0.031 C 
ATOM     39  C   UNL A   1      39.965  31.351  29.941  1.00  0.00     0.029 A 
ATOM     40  N   UNL A   1      41.838  30.161  29.693  1.00  0.00    -0.354 N 
ATOM     41  C   UNL A   1      41.738  26.097  28.247  1.00  0.00     0.074 A 
ATOM     42  C   UNL A   1      40.390  25.684  27.939  1.00  0.00     0.031 C 
ATOM     43  C   UNL A   1      40.983  32.120  30.350  1.00  0.00     0.029 A 
ATOM     44  C   UNL A   1      42.231  31.381  30.195  1.00  0.00     0.049 A 
ATOM     45  H   UNL A   1      42.464  29.419  29.528  1.00  0.00     0.167 HD
ATOM     46  C   UNL A   1      42.824  25.301  28.096  1.00  0.00     0.037 A 
ATOM     47  C   UNL A   1      43.458  31.862  30.481  1.00  0.00     0.037 A 
ATOM     48  C   UNL A   1      44.175  25.734  28.338  1.00  0.00     0.049 A 
ATOM     49  C   UNL A   1      44.658  30.989  30.241  1.00  0.00     0.074 A 
ATOM     50  C   UNL A   1      45.352  25.035  28.142  1.00  0.00     0.029 A 
ATOM     51  N   UNL A   1      44.528  26.989  28.813  1.00  0.00    -0.354 N 
ATOM     52  N   UNL A   1      44.703  29.756  29.797  1.00  0.00    -0.248 NA
ATOM     53  C   UNL A   1      45.973  31.573  30.535  1.00  0.00     0.031 C 
ATOM     54  C   UNL A   1      46.417  25.855  28.529  1.00  0.00     0.029 A 
ATOM     55  C   UNL A   1      45.906  27.082  28.921  1.00  0.00     0.049 A 
ATOM     56  H   UNL A   1      43.893  27.707  29.039  1.00  0.00     0.167 HD
ATOM     57  C   UNL A   1      46.051  29.421  29.739  1.00  0.00     0.074 A 
ATOM     58  C   UNL A   1      46.789  30.588  30.179  1.00  0.00     0.031 C 
ATOM     59  C   UNL A   1      46.624  28.253  29.357  1.00  0.00     0.037 A 
BRANCH  46  60
ATOM     60  C   UNL A   1      42.599  23.892  27.609  1.00  0.00     0.058 A 
ATOM     61  C   UNL A   1      42.528  23.590  26.238  1.00  0.00     0.135 A 
ATOM     62  C   UNL A   1      42.486  22.825  28.515  1.00  0.00     0.135 A 
ATOM     63  F   UNL A   1      42.617  24.569  25.325  1.00  0.00    -0.206 F 
ATOM     64  C   UNL A   1      42.315  22.292  25.785  1.00  0.00     0.059 A 
ATOM     65  C   UNL A   1      42.305  21.512  28.084  1.00  0.00     0.059 A 
ATOM     66  F   UNL A   1      42.551  23.050  29.837  1.00  0.00    -0.206 F 
ATOM     67  C   UNL A   1      42.206  21.259  26.716  1.00  0.00     0.060 A 
BRANCH  67  68
ATOM     68  S   UNL A   1      41.937  19.581  26.107  1.00  0.00     0.124 S 
ATOM     69  O   UNL A   1      42.281  18.785  27.281  1.00  0.00    -0.237 OA
ATOM     70  O   UNL A   1      40.522  19.602  25.750  1.00  0.00    -0.237 OA
ATOM     71  O   UNL A   1      42.863  19.473  24.984  1.00  0.00    -0.744 OA
ENDBRANCH  67  68
ENDBRANCH  46  60
BRANCH  47  72
ATOM     72  C   UNL A   1      43.604  33.266  30.951  1.00  0.00     0.058 A 
ATOM     73  C   UNL A   1      43.707  33.554  32.321  1.00  0.00     0.135 A 
ATOM     74  C   UNL A   1      43.710  34.335  30.050  1.00  0.00     0.135 A 
ATOM     75  F   UNL A   1      43.605  32.566  33.224  1.00  0.00    -0.206 F 
ATOM     76  C   UNL A   1      43.914  34.851  32.781  1.00  0.00     0.059 A 
ATOM     77  C   UNL A   1      43.942  35.638  30.484  1.00  0.00     0.059 A 
ATOM     78  F   UNL A   1      43.637  34.111  28.729  1.00  0.00    -0.206 F 
ATOM     79  C   UNL A   1      44.041  35.885  31.853  1.00  0.00     0.060 A 
BRANCH  79  80
ATOM     80  S   UNL A   1      44.400  37.548  32.460  1.00  0.00     0.124 S 
ATOM     81  O   UNL A   1      43.331  37.745  33.432  1.00  0.00    -0.237 OA
ATOM     82  O   UNL A   1      45.742  37.389  33.011  1.00  0.00    -0.237 OA
ATOM     83  O   UNL A   1      44.319  38.371  31.257  1.00  0.00    -0.744 OA
ENDBRANCH  79  80
ENDBRANCH  47  72
BRANCH  59  84
ATOM     84  C   UNL A   1      48.125  28.180  29.372  1.00  0.00     0.058 A 
ATOM     85  C   UNL A   1      48.891  28.545  28.254  1.00  0.00     0.135 A 
ATOM     86  C   UNL A   1      48.805  27.802  30.541  1.00  0.00     0.135 A 
ATOM     87  F   UNL A   1      48.287  28.909  27.112  1.00  0.00    -0.206 F 
ATOM     88  C   UNL A   1      50.280  28.517  28.288  1.00  0.00     0.059 A 
ATOM     89  C   UNL A   1      50.196  27.795  30.606  1.00  0.00     0.059 A 
ATOM     90  F   UNL A   1      48.120  27.456  31.642  1.00  0.00    -0.206 F 
ATOM     91  C   UNL A   1      50.923  28.143  29.470  1.00  0.00     0.060 A 
BRANCH  91  92
ATOM     92  S   UNL A   1      52.728  28.144  29.506  1.00  0.00     0.124 S 
ATOM     93  O   UNL A   1      52.994  28.079  30.939  1.00  0.00    -0.237 OA
ATOM     94  O   UNL A   1      53.056  26.942  28.744  1.00  0.00    -0.237 OA
ATOM     95  O   UNL A   1      53.081  29.405  28.858  1.00  0.00    -0.744 OA
ENDBRANCH  91  92
ENDBRANCH  59  84
ENDBRANCH  33  34
ENDBRANCH  26  28
ENDBRANCH  25  26
ENDBRANCH   1  25
TORSDOF 16
ENDMDL
