MODEL 1
REMARK VINA RESULT:     -10.5      0.000      0.000
REMARK SMILES COCc1nc2ccccc2n1CC(=O)OCCOC(=O)c1ccc(-c2c3nc(c(-c4c(F)cc(S(=O)(=O)[O-])cc4F)c4ccc([nH]4)c(-c4c(F)cc(S(=O)(=O)[O-])cc4F)c4nc(c(-c5c(F)cc(S(=O)(=O)[O-])cc5F)c5ccc2[nH]5)C=C4)C=C3)cc1
REMARK SMILES IDX 17 1 16 2 14 3 15 4 13 5 12 6 4 7 5 8 6 9 11 10 7 11 10 12
REMARK SMILES IDX 8 13 9 14 3 15 2 16 1 17 18 18 19 19 20 20 21 21 22 22 23 23
REMARK SMILES IDX 87 24 24 25 86 26 25 27 26 28 27 29 80 30 28 31 85 32 79 33
REMARK SMILES IDX 81 34 29 35 84 36 78 37 77 38 30 40 64 41 43 42 63 43 44 44
REMARK SMILES IDX 47 45 62 46 82 47 45 48 46 49 61 51 83 52 48 53 31 54 32 55
REMARK SMILES IDX 41 56 33 57 34 58 40 59 42 60 35 61 36 62 37 63 38 64 39 65
REMARK SMILES IDX 65 66 66 67 75 68 67 69 68 70 74 71 76 72 69 73 70 74 71 75
REMARK SMILES IDX 72 76 73 77 49 78 50 79 59 80 51 81 52 82 58 83 60 84 53 85
REMARK SMILES IDX 54 86 55 87 56 88 57 89
REMARK H PARENT 81 39 47 50
REMARK Flexibility Score: inf
ROOT
ATOM      1  C   UNL A   1      41.922  20.704  26.119  1.00  0.00     0.274 C 
ENDROOT
BRANCH   1   2
ATOM      2  O   UNL A   1      43.081  21.381  26.672  1.00  0.00    -0.461 OA
BRANCH   2   3
ATOM      3  C   UNL A   1      43.856  22.041  25.775  1.00  0.00     0.326 C 
ATOM      4  O   UNL A   1      43.421  22.549  24.745  1.00  0.00    -0.250 OA
BRANCH   3   5
ATOM      5  C   UNL A   1      45.309  22.176  26.141  1.00  0.00     0.246 C 
BRANCH   5   6
ATOM      6  N   UNL A   1      45.766  23.352  26.868  1.00  0.00    -0.315 N 
ATOM      7  C   UNL A   1      45.425  23.785  28.145  1.00  0.00     0.136 A 
ATOM      8  N   UNL A   1      45.963  24.968  28.384  1.00  0.00    -0.231 NA
ATOM      9  C   UNL A   1      46.457  25.405  27.190  1.00  0.00     0.089 A 
ATOM     10  C   UNL A   1      46.345  24.426  26.214  1.00  0.00     0.069 A 
ATOM     11  C   UNL A   1      46.985  26.657  26.861  1.00  0.00     0.030 A 
ATOM     12  C   UNL A   1      46.726  24.646  24.882  1.00  0.00     0.028 A 
ATOM     13  C   UNL A   1      47.369  26.897  25.538  1.00  0.00     0.002 A 
ATOM     14  C   UNL A   1      47.234  25.907  24.564  1.00  0.00     0.002 A 
BRANCH   7  15
ATOM     15  C   UNL A   1      44.567  23.056  29.129  1.00  0.00     0.235 C 
BRANCH  15  16
ATOM     16  O   UNL A   1      44.146  23.945  30.176  1.00  0.00    -0.377 OA
ATOM     17  C   UNL A   1      44.108  23.322  31.456  1.00  0.00     0.195 C 
ENDBRANCH  15  16
ENDBRANCH   7  15
ENDBRANCH   5   6
ENDBRANCH   3   5
ENDBRANCH   2   3
ENDBRANCH   1   2
BRANCH   1  18
ATOM     18  C   UNL A   1      40.930  20.344  27.231  1.00  0.00     0.275 C 
BRANCH  18  19
ATOM     19  O   UNL A   1      40.354  21.547  27.767  1.00  0.00    -0.458 OA
BRANCH  19  20
ATOM     20  C   UNL A   1      39.733  22.368  26.883  1.00  0.00     0.338 C 
ATOM     21  O   UNL A   1      38.746  22.102  26.216  1.00  0.00    -0.246 OA
BRANCH  20  22
ATOM     22  C   UNL A   1      40.196  23.739  27.188  1.00  0.00     0.060 A 
ATOM     23  C   UNL A   1      41.317  23.996  27.973  1.00  0.00     0.016 A 
ATOM     24  C   UNL A   1      39.309  24.772  26.888  1.00  0.00     0.016 A 
ATOM     25  C   UNL A   1      41.442  25.243  28.586  1.00  0.00     0.010 A 
ATOM     26  C   UNL A   1      39.363  25.962  27.593  1.00  0.00     0.010 A 
ATOM     27  C   UNL A   1      40.410  26.189  28.475  1.00  0.00    -0.014 A 
BRANCH  27  28
ATOM     28  C   UNL A   1      40.617  27.566  28.915  1.00  0.00     0.031 A 
ATOM     29  C   UNL A   1      41.774  28.144  28.194  1.00  0.00     0.074 A 
ATOM     30  C   UNL A   1      39.869  28.333  29.735  1.00  0.00     0.049 A 
ATOM     31  N   UNL A   1      43.004  28.075  28.578  1.00  0.00    -0.248 NA
ATOM     32  C   UNL A   1      41.609  28.592  26.801  1.00  0.00     0.031 C 
ATOM     33  C   UNL A   1      38.532  28.081  30.275  1.00  0.00     0.029 A 
ATOM     34  N   UNL A   1      40.176  29.570  30.242  1.00  0.00    -0.354 N 
ATOM     35  C   UNL A   1      43.724  28.746  27.604  1.00  0.00     0.074 A 
ATOM     36  C   UNL A   1      42.882  28.778  26.442  1.00  0.00     0.031 C 
ATOM     37  C   UNL A   1      38.079  29.199  30.904  1.00  0.00     0.029 A 
ATOM     38  C   UNL A   1      39.150  30.186  30.959  1.00  0.00     0.049 A 
ATOM     39  H   UNL A   1      41.055  29.991  30.110  1.00  0.00     0.167 HD
ATOM     40  C   UNL A   1      44.794  29.506  27.960  1.00  0.00     0.037 A 
ATOM     41  C   UNL A   1      39.209  31.393  31.585  1.00  0.00     0.037 A 
ATOM     42  C   UNL A   1      45.145  29.258  29.339  1.00  0.00     0.049 A 
ATOM     43  C   UNL A   1      40.636  31.634  31.907  1.00  0.00     0.074 A 
ATOM     44  C   UNL A   1      45.747  28.245  30.055  1.00  0.00     0.029 A 
ATOM     45  N   UNL A   1      44.441  30.025  30.232  1.00  0.00    -0.354 N 
ATOM     46  N   UNL A   1      41.304  30.927  32.776  1.00  0.00    -0.248 NA
ATOM     47  C   UNL A   1      41.443  32.492  31.045  1.00  0.00     0.031 C 
ATOM     48  C   UNL A   1      45.251  28.345  31.390  1.00  0.00     0.029 A 
ATOM     49  C   UNL A   1      44.386  29.433  31.467  1.00  0.00     0.049 A 
ATOM     50  H   UNL A   1      44.027  30.891  30.014  1.00  0.00     0.167 HD
ATOM     51  C   UNL A   1      42.592  30.923  32.291  1.00  0.00     0.074 A 
ATOM     52  C   UNL A   1      42.659  32.032  31.349  1.00  0.00     0.031 C 
ATOM     53  C   UNL A   1      43.386  29.826  32.436  1.00  0.00     0.037 A 
BRANCH  40  54
ATOM     54  C   UNL A   1      45.213  30.791  27.277  1.00  0.00     0.058 A 
ATOM     55  C   UNL A   1      46.553  30.921  26.853  1.00  0.00     0.135 A 
ATOM     56  C   UNL A   1      44.457  31.984  27.266  1.00  0.00     0.135 A 
ATOM     57  F   UNL A   1      47.369  29.855  26.828  1.00  0.00    -0.206 F 
ATOM     58  C   UNL A   1      47.112  32.151  26.506  1.00  0.00     0.059 A 
ATOM     59  C   UNL A   1      44.981  33.210  26.873  1.00  0.00     0.059 A 
ATOM     60  F   UNL A   1      43.203  32.052  27.724  1.00  0.00    -0.206 F 
ATOM     61  C   UNL A   1      46.318  33.292  26.528  1.00  0.00     0.060 A 
BRANCH  61  62
ATOM     62  S   UNL A   1      47.053  34.889  26.144  1.00  0.00     0.124 S 
ATOM     63  O   UNL A   1      45.880  35.666  25.760  1.00  0.00    -0.237 OA
ATOM     64  O   UNL A   1      47.673  35.247  27.415  1.00  0.00    -0.237 OA
ATOM     65  O   UNL A   1      47.986  34.577  25.064  1.00  0.00    -0.744 OA
ENDBRANCH  61  62
ENDBRANCH  40  54
BRANCH  41  66
ATOM     66  C   UNL A   1      38.199  32.451  31.868  1.00  0.00     0.058 A 
ATOM     67  C   UNL A   1      37.520  33.105  30.815  1.00  0.00     0.135 A 
ATOM     68  C   UNL A   1      37.624  32.578  33.144  1.00  0.00     0.135 A 
ATOM     69  F   UNL A   1      37.995  33.048  29.561  1.00  0.00    -0.206 F 
ATOM     70  C   UNL A   1      36.294  33.752  30.997  1.00  0.00     0.059 A 
ATOM     71  C   UNL A   1      36.401  33.226  33.351  1.00  0.00     0.059 A 
ATOM     72  F   UNL A   1      38.187  31.981  34.205  1.00  0.00    -0.206 F 
ATOM     73  C   UNL A   1      35.722  33.774  32.266  1.00  0.00     0.060 A 
BRANCH  73  74
ATOM     74  S   UNL A   1      34.031  34.399  32.453  1.00  0.00     0.124 S 
ATOM     75  O   UNL A   1      33.390  33.324  33.203  1.00  0.00    -0.237 OA
ATOM     76  O   UNL A   1      34.243  35.644  33.184  1.00  0.00    -0.237 OA
ATOM     77  O   UNL A   1      33.575  34.558  31.075  1.00  0.00    -0.744 OA
ENDBRANCH  73  74
ENDBRANCH  41  66
BRANCH  53  78
ATOM     78  C   UNL A   1      43.102  28.910  33.588  1.00  0.00     0.058 A 
ATOM     79  C   UNL A   1      43.589  29.074  34.894  1.00  0.00     0.135 A 
ATOM     80  C   UNL A   1      42.210  27.850  33.360  1.00  0.00     0.135 A 
ATOM     81  F   UNL A   1      44.398  30.097  35.206  1.00  0.00    -0.206 F 
ATOM     82  C   UNL A   1      43.212  28.212  35.927  1.00  0.00     0.059 A 
ATOM     83  C   UNL A   1      41.798  26.998  34.378  1.00  0.00     0.059 A 
ATOM     84  F   UNL A   1      41.690  27.662  32.136  1.00  0.00    -0.206 F 
ATOM     85  C   UNL A   1      42.307  27.183  35.661  1.00  0.00     0.060 A 
BRANCH  85  86
ATOM     86  S   UNL A   1      41.735  26.137  37.017  1.00  0.00     0.124 S 
ATOM     87  O   UNL A   1      42.806  26.285  37.996  1.00  0.00    -0.237 OA
ATOM     88  O   UNL A   1      40.460  26.753  37.374  1.00  0.00    -0.237 OA
ATOM     89  O   UNL A   1      41.625  24.814  36.407  1.00  0.00    -0.744 OA
ENDBRANCH  85  86
ENDBRANCH  53  78
ENDBRANCH  27  28
ENDBRANCH  20  22
ENDBRANCH  19  20
ENDBRANCH  18  19
ENDBRANCH   1  18
TORSDOF 17
ENDMDL
MODEL 2
REMARK VINA RESULT:     -10.2      3.513      5.898
REMARK SMILES COCc1nc2ccccc2n1CC(=O)OCCOC(=O)c1ccc(-c2c3nc(c(-c4c(F)cc(S(=O)(=O)[O-])cc4F)c4ccc([nH]4)c(-c4c(F)cc(S(=O)(=O)[O-])cc4F)c4nc(c(-c5c(F)cc(S(=O)(=O)[O-])cc5F)c5ccc2[nH]5)C=C4)C=C3)cc1
REMARK SMILES IDX 17 1 16 2 14 3 15 4 13 5 12 6 4 7 5 8 6 9 11 10 7 11 10 12
REMARK SMILES IDX 8 13 9 14 3 15 2 16 1 17 18 18 19 19 20 20 21 21 22 22 23 23
REMARK SMILES IDX 87 24 24 25 86 26 25 27 26 28 27 29 80 30 28 31 85 32 79 33
REMARK SMILES IDX 81 34 29 35 84 36 78 37 77 38 30 40 64 41 43 42 63 43 44 44
REMARK SMILES IDX 47 45 62 46 82 47 45 48 46 49 61 51 83 52 48 53 31 54 32 55
REMARK SMILES IDX 41 56 33 57 34 58 40 59 42 60 35 61 36 62 37 63 38 64 39 65
REMARK SMILES IDX 65 66 66 67 75 68 67 69 68 70 74 71 76 72 69 73 70 74 71 75
REMARK SMILES IDX 72 76 73 77 49 78 50 79 59 80 51 81 52 82 58 83 60 84 53 85
REMARK SMILES IDX 54 86 55 87 56 88 57 89
REMARK H PARENT 81 39 47 50
REMARK Flexibility Score: inf
ROOT
ATOM      1  C   UNL A   1      38.348  21.908  25.904  1.00  0.00     0.274 C 
ENDROOT
BRANCH   1   2
ATOM      2  O   UNL A   1      37.846  21.765  24.550  1.00  0.00    -0.461 OA
BRANCH   2   3
ATOM      3  C   UNL A   1      36.509  21.935  24.401  1.00  0.00     0.326 C 
ATOM      4  O   UNL A   1      36.006  22.635  23.526  1.00  0.00    -0.250 OA
BRANCH   3   5
ATOM      5  C   UNL A   1      35.641  21.155  25.351  1.00  0.00     0.246 C 
BRANCH   5   6
ATOM      6  N   UNL A   1      34.371  20.610  24.891  1.00  0.00    -0.315 N 
ATOM      7  C   UNL A   1      33.096  21.160  24.976  1.00  0.00     0.136 A 
ATOM      8  N   UNL A   1      32.196  20.290  24.553  1.00  0.00    -0.231 NA
ATOM      9  C   UNL A   1      32.855  19.105  24.413  1.00  0.00     0.089 A 
ATOM     10  C   UNL A   1      34.217  19.261  24.623  1.00  0.00     0.069 A 
ATOM     11  C   UNL A   1      32.336  17.836  24.141  1.00  0.00     0.030 A 
ATOM     12  C   UNL A   1      35.111  18.181  24.597  1.00  0.00     0.028 A 
ATOM     13  C   UNL A   1      33.210  16.744  24.112  1.00  0.00     0.002 A 
ATOM     14  C   UNL A   1      34.575  16.917  24.343  1.00  0.00     0.002 A 
BRANCH   7  15
ATOM     15  C   UNL A   1      32.751  22.526  25.479  1.00  0.00     0.235 C 
BRANCH  15  16
ATOM     16  O   UNL A   1      31.921  22.430  26.648  1.00  0.00    -0.377 OA
ATOM     17  C   UNL A   1      30.967  23.482  26.743  1.00  0.00     0.195 C 
ENDBRANCH  15  16
ENDBRANCH   7  15
ENDBRANCH   5   6
ENDBRANCH   3   5
ENDBRANCH   2   3
ENDBRANCH   1   2
BRANCH   1  18
ATOM     18  C   UNL A   1      39.756  21.312  26.021  1.00  0.00     0.275 C 
BRANCH  18  19
ATOM     19  O   UNL A   1      40.569  22.162  26.849  1.00  0.00    -0.458 OA
BRANCH  19  20
ATOM     20  C   UNL A   1      41.685  22.677  26.277  1.00  0.00     0.338 C 
ATOM     21  O   UNL A   1      42.295  22.212  25.326  1.00  0.00    -0.246 OA
BRANCH  20  22
ATOM     22  C   UNL A   1      41.773  24.085  26.722  1.00  0.00     0.060 A 
ATOM     23  C   UNL A   1      42.515  24.475  27.835  1.00  0.00     0.016 A 
ATOM     24  C   UNL A   1      40.864  24.973  26.151  1.00  0.00     0.016 A 
ATOM     25  C   UNL A   1      42.212  25.685  28.459  1.00  0.00     0.010 A 
ATOM     26  C   UNL A   1      40.475  26.109  26.838  1.00  0.00     0.010 A 
ATOM     27  C   UNL A   1      41.121  26.452  28.017  1.00  0.00    -0.014 A 
BRANCH  27  28
ATOM     28  C   UNL A   1      40.927  27.814  28.506  1.00  0.00     0.031 A 
ATOM     29  C   UNL A   1      42.035  28.671  28.027  1.00  0.00     0.074 A 
ATOM     30  C   UNL A   1      39.888  28.351  29.179  1.00  0.00     0.049 A 
ATOM     31  N   UNL A   1      43.157  28.853  28.637  1.00  0.00    -0.248 NA
ATOM     32  C   UNL A   1      42.030  29.148  26.634  1.00  0.00     0.031 C 
ATOM     33  C   UNL A   1      38.567  27.783  29.450  1.00  0.00     0.029 A 
ATOM     34  N   UNL A   1      39.809  29.596  29.751  1.00  0.00    -0.354 N 
ATOM     35  C   UNL A   1      43.872  29.719  27.826  1.00  0.00     0.074 A 
ATOM     36  C   UNL A   1      43.272  29.629  26.526  1.00  0.00     0.031 C 
ATOM     37  C   UNL A   1      37.765  28.737  29.995  1.00  0.00     0.029 A 
ATOM     38  C   UNL A   1      38.557  29.930  30.266  1.00  0.00     0.049 A 
ATOM     39  H   UNL A   1      40.579  30.207  29.794  1.00  0.00     0.167 HD
ATOM     40  C   UNL A   1      44.659  30.675  28.390  1.00  0.00     0.037 A 
ATOM     41  C   UNL A   1      38.226  31.085  30.907  1.00  0.00     0.037 A 
ATOM     42  C   UNL A   1      44.798  30.434  29.808  1.00  0.00     0.049 A 
ATOM     43  C   UNL A   1      39.478  31.615  31.498  1.00  0.00     0.074 A 
ATOM     44  C   UNL A   1      45.473  29.540  30.612  1.00  0.00     0.029 A 
ATOM     45  N   UNL A   1      43.788  30.977  30.560  1.00  0.00    -0.354 N 
ATOM     46  N   UNL A   1      40.117  31.025  32.470  1.00  0.00    -0.248 NA
ATOM     47  C   UNL A   1      40.213  32.676  30.817  1.00  0.00     0.031 C 
ATOM     48  C   UNL A   1      44.732  29.455  31.829  1.00  0.00     0.029 A 
ATOM     49  C   UNL A   1      43.643  30.320  31.753  1.00  0.00     0.049 A 
ATOM     50  H   UNL A   1      43.236  31.741  30.277  1.00  0.00     0.167 HD
ATOM     51  C   UNL A   1      41.440  31.331  32.239  1.00  0.00     0.074 A 
ATOM     52  C   UNL A   1      41.425  32.478  31.342  1.00  0.00     0.031 C 
ATOM     53  C   UNL A   1      42.421  30.430  32.519  1.00  0.00     0.037 A 
BRANCH  40  54
ATOM     54  C   UNL A   1      44.894  32.056  27.816  1.00  0.00     0.058 A 
ATOM     55  C   UNL A   1      46.148  32.337  27.232  1.00  0.00     0.135 A 
ATOM     56  C   UNL A   1      44.072  33.180  28.052  1.00  0.00     0.135 A 
ATOM     57  F   UNL A   1      47.017  31.348  26.968  1.00  0.00    -0.206 F 
ATOM     58  C   UNL A   1      46.574  33.638  26.963  1.00  0.00     0.059 A 
ATOM     59  C   UNL A   1      44.456  34.479  27.742  1.00  0.00     0.059 A 
ATOM     60  F   UNL A   1      42.895  33.098  28.681  1.00  0.00    -0.206 F 
ATOM     61  C   UNL A   1      45.722  34.704  27.230  1.00  0.00     0.060 A 
BRANCH  61  62
ATOM     62  S   UNL A   1      46.292  36.386  26.944  1.00  0.00     0.124 S 
ATOM     63  O   UNL A   1      46.988  36.675  28.193  1.00  0.00    -0.237 OA
ATOM     64  O   UNL A   1      47.133  36.220  25.763  1.00  0.00    -0.237 OA
ATOM     65  O   UNL A   1      45.052  37.126  26.725  1.00  0.00    -0.744 OA
ENDBRANCH  61  62
ENDBRANCH  40  54
BRANCH  41  66
ATOM     66  C   UNL A   1      36.968  31.877  31.006  1.00  0.00     0.058 A 
ATOM     67  C   UNL A   1      36.129  31.766  32.138  1.00  0.00     0.135 A 
ATOM     68  C   UNL A   1      36.757  33.002  30.191  1.00  0.00     0.135 A 
ATOM     69  F   UNL A   1      36.250  30.722  32.973  1.00  0.00    -0.206 F 
ATOM     70  C   UNL A   1      35.214  32.760  32.497  1.00  0.00     0.059 A 
ATOM     71  C   UNL A   1      35.842  34.006  30.527  1.00  0.00     0.059 A 
ATOM     72  F   UNL A   1      37.512  33.203  29.101  1.00  0.00    -0.206 F 
ATOM     73  C   UNL A   1      35.104  33.898  31.703  1.00  0.00     0.060 A 
BRANCH  73  74
ATOM     74  S   UNL A   1      34.098  35.285  32.295  1.00  0.00     0.124 S 
ATOM     75  O   UNL A   1      33.694  35.923  31.047  1.00  0.00    -0.237 OA
ATOM     76  O   UNL A   1      33.039  34.604  33.031  1.00  0.00    -0.237 OA
ATOM     77  O   UNL A   1      35.031  36.053  33.116  1.00  0.00    -0.744 OA
ENDBRANCH  73  74
ENDBRANCH  41  66
BRANCH  53  78
ATOM     78  C   UNL A   1      42.145  29.410  33.584  1.00  0.00     0.058 A 
ATOM     79  C   UNL A   1      41.594  28.138  33.364  1.00  0.00     0.135 A 
ATOM     80  C   UNL A   1      42.547  29.723  34.892  1.00  0.00     0.135 A 
ATOM     81  F   UNL A   1      41.240  27.742  32.133  1.00  0.00    -0.206 F 
ATOM     82  C   UNL A   1      41.440  27.220  34.406  1.00  0.00     0.059 A 
ATOM     83  C   UNL A   1      42.432  28.815  35.938  1.00  0.00     0.059 A 
ATOM     84  F   UNL A   1      43.107  30.915  35.155  1.00  0.00    -0.206 F 
ATOM     85  C   UNL A   1      41.872  27.564  35.688  1.00  0.00     0.060 A 
BRANCH  85  86
ATOM     86  S   UNL A   1      41.776  26.339  37.011  1.00  0.00     0.124 S 
ATOM     87  O   UNL A   1      42.921  26.691  37.844  1.00  0.00    -0.237 OA
ATOM     88  O   UNL A   1      40.463  26.606  37.592  1.00  0.00    -0.237 OA
ATOM     89  O   UNL A   1      41.885  25.064  36.306  1.00  0.00    -0.744 OA
ENDBRANCH  85  86
ENDBRANCH  53  78
ENDBRANCH  27  28
ENDBRANCH  20  22
ENDBRANCH  19  20
ENDBRANCH  18  19
ENDBRANCH   1  18
TORSDOF 17
ENDMDL
MODEL 3
REMARK VINA RESULT:     -10.1      1.058      2.017
REMARK SMILES COCc1nc2ccccc2n1CC(=O)OCCOC(=O)c1ccc(-c2c3nc(c(-c4c(F)cc(S(=O)(=O)[O-])cc4F)c4ccc([nH]4)c(-c4c(F)cc(S(=O)(=O)[O-])cc4F)c4nc(c(-c5c(F)cc(S(=O)(=O)[O-])cc5F)c5ccc2[nH]5)C=C4)C=C3)cc1
REMARK SMILES IDX 17 1 16 2 14 3 15 4 13 5 12 6 4 7 5 8 6 9 11 10 7 11 10 12
REMARK SMILES IDX 8 13 9 14 3 15 2 16 1 17 18 18 19 19 20 20 21 21 22 22 23 23
REMARK SMILES IDX 87 24 24 25 86 26 25 27 26 28 27 29 80 30 28 31 85 32 79 33
REMARK SMILES IDX 81 34 29 35 84 36 78 37 77 38 30 40 64 41 43 42 63 43 44 44
REMARK SMILES IDX 47 45 62 46 82 47 45 48 46 49 61 51 83 52 48 53 31 54 32 55
REMARK SMILES IDX 41 56 33 57 34 58 40 59 42 60 35 61 36 62 37 63 38 64 39 65
REMARK SMILES IDX 65 66 66 67 75 68 67 69 68 70 74 71 76 72 69 73 70 74 71 75
REMARK SMILES IDX 72 76 73 77 49 78 50 79 59 80 51 81 52 82 58 83 60 84 53 85
REMARK SMILES IDX 54 86 55 87 56 88 57 89
REMARK H PARENT 81 39 47 50
REMARK Flexibility Score: inf
ROOT
ATOM      1  C   UNL A   1      42.070  20.490  26.202  1.00  0.00     0.274 C 
ENDROOT
BRANCH   1   2
ATOM      2  O   UNL A   1      42.764  21.078  27.332  1.00  0.00    -0.461 OA
BRANCH   2   3
ATOM      3  C   UNL A   1      43.399  22.251  27.082  1.00  0.00     0.326 C 
ATOM      4  O   UNL A   1      43.970  22.913  27.946  1.00  0.00    -0.250 OA
BRANCH   3   5
ATOM      5  C   UNL A   1      43.421  22.688  25.643  1.00  0.00     0.246 C 
BRANCH   5   6
ATOM      6  N   UNL A   1      44.685  23.049  25.016  1.00  0.00    -0.315 N 
ATOM      7  C   UNL A   1      45.720  22.226  24.584  1.00  0.00     0.136 A 
ATOM      8  N   UNL A   1      46.746  22.956  24.185  1.00  0.00    -0.231 NA
ATOM      9  C   UNL A   1      46.471  24.235  24.570  1.00  0.00     0.089 A 
ATOM     10  C   UNL A   1      45.194  24.333  25.101  1.00  0.00     0.069 A 
ATOM     11  C   UNL A   1      47.294  25.364  24.527  1.00  0.00     0.030 A 
ATOM     12  C   UNL A   1      44.688  25.532  25.627  1.00  0.00     0.028 A 
ATOM     13  C   UNL A   1      46.810  26.568  25.048  1.00  0.00     0.002 A 
ATOM     14  C   UNL A   1      45.529  26.646  25.595  1.00  0.00     0.002 A 
BRANCH   7  15
ATOM     15  C   UNL A   1      45.717  20.730  24.570  1.00  0.00     0.235 C 
BRANCH  15  16
ATOM     16  O   UNL A   1      44.651  20.243  23.740  1.00  0.00    -0.377 OA
ATOM     17  C   UNL A   1      44.751  18.850  23.464  1.00  0.00     0.195 C 
ENDBRANCH  15  16
ENDBRANCH   7  15
ENDBRANCH   5   6
ENDBRANCH   3   5
ENDBRANCH   2   3
ENDBRANCH   1   2
BRANCH   1  18
ATOM     18  C   UNL A   1      40.556  20.479  26.448  1.00  0.00     0.275 C 
BRANCH  18  19
ATOM     19  O   UNL A   1      40.195  21.606  27.263  1.00  0.00    -0.458 OA
BRANCH  19  20
ATOM     20  C   UNL A   1      39.362  22.517  26.704  1.00  0.00     0.338 C 
ATOM     21  O   UNL A   1      38.234  22.309  26.285  1.00  0.00    -0.246 OA
BRANCH  20  22
ATOM     22  C   UNL A   1      39.885  23.850  27.077  1.00  0.00     0.060 A 
ATOM     23  C   UNL A   1      40.830  24.030  28.084  1.00  0.00     0.016 A 
ATOM     24  C   UNL A   1      39.194  24.950  26.571  1.00  0.00     0.016 A 
ATOM     25  C   UNL A   1      40.946  25.283  28.686  1.00  0.00     0.010 A 
ATOM     26  C   UNL A   1      39.215  26.156  27.247  1.00  0.00     0.010 A 
ATOM     27  C   UNL A   1      40.064  26.319  28.334  1.00  0.00    -0.014 A 
BRANCH  27  28
ATOM     28  C   UNL A   1      40.310  27.686  28.783  1.00  0.00     0.031 A 
ATOM     29  C   UNL A   1      41.526  28.209  28.120  1.00  0.00     0.074 A 
ATOM     30  C   UNL A   1      39.558  28.487  29.565  1.00  0.00     0.049 A 
ATOM     31  N   UNL A   1      42.731  28.087  28.565  1.00  0.00    -0.248 NA
ATOM     32  C   UNL A   1      41.450  28.660  26.721  1.00  0.00     0.031 C 
ATOM     33  C   UNL A   1      38.186  28.297  30.037  1.00  0.00     0.029 A 
ATOM     34  N   UNL A   1      39.893  29.711  30.086  1.00  0.00    -0.354 N 
ATOM     35  C   UNL A   1      43.528  28.723  27.627  1.00  0.00     0.074 A 
ATOM     36  C   UNL A   1      42.747  28.789  26.424  1.00  0.00     0.031 C 
ATOM     37  C   UNL A   1      37.751  29.436  30.642  1.00  0.00     0.029 A 
ATOM     38  C   UNL A   1      38.862  30.374  30.750  1.00  0.00     0.049 A 
ATOM     39  H   UNL A   1      40.796  30.092  29.997  1.00  0.00     0.167 HD
ATOM     40  C   UNL A   1      44.612  29.435  28.036  1.00  0.00     0.037 A 
ATOM     41  C   UNL A   1      38.944  31.579  31.377  1.00  0.00     0.037 A 
ATOM     42  C   UNL A   1      44.882  29.176  29.431  1.00  0.00     0.049 A 
ATOM     43  C   UNL A   1      40.362  31.757  31.770  1.00  0.00     0.074 A 
ATOM     44  C   UNL A   1      45.402  28.139  30.176  1.00  0.00     0.029 A 
ATOM     45  N   UNL A   1      44.169  29.976  30.288  1.00  0.00    -0.354 N 
ATOM     46  N   UNL A   1      40.953  31.023  32.672  1.00  0.00    -0.248 NA
ATOM     47  C   UNL A   1      41.248  32.576  30.949  1.00  0.00     0.031 C 
ATOM     48  C   UNL A   1      44.846  28.265  31.485  1.00  0.00     0.029 A 
ATOM     49  C   UNL A   1      44.027  29.390  31.518  1.00  0.00     0.049 A 
ATOM     50  H   UNL A   1      43.806  30.858  30.048  1.00  0.00     0.167 HD
ATOM     51  C   UNL A   1      42.263  30.961  32.251  1.00  0.00     0.074 A 
ATOM     52  C   UNL A   1      42.425  32.063  31.313  1.00  0.00     0.031 C 
ATOM     53  C   UNL A   1      42.999  29.830  32.436  1.00  0.00     0.037 A 
BRANCH  40  54
ATOM     54  C   UNL A   1      45.121  30.698  27.374  1.00  0.00     0.058 A 
ATOM     55  C   UNL A   1      46.436  30.706  26.861  1.00  0.00     0.135 A 
ATOM     56  C   UNL A   1      44.500  31.964  27.462  1.00  0.00     0.135 A 
ATOM     57  F   UNL A   1      47.129  29.562  26.738  1.00  0.00    -0.206 F 
ATOM     58  C   UNL A   1      47.101  31.884  26.523  1.00  0.00     0.059 A 
ATOM     59  C   UNL A   1      45.126  33.145  27.079  1.00  0.00     0.059 A 
ATOM     60  F   UNL A   1      43.293  32.143  28.010  1.00  0.00    -0.206 F 
ATOM     61  C   UNL A   1      46.438  33.100  26.644  1.00  0.00     0.060 A 
BRANCH  61  62
ATOM     62  S   UNL A   1      47.314  34.627  26.269  1.00  0.00     0.124 S 
ATOM     63  O   UNL A   1      46.250  35.442  25.696  1.00  0.00    -0.237 OA
ATOM     64  O   UNL A   1      47.792  35.029  27.587  1.00  0.00    -0.237 OA
ATOM     65  O   UNL A   1      48.352  34.196  25.337  1.00  0.00    -0.744 OA
ENDBRANCH  61  62
ENDBRANCH  40  54
BRANCH  41  66
ATOM     66  C   UNL A   1      37.969  32.681  31.609  1.00  0.00     0.058 A 
ATOM     67  C   UNL A   1      37.217  33.222  30.541  1.00  0.00     0.135 A 
ATOM     68  C   UNL A   1      37.494  32.966  32.901  1.00  0.00     0.135 A 
ATOM     69  F   UNL A   1      37.595  33.010  29.270  1.00  0.00    -0.206 F 
ATOM     70  C   UNL A   1      36.016  33.908  30.737  1.00  0.00     0.059 A 
ATOM     71  C   UNL A   1      36.297  33.657  33.121  1.00  0.00     0.059 A 
ATOM     72  F   UNL A   1      38.131  32.486  33.980  1.00  0.00    -0.206 F 
ATOM     73  C   UNL A   1      35.543  34.089  32.033  1.00  0.00     0.060 A 
BRANCH  73  74
ATOM     74  S   UNL A   1      33.877  34.763  32.272  1.00  0.00     0.124 S 
ATOM     75  O   UNL A   1      33.251  33.741  33.104  1.00  0.00    -0.237 OA
ATOM     76  O   UNL A   1      34.153  36.036  32.928  1.00  0.00    -0.237 OA
ATOM     77  O   UNL A   1      33.356  34.866  30.912  1.00  0.00    -0.744 OA
ENDBRANCH  73  74
ENDBRANCH  41  66
BRANCH  53  78
ATOM     78  C   UNL A   1      42.617  28.930  33.573  1.00  0.00     0.058 A 
ATOM     79  C   UNL A   1      41.642  27.922  33.515  1.00  0.00     0.135 A 
ATOM     80  C   UNL A   1      43.351  29.052  34.763  1.00  0.00     0.135 A 
ATOM     81  F   UNL A   1      40.939  27.703  32.394  1.00  0.00    -0.206 F 
ATOM     82  C   UNL A   1      41.401  27.077  34.602  1.00  0.00     0.059 A 
ATOM     83  C   UNL A   1      43.149  28.204  35.846  1.00  0.00     0.059 A 
ATOM     84  F   UNL A   1      44.316  29.980  34.865  1.00  0.00    -0.206 F 
ATOM     85  C   UNL A   1      42.168  27.219  35.759  1.00  0.00     0.060 A 
BRANCH  85  86
ATOM     86  S   UNL A   1      41.934  26.058  37.122  1.00  0.00     0.124 S 
ATOM     87  O   UNL A   1      40.559  26.330  37.528  1.00  0.00    -0.237 OA
ATOM     88  O   UNL A   1      42.162  24.767  36.480  1.00  0.00    -0.237 OA
ATOM     89  O   UNL A   1      42.959  26.451  38.088  1.00  0.00    -0.744 OA
ENDBRANCH  85  86
ENDBRANCH  53  78
ENDBRANCH  27  28
ENDBRANCH  20  22
ENDBRANCH  19  20
ENDBRANCH  18  19
ENDBRANCH   1  18
TORSDOF 17
ENDMDL
