MODEL 1
REMARK VINA RESULT:     -11.6      0.000      0.000
REMARK SMILES Cc1cc(C(=O)N2CCC[C@@H]2C(C)C)sc1/C=C/C(=O)OCCOC(=O)c1ccc(-c2c3nc(c(-c4c(F)cc(S(=O)(=O)[O-])cc4F)c4ccc([nH]4)c(-c4c(F)cc(S(=O)(=O)[O-])cc4F)c4nc(c(-c5c(F)cc(S(=O)(=O)[O-])cc5F)c5ccc2[nH]5)C=C4)C=C3)cc1
REMARK SMILES IDX 22 1 21 2 19 3 20 4 18 5 17 6 16 7 1 8 2 9 3 10 4 11 15 12
REMARK SMILES IDX 5 13 6 14 7 15 8 16 11 17 9 18 10 19 12 20 13 21 14 22 23 23
REMARK SMILES IDX 24 24 25 25 26 26 27 27 28 28 92 29 29 30 91 31 30 32 31 33
REMARK SMILES IDX 32 34 85 35 33 36 90 37 84 38 86 39 34 40 89 41 83 42 82 43
REMARK SMILES IDX 35 45 69 46 48 47 68 48 49 49 52 50 67 51 87 52 50 53 51 54
REMARK SMILES IDX 66 56 88 57 53 58 36 59 37 60 46 61 38 62 39 63 45 64 47 65
REMARK SMILES IDX 40 66 41 67 42 68 43 69 44 70 70 71 71 72 80 73 72 74 73 75
REMARK SMILES IDX 79 76 81 77 74 78 75 79 76 80 77 81 78 82 54 83 55 84 64 85
REMARK SMILES IDX 56 86 57 87 63 88 65 89 58 90 59 91 60 92 61 93 62 94
REMARK H PARENT 86 44 52 55
REMARK Flexibility Score: inf
ROOT
ATOM      1  C   UNL A   1      39.727  21.211  26.422  1.00  0.00     0.275 C 
ENDROOT
BRANCH   1   2
ATOM      2  O   UNL A   1      38.805  21.747  25.453  1.00  0.00    -0.459 OA
BRANCH   2   3
ATOM      3  C   UNL A   1      37.852  20.890  25.019  1.00  0.00     0.330 C 
ATOM      4  O   UNL A   1      38.044  19.778  24.548  1.00  0.00    -0.247 OA
BRANCH   3   5
ATOM      5  C   UNL A   1      36.483  21.408  25.211  1.00  0.00     0.095 C 
ATOM      6  C   UNL A   1      35.366  20.664  25.252  1.00  0.00     0.027 C 
BRANCH   6   7
ATOM      7  C   UNL A   1      34.059  21.241  25.357  1.00  0.00     0.031 A 
ATOM      8  C   UNL A   1      32.593  19.326  24.450  1.00  0.00     0.046 C 
ATOM      9  C   UNL A   1      32.832  20.706  24.972  1.00  0.00    -0.032 A 
ATOM     10  C   UNL A   1      31.759  21.645  25.170  1.00  0.00     0.029 A 
ATOM     11  C   UNL A   1      32.163  22.845  25.721  1.00  0.00     0.093 A 
ATOM     12  S   UNL A   1      33.846  22.831  25.988  1.00  0.00    -0.130 S 
BRANCH  11  13
ATOM     13  C   UNL A   1      31.286  23.937  26.154  1.00  0.00     0.264 C 
ATOM     14  O   UNL A   1      30.733  23.928  27.256  1.00  0.00    -0.268 OA
BRANCH  13  15
ATOM     15  N   UNL A   1      31.210  25.054  25.336  1.00  0.00    -0.335 N 
ATOM     16  C   UNL A   1      30.725  24.938  23.972  1.00  0.00     0.120 C 
ATOM     17  C   UNL A   1      30.956  26.407  25.857  1.00  0.00     0.088 C 
ATOM     18  C   UNL A   1      30.952  26.319  23.408  1.00  0.00     0.024 C 
ATOM     19  C   UNL A   1      30.611  27.225  24.588  1.00  0.00     0.027 C 
BRANCH  17  20
ATOM     20  C   UNL A   1      32.148  26.985  26.679  1.00  0.00     0.005 C 
ATOM     21  C   UNL A   1      33.301  27.462  25.783  1.00  0.00     0.009 C 
ATOM     22  C   UNL A   1      31.732  28.176  27.556  1.00  0.00     0.009 C 
ENDBRANCH  17  20
ENDBRANCH  13  15
ENDBRANCH  11  13
ENDBRANCH   6   7
ENDBRANCH   3   5
ENDBRANCH   2   3
ENDBRANCH   1   2
BRANCH   1  23
ATOM     23  C   UNL A   1      40.656  22.297  26.976  1.00  0.00     0.275 C 
BRANCH  23  24
ATOM     24  O   UNL A   1      40.241  23.618  26.585  1.00  0.00    -0.458 OA
BRANCH  24  25
ATOM     25  C   UNL A   1      41.233  24.541  26.537  1.00  0.00     0.338 C 
ATOM     26  O   UNL A   1      42.148  24.589  25.733  1.00  0.00    -0.246 OA
BRANCH  25  27
ATOM     27  C   UNL A   1      40.993  25.588  27.548  1.00  0.00     0.060 A 
ATOM     28  C   UNL A   1      41.989  26.550  27.740  1.00  0.00     0.016 A 
ATOM     29  C   UNL A   1      39.843  25.590  28.340  1.00  0.00     0.016 A 
ATOM     30  C   UNL A   1      41.838  27.520  28.731  1.00  0.00     0.010 A 
ATOM     31  C   UNL A   1      39.696  26.562  29.338  1.00  0.00     0.010 A 
ATOM     32  C   UNL A   1      40.698  27.526  29.546  1.00  0.00    -0.014 A 
BRANCH  32  33
ATOM     33  C   UNL A   1      40.581  28.520  30.641  1.00  0.00     0.031 A 
ATOM     34  C   UNL A   1      41.480  28.426  31.841  1.00  0.00     0.074 A 
ATOM     35  C   UNL A   1      39.683  29.518  30.545  1.00  0.00     0.049 A 
ATOM     36  N   UNL A   1      41.520  29.186  32.906  1.00  0.00    -0.248 NA
ATOM     37  C   UNL A   1      42.467  27.335  31.842  1.00  0.00     0.031 C 
ATOM     38  C   UNL A   1      38.770  29.725  29.420  1.00  0.00     0.029 A 
ATOM     39  N   UNL A   1      39.389  30.544  31.408  1.00  0.00    -0.354 N 
ATOM     40  C   UNL A   1      42.528  28.664  33.708  1.00  0.00     0.074 A 
ATOM     41  C   UNL A   1      43.059  27.508  33.017  1.00  0.00     0.031 C 
ATOM     42  C   UNL A   1      38.016  30.810  29.663  1.00  0.00     0.029 A 
ATOM     43  C   UNL A   1      38.370  31.355  30.971  1.00  0.00     0.049 A 
ATOM     44  H   UNL A   1      39.863  30.685  32.259  1.00  0.00     0.167 HD
ATOM     45  C   UNL A   1      42.974  29.114  34.906  1.00  0.00     0.037 A 
ATOM     46  C   UNL A   1      37.776  32.409  31.566  1.00  0.00     0.037 A 
ATOM     47  C   UNL A   1      42.442  30.265  35.589  1.00  0.00     0.049 A 
ATOM     48  C   UNL A   1      38.258  32.861  32.918  1.00  0.00     0.074 A 
ATOM     49  C   UNL A   1      42.839  30.807  36.800  1.00  0.00     0.029 A 
ATOM     50  N   UNL A   1      41.396  31.050  35.125  1.00  0.00    -0.354 N 
ATOM     51  N   UNL A   1      39.225  32.369  33.654  1.00  0.00    -0.248 NA
ATOM     52  C   UNL A   1      37.568  34.012  33.520  1.00  0.00     0.031 C 
ATOM     53  C   UNL A   1      42.006  31.895  37.086  1.00  0.00     0.029 A 
ATOM     54  C   UNL A   1      41.121  32.059  36.033  1.00  0.00     0.049 A 
ATOM     55  H   UNL A   1      40.920  30.910  34.275  1.00  0.00     0.167 HD
ATOM     56  C   UNL A   1      39.274  33.161  34.797  1.00  0.00     0.074 A 
ATOM     57  C   UNL A   1      38.247  34.172  34.648  1.00  0.00     0.031 C 
ATOM     58  C   UNL A   1      40.096  33.060  35.870  1.00  0.00     0.037 A 
BRANCH  45  59
ATOM     59  C   UNL A   1      44.084  28.342  35.566  1.00  0.00     0.058 A 
ATOM     60  C   UNL A   1      43.820  27.290  36.456  1.00  0.00     0.135 A 
ATOM     61  C   UNL A   1      45.426  28.639  35.281  1.00  0.00     0.135 A 
ATOM     62  F   UNL A   1      42.554  26.973  36.773  1.00  0.00    -0.206 F 
ATOM     63  C   UNL A   1      44.849  26.577  37.064  1.00  0.00     0.059 A 
ATOM     64  C   UNL A   1      46.471  27.925  35.861  1.00  0.00     0.059 A 
ATOM     65  F   UNL A   1      45.733  29.637  34.436  1.00  0.00    -0.206 F 
ATOM     66  C   UNL A   1      46.172  26.906  36.763  1.00  0.00     0.060 A 
BRANCH  66  67
ATOM     67  S   UNL A   1      47.497  25.978  37.565  1.00  0.00     0.124 S 
ATOM     68  O   UNL A   1      47.803  26.837  38.705  1.00  0.00    -0.237 OA
ATOM     69  O   UNL A   1      46.846  24.711  37.883  1.00  0.00    -0.237 OA
ATOM     70  O   UNL A   1      48.532  25.907  36.538  1.00  0.00    -0.744 OA
ENDBRANCH  66  67
ENDBRANCH  45  59
BRANCH  46  71
ATOM     71  C   UNL A   1      36.649  33.101  30.886  1.00  0.00     0.058 A 
ATOM     72  C   UNL A   1      35.325  32.924  31.313  1.00  0.00     0.135 A 
ATOM     73  C   UNL A   1      36.878  33.964  29.803  1.00  0.00     0.135 A 
ATOM     74  F   UNL A   1      35.055  32.100  32.338  1.00  0.00    -0.206 F 
ATOM     75  C   UNL A   1      34.266  33.571  30.685  1.00  0.00     0.059 A 
ATOM     76  C   UNL A   1      35.838  34.640  29.174  1.00  0.00     0.059 A 
ATOM     77  F   UNL A   1      38.129  34.174  29.363  1.00  0.00    -0.206 F 
ATOM     78  C   UNL A   1      34.533  34.430  29.618  1.00  0.00     0.060 A 
BRANCH  78  79
ATOM     79  S   UNL A   1      33.159  35.309  28.844  1.00  0.00     0.124 S 
ATOM     80  O   UNL A   1      32.405  35.760  30.009  1.00  0.00    -0.237 OA
ATOM     81  O   UNL A   1      33.847  36.351  28.086  1.00  0.00    -0.237 OA
ATOM     82  O   UNL A   1      32.516  34.279  28.035  1.00  0.00    -0.744 OA
ENDBRANCH  78  79
ENDBRANCH  46  71
BRANCH  58  83
ATOM     83  C   UNL A   1      39.938  34.084  36.960  1.00  0.00     0.058 A 
ATOM     84  C   UNL A   1      40.596  35.322  36.908  1.00  0.00     0.135 A 
ATOM     85  C   UNL A   1      39.079  33.844  38.044  1.00  0.00     0.135 A 
ATOM     86  F   UNL A   1      41.435  35.599  35.897  1.00  0.00    -0.206 F 
ATOM     87  C   UNL A   1      40.425  36.279  37.904  1.00  0.00     0.059 A 
ATOM     88  C   UNL A   1      38.873  34.795  39.039  1.00  0.00     0.059 A 
ATOM     89  F   UNL A   1      38.416  32.679  38.136  1.00  0.00    -0.206 F 
ATOM     90  C   UNL A   1      39.560  36.006  38.966  1.00  0.00     0.060 A 
BRANCH  90  91
ATOM     91  S   UNL A   1      39.319  37.267  40.235  1.00  0.00     0.124 S 
ATOM     92  O   UNL A   1      38.576  36.525  41.249  1.00  0.00    -0.237 OA
ATOM     93  O   UNL A   1      40.690  37.625  40.588  1.00  0.00    -0.237 OA
ATOM     94  O   UNL A   1      38.566  38.307  39.541  1.00  0.00    -0.744 OA
ENDBRANCH  90  91
ENDBRANCH  58  83
ENDBRANCH  32  33
ENDBRANCH  25  27
ENDBRANCH  24  25
ENDBRANCH  23  24
ENDBRANCH   1  23
TORSDOF 18
ENDMDL
MODEL 2
REMARK VINA RESULT:     -11.3      6.336     12.095
REMARK SMILES Cc1cc(C(=O)N2CCC[C@@H]2C(C)C)sc1/C=C/C(=O)OCCOC(=O)c1ccc(-c2c3nc(c(-c4c(F)cc(S(=O)(=O)[O-])cc4F)c4ccc([nH]4)c(-c4c(F)cc(S(=O)(=O)[O-])cc4F)c4nc(c(-c5c(F)cc(S(=O)(=O)[O-])cc5F)c5ccc2[nH]5)C=C4)C=C3)cc1
REMARK SMILES IDX 22 1 21 2 19 3 20 4 18 5 17 6 16 7 1 8 2 9 3 10 4 11 15 12
REMARK SMILES IDX 5 13 6 14 7 15 8 16 11 17 9 18 10 19 12 20 13 21 14 22 23 23
REMARK SMILES IDX 24 24 25 25 26 26 27 27 28 28 92 29 29 30 91 31 30 32 31 33
REMARK SMILES IDX 32 34 85 35 33 36 90 37 84 38 86 39 34 40 89 41 83 42 82 43
REMARK SMILES IDX 35 45 69 46 48 47 68 48 49 49 52 50 67 51 87 52 50 53 51 54
REMARK SMILES IDX 66 56 88 57 53 58 36 59 37 60 46 61 38 62 39 63 45 64 47 65
REMARK SMILES IDX 40 66 41 67 42 68 43 69 44 70 70 71 71 72 80 73 72 74 73 75
REMARK SMILES IDX 79 76 81 77 74 78 75 79 76 80 77 81 78 82 54 83 55 84 64 85
REMARK SMILES IDX 56 86 57 87 63 88 65 89 58 90 59 91 60 92 61 93 62 94
REMARK H PARENT 86 44 52 55
REMARK Flexibility Score: inf
ROOT
ATOM      1  C   UNL A   1      33.940  32.076  27.964  1.00  0.00     0.275 C 
ENDROOT
BRANCH   1   2
ATOM      2  O   UNL A   1      33.445  30.747  27.707  1.00  0.00    -0.459 OA
BRANCH   2   3
ATOM      3  C   UNL A   1      32.432  30.665  26.813  1.00  0.00     0.330 C 
ATOM      4  O   UNL A   1      31.583  31.520  26.607  1.00  0.00    -0.247 OA
BRANCH   3   5
ATOM      5  C   UNL A   1      32.458  29.414  26.030  1.00  0.00     0.095 C 
ATOM      6  C   UNL A   1      31.682  29.143  24.968  1.00  0.00     0.027 C 
BRANCH   6   7
ATOM      7  C   UNL A   1      31.700  27.874  24.304  1.00  0.00     0.031 A 
ATOM      8  C   UNL A   1      29.285  27.741  23.415  1.00  0.00     0.046 C 
ATOM      9  C   UNL A   1      30.661  27.209  23.658  1.00  0.00    -0.032 A 
ATOM     10  C   UNL A   1      31.071  25.909  23.194  1.00  0.00     0.029 A 
ATOM     11  C   UNL A   1      32.396  25.617  23.453  1.00  0.00     0.093 A 
ATOM     12  S   UNL A   1      33.134  26.919  24.269  1.00  0.00    -0.130 S 
BRANCH  11  13
ATOM     13  C   UNL A   1      33.127  24.435  22.989  1.00  0.00     0.264 C 
ATOM     14  O   UNL A   1      33.849  24.468  21.991  1.00  0.00    -0.268 OA
BRANCH  13  15
ATOM     15  N   UNL A   1      33.092  23.307  23.796  1.00  0.00    -0.335 N 
ATOM     16  C   UNL A   1      31.822  22.713  24.178  1.00  0.00     0.120 C 
ATOM     17  C   UNL A   1      34.153  22.288  23.788  1.00  0.00     0.088 C 
ATOM     18  C   UNL A   1      32.227  21.639  25.157  1.00  0.00     0.024 C 
ATOM     19  C   UNL A   1      33.518  21.098  24.550  1.00  0.00     0.027 C 
BRANCH  17  20
ATOM     20  C   UNL A   1      35.495  22.790  24.403  1.00  0.00     0.005 C 
ATOM     21  C   UNL A   1      36.567  23.052  23.334  1.00  0.00     0.009 C 
ATOM     22  C   UNL A   1      35.324  24.091  25.202  1.00  0.00     0.009 C 
ENDBRANCH  17  20
ENDBRANCH  13  15
ENDBRANCH  11  13
ENDBRANCH   6   7
ENDBRANCH   3   5
ENDBRANCH   2   3
ENDBRANCH   1   2
BRANCH   1  23
ATOM     23  C   UNL A   1      34.974  32.082  29.095  1.00  0.00     0.275 C 
BRANCH  23  24
ATOM     24  O   UNL A   1      35.642  30.815  29.227  1.00  0.00    -0.458 OA
BRANCH  24  25
ATOM     25  C   UNL A   1      36.375  30.668  30.358  1.00  0.00     0.338 C 
ATOM     26  O   UNL A   1      35.960  30.676  31.504  1.00  0.00    -0.246 OA
BRANCH  25  27
ATOM     27  C   UNL A   1      37.777  30.367  30.013  1.00  0.00     0.060 A 
ATOM     28  C   UNL A   1      38.103  30.235  28.660  1.00  0.00     0.016 A 
ATOM     29  C   UNL A   1      38.744  30.151  30.999  1.00  0.00     0.016 A 
ATOM     30  C   UNL A   1      39.400  29.884  28.286  1.00  0.00     0.010 A 
ATOM     31  C   UNL A   1      40.043  29.794  30.621  1.00  0.00     0.010 A 
ATOM     32  C   UNL A   1      40.376  29.648  29.264  1.00  0.00    -0.014 A 
BRANCH  32  33
ATOM     33  C   UNL A   1      41.734  29.208  28.856  1.00  0.00     0.031 A 
ATOM     34  C   UNL A   1      42.871  30.189  28.847  1.00  0.00     0.074 A 
ATOM     35  C   UNL A   1      41.946  27.922  28.518  1.00  0.00     0.049 A 
ATOM     36  N   UNL A   1      44.121  30.003  28.506  1.00  0.00    -0.248 NA
ATOM     37  C   UNL A   1      42.562  31.561  29.278  1.00  0.00     0.031 C 
ATOM     38  C   UNL A   1      40.925  26.874  28.509  1.00  0.00     0.029 A 
ATOM     39  N   UNL A   1      43.090  27.280  28.114  1.00  0.00    -0.354 N 
ATOM     40  C   UNL A   1      44.748  31.231  28.676  1.00  0.00     0.074 A 
ATOM     41  C   UNL A   1      43.735  32.163  29.126  1.00  0.00     0.031 C 
ATOM     42  C   UNL A   1      41.489  25.718  28.118  1.00  0.00     0.029 A 
ATOM     43  C   UNL A   1      42.900  25.952  27.818  1.00  0.00     0.049 A 
ATOM     44  H   UNL A   1      43.963  27.729  28.044  1.00  0.00     0.167 HD
ATOM     45  C   UNL A   1      46.051  31.550  28.481  1.00  0.00     0.037 A 
ATOM     46  C   UNL A   1      43.761  25.031  27.342  1.00  0.00     0.037 A 
ATOM     47  C   UNL A   1      47.055  30.620  28.032  1.00  0.00     0.049 A 
ATOM     48  C   UNL A   1      45.193  25.421  27.089  1.00  0.00     0.074 A 
ATOM     49  C   UNL A   1      48.405  30.845  27.819  1.00  0.00     0.029 A 
ATOM     50  N   UNL A   1      46.821  29.288  27.722  1.00  0.00    -0.354 N 
ATOM     51  N   UNL A   1      45.775  26.582  27.273  1.00  0.00    -0.248 NA
ATOM     52  C   UNL A   1      46.084  24.376  26.565  1.00  0.00     0.031 C 
ATOM     53  C   UNL A   1      48.977  29.660  27.344  1.00  0.00     0.029 A 
ATOM     54  C   UNL A   1      47.995  28.684  27.303  1.00  0.00     0.049 A 
ATOM     55  H   UNL A   1      45.948  28.838  27.791  1.00  0.00     0.167 HD
ATOM     56  C   UNL A   1      47.105  26.403  26.906  1.00  0.00     0.074 A 
ATOM     57  C   UNL A   1      47.243  25.018  26.501  1.00  0.00     0.031 C 
ATOM     58  C   UNL A   1      48.118  27.303  26.905  1.00  0.00     0.037 A 
BRANCH  45  59
ATOM     59  C   UNL A   1      46.461  32.975  28.733  1.00  0.00     0.058 A 
ATOM     60  C   UNL A   1      46.866  33.411  30.004  1.00  0.00     0.135 A 
ATOM     61  C   UNL A   1      46.477  33.908  27.684  1.00  0.00     0.135 A 
ATOM     62  F   UNL A   1      46.857  32.563  31.044  1.00  0.00    -0.206 F 
ATOM     63  C   UNL A   1      47.245  34.730  30.233  1.00  0.00     0.059 A 
ATOM     64  C   UNL A   1      46.873  35.227  27.885  1.00  0.00     0.059 A 
ATOM     65  F   UNL A   1      46.098  33.543  26.448  1.00  0.00    -0.206 F 
ATOM     66  C   UNL A   1      47.241  35.632  29.167  1.00  0.00     0.060 A 
BRANCH  66  67
ATOM     67  S   UNL A   1      47.727  37.342  29.481  1.00  0.00     0.124 S 
ATOM     68  O   UNL A   1      48.696  37.175  30.560  1.00  0.00    -0.237 OA
ATOM     69  O   UNL A   1      48.278  37.754  28.193  1.00  0.00    -0.237 OA
ATOM     70  O   UNL A   1      46.473  37.987  29.858  1.00  0.00    -0.744 OA
ENDBRANCH  66  67
ENDBRANCH  45  59
BRANCH  46  71
ATOM     71  C   UNL A   1      43.285  23.650  27.064  1.00  0.00     0.058 A 
ATOM     72  C   UNL A   1      42.980  23.237  25.759  1.00  0.00     0.135 A 
ATOM     73  C   UNL A   1      43.139  22.714  28.099  1.00  0.00     0.135 A 
ATOM     74  F   UNL A   1      43.094  24.100  24.738  1.00  0.00    -0.206 F 
ATOM     75  C   UNL A   1      42.538  21.945  25.490  1.00  0.00     0.059 A 
ATOM     76  C   UNL A   1      42.721  21.410  27.852  1.00  0.00     0.059 A 
ATOM     77  F   UNL A   1      43.427  23.058  29.364  1.00  0.00    -0.206 F 
ATOM     78  C   UNL A   1      42.415  21.038  26.543  1.00  0.00     0.060 A 
BRANCH  78  79
ATOM     79  S   UNL A   1      41.894  19.348  26.179  1.00  0.00     0.124 S 
ATOM     80  O   UNL A   1      42.707  19.036  25.008  1.00  0.00    -0.237 OA
ATOM     81  O   UNL A   1      42.249  18.644  27.408  1.00  0.00    -0.237 OA
ATOM     82  O   UNL A   1      40.462  19.484  25.936  1.00  0.00    -0.744 OA
ENDBRANCH  78  79
ENDBRANCH  46  71
BRANCH  58  83
ATOM     83  C   UNL A   1      49.475  26.816  26.478  1.00  0.00     0.058 A 
ATOM     84  C   UNL A   1      50.328  26.141  27.365  1.00  0.00     0.135 A 
ATOM     85  C   UNL A   1      49.906  26.982  25.152  1.00  0.00     0.135 A 
ATOM     86  F   UNL A   1      49.966  25.962  28.645  1.00  0.00    -0.206 F 
ATOM     87  C   UNL A   1      51.570  25.666  26.958  1.00  0.00     0.059 A 
ATOM     88  C   UNL A   1      51.135  26.494  24.717  1.00  0.00     0.059 A 
ATOM     89  F   UNL A   1      49.124  27.612  24.260  1.00  0.00    -0.206 F 
ATOM     90  C   UNL A   1      51.965  25.847  25.631  1.00  0.00     0.060 A 
BRANCH  90  91
ATOM     91  S   UNL A   1      53.565  25.197  25.105  1.00  0.00     0.124 S 
ATOM     92  O   UNL A   1      53.385  23.765  25.314  1.00  0.00    -0.237 OA
ATOM     93  O   UNL A   1      53.638  25.631  23.712  1.00  0.00    -0.237 OA
ATOM     94  O   UNL A   1      54.510  25.851  26.006  1.00  0.00    -0.744 OA
ENDBRANCH  90  91
ENDBRANCH  58  83
ENDBRANCH  32  33
ENDBRANCH  25  27
ENDBRANCH  24  25
ENDBRANCH  23  24
ENDBRANCH   1  23
TORSDOF 18
ENDMDL
MODEL 3
REMARK VINA RESULT:     -11.1      0.593      8.333
REMARK SMILES Cc1cc(C(=O)N2CCC[C@@H]2C(C)C)sc1/C=C/C(=O)OCCOC(=O)c1ccc(-c2c3nc(c(-c4c(F)cc(S(=O)(=O)[O-])cc4F)c4ccc([nH]4)c(-c4c(F)cc(S(=O)(=O)[O-])cc4F)c4nc(c(-c5c(F)cc(S(=O)(=O)[O-])cc5F)c5ccc2[nH]5)C=C4)C=C3)cc1
REMARK SMILES IDX 22 1 21 2 19 3 20 4 18 5 17 6 16 7 1 8 2 9 3 10 4 11 15 12
REMARK SMILES IDX 5 13 6 14 7 15 8 16 11 17 9 18 10 19 12 20 13 21 14 22 23 23
REMARK SMILES IDX 24 24 25 25 26 26 27 27 28 28 92 29 29 30 91 31 30 32 31 33
REMARK SMILES IDX 32 34 85 35 33 36 90 37 84 38 86 39 34 40 89 41 83 42 82 43
REMARK SMILES IDX 35 45 69 46 48 47 68 48 49 49 52 50 67 51 87 52 50 53 51 54
REMARK SMILES IDX 66 56 88 57 53 58 36 59 37 60 46 61 38 62 39 63 45 64 47 65
REMARK SMILES IDX 40 66 41 67 42 68 43 69 44 70 70 71 71 72 80 73 72 74 73 75
REMARK SMILES IDX 79 76 81 77 74 78 75 79 76 80 77 81 78 82 54 83 55 84 64 85
REMARK SMILES IDX 56 86 57 87 63 88 65 89 58 90 59 91 60 92 61 93 62 94
REMARK H PARENT 86 44 52 55
REMARK Flexibility Score: inf
ROOT
ATOM      1  C   UNL A   1      39.922  21.719  26.527  1.00  0.00     0.275 C 
ENDROOT
BRANCH   1   2
ATOM      2  O   UNL A   1      38.727  22.190  25.875  1.00  0.00    -0.459 OA
BRANCH   2   3
ATOM      3  C   UNL A   1      37.883  21.226  25.438  1.00  0.00     0.330 C 
ATOM      4  O   UNL A   1      38.206  20.171  24.911  1.00  0.00    -0.247 OA
BRANCH   3   5
ATOM      5  C   UNL A   1      36.465  21.542  25.701  1.00  0.00     0.095 C 
ATOM      6  C   UNL A   1      35.424  21.128  24.961  1.00  0.00     0.027 C 
BRANCH   6   7
ATOM      7  C   UNL A   1      34.078  21.541  25.225  1.00  0.00     0.031 A 
ATOM      8  C   UNL A   1      32.814  19.308  24.988  1.00  0.00     0.046 C 
ATOM      9  C   UNL A   1      32.908  20.785  25.198  1.00  0.00    -0.032 A 
ATOM     10  C   UNL A   1      31.746  21.600  25.439  1.00  0.00     0.029 A 
ATOM     11  C   UNL A   1      32.036  22.929  25.676  1.00  0.00     0.093 A 
ATOM     12  S   UNL A   1      33.718  23.186  25.594  1.00  0.00    -0.130 S 
BRANCH  11  13
ATOM     13  C   UNL A   1      31.079  23.965  26.077  1.00  0.00     0.264 C 
ATOM     14  O   UNL A   1      30.437  23.885  27.127  1.00  0.00    -0.268 OA
BRANCH  13  15
ATOM     15  N   UNL A   1      31.022  25.113  25.301  1.00  0.00    -0.335 N 
ATOM     16  C   UNL A   1      30.585  25.048  23.918  1.00  0.00     0.120 C 
ATOM     17  C   UNL A   1      30.740  26.442  25.866  1.00  0.00     0.088 C 
ATOM     18  C   UNL A   1      30.820  26.451  23.417  1.00  0.00     0.024 C 
ATOM     19  C   UNL A   1      30.432  27.308  24.619  1.00  0.00     0.027 C 
BRANCH  17  20
ATOM     20  C   UNL A   1      31.898  26.995  26.751  1.00  0.00     0.005 C 
ATOM     21  C   UNL A   1      33.238  27.038  26.002  1.00  0.00     0.009 C 
ATOM     22  C   UNL A   1      31.618  28.417  27.262  1.00  0.00     0.009 C 
ENDBRANCH  17  20
ENDBRANCH  13  15
ENDBRANCH  11  13
ENDBRANCH   6   7
ENDBRANCH   3   5
ENDBRANCH   2   3
ENDBRANCH   1   2
BRANCH   1  23
ATOM     23  C   UNL A   1      40.927  22.854  26.749  1.00  0.00     0.275 C 
BRANCH  23  24
ATOM     24  O   UNL A   1      40.313  24.151  26.640  1.00  0.00    -0.458 OA
BRANCH  24  25
ATOM     25  C   UNL A   1      41.178  25.186  26.496  1.00  0.00     0.338 C 
ATOM     26  O   UNL A   1      41.830  25.460  25.503  1.00  0.00    -0.246 OA
BRANCH  25  27
ATOM     27  C   UNL A   1      41.145  26.040  27.698  1.00  0.00     0.060 A 
ATOM     28  C   UNL A   1      39.986  26.024  28.478  1.00  0.00     0.016 A 
ATOM     29  C   UNL A   1      42.204  26.892  28.020  1.00  0.00     0.016 A 
ATOM     30  C   UNL A   1      39.879  26.865  29.586  1.00  0.00     0.010 A 
ATOM     31  C   UNL A   1      42.093  27.739  29.129  1.00  0.00     0.010 A 
ATOM     32  C   UNL A   1      40.926  27.738  29.912  1.00  0.00    -0.014 A 
BRANCH  32  33
ATOM     33  C   UNL A   1      40.773  28.676  31.051  1.00  0.00     0.031 A 
ATOM     34  C   UNL A   1      39.735  29.761  30.998  1.00  0.00     0.074 A 
ATOM     35  C   UNL A   1      41.551  28.537  32.141  1.00  0.00     0.049 A 
ATOM     36  N   UNL A   1      39.460  30.687  31.882  1.00  0.00    -0.248 NA
ATOM     37  C   UNL A   1      38.894  29.811  29.793  1.00  0.00     0.031 C 
ATOM     38  C   UNL A   1      42.579  27.510  32.317  1.00  0.00     0.029 A 
ATOM     39  N   UNL A   1      41.601  29.264  33.304  1.00  0.00    -0.354 N 
ATOM     40  C   UNL A   1      38.420  31.433  31.340  1.00  0.00     0.074 A 
ATOM     41  C   UNL A   1      38.130  30.867  30.039  1.00  0.00     0.031 C 
ATOM     42  C   UNL A   1      43.159  27.674  33.518  1.00  0.00     0.029 A 
ATOM     43  C   UNL A   1      42.567  28.833  34.181  1.00  0.00     0.049 A 
ATOM     44  H   UNL A   1      41.001  30.021  33.492  1.00  0.00     0.167 HD
ATOM     45  C   UNL A   1      37.765  32.487  31.882  1.00  0.00     0.037 A 
ATOM     46  C   UNL A   1      42.946  29.328  35.376  1.00  0.00     0.037 A 
ATOM     47  C   UNL A   1      38.058  33.047  33.176  1.00  0.00     0.049 A 
ATOM     48  C   UNL A   1      42.233  30.529  35.936  1.00  0.00     0.074 A 
ATOM     49  C   UNL A   1      37.438  34.106  33.818  1.00  0.00     0.029 A 
ATOM     50  N   UNL A   1      39.058  32.597  34.027  1.00  0.00    -0.354 N 
ATOM     51  N   UNL A   1      41.239  31.211  35.421  1.00  0.00    -0.248 NA
ATOM     52  C   UNL A   1      42.693  31.027  37.241  1.00  0.00     0.031 C 
ATOM     53  C   UNL A   1      38.089  34.321  35.038  1.00  0.00     0.029 A 
ATOM     54  C   UNL A   1      39.085  33.368  35.178  1.00  0.00     0.049 A 
ATOM     55  H   UNL A   1      39.659  31.841  33.840  1.00  0.00     0.167 HD
ATOM     56  C   UNL A   1      40.940  32.207  36.345  1.00  0.00     0.074 A 
ATOM     57  C   UNL A   1      41.852  32.030  37.458  1.00  0.00     0.031 C 
ATOM     58  C   UNL A   1      39.997  33.178  36.279  1.00  0.00     0.037 A 
BRANCH  45  59
ATOM     59  C   UNL A   1      36.674  33.120  31.062  1.00  0.00     0.058 A 
ATOM     60  C   UNL A   1      36.964  33.958  29.974  1.00  0.00     0.135 A 
ATOM     61  C   UNL A   1      35.324  32.862  31.349  1.00  0.00     0.135 A 
ATOM     62  F   UNL A   1      38.237  34.249  29.665  1.00  0.00    -0.206 F 
ATOM     63  C   UNL A   1      35.952  34.542  29.217  1.00  0.00     0.059 A 
ATOM     64  C   UNL A   1      34.297  33.416  30.592  1.00  0.00     0.059 A 
ATOM     65  F   UNL A   1      34.993  32.067  32.380  1.00  0.00    -0.206 F 
ATOM     66  C   UNL A   1      34.621  34.267  29.537  1.00  0.00     0.060 A 
BRANCH  66  67
ATOM     67  S   UNL A   1      33.319  35.037  28.551  1.00  0.00     0.124 S 
ATOM     68  O   UNL A   1      32.713  33.874  27.912  1.00  0.00    -0.237 OA
ATOM     69  O   UNL A   1      32.506  35.699  29.565  1.00  0.00    -0.237 OA
ATOM     70  O   UNL A   1      34.053  35.931  27.659  1.00  0.00    -0.744 OA
ENDBRANCH  66  67
ENDBRANCH  45  59
BRANCH  46  71
ATOM     71  C   UNL A   1      44.065  28.690  36.118  1.00  0.00     0.058 A 
ATOM     72  C   UNL A   1      45.380  29.161  35.993  1.00  0.00     0.135 A 
ATOM     73  C   UNL A   1      43.837  27.603  36.976  1.00  0.00     0.135 A 
ATOM     74  F   UNL A   1      45.649  30.191  35.175  1.00  0.00    -0.206 F 
ATOM     75  C   UNL A   1      46.433  28.571  36.686  1.00  0.00     0.059 A 
ATOM     76  C   UNL A   1      44.870  27.012  37.698  1.00  0.00     0.059 A 
ATOM     77  F   UNL A   1      42.595  27.121  37.137  1.00  0.00    -0.206 F 
ATOM     78  C   UNL A   1      46.166  27.500  37.539  1.00  0.00     0.060 A 
BRANCH  78  79
ATOM     79  S   UNL A   1      47.529  26.776  38.479  1.00  0.00     0.124 S 
ATOM     80  O   UNL A   1      46.884  26.487  39.755  1.00  0.00    -0.237 OA
ATOM     81  O   UNL A   1      47.882  25.616  37.665  1.00  0.00    -0.237 OA
ATOM     82  O   UNL A   1      48.524  27.843  38.501  1.00  0.00    -0.744 OA
ENDBRANCH  78  79
ENDBRANCH  46  71
BRANCH  58  83
ATOM     83  C   UNL A   1      39.882  34.111  37.452  1.00  0.00     0.058 A 
ATOM     84  C   UNL A   1      39.075  33.807  38.559  1.00  0.00     0.135 A 
ATOM     85  C   UNL A   1      40.627  35.301  37.491  1.00  0.00     0.135 A 
ATOM     86  F   UNL A   1      38.338  32.685  38.568  1.00  0.00    -0.206 F 
ATOM     87  C   UNL A   1      38.995  34.659  39.655  1.00  0.00     0.059 A 
ATOM     88  C   UNL A   1      40.580  36.157  38.588  1.00  0.00     0.059 A 
ATOM     89  F   UNL A   1      41.423  35.635  36.462  1.00  0.00    -0.206 F 
ATOM     90  C   UNL A   1      39.751  35.832  39.661  1.00  0.00     0.060 A 
BRANCH  90  91
ATOM     91  S   UNL A   1      39.665  36.915  41.103  1.00  0.00     0.124 S 
ATOM     92  O   UNL A   1      41.078  37.123  41.399  1.00  0.00    -0.237 OA
ATOM     93  O   UNL A   1      38.948  38.076  40.582  1.00  0.00    -0.237 OA
ATOM     94  O   UNL A   1      38.928  36.120  42.081  1.00  0.00    -0.744 OA
ENDBRANCH  90  91
ENDBRANCH  58  83
ENDBRANCH  32  33
ENDBRANCH  25  27
ENDBRANCH  24  25
ENDBRANCH  23  24
ENDBRANCH   1  23
TORSDOF 18
ENDMDL
