MODEL 1
REMARK VINA RESULT:     -11.3      0.000      0.000
REMARK SMILES C#Cc1cc(Cl)c2c(c1)C=C(C(=O)OCCOC(=O)c1ccc(-c3c4nc(c(-c5c(F)cc(S(=O)(=O)[O-])cc5F)c5ccc([nH]5)c(-c5c(F)cc(S(=O)(=O)[O-])cc5F)c5nc(c(-c6c(F)cc(S(=O)(=O)[O-])cc6F)c6ccc3[nH]6)C=C5)C=C4)cc1)[C@@H](C(F)(F)F)O2
REMARK SMILES IDX 16 1 15 2 14 3 12 4 13 5 11 6 3 7 4 8 9 9 5 10 8 11 6 12
REMARK SMILES IDX 7 13 10 14 91 15 86 16 2 17 1 18 87 19 88 20 89 21 90 22
REMARK SMILES IDX 17 23 18 24 19 25 20 26 21 27 85 28 22 29 84 30 23 31 24 32
REMARK SMILES IDX 25 33 78 34 26 35 83 36 77 37 79 38 27 39 82 40 76 41 75 42
REMARK SMILES IDX 28 44 62 45 41 46 61 47 42 48 45 49 60 50 80 51 43 52 44 53
REMARK SMILES IDX 59 55 81 56 46 57 29 58 30 59 39 60 31 61 32 62 38 63 40 64
REMARK SMILES IDX 33 65 34 66 35 67 36 68 37 69 63 70 64 71 73 72 65 73 66 74
REMARK SMILES IDX 72 75 74 76 67 77 68 78 69 79 70 80 71 81 47 82 48 83 57 84
REMARK SMILES IDX 49 85 50 86 56 87 58 88 51 89 52 90 53 91 54 92 55 93
REMARK H PARENT 79 43 45 54
REMARK Flexibility Score: inf
ROOT
ATOM      1  C   UNL A   1      33.893  28.691  25.798  1.00  0.00     0.275 C 
ENDROOT
BRANCH   1   2
ATOM      2  C   UNL A   1      32.386  28.550  25.573  1.00  0.00     0.275 C 
BRANCH   2   3
ATOM      3  O   UNL A   1      32.050  27.260  25.011  1.00  0.00    -0.459 OA
BRANCH   3   4
ATOM      4  C   UNL A   1      31.481  26.384  25.871  1.00  0.00     0.338 C 
ATOM      5  O   UNL A   1      30.590  26.628  26.669  1.00  0.00    -0.246 OA
BRANCH   4   6
ATOM      6  C   UNL A   1      32.080  25.042  25.733  1.00  0.00     0.087 C 
ATOM      7  C   UNL A   1      36.082  22.359  25.589  1.00  0.00     0.027 A 
ATOM      8  C   UNL A   1      35.366  21.303  25.027  1.00  0.00     0.041 A 
ATOM      9  C   UNL A   1      35.414  23.527  25.952  1.00  0.00     0.029 A 
ATOM     10  C   UNL A   1      33.983  21.421  24.830  1.00  0.00     0.084 A 
ATOM     11  C   UNL A   1      34.034  23.646  25.734  1.00  0.00     0.020 A 
ATOM     12  Cl  UNL A   1      33.144  20.087  24.122  1.00  0.00    -0.080 Cl
ATOM     13  C   UNL A   1      33.306  22.598  25.176  1.00  0.00     0.146 A 
ATOM     14  C   UNL A   1      33.372  24.896  26.042  1.00  0.00     0.027 C 
ATOM     15  O   UNL A   1      31.954  22.672  24.965  1.00  0.00    -0.474 OA
ATOM     16  C   UNL A   1      31.274  23.954  25.094  1.00  0.00     0.316 C 
BRANCH   7  17
ATOM     17  C   UNL A   1      37.496  22.269  25.778  1.00  0.00    -0.070 C 
ATOM     18  C   UNL A   1      38.685  22.231  25.956  1.00  0.00     0.010 C 
ENDBRANCH   7  17
BRANCH  16  19
ATOM     19  C   UNL A   1      30.755  24.389  23.713  1.00  0.00     0.430 C 
ATOM     20  F   UNL A   1      29.749  25.288  23.823  1.00  0.00    -0.167 F 
ATOM     21  F   UNL A   1      31.726  24.993  22.983  1.00  0.00    -0.167 F 
ATOM     22  F   UNL A   1      30.294  23.346  22.988  1.00  0.00    -0.167 F 
ENDBRANCH  16  19
ENDBRANCH   4   6
ENDBRANCH   3   4
ENDBRANCH   2   3
ENDBRANCH   1   2
BRANCH   1  23
ATOM     23  O   UNL A   1      34.215  28.610  27.198  1.00  0.00    -0.458 OA
BRANCH  23  24
ATOM     24  C   UNL A   1      34.474  29.800  27.782  1.00  0.00     0.338 C 
ATOM     25  O   UNL A   1      33.678  30.697  28.014  1.00  0.00    -0.246 OA
BRANCH  24  26
ATOM     26  C   UNL A   1      35.865  29.859  28.243  1.00  0.00     0.060 A 
ATOM     27  C   UNL A   1      36.833  30.224  27.318  1.00  0.00     0.016 A 
ATOM     28  C   UNL A   1      36.241  29.317  29.467  1.00  0.00     0.016 A 
ATOM     29  C   UNL A   1      38.156  29.853  27.516  1.00  0.00     0.010 A 
ATOM     30  C   UNL A   1      37.601  29.125  29.741  1.00  0.00     0.010 A 
ATOM     31  C   UNL A   1      38.573  29.332  28.745  1.00  0.00    -0.014 A 
BRANCH  31  32
ATOM     32  C   UNL A   1      40.012  29.005  28.967  1.00  0.00     0.031 A 
ATOM     33  C   UNL A   1      40.950  30.037  29.546  1.00  0.00     0.074 A 
ATOM     34  C   UNL A   1      40.478  27.771  28.670  1.00  0.00     0.049 A 
ATOM     35  N   UNL A   1      42.256  30.005  29.639  1.00  0.00    -0.248 NA
ATOM     36  C   UNL A   1      40.350  31.273  30.078  1.00  0.00     0.031 C 
ATOM     37  C   UNL A   1      39.672  26.658  28.157  1.00  0.00     0.029 A 
ATOM     38  N   UNL A   1      41.740  27.235  28.762  1.00  0.00    -0.354 N 
ATOM     39  C   UNL A   1      42.632  31.226  30.189  1.00  0.00     0.074 A 
ATOM     40  C   UNL A   1      41.421  31.989  30.393  1.00  0.00     0.031 C 
ATOM     41  C   UNL A   1      40.438  25.567  28.036  1.00  0.00     0.029 A 
ATOM     42  C   UNL A   1      41.815  25.928  28.334  1.00  0.00     0.049 A 
ATOM     43  H   UNL A   1      42.516  27.738  29.100  1.00  0.00     0.167 HD
ATOM     44  C   UNL A   1      43.875  31.663  30.503  1.00  0.00     0.037 A 
ATOM     45  C   UNL A   1      42.875  25.120  28.141  1.00  0.00     0.037 A 
ATOM     46  C   UNL A   1      45.068  30.871  30.339  1.00  0.00     0.049 A 
ATOM     47  C   UNL A   1      44.249  25.659  28.419  1.00  0.00     0.074 A 
ATOM     48  C   UNL A   1      46.375  31.218  30.634  1.00  0.00     0.029 A 
ATOM     49  N   UNL A   1      45.100  29.571  29.855  1.00  0.00    -0.354 N 
ATOM     50  N   UNL A   1      44.590  26.833  28.894  1.00  0.00    -0.248 NA
ATOM     51  C   UNL A   1      45.383  24.776  28.117  1.00  0.00     0.031 C 
ATOM     52  C   UNL A   1      47.202  30.152  30.273  1.00  0.00     0.029 A 
ATOM     53  C   UNL A   1      46.406  29.113  29.818  1.00  0.00     0.049 A 
ATOM     54  H   UNL A   1      44.311  29.051  29.579  1.00  0.00     0.167 HD
ATOM     55  C   UNL A   1      45.977  26.820  28.971  1.00  0.00     0.074 A 
ATOM     56  C   UNL A   1      46.409  25.516  28.515  1.00  0.00     0.031 C 
ATOM     57  C   UNL A   1      46.817  27.804  29.376  1.00  0.00     0.037 A 
BRANCH  44  58
ATOM     58  C   UNL A   1      44.033  33.060  31.044  1.00  0.00     0.058 A 
ATOM     59  C   UNL A   1      44.083  34.180  30.200  1.00  0.00     0.135 A 
ATOM     60  C   UNL A   1      44.032  33.287  32.431  1.00  0.00     0.135 A 
ATOM     61  F   UNL A   1      44.106  34.023  28.868  1.00  0.00    -0.206 F 
ATOM     62  C   UNL A   1      44.131  35.474  30.712  1.00  0.00     0.059 A 
ATOM     63  C   UNL A   1      44.048  34.573  32.965  1.00  0.00     0.059 A 
ATOM     64  F   UNL A   1      43.988  32.252  33.285  1.00  0.00    -0.206 F 
ATOM     65  C   UNL A   1      44.099  35.660  32.095  1.00  0.00     0.060 A 
BRANCH  65  66
ATOM     66  S   UNL A   1      44.111  37.348  32.736  1.00  0.00     0.124 S 
ATOM     67  O   UNL A   1      42.954  37.334  33.625  1.00  0.00    -0.237 OA
ATOM     68  O   UNL A   1      45.413  37.419  33.392  1.00  0.00    -0.237 OA
ATOM     69  O   UNL A   1      43.969  38.171  31.539  1.00  0.00    -0.744 OA
ENDBRANCH  65  66
ENDBRANCH  44  58
BRANCH  45  70
ATOM     70  C   UNL A   1      42.680  23.739  27.617  1.00  0.00     0.058 A 
ATOM     71  C   UNL A   1      42.617  22.640  28.485  1.00  0.00     0.135 A 
ATOM     72  C   UNL A   1      42.546  23.488  26.240  1.00  0.00     0.135 A 
ATOM     73  F   UNL A   1      42.748  22.823  29.808  1.00  0.00    -0.206 F 
ATOM     74  C   UNL A   1      42.449  21.343  28.010  1.00  0.00     0.059 A 
ATOM     75  C   UNL A   1      42.337  22.206  25.743  1.00  0.00     0.059 A 
ATOM     76  F   UNL A   1      42.584  24.504  25.362  1.00  0.00    -0.206 F 
ATOM     77  C   UNL A   1      42.305  21.137  26.637  1.00  0.00     0.060 A 
BRANCH  77  78
ATOM     78  S   UNL A   1      42.066  19.451  26.037  1.00  0.00     0.124 S 
ATOM     79  O   UNL A   1      42.432  18.667  27.210  1.00  0.00    -0.237 OA
ATOM     80  O   UNL A   1      40.649  19.454  25.686  1.00  0.00    -0.237 OA
ATOM     81  O   UNL A   1      42.985  19.362  24.906  1.00  0.00    -0.744 OA
ENDBRANCH  77  78
ENDBRANCH  45  70
BRANCH  57  82
ATOM     82  C   UNL A   1      48.289  27.500  29.381  1.00  0.00     0.058 A 
ATOM     83  C   UNL A   1      49.128  27.905  28.332  1.00  0.00     0.135 A 
ATOM     84  C   UNL A   1      48.878  26.862  30.485  1.00  0.00     0.135 A 
ATOM     85  F   UNL A   1      48.614  28.512  27.250  1.00  0.00    -0.206 F 
ATOM     86  C   UNL A   1      50.498  27.671  28.368  1.00  0.00     0.059 A 
ATOM     87  C   UNL A   1      50.251  26.650  30.558  1.00  0.00     0.059 A 
ATOM     88  F   UNL A   1      48.121  26.463  31.520  1.00  0.00    -0.206 F 
ATOM     89  C   UNL A   1      51.050  27.050  29.490  1.00  0.00     0.060 A 
BRANCH  89  90
ATOM     90  S   UNL A   1      52.836  26.796  29.537  1.00  0.00     0.124 S 
ATOM     91  O   UNL A   1      52.991  26.028  30.768  1.00  0.00    -0.237 OA
ATOM     92  O   UNL A   1      53.077  26.063  28.298  1.00  0.00    -0.237 OA
ATOM     93  O   UNL A   1      53.373  28.153  29.573  1.00  0.00    -0.744 OA
ENDBRANCH  89  90
ENDBRANCH  57  82
ENDBRANCH  31  32
ENDBRANCH  24  26
ENDBRANCH  23  24
ENDBRANCH   1  23
TORSDOF 16
ENDMDL
MODEL 2
REMARK VINA RESULT:     -11.1      2.191      3.978
REMARK SMILES C#Cc1cc(Cl)c2c(c1)C=C(C(=O)OCCOC(=O)c1ccc(-c3c4nc(c(-c5c(F)cc(S(=O)(=O)[O-])cc5F)c5ccc([nH]5)c(-c5c(F)cc(S(=O)(=O)[O-])cc5F)c5nc(c(-c6c(F)cc(S(=O)(=O)[O-])cc6F)c6ccc3[nH]6)C=C5)C=C4)cc1)[C@@H](C(F)(F)F)O2
REMARK SMILES IDX 16 1 15 2 14 3 12 4 13 5 11 6 3 7 4 8 9 9 5 10 8 11 6 12
REMARK SMILES IDX 7 13 10 14 91 15 86 16 2 17 1 18 87 19 88 20 89 21 90 22
REMARK SMILES IDX 17 23 18 24 19 25 20 26 21 27 85 28 22 29 84 30 23 31 24 32
REMARK SMILES IDX 25 33 78 34 26 35 83 36 77 37 79 38 27 39 82 40 76 41 75 42
REMARK SMILES IDX 28 44 62 45 41 46 61 47 42 48 45 49 60 50 80 51 43 52 44 53
REMARK SMILES IDX 59 55 81 56 46 57 29 58 30 59 39 60 31 61 32 62 38 63 40 64
REMARK SMILES IDX 33 65 34 66 35 67 36 68 37 69 63 70 64 71 73 72 65 73 66 74
REMARK SMILES IDX 72 75 74 76 67 77 68 78 69 79 70 80 71 81 47 82 48 83 57 84
REMARK SMILES IDX 49 85 50 86 56 87 58 88 51 89 52 90 53 91 54 92 55 93
REMARK H PARENT 79 43 45 54
REMARK Flexibility Score: inf
ROOT
ATOM      1  C   UNL A   1      33.579  28.539  25.874  1.00  0.00     0.275 C 
ENDROOT
BRANCH   1   2
ATOM      2  C   UNL A   1      34.019  27.259  25.159  1.00  0.00     0.275 C 
BRANCH   2   3
ATOM      3  O   UNL A   1      33.500  27.197  23.811  1.00  0.00    -0.459 OA
BRANCH   3   4
ATOM      4  C   UNL A   1      32.652  26.173  23.564  1.00  0.00     0.338 C 
ATOM      5  O   UNL A   1      32.945  24.990  23.500  1.00  0.00    -0.246 OA
BRANCH   4   6
ATOM      6  C   UNL A   1      31.273  26.662  23.370  1.00  0.00     0.087 C 
ATOM      7  C   UNL A   1      28.379  30.269  22.009  1.00  0.00     0.027 A 
ATOM      8  C   UNL A   1      27.300  29.658  22.647  1.00  0.00     0.041 A 
ATOM      9  C   UNL A   1      29.618  29.632  21.992  1.00  0.00     0.029 A 
ATOM     10  C   UNL A   1      27.467  28.411  23.265  1.00  0.00     0.084 A 
ATOM     11  C   UNL A   1      29.784  28.394  22.630  1.00  0.00     0.020 A 
ATOM     12  Cl  UNL A   1      26.101  27.699  24.047  1.00  0.00    -0.080 Cl
ATOM     13  C   UNL A   1      28.714  27.771  23.267  1.00  0.00     0.146 A 
ATOM     14  C   UNL A   1      31.097  27.788  22.670  1.00  0.00     0.027 C 
ATOM     15  O   UNL A   1      28.833  26.553  23.884  1.00  0.00    -0.474 OA
ATOM     16  C   UNL A   1      30.157  25.985  24.104  1.00  0.00     0.316 C 
BRANCH   7  17
ATOM     17  C   UNL A   1      28.237  31.551  21.393  1.00  0.00    -0.070 C 
ATOM     18  C   UNL A   1      28.106  32.645  20.910  1.00  0.00     0.010 C 
ENDBRANCH   7  17
BRANCH  16  19
ATOM     19  C   UNL A   1      30.438  25.937  25.615  1.00  0.00     0.430 C 
ATOM     20  F   UNL A   1      30.855  27.138  26.079  1.00  0.00    -0.167 F 
ATOM     21  F   UNL A   1      29.323  25.622  26.320  1.00  0.00    -0.167 F 
ATOM     22  F   UNL A   1      31.387  25.026  25.930  1.00  0.00    -0.167 F 
ENDBRANCH  16  19
ENDBRANCH   4   6
ENDBRANCH   3   4
ENDBRANCH   2   3
ENDBRANCH   1   2
BRANCH   1  23
ATOM     23  O   UNL A   1      34.043  28.554  27.236  1.00  0.00    -0.458 OA
BRANCH  23  24
ATOM     24  C   UNL A   1      34.303  29.786  27.725  1.00  0.00     0.338 C 
ATOM     25  O   UNL A   1      33.509  30.699  27.887  1.00  0.00    -0.246 OA
BRANCH  24  26
ATOM     26  C   UNL A   1      35.696  29.879  28.179  1.00  0.00     0.060 A 
ATOM     27  C   UNL A   1      36.655  30.231  27.239  1.00  0.00     0.016 A 
ATOM     28  C   UNL A   1      36.084  29.380  29.417  1.00  0.00     0.016 A 
ATOM     29  C   UNL A   1      37.983  29.885  27.442  1.00  0.00     0.010 A 
ATOM     30  C   UNL A   1      37.447  29.216  29.691  1.00  0.00     0.010 A 
ATOM     31  C   UNL A   1      38.413  29.407  28.685  1.00  0.00    -0.014 A 
BRANCH  31  32
ATOM     32  C   UNL A   1      39.858  29.108  28.910  1.00  0.00     0.031 A 
ATOM     33  C   UNL A   1      40.775  30.160  29.487  1.00  0.00     0.074 A 
ATOM     34  C   UNL A   1      40.347  27.882  28.619  1.00  0.00     0.049 A 
ATOM     35  N   UNL A   1      42.081  30.154  29.581  1.00  0.00    -0.248 NA
ATOM     36  C   UNL A   1      40.150  31.387  30.013  1.00  0.00     0.031 C 
ATOM     37  C   UNL A   1      39.562  26.752  28.110  1.00  0.00     0.029 A 
ATOM     38  N   UNL A   1      41.618  27.371  28.715  1.00  0.00    -0.354 N 
ATOM     39  C   UNL A   1      42.433  31.384  30.127  1.00  0.00     0.074 A 
ATOM     40  C   UNL A   1      41.208  32.124  30.326  1.00  0.00     0.031 C 
ATOM     41  C   UNL A   1      40.350  25.675  27.994  1.00  0.00     0.029 A 
ATOM     42  C   UNL A   1      41.719  26.064  28.293  1.00  0.00     0.049 A 
ATOM     43  H   UNL A   1      42.384  27.889  29.052  1.00  0.00     0.167 HD
ATOM     44  C   UNL A   1      43.667  31.845  30.442  1.00  0.00     0.037 A 
ATOM     45  C   UNL A   1      42.794  25.275  28.105  1.00  0.00     0.037 A 
ATOM     46  C   UNL A   1      44.875  31.075  30.283  1.00  0.00     0.049 A 
ATOM     47  C   UNL A   1      44.158  25.841  28.382  1.00  0.00     0.074 A 
ATOM     48  C   UNL A   1      46.174  31.448  30.578  1.00  0.00     0.029 A 
ATOM     49  N   UNL A   1      44.932  29.774  29.804  1.00  0.00    -0.354 N 
ATOM     50  N   UNL A   1      44.476  27.023  28.854  1.00  0.00    -0.248 NA
ATOM     51  C   UNL A   1      45.308  24.978  28.087  1.00  0.00     0.031 C 
ATOM     52  C   UNL A   1      47.022  30.396  30.222  1.00  0.00     0.029 A 
ATOM     53  C   UNL A   1      46.246  29.341  29.771  1.00  0.00     0.049 A 
ATOM     54  H   UNL A   1      44.153  29.238  29.529  1.00  0.00     0.167 HD
ATOM     55  C   UNL A   1      45.862  27.037  28.933  1.00  0.00     0.074 A 
ATOM     56  C   UNL A   1      46.319  25.738  28.482  1.00  0.00     0.031 C 
ATOM     57  C   UNL A   1      46.683  28.037  29.335  1.00  0.00     0.037 A 
BRANCH  44  58
ATOM     58  C   UNL A   1      43.797  33.247  30.976  1.00  0.00     0.058 A 
ATOM     59  C   UNL A   1      43.864  33.513  32.353  1.00  0.00     0.135 A 
ATOM     60  C   UNL A   1      43.959  34.330  30.094  1.00  0.00     0.135 A 
ATOM     61  F   UNL A   1      43.698  32.521  33.242  1.00  0.00    -0.206 F 
ATOM     62  C   UNL A   1      44.082  34.800  32.834  1.00  0.00     0.059 A 
ATOM     63  C   UNL A   1      44.208  35.620  30.553  1.00  0.00     0.059 A 
ATOM     64  F   UNL A   1      43.901  34.134  28.767  1.00  0.00    -0.206 F 
ATOM     65  C   UNL A   1      44.266  35.845  31.927  1.00  0.00     0.060 A 
BRANCH  65  66
ATOM     66  S   UNL A   1      44.598  37.497  32.574  1.00  0.00     0.124 S 
ATOM     67  O   UNL A   1      45.744  37.249  33.443  1.00  0.00    -0.237 OA
ATOM     68  O   UNL A   1      44.878  38.253  31.357  1.00  0.00    -0.237 OA
ATOM     69  O   UNL A   1      43.359  37.853  33.259  1.00  0.00    -0.744 OA
ENDBRANCH  65  66
ENDBRANCH  44  58
BRANCH  45  70
ATOM     70  C   UNL A   1      42.626  23.888  27.586  1.00  0.00     0.058 A 
ATOM     71  C   UNL A   1      42.537  22.796  28.461  1.00  0.00     0.135 A 
ATOM     72  C   UNL A   1      42.544  23.624  26.207  1.00  0.00     0.135 A 
ATOM     73  F   UNL A   1      42.617  22.991  29.786  1.00  0.00    -0.206 F 
ATOM     74  C   UNL A   1      42.393  21.494  27.991  1.00  0.00     0.059 A 
ATOM     75  C   UNL A   1      42.361  22.337  25.715  1.00  0.00     0.059 A 
ATOM     76  F   UNL A   1      42.609  24.632  25.323  1.00  0.00    -0.206 F 
ATOM     77  C   UNL A   1      42.302  21.275  26.616  1.00  0.00     0.060 A 
BRANCH  77  78
ATOM     78  S   UNL A   1      42.093  19.584  26.023  1.00  0.00     0.124 S 
ATOM     79  O   UNL A   1      40.662  19.543  25.748  1.00  0.00    -0.237 OA
ATOM     80  O   UNL A   1      42.969  19.563  24.856  1.00  0.00    -0.237 OA
ATOM     81  O   UNL A   1      42.542  18.773  27.151  1.00  0.00    -0.744 OA
ENDBRANCH  77  78
ENDBRANCH  45  70
BRANCH  57  82
ATOM     82  C   UNL A   1      48.160  27.762  29.344  1.00  0.00     0.058 A 
ATOM     83  C   UNL A   1      48.798  27.203  30.462  1.00  0.00     0.135 A 
ATOM     84  C   UNL A   1      48.933  27.991  28.194  1.00  0.00     0.135 A 
ATOM     85  F   UNL A   1      48.106  26.971  31.590  1.00  0.00    -0.206 F 
ATOM     86  C   UNL A   1      50.154  26.898  30.446  1.00  0.00     0.059 A 
ATOM     87  C   UNL A   1      50.282  27.660  28.143  1.00  0.00     0.059 A 
ATOM     88  F   UNL A   1      48.369  28.515  27.093  1.00  0.00    -0.206 F 
ATOM     89  C   UNL A   1      50.885  27.123  29.279  1.00  0.00     0.060 A 
BRANCH  89  90
ATOM     90  S   UNL A   1      52.634  26.678  29.263  1.00  0.00     0.124 S 
ATOM     91  O   UNL A   1      53.272  27.991  29.288  1.00  0.00    -0.237 OA
ATOM     92  O   UNL A   1      52.762  25.888  30.484  1.00  0.00    -0.237 OA
ATOM     93  O   UNL A   1      52.786  25.931  28.018  1.00  0.00    -0.744 OA
ENDBRANCH  89  90
ENDBRANCH  57  82
ENDBRANCH  31  32
ENDBRANCH  24  26
ENDBRANCH  23  24
ENDBRANCH   1  23
TORSDOF 16
ENDMDL
MODEL 3
REMARK VINA RESULT:     -11.0      5.121     10.493
REMARK SMILES C#Cc1cc(Cl)c2c(c1)C=C(C(=O)OCCOC(=O)c1ccc(-c3c4nc(c(-c5c(F)cc(S(=O)(=O)[O-])cc5F)c5ccc([nH]5)c(-c5c(F)cc(S(=O)(=O)[O-])cc5F)c5nc(c(-c6c(F)cc(S(=O)(=O)[O-])cc6F)c6ccc3[nH]6)C=C5)C=C4)cc1)[C@@H](C(F)(F)F)O2
REMARK SMILES IDX 16 1 15 2 14 3 12 4 13 5 11 6 3 7 4 8 9 9 5 10 8 11 6 12
REMARK SMILES IDX 7 13 10 14 91 15 86 16 2 17 1 18 87 19 88 20 89 21 90 22
REMARK SMILES IDX 17 23 18 24 19 25 20 26 21 27 85 28 22 29 84 30 23 31 24 32
REMARK SMILES IDX 25 33 78 34 26 35 83 36 77 37 79 38 27 39 82 40 76 41 75 42
REMARK SMILES IDX 28 44 62 45 41 46 61 47 42 48 45 49 60 50 80 51 43 52 44 53
REMARK SMILES IDX 59 55 81 56 46 57 29 58 30 59 39 60 31 61 32 62 38 63 40 64
REMARK SMILES IDX 33 65 34 66 35 67 36 68 37 69 63 70 64 71 73 72 65 73 66 74
REMARK SMILES IDX 72 75 74 76 67 77 68 78 69 79 70 80 71 81 47 82 48 83 57 84
REMARK SMILES IDX 49 85 50 86 56 87 58 88 51 89 52 90 53 91 54 92 55 93
REMARK H PARENT 79 43 45 54
REMARK Flexibility Score: inf
ROOT
ATOM      1  C   UNL A   1      39.745  22.342  25.990  1.00  0.00     0.275 C 
ENDROOT
BRANCH   1   2
ATOM      2  C   UNL A   1      38.227  22.152  25.967  1.00  0.00     0.275 C 
BRANCH   2   3
ATOM      3  O   UNL A   1      37.564  23.244  25.289  1.00  0.00    -0.459 OA
BRANCH   3   4
ATOM      4  C   UNL A   1      36.767  22.886  24.257  1.00  0.00     0.338 C 
ATOM      5  O   UNL A   1      37.123  22.357  23.216  1.00  0.00    -0.246 OA
BRANCH   4   6
ATOM      6  C   UNL A   1      35.356  23.219  24.538  1.00  0.00     0.087 C 
ATOM      7  C   UNL A   1      32.196  26.355  26.385  1.00  0.00     0.027 A 
ATOM      8  C   UNL A   1      31.212  25.368  26.405  1.00  0.00     0.041 A 
ATOM      9  C   UNL A   1      33.453  26.063  25.859  1.00  0.00     0.029 A 
ATOM     10  C   UNL A   1      31.491  24.092  25.897  1.00  0.00     0.084 A 
ATOM     11  C   UNL A   1      33.732  24.779  25.370  1.00  0.00     0.020 A 
ATOM     12  Cl  UNL A   1      30.239  22.902  25.951  1.00  0.00    -0.080 Cl
ATOM     13  C   UNL A   1      32.756  23.784  25.381  1.00  0.00     0.146 A 
ATOM     14  C   UNL A   1      35.066  24.472  24.902  1.00  0.00     0.027 C 
ATOM     15  O   UNL A   1      32.986  22.523  24.895  1.00  0.00    -0.474 OA
ATOM     16  C   UNL A   1      34.348  22.113  24.575  1.00  0.00     0.316 C 
BRANCH   7  17
ATOM     17  C   UNL A   1      31.942  27.657  26.919  1.00  0.00    -0.070 C 
ATOM     18  C   UNL A   1      31.748  28.741  27.403  1.00  0.00     0.010 C 
ENDBRANCH   7  17
BRANCH  16  19
ATOM     19  C   UNL A   1      34.780  21.003  25.549  1.00  0.00     0.430 C 
ATOM     20  F   UNL A   1      33.750  20.175  25.844  1.00  0.00    -0.167 F 
ATOM     21  F   UNL A   1      35.754  20.225  25.017  1.00  0.00    -0.167 F 
ATOM     22  F   UNL A   1      35.250  21.501  26.715  1.00  0.00    -0.167 F 
ENDBRANCH  16  19
ENDBRANCH   4   6
ENDBRANCH   3   4
ENDBRANCH   2   3
ENDBRANCH   1   2
BRANCH   1  23
ATOM     23  O   UNL A   1      40.147  23.161  27.102  1.00  0.00    -0.458 OA
BRANCH  23  24
ATOM     24  C   UNL A   1      40.982  24.172  26.780  1.00  0.00     0.338 C 
ATOM     25  O   UNL A   1      41.838  24.174  25.909  1.00  0.00    -0.246 OA
BRANCH  24  26
ATOM     26  C   UNL A   1      40.656  25.378  27.550  1.00  0.00     0.060 A 
ATOM     27  C   UNL A   1      41.574  26.418  27.534  1.00  0.00     0.016 A 
ATOM     28  C   UNL A   1      39.614  25.384  28.470  1.00  0.00     0.016 A 
ATOM     29  C   UNL A   1      41.587  27.348  28.564  1.00  0.00     0.010 A 
ATOM     30  C   UNL A   1      39.519  26.436  29.389  1.00  0.00     0.010 A 
ATOM     31  C   UNL A   1      40.540  27.399  29.490  1.00  0.00    -0.014 A 
BRANCH  31  32
ATOM     32  C   UNL A   1      40.531  28.451  30.549  1.00  0.00     0.031 A 
ATOM     33  C   UNL A   1      41.519  28.395  31.689  1.00  0.00     0.074 A 
ATOM     34  C   UNL A   1      39.651  29.474  30.478  1.00  0.00     0.049 A 
ATOM     35  N   UNL A   1      41.548  29.102  32.791  1.00  0.00    -0.248 NA
ATOM     36  C   UNL A   1      42.609  27.408  31.591  1.00  0.00     0.031 C 
ATOM     37  C   UNL A   1      38.677  29.685  29.401  1.00  0.00     0.029 A 
ATOM     38  N   UNL A   1      39.431  30.538  31.319  1.00  0.00    -0.354 N 
ATOM     39  C   UNL A   1      42.620  28.615  33.532  1.00  0.00     0.074 A 
ATOM     40  C   UNL A   1      43.207  27.537  32.768  1.00  0.00     0.031 C 
ATOM     41  C   UNL A   1      38.012  30.827  29.615  1.00  0.00     0.029 A 
ATOM     42  C   UNL A   1      38.412  31.366  30.906  1.00  0.00     0.049 A 
ATOM     43  H   UNL A   1      39.952  30.692  32.140  1.00  0.00     0.167 HD
ATOM     44  C   UNL A   1      43.075  29.038  34.736  1.00  0.00     0.037 A 
ATOM     45  C   UNL A   1      37.816  32.408  31.515  1.00  0.00     0.037 A 
ATOM     46  C   UNL A   1      42.509  30.147  35.461  1.00  0.00     0.049 A 
ATOM     47  C   UNL A   1      38.286  32.803  32.886  1.00  0.00     0.074 A 
ATOM     48  C   UNL A   1      42.901  30.660  36.686  1.00  0.00     0.029 A 
ATOM     49  N   UNL A   1      41.445  30.923  35.026  1.00  0.00    -0.354 N 
ATOM     50  N   UNL A   1      39.270  32.301  33.593  1.00  0.00    -0.248 NA
ATOM     51  C   UNL A   1      37.557  33.890  33.551  1.00  0.00     0.031 C 
ATOM     52  C   UNL A   1      42.037  31.707  37.017  1.00  0.00     0.029 A 
ATOM     53  C   UNL A   1      41.151  31.893  35.969  1.00  0.00     0.049 A 
ATOM     54  H   UNL A   1      40.969  30.803  34.172  1.00  0.00     0.167 HD
ATOM     55  C   UNL A   1      39.293  33.027  34.777  1.00  0.00     0.074 A 
ATOM     56  C   UNL A   1      38.240  34.016  34.681  1.00  0.00     0.031 C 
ATOM     57  C   UNL A   1      40.108  32.881  35.850  1.00  0.00     0.037 A 
BRANCH  44  58
ATOM     58  C   UNL A   1      44.231  28.307  35.366  1.00  0.00     0.058 A 
ATOM     59  C   UNL A   1      45.561  28.706  35.163  1.00  0.00     0.135 A 
ATOM     60  C   UNL A   1      43.996  27.254  36.268  1.00  0.00     0.135 A 
ATOM     61  F   UNL A   1      45.847  29.692  34.299  1.00  0.00    -0.206 F 
ATOM     62  C   UNL A   1      46.615  28.085  35.826  1.00  0.00     0.059 A 
ATOM     63  C   UNL A   1      45.032  26.639  36.965  1.00  0.00     0.059 A 
ATOM     64  F   UNL A   1      42.743  26.829  36.498  1.00  0.00    -0.206 F 
ATOM     65  C   UNL A   1      46.340  27.062  36.736  1.00  0.00     0.060 A 
BRANCH  65  66
ATOM     66  S   UNL A   1      47.719  26.306  37.622  1.00  0.00     0.124 S 
ATOM     67  O   UNL A   1      48.377  27.475  38.196  1.00  0.00    -0.237 OA
ATOM     68  O   UNL A   1      47.033  25.436  38.572  1.00  0.00    -0.237 OA
ATOM     69  O   UNL A   1      48.467  25.620  36.574  1.00  0.00    -0.744 OA
ENDBRANCH  65  66
ENDBRANCH  44  58
BRANCH  45  70
ATOM     70  C   UNL A   1      36.682  33.116  30.856  1.00  0.00     0.058 A 
ATOM     71  C   UNL A   1      35.358  32.887  31.255  1.00  0.00     0.135 A 
ATOM     72  C   UNL A   1      36.898  34.041  29.819  1.00  0.00     0.135 A 
ATOM     73  F   UNL A   1      35.096  32.009  32.235  1.00  0.00    -0.206 F 
ATOM     74  C   UNL A   1      34.289  33.532  30.641  1.00  0.00     0.059 A 
ATOM     75  C   UNL A   1      35.849  34.727  29.216  1.00  0.00     0.059 A 
ATOM     76  F   UNL A   1      38.147  34.311  29.405  1.00  0.00    -0.206 F 
ATOM     77  C   UNL A   1      34.545  34.454  29.624  1.00  0.00     0.060 A 
BRANCH  77  78
ATOM     78  S   UNL A   1      33.150  35.298  28.852  1.00  0.00     0.124 S 
ATOM     79  O   UNL A   1      33.823  36.352  28.101  1.00  0.00    -0.237 OA
ATOM     80  O   UNL A   1      32.553  34.229  28.058  1.00  0.00    -0.237 OA
ATOM     81  O   UNL A   1      32.353  35.745  29.991  1.00  0.00    -0.744 OA
ENDBRANCH  77  78
ENDBRANCH  45  70
BRANCH  57  82
ATOM     82  C   UNL A   1      39.923  33.836  36.996  1.00  0.00     0.058 A 
ATOM     83  C   UNL A   1      40.532  35.101  37.006  1.00  0.00     0.135 A 
ATOM     84  C   UNL A   1      39.067  33.510  38.060  1.00  0.00     0.135 A 
ATOM     85  F   UNL A   1      41.366  35.459  36.016  1.00  0.00    -0.206 F 
ATOM     86  C   UNL A   1      40.313  36.002  38.042  1.00  0.00     0.059 A 
ATOM     87  C   UNL A   1      38.805  34.410  39.088  1.00  0.00     0.059 A 
ATOM     88  F   UNL A   1      38.452  32.317  38.094  1.00  0.00    -0.206 F 
ATOM     89  C   UNL A   1      39.441  35.650  39.074  1.00  0.00     0.060 A 
BRANCH  89  90
ATOM     90  S   UNL A   1      39.135  36.851  40.385  1.00  0.00     0.124 S 
ATOM     91  O   UNL A   1      38.283  36.087  41.291  1.00  0.00    -0.237 OA
ATOM     92  O   UNL A   1      40.484  37.131  40.868  1.00  0.00    -0.237 OA
ATOM     93  O   UNL A   1      38.480  37.956  39.691  1.00  0.00    -0.744 OA
ENDBRANCH  89  90
ENDBRANCH  57  82
ENDBRANCH  31  32
ENDBRANCH  24  26
ENDBRANCH  23  24
ENDBRANCH   1  23
TORSDOF 16
ENDMDL
