MODEL 1
REMARK VINA RESULT:     -11.2      0.000      0.000
REMARK SMILES Cc1nsc(NC(=O)CC2([NH3+])CCC2)c1C(=O)OCCOC(=O)c1ccc(-c2c3nc(c(-c4c(F)cc(S(=O)(=O)[O-])cc4F)c4ccc([nH]4)c(-c4c(F)cc(S(=O)(=O)[O-])cc4F)c4nc(c(-c5c(F)cc(S(=O)(=O)[O-])cc5F)c5ccc2[nH]5)C=C4)C=C3)cc1
REMARK SMILES IDX 19 1 18 2 16 3 17 4 15 5 1 6 2 7 3 8 4 9 5 10 6 11 7 12 8 14
REMARK SMILES IDX 9 15 10 16 12 17 14 18 13 19 11 20 20 24 21 25 22 26 23 27
REMARK SMILES IDX 24 28 25 29 89 30 26 31 88 32 27 33 28 34 29 35 82 36 30 37
REMARK SMILES IDX 87 38 81 39 83 40 31 41 86 42 80 43 79 44 32 46 66 47 45 48
REMARK SMILES IDX 65 49 46 50 49 51 64 52 84 53 47 54 48 55 63 57 85 58 50 59
REMARK SMILES IDX 33 60 34 61 43 62 35 63 36 64 42 65 44 66 37 67 38 68 39 69
REMARK SMILES IDX 40 70 41 71 67 72 68 73 77 74 69 75 70 76 76 77 78 78 71 79
REMARK SMILES IDX 72 80 73 81 74 82 75 83 51 84 52 85 61 86 53 87 54 88 60 89
REMARK SMILES IDX 62 90 55 91 56 92 57 93 58 94 59 95
REMARK H PARENT 6 13 11 21 11 22 11 23 83 45 49 56
REMARK Flexibility Score: inf
ROOT
ATOM      1  C   UNL A   1      36.740  23.173  24.174  1.00  0.00     0.275 C 
ENDROOT
BRANCH   1   2
ATOM      2  O   UNL A   1      35.704  24.079  24.592  1.00  0.00    -0.458 OA
BRANCH   2   3
ATOM      3  C   UNL A   1      34.619  24.193  23.773  1.00  0.00     0.343 C 
ATOM      4  O   UNL A   1      34.629  23.914  22.575  1.00  0.00    -0.246 OA
BRANCH   3   5
ATOM      5  C   UNL A   1      33.435  24.709  24.439  1.00  0.00     0.117 A 
ATOM      6  C   UNL A   1      33.205  27.114  23.402  1.00  0.00     0.069 C 
ATOM      7  C   UNL A   1      32.729  25.945  24.194  1.00  0.00     0.068 A 
ATOM      8  N   UNL A   1      31.516  26.033  24.750  1.00  0.00    -0.195 NA
ATOM      9  S   UNL A   1      31.292  24.713  25.716  1.00  0.00    -0.017 S 
ATOM     10  C   UNL A   1      32.873  24.120  25.566  1.00  0.00     0.130 A 
BRANCH  10  11
ATOM     11  N   UNL A   1      33.417  23.146  26.376  1.00  0.00    -0.315 N 
ATOM     12  C   UNL A   1      33.339  21.787  26.360  1.00  0.00     0.231 C 
ATOM     13  H   UNL A   1      33.970  23.504  27.108  1.00  0.00     0.170 HD
ATOM     14  O   UNL A   1      33.917  21.202  27.288  1.00  0.00    -0.274 OA
BRANCH  12  15
ATOM     15  C   UNL A   1      32.572  20.966  25.341  1.00  0.00     0.168 C 
BRANCH  15  16
ATOM     16  C   UNL A   1      32.936  19.488  25.217  1.00  0.00     0.103 C 
ATOM     17  C   UNL A   1      32.411  18.563  24.080  1.00  0.00     0.069 C 
ATOM     18  C   UNL A   1      34.367  19.236  24.649  1.00  0.00     0.069 C 
ATOM     19  C   UNL A   1      33.832  17.999  23.903  1.00  0.00     0.013 C 
BRANCH  16  20
ATOM     20  N   UNL A   1      32.859  18.749  26.488  1.00  0.00    -0.352 N 
ATOM     21  H   UNL A   1      32.386  19.323  27.187  1.00  0.00     0.344 HD
ATOM     22  H   UNL A   1      33.802  18.530  26.811  1.00  0.00     0.344 HD
ATOM     23  H   UNL A   1      32.337  17.884  26.349  1.00  0.00     0.344 HD
ENDBRANCH  16  20
ENDBRANCH  15  16
ENDBRANCH  12  15
ENDBRANCH  10  11
ENDBRANCH   3   5
ENDBRANCH   2   3
ENDBRANCH   1   2
BRANCH   1  24
ATOM     24  C   UNL A   1      37.236  22.313  25.326  1.00  0.00     0.275 C 
BRANCH  24  25
ATOM     25  O   UNL A   1      37.851  23.108  26.336  1.00  0.00    -0.458 OA
BRANCH  25  26
ATOM     26  C   UNL A   1      39.161  22.853  26.550  1.00  0.00     0.338 C 
ATOM     27  O   UNL A   1      39.695  21.759  26.625  1.00  0.00    -0.246 OA
BRANCH  26  28
ATOM     28  C   UNL A   1      39.834  24.106  26.897  1.00  0.00     0.060 A 
ATOM     29  C   UNL A   1      40.962  24.018  27.716  1.00  0.00     0.016 A 
ATOM     30  C   UNL A   1      39.192  25.327  26.643  1.00  0.00     0.016 A 
ATOM     31  C   UNL A   1      41.353  25.137  28.416  1.00  0.00     0.010 A 
ATOM     32  C   UNL A   1      39.583  26.442  27.343  1.00  0.00     0.010 A 
ATOM     33  C   UNL A   1      40.608  26.312  28.277  1.00  0.00    -0.014 A 
BRANCH  33  34
ATOM     34  C   UNL A   1      40.975  27.451  29.094  1.00  0.00     0.031 A 
ATOM     35  C   UNL A   1      42.082  28.262  28.527  1.00  0.00     0.074 A 
ATOM     36  C   UNL A   1      40.245  27.806  30.168  1.00  0.00     0.049 A 
ATOM     37  N   UNL A   1      43.218  28.558  29.064  1.00  0.00    -0.248 NA
ATOM     38  C   UNL A   1      41.956  28.677  27.119  1.00  0.00     0.031 C 
ATOM     39  C   UNL A   1      38.958  27.258  30.611  1.00  0.00     0.029 A 
ATOM     40  N   UNL A   1      40.433  28.849  31.013  1.00  0.00    -0.354 N 
ATOM     41  C   UNL A   1      43.869  29.370  28.138  1.00  0.00     0.074 A 
ATOM     42  C   UNL A   1      43.132  29.267  26.907  1.00  0.00     0.031 C 
ATOM     43  C   UNL A   1      38.372  28.139  31.452  1.00  0.00     0.029 A 
ATOM     44  C   UNL A   1      39.288  29.242  31.688  1.00  0.00     0.049 A 
ATOM     45  H   UNL A   1      41.305  29.289  31.136  1.00  0.00     0.167 HD
ATOM     46  C   UNL A   1      44.837  30.250  28.509  1.00  0.00     0.037 A 
ATOM     47  C   UNL A   1      39.086  30.454  32.266  1.00  0.00     0.037 A 
ATOM     48  C   UNL A   1      45.401  29.913  29.789  1.00  0.00     0.049 A 
ATOM     49  C   UNL A   1      40.432  31.070  32.468  1.00  0.00     0.074 A 
ATOM     50  C   UNL A   1      46.025  28.785  30.289  1.00  0.00     0.029 A 
ATOM     51  N   UNL A   1      45.017  30.642  30.889  1.00  0.00    -0.354 N 
ATOM     52  N   UNL A   1      41.342  30.589  33.276  1.00  0.00    -0.248 NA
ATOM     53  C   UNL A   1      40.940  31.938  31.414  1.00  0.00     0.031 C 
ATOM     54  C   UNL A   1      45.530  28.650  31.618  1.00  0.00     0.029 A 
ATOM     55  C   UNL A   1      44.685  29.733  31.865  1.00  0.00     0.049 A 
ATOM     56  H   UNL A   1      44.987  31.623  30.963  1.00  0.00     0.167 HD
ATOM     57  C   UNL A   1      42.547  30.753  32.603  1.00  0.00     0.074 A 
ATOM     58  C   UNL A   1      42.243  31.656  31.495  1.00  0.00     0.031 C 
ATOM     59  C   UNL A   1      43.616  29.928  32.822  1.00  0.00     0.037 A 
BRANCH  46  60
ATOM     60  C   UNL A   1      45.021  31.595  27.854  1.00  0.00     0.058 A 
ATOM     61  C   UNL A   1      46.237  31.905  27.219  1.00  0.00     0.135 A 
ATOM     62  C   UNL A   1      44.145  32.686  28.066  1.00  0.00     0.135 A 
ATOM     63  F   UNL A   1      47.150  30.947  26.987  1.00  0.00    -0.206 F 
ATOM     64  C   UNL A   1      46.585  33.212  26.874  1.00  0.00     0.059 A 
ATOM     65  C   UNL A   1      44.445  33.984  27.678  1.00  0.00     0.059 A 
ATOM     66  F   UNL A   1      43.002  32.564  28.753  1.00  0.00    -0.206 F 
ATOM     67  C   UNL A   1      45.687  34.246  27.124  1.00  0.00     0.060 A 
BRANCH  67  68
ATOM     68  S   UNL A   1      46.177  35.948  26.800  1.00  0.00     0.124 S 
ATOM     69  O   UNL A   1      46.922  35.801  25.555  1.00  0.00    -0.237 OA
ATOM     70  O   UNL A   1      44.887  36.622  26.699  1.00  0.00    -0.237 OA
ATOM     71  O   UNL A   1      46.970  36.297  27.975  1.00  0.00    -0.744 OA
ENDBRANCH  67  68
ENDBRANCH  46  60
BRANCH  47  72
ATOM     72  C   UNL A   1      37.816  31.236  32.234  1.00  0.00     0.058 A 
ATOM     73  C   UNL A   1      37.177  31.647  33.416  1.00  0.00     0.135 A 
ATOM     74  C   UNL A   1      37.322  31.805  31.039  1.00  0.00     0.135 A 
ATOM     75  F   UNL A   1      37.600  31.190  34.604  1.00  0.00    -0.206 F 
ATOM     76  C   UNL A   1      36.128  32.578  33.415  1.00  0.00     0.059 A 
ATOM     77  C   UNL A   1      36.268  32.715  31.010  1.00  0.00     0.059 A 
ATOM     78  F   UNL A   1      37.904  31.563  29.856  1.00  0.00    -0.206 F 
ATOM     79  C   UNL A   1      35.688  33.116  32.205  1.00  0.00     0.060 A 
BRANCH  79  80
ATOM     80  S   UNL A   1      34.434  34.418  32.199  1.00  0.00     0.124 S 
ATOM     81  O   UNL A   1      35.133  35.512  32.866  1.00  0.00    -0.237 OA
ATOM     82  O   UNL A   1      34.182  34.595  30.773  1.00  0.00    -0.237 OA
ATOM     83  O   UNL A   1      33.330  33.831  32.956  1.00  0.00    -0.744 OA
ENDBRANCH  79  80
ENDBRANCH  47  72
BRANCH  59  84
ATOM     84  C   UNL A   1      43.576  28.962  33.981  1.00  0.00     0.058 A 
ATOM     85  C   UNL A   1      43.878  29.312  35.309  1.00  0.00     0.135 A 
ATOM     86  C   UNL A   1      43.023  27.688  33.771  1.00  0.00     0.135 A 
ATOM     87  F   UNL A   1      44.299  30.544  35.619  1.00  0.00    -0.206 F 
ATOM     88  C   UNL A   1      43.677  28.427  36.371  1.00  0.00     0.059 A 
ATOM     89  C   UNL A   1      42.783  26.802  34.818  1.00  0.00     0.059 A 
ATOM     90  F   UNL A   1      42.647  27.314  32.536  1.00  0.00    -0.206 F 
ATOM     91  C   UNL A   1      43.123  27.174  36.116  1.00  0.00     0.060 A 
BRANCH  91  92
ATOM     92  S   UNL A   1      42.779  26.070  37.504  1.00  0.00     0.124 S 
ATOM     93  O   UNL A   1      41.349  26.274  37.711  1.00  0.00    -0.237 OA
ATOM     94  O   UNL A   1      43.163  24.765  36.974  1.00  0.00    -0.237 OA
ATOM     95  O   UNL A   1      43.643  26.579  38.567  1.00  0.00    -0.744 OA
ENDBRANCH  91  92
ENDBRANCH  59  84
ENDBRANCH  33  34
ENDBRANCH  26  28
ENDBRANCH  25  26
ENDBRANCH  24  25
ENDBRANCH   1  24
TORSDOF 18
ENDMDL
MODEL 2
REMARK VINA RESULT:     -11.1      1.056      2.651
REMARK SMILES Cc1nsc(NC(=O)CC2([NH3+])CCC2)c1C(=O)OCCOC(=O)c1ccc(-c2c3nc(c(-c4c(F)cc(S(=O)(=O)[O-])cc4F)c4ccc([nH]4)c(-c4c(F)cc(S(=O)(=O)[O-])cc4F)c4nc(c(-c5c(F)cc(S(=O)(=O)[O-])cc5F)c5ccc2[nH]5)C=C4)C=C3)cc1
REMARK SMILES IDX 19 1 18 2 16 3 17 4 15 5 1 6 2 7 3 8 4 9 5 10 6 11 7 12 8 14
REMARK SMILES IDX 9 15 10 16 12 17 14 18 13 19 11 20 20 24 21 25 22 26 23 27
REMARK SMILES IDX 24 28 25 29 89 30 26 31 88 32 27 33 28 34 29 35 82 36 30 37
REMARK SMILES IDX 87 38 81 39 83 40 31 41 86 42 80 43 79 44 32 46 66 47 45 48
REMARK SMILES IDX 65 49 46 50 49 51 64 52 84 53 47 54 48 55 63 57 85 58 50 59
REMARK SMILES IDX 33 60 34 61 43 62 35 63 36 64 42 65 44 66 37 67 38 68 39 69
REMARK SMILES IDX 40 70 41 71 67 72 68 73 77 74 69 75 70 76 76 77 78 78 71 79
REMARK SMILES IDX 72 80 73 81 74 82 75 83 51 84 52 85 61 86 53 87 54 88 60 89
REMARK SMILES IDX 62 90 55 91 56 92 57 93 58 94 59 95
REMARK H PARENT 6 13 11 21 11 22 11 23 83 45 49 56
REMARK Flexibility Score: inf
ROOT
ATOM      1  C   UNL A   1      37.048  22.449  24.033  1.00  0.00     0.275 C 
ENDROOT
BRANCH   1   2
ATOM      2  O   UNL A   1      35.999  23.411  24.250  1.00  0.00    -0.458 OA
BRANCH   2   3
ATOM      3  C   UNL A   1      34.913  22.987  24.959  1.00  0.00     0.343 C 
ATOM      4  O   UNL A   1      34.765  23.173  26.166  1.00  0.00    -0.246 OA
BRANCH   3   5
ATOM      5  C   UNL A   1      33.942  22.257  24.162  1.00  0.00     0.117 A 
ATOM      6  C   UNL A   1      34.248  19.789  25.017  1.00  0.00     0.069 C 
ATOM      7  C   UNL A   1      33.551  20.871  24.265  1.00  0.00     0.068 A 
ATOM      8  N   UNL A   1      32.438  20.538  23.602  1.00  0.00    -0.195 NA
ATOM      9  S   UNL A   1      31.958  21.841  22.708  1.00  0.00    -0.017 S 
ATOM     10  C   UNL A   1      33.329  22.785  23.032  1.00  0.00     0.130 A 
BRANCH  10  11
ATOM     11  N   UNL A   1      33.667  23.926  22.337  1.00  0.00    -0.315 N 
ATOM     12  C   UNL A   1      33.153  25.187  22.333  1.00  0.00     0.231 C 
ATOM     13  H   UNL A   1      34.428  23.805  21.724  1.00  0.00     0.170 HD
ATOM     14  O   UNL A   1      33.670  25.978  21.530  1.00  0.00    -0.274 OA
BRANCH  12  15
ATOM     15  C   UNL A   1      31.993  25.662  23.186  1.00  0.00     0.168 C 
BRANCH  15  16
ATOM     16  C   UNL A   1      32.329  26.299  24.533  1.00  0.00     0.103 C 
ATOM     17  C   UNL A   1      31.546  27.499  25.139  1.00  0.00     0.069 C 
ATOM     18  C   UNL A   1      31.845  25.468  25.762  1.00  0.00     0.069 C 
ATOM     19  C   UNL A   1      31.530  26.783  26.501  1.00  0.00     0.013 C 
BRANCH  16  20
ATOM     20  N   UNL A   1      33.768  26.535  24.734  1.00  0.00    -0.352 N 
ATOM     21  H   UNL A   1      33.989  27.505  24.504  1.00  0.00     0.344 HD
ATOM     22  H   UNL A   1      34.303  25.912  24.129  1.00  0.00     0.344 HD
ATOM     23  H   UNL A   1      34.011  26.354  25.708  1.00  0.00     0.344 HD
ENDBRANCH  16  20
ENDBRANCH  15  16
ENDBRANCH  12  15
ENDBRANCH  10  11
ENDBRANCH   3   5
ENDBRANCH   2   3
ENDBRANCH   1   2
BRANCH   1  24
ATOM     24  C   UNL A   1      37.556  21.864  25.342  1.00  0.00     0.275 C 
BRANCH  24  25
ATOM     25  O   UNL A   1      38.111  22.875  26.178  1.00  0.00    -0.458 OA
BRANCH  25  26
ATOM     26  C   UNL A   1      39.392  22.669  26.557  1.00  0.00     0.338 C 
ATOM     27  O   UNL A   1      39.932  21.596  26.769  1.00  0.00    -0.246 OA
BRANCH  26  28
ATOM     28  C   UNL A   1      39.999  23.959  26.888  1.00  0.00     0.060 A 
ATOM     29  C   UNL A   1      41.170  23.936  27.649  1.00  0.00     0.016 A 
ATOM     30  C   UNL A   1      39.267  25.138  26.683  1.00  0.00     0.016 A 
ATOM     31  C   UNL A   1      41.522  25.071  28.345  1.00  0.00     0.010 A 
ATOM     32  C   UNL A   1      39.619  26.268  27.379  1.00  0.00     0.010 A 
ATOM     33  C   UNL A   1      40.696  26.196  28.260  1.00  0.00    -0.014 A 
BRANCH  33  34
ATOM     34  C   UNL A   1      41.029  27.347  29.074  1.00  0.00     0.031 A 
ATOM     35  C   UNL A   1      42.125  28.179  28.515  1.00  0.00     0.074 A 
ATOM     36  C   UNL A   1      40.280  27.692  30.138  1.00  0.00     0.049 A 
ATOM     37  N   UNL A   1      43.248  28.503  29.062  1.00  0.00    -0.248 NA
ATOM     38  C   UNL A   1      42.005  28.583  27.102  1.00  0.00     0.031 C 
ATOM     39  C   UNL A   1      39.001  27.118  30.570  1.00  0.00     0.029 A 
ATOM     40  N   UNL A   1      40.436  28.744  30.979  1.00  0.00    -0.354 N 
ATOM     41  C   UNL A   1      43.891  29.324  28.138  1.00  0.00     0.074 A 
ATOM     42  C   UNL A   1      43.169  29.197  26.900  1.00  0.00     0.031 C 
ATOM     43  C   UNL A   1      38.387  27.991  31.400  1.00  0.00     0.029 A 
ATOM     44  C   UNL A   1      39.276  29.115  31.640  1.00  0.00     0.049 A 
ATOM     45  H   UNL A   1      41.297  29.203  31.108  1.00  0.00     0.167 HD
ATOM     46  C   UNL A   1      44.835  30.227  28.514  1.00  0.00     0.037 A 
ATOM     47  C   UNL A   1      39.041  30.325  32.209  1.00  0.00     0.037 A 
ATOM     48  C   UNL A   1      45.392  29.910  29.801  1.00  0.00     0.049 A 
ATOM     49  C   UNL A   1      40.371  30.972  32.421  1.00  0.00     0.074 A 
ATOM     50  C   UNL A   1      46.036  28.798  30.315  1.00  0.00     0.029 A 
ATOM     51  N   UNL A   1      44.981  30.636  30.894  1.00  0.00    -0.354 N 
ATOM     52  N   UNL A   1      41.282  30.516  33.241  1.00  0.00    -0.248 NA
ATOM     53  C   UNL A   1      40.871  31.845  31.367  1.00  0.00     0.031 C 
ATOM     54  C   UNL A   1      45.529  28.660  31.639  1.00  0.00     0.029 A 
ATOM     55  C   UNL A   1      44.659  29.726  31.872  1.00  0.00     0.049 A 
ATOM     56  H   UNL A   1      44.928  31.617  30.962  1.00  0.00     0.167 HD
ATOM     57  C   UNL A   1      42.491  30.702  32.581  1.00  0.00     0.074 A 
ATOM     58  C   UNL A   1      42.179  31.592  31.464  1.00  0.00     0.031 C 
ATOM     59  C   UNL A   1      43.575  29.902  32.815  1.00  0.00     0.037 A 
BRANCH  46  60
ATOM     60  C   UNL A   1      44.996  31.572  27.853  1.00  0.00     0.058 A 
ATOM     61  C   UNL A   1      46.208  31.900  27.219  1.00  0.00     0.135 A 
ATOM     62  C   UNL A   1      44.101  32.648  28.059  1.00  0.00     0.135 A 
ATOM     63  F   UNL A   1      47.138  30.958  26.994  1.00  0.00    -0.206 F 
ATOM     64  C   UNL A   1      46.534  33.212  26.869  1.00  0.00     0.059 A 
ATOM     65  C   UNL A   1      44.379  33.950  27.665  1.00  0.00     0.059 A 
ATOM     66  F   UNL A   1      42.959  32.509  28.744  1.00  0.00    -0.206 F 
ATOM     67  C   UNL A   1      45.617  34.231  27.112  1.00  0.00     0.060 A 
BRANCH  67  68
ATOM     68  S   UNL A   1      46.078  35.940  26.781  1.00  0.00     0.124 S 
ATOM     69  O   UNL A   1      46.775  35.808  25.507  1.00  0.00    -0.237 OA
ATOM     70  O   UNL A   1      44.778  36.602  26.735  1.00  0.00    -0.237 OA
ATOM     71  O   UNL A   1      46.912  36.289  27.926  1.00  0.00    -0.744 OA
ENDBRANCH  67  68
ENDBRANCH  46  60
BRANCH  47  72
ATOM     72  C   UNL A   1      37.755  31.078  32.159  1.00  0.00     0.058 A 
ATOM     73  C   UNL A   1      37.125  31.535  33.328  1.00  0.00     0.135 A 
ATOM     74  C   UNL A   1      37.230  31.577  30.945  1.00  0.00     0.135 A 
ATOM     75  F   UNL A   1      37.576  31.148  34.530  1.00  0.00    -0.206 F 
ATOM     76  C   UNL A   1      36.057  32.444  33.298  1.00  0.00     0.059 A 
ATOM     77  C   UNL A   1      36.157  32.463  30.888  1.00  0.00     0.059 A 
ATOM     78  F   UNL A   1      37.799  31.288  29.766  1.00  0.00    -0.206 F 
ATOM     79  C   UNL A   1      35.587  32.911  32.070  1.00  0.00     0.060 A 
BRANCH  79  80
ATOM     80  S   UNL A   1      34.306  34.187  32.020  1.00  0.00     0.124 S 
ATOM     81  O   UNL A   1      35.041  35.369  32.457  1.00  0.00    -0.237 OA
ATOM     82  O   UNL A   1      33.905  34.164  30.617  1.00  0.00    -0.237 OA
ATOM     83  O   UNL A   1      33.301  33.696  32.960  1.00  0.00    -0.744 OA
ENDBRANCH  79  80
ENDBRANCH  47  72
BRANCH  59  84
ATOM     84  C   UNL A   1      43.544  28.943  33.979  1.00  0.00     0.058 A 
ATOM     85  C   UNL A   1      43.761  29.319  35.317  1.00  0.00     0.135 A 
ATOM     86  C   UNL A   1      43.083  27.635  33.755  1.00  0.00     0.135 A 
ATOM     87  F   UNL A   1      44.088  30.577  35.635  1.00  0.00    -0.206 F 
ATOM     88  C   UNL A   1      43.569  28.428  36.376  1.00  0.00     0.059 A 
ATOM     89  C   UNL A   1      42.853  26.740  34.799  1.00  0.00     0.059 A 
ATOM     90  F   UNL A   1      42.790  27.230  32.508  1.00  0.00    -0.206 F 
ATOM     91  C   UNL A   1      43.108  27.141  36.108  1.00  0.00     0.060 A 
BRANCH  91  92
ATOM     92  S   UNL A   1      42.773  26.025  37.487  1.00  0.00     0.124 S 
ATOM     93  O   UNL A   1      41.365  26.291  37.761  1.00  0.00    -0.237 OA
ATOM     94  O   UNL A   1      43.071  24.715  36.916  1.00  0.00    -0.237 OA
ATOM     95  O   UNL A   1      43.705  26.470  38.521  1.00  0.00    -0.744 OA
ENDBRANCH  91  92
ENDBRANCH  59  84
ENDBRANCH  33  34
ENDBRANCH  26  28
ENDBRANCH  25  26
ENDBRANCH  24  25
ENDBRANCH   1  24
TORSDOF 18
ENDMDL
MODEL 3
REMARK VINA RESULT:     -11.0      4.868     11.230
REMARK SMILES Cc1nsc(NC(=O)CC2([NH3+])CCC2)c1C(=O)OCCOC(=O)c1ccc(-c2c3nc(c(-c4c(F)cc(S(=O)(=O)[O-])cc4F)c4ccc([nH]4)c(-c4c(F)cc(S(=O)(=O)[O-])cc4F)c4nc(c(-c5c(F)cc(S(=O)(=O)[O-])cc5F)c5ccc2[nH]5)C=C4)C=C3)cc1
REMARK SMILES IDX 19 1 18 2 16 3 17 4 15 5 1 6 2 7 3 8 4 9 5 10 6 11 7 12 8 14
REMARK SMILES IDX 9 15 10 16 12 17 14 18 13 19 11 20 20 24 21 25 22 26 23 27
REMARK SMILES IDX 24 28 25 29 89 30 26 31 88 32 27 33 28 34 29 35 82 36 30 37
REMARK SMILES IDX 87 38 81 39 83 40 31 41 86 42 80 43 79 44 32 46 66 47 45 48
REMARK SMILES IDX 65 49 46 50 49 51 64 52 84 53 47 54 48 55 63 57 85 58 50 59
REMARK SMILES IDX 33 60 34 61 43 62 35 63 36 64 42 65 44 66 37 67 38 68 39 69
REMARK SMILES IDX 40 70 41 71 67 72 68 73 77 74 69 75 70 76 76 77 78 78 71 79
REMARK SMILES IDX 72 80 73 81 74 82 75 83 51 84 52 85 61 86 53 87 54 88 60 89
REMARK SMILES IDX 62 90 55 91 56 92 57 93 58 94 59 95
REMARK H PARENT 6 13 11 21 11 22 11 23 83 45 49 56
REMARK Flexibility Score: inf
ROOT
ATOM      1  C   UNL A   1      35.510  34.139  28.505  1.00  0.00     0.275 C 
ENDROOT
BRANCH   1   2
ATOM      2  O   UNL A   1      36.079  34.144  29.827  1.00  0.00    -0.458 OA
BRANCH   2   3
ATOM      3  C   UNL A   1      37.440  34.116  29.911  1.00  0.00     0.343 C 
ATOM      4  O   UNL A   1      38.189  34.091  28.935  1.00  0.00    -0.246 OA
BRANCH   3   5
ATOM      5  C   UNL A   1      37.942  34.086  31.274  1.00  0.00     0.117 A 
ATOM      6  C   UNL A   1      40.547  34.133  30.919  1.00  0.00     0.069 C 
ATOM      7  C   UNL A   1      39.303  34.219  31.737  1.00  0.00     0.068 A 
ATOM      8  N   UNL A   1      39.445  34.440  33.048  1.00  0.00    -0.195 NA
ATOM      9  S   UNL A   1      37.960  34.309  33.758  1.00  0.00    -0.017 S 
ATOM     10  C   UNL A   1      37.154  33.759  32.372  1.00  0.00     0.130 A 
BRANCH  10  11
ATOM     11  N   UNL A   1      35.896  33.197  32.377  1.00  0.00    -0.315 N 
ATOM     12  C   UNL A   1      34.681  33.664  32.779  1.00  0.00     0.231 C 
ATOM     13  H   UNL A   1      35.871  32.280  32.020  1.00  0.00     0.170 HD
ATOM     14  O   UNL A   1      33.740  32.861  32.695  1.00  0.00    -0.274 OA
BRANCH  12  15
ATOM     15  C   UNL A   1      34.420  35.043  33.353  1.00  0.00     0.168 C 
BRANCH  15  16
ATOM     16  C   UNL A   1      33.421  35.931  32.613  1.00  0.00     0.103 C 
ATOM     17  C   UNL A   1      33.621  37.459  32.395  1.00  0.00     0.069 C 
ATOM     18  C   UNL A   1      33.477  35.785  31.061  1.00  0.00     0.069 C 
ATOM     19  C   UNL A   1      33.185  37.292  30.928  1.00  0.00     0.013 C 
BRANCH  16  20
ATOM     20  N   UNL A   1      32.020  35.697  33.000  1.00  0.00    -0.352 N 
ATOM     21  H   UNL A   1      31.517  35.273  32.219  1.00  0.00     0.344 HD
ATOM     22  H   UNL A   1      31.582  36.586  33.242  1.00  0.00     0.344 HD
ATOM     23  H   UNL A   1      31.988  35.071  33.804  1.00  0.00     0.344 HD
ENDBRANCH  16  20
ENDBRANCH  15  16
ENDBRANCH  12  15
ENDBRANCH  10  11
ENDBRANCH   3   5
ENDBRANCH   2   3
ENDBRANCH   1   2
BRANCH   1  24
ATOM     24  C   UNL A   1      34.269  33.263  28.428  1.00  0.00     0.275 C 
BRANCH  24  25
ATOM     25  O   UNL A   1      34.496  31.993  29.033  1.00  0.00    -0.458 OA
BRANCH  25  26
ATOM     26  C   UNL A   1      34.811  30.997  28.176  1.00  0.00     0.338 C 
ATOM     27  O   UNL A   1      34.156  30.613  27.222  1.00  0.00    -0.246 OA
BRANCH  26  28
ATOM     28  C   UNL A   1      35.981  30.284  28.693  1.00  0.00     0.060 A 
ATOM     29  C   UNL A   1      36.659  30.866  29.767  1.00  0.00     0.016 A 
ATOM     30  C   UNL A   1      36.531  29.230  27.949  1.00  0.00     0.016 A 
ATOM     31  C   UNL A   1      37.966  30.498  29.994  1.00  0.00     0.010 A 
ATOM     32  C   UNL A   1      37.835  28.866  28.175  1.00  0.00     0.010 A 
ATOM     33  C   UNL A   1      38.559  29.559  29.143  1.00  0.00    -0.014 A 
BRANCH  33  34
ATOM     34  C   UNL A   1      39.962  29.257  29.337  1.00  0.00     0.031 A 
ATOM     35  C   UNL A   1      40.344  29.071  30.760  1.00  0.00     0.074 A 
ATOM     36  C   UNL A   1      40.774  29.004  28.293  1.00  0.00     0.049 A 
ATOM     37  N   UNL A   1      41.236  29.706  31.442  1.00  0.00    -0.248 NA
ATOM     38  C   UNL A   1      39.518  28.149  31.561  1.00  0.00     0.031 C 
ATOM     39  C   UNL A   1      40.411  28.849  26.880  1.00  0.00     0.029 A 
ATOM     40  N   UNL A   1      42.090  28.680  28.302  1.00  0.00    -0.354 N 
ATOM     41  C   UNL A   1      41.226  29.122  32.707  1.00  0.00     0.074 A 
ATOM     42  C   UNL A   1      40.046  28.301  32.774  1.00  0.00     0.031 C 
ATOM     43  C   UNL A   1      41.412  28.205  26.239  1.00  0.00     0.029 A 
ATOM     44  C   UNL A   1      42.515  28.012  27.165  1.00  0.00     0.049 A 
ATOM     45  H   UNL A   1      42.691  28.901  29.050  1.00  0.00     0.167 HD
ATOM     46  C   UNL A   1      42.306  29.173  33.531  1.00  0.00     0.037 A 
ATOM     47  C   UNL A   1      43.629  27.242  27.069  1.00  0.00     0.037 A 
ATOM     48  C   UNL A   1      43.205  30.235  33.165  1.00  0.00     0.049 A 
ATOM     49  C   UNL A   1      44.526  27.632  28.198  1.00  0.00     0.074 A 
ATOM     50  C   UNL A   1      43.058  31.603  33.027  1.00  0.00     0.029 A 
ATOM     51  N   UNL A   1      44.361  29.917  32.493  1.00  0.00    -0.354 N 
ATOM     52  N   UNL A   1      45.083  28.810  28.314  1.00  0.00    -0.248 NA
ATOM     53  C   UNL A   1      44.416  26.876  29.439  1.00  0.00     0.031 C 
ATOM     54  C   UNL A   1      43.824  31.939  31.874  1.00  0.00     0.029 A 
ATOM     55  C   UNL A   1      44.437  30.771  31.419  1.00  0.00     0.049 A 
ATOM     56  H   UNL A   1      45.007  29.215  32.734  1.00  0.00     0.167 HD
ATOM     57  C   UNL A   1      45.017  29.109  29.670  1.00  0.00     0.074 A 
ATOM     58  C   UNL A   1      44.664  27.849  30.320  1.00  0.00     0.031 C 
ATOM     59  C   UNL A   1      44.970  30.398  30.125  1.00  0.00     0.037 A 
BRANCH  46  60
ATOM     60  C   UNL A   1      42.694  28.043  34.450  1.00  0.00     0.058 A 
ATOM     61  C   UNL A   1      42.814  28.274  35.832  1.00  0.00     0.135 A 
ATOM     62  C   UNL A   1      43.215  26.812  33.987  1.00  0.00     0.135 A 
ATOM     63  F   UNL A   1      42.371  29.420  36.374  1.00  0.00    -0.206 F 
ATOM     64  C   UNL A   1      43.460  27.376  36.683  1.00  0.00     0.059 A 
ATOM     65  C   UNL A   1      43.808  25.877  34.825  1.00  0.00     0.059 A 
ATOM     66  F   UNL A   1      43.269  26.501  32.685  1.00  0.00    -0.206 F 
ATOM     67  C   UNL A   1      43.967  26.187  36.164  1.00  0.00     0.060 A 
BRANCH  67  68
ATOM     68  S   UNL A   1      44.911  25.083  37.229  1.00  0.00     0.124 S 
ATOM     69  O   UNL A   1      46.268  25.576  37.024  1.00  0.00    -0.237 OA
ATOM     70  O   UNL A   1      44.324  25.348  38.538  1.00  0.00    -0.237 OA
ATOM     71  O   UNL A   1      44.627  23.762  36.677  1.00  0.00    -0.744 OA
ENDBRANCH  67  68
ENDBRANCH  46  60
BRANCH  47  72
ATOM     72  C   UNL A   1      43.732  25.943  26.342  1.00  0.00     0.058 A 
ATOM     73  C   UNL A   1      44.732  25.717  25.381  1.00  0.00     0.135 A 
ATOM     74  C   UNL A   1      42.997  24.804  26.742  1.00  0.00     0.135 A 
ATOM     75  F   UNL A   1      45.507  26.730  24.966  1.00  0.00    -0.206 F 
ATOM     76  C   UNL A   1      45.000  24.441  24.866  1.00  0.00     0.059 A 
ATOM     77  C   UNL A   1      43.231  23.531  26.230  1.00  0.00     0.059 A 
ATOM     78  F   UNL A   1      42.079  24.871  27.716  1.00  0.00    -0.206 F 
ATOM     79  C   UNL A   1      44.249  23.350  25.306  1.00  0.00     0.060 A 
BRANCH  79  80
ATOM     80  S   UNL A   1      44.674  21.681  24.756  1.00  0.00     0.124 S 
ATOM     81  O   UNL A   1      43.627  20.882  25.384  1.00  0.00    -0.237 OA
ATOM     82  O   UNL A   1      44.600  21.807  23.305  1.00  0.00    -0.237 OA
ATOM     83  O   UNL A   1      46.018  21.478  25.293  1.00  0.00    -0.744 OA
ENDBRANCH  79  80
ENDBRANCH  47  72
BRANCH  59  84
ATOM     84  C   UNL A   1      45.228  31.530  29.161  1.00  0.00     0.058 A 
ATOM     85  C   UNL A   1      46.510  31.993  28.814  1.00  0.00     0.135 A 
ATOM     86  C   UNL A   1      44.149  32.030  28.413  1.00  0.00     0.135 A 
ATOM     87  F   UNL A   1      47.606  31.487  29.392  1.00  0.00    -0.206 F 
ATOM     88  C   UNL A   1      46.706  32.935  27.802  1.00  0.00     0.059 A 
ATOM     89  C   UNL A   1      44.325  32.945  27.377  1.00  0.00     0.059 A 
ATOM     90  F   UNL A   1      42.905  31.579  28.645  1.00  0.00    -0.206 F 
ATOM     91  C   UNL A   1      45.607  33.402  27.084  1.00  0.00     0.060 A 
BRANCH  91  92
ATOM     92  S   UNL A   1      45.878  34.549  25.715  1.00  0.00     0.124 S 
ATOM     93  O   UNL A   1      44.945  34.052  24.710  1.00  0.00    -0.237 OA
ATOM     94  O   UNL A   1      45.540  35.840  26.310  1.00  0.00    -0.237 OA
ATOM     95  O   UNL A   1      47.292  34.373  25.396  1.00  0.00    -0.744 OA
ENDBRANCH  91  92
ENDBRANCH  59  84
ENDBRANCH  33  34
ENDBRANCH  26  28
ENDBRANCH  25  26
ENDBRANCH  24  25
ENDBRANCH   1  24
TORSDOF 18
ENDMDL
