MODEL 1
REMARK VINA RESULT:     -13.4      0.000      0.000
REMARK SMILES COc1cc2ccccc2cc1C(=O)Nc1cc(C(=O)OCCOC(=O)c2ccc(-c3c4nc(c(-c5c(F)cc(S(=O)(=O)[O-])cc5F)c5ccc([nH]5)c(-c5c(F)cc(S(=O)(=O)[O-])cc5F)c5nc(c(-c6c(F)cc(S(=O)(=O)[O-])cc6F)c6ccc3[nH]6)C=C5)C=C4)cc2)ccc1C
REMARK SMILES IDX 22 1 21 2 19 3 20 4 18 5 16 6 17 7 95 8 94 9 96 10 93 11
REMARK SMILES IDX 15 12 13 13 14 14 12 16 3 17 4 18 5 19 11 20 6 21 10 22 7 23
REMARK SMILES IDX 9 24 8 25 2 26 1 27 23 28 24 29 25 30 26 31 27 32 28 33
REMARK SMILES IDX 92 34 29 35 91 36 30 37 31 38 32 39 85 40 33 41 90 42 84 43
REMARK SMILES IDX 86 44 34 45 89 46 83 47 82 48 35 50 69 51 48 52 68 53 49 54
REMARK SMILES IDX 52 55 67 56 87 57 50 58 51 59 66 61 88 62 53 63 36 64 37 65
REMARK SMILES IDX 46 66 38 67 39 68 45 69 47 70 40 71 41 72 42 73 43 74 44 75
REMARK SMILES IDX 70 76 71 77 80 78 72 79 73 80 79 81 81 82 74 83 75 84 76 85
REMARK SMILES IDX 77 86 78 87 54 88 55 89 64 90 56 91 57 92 63 93 65 94 58 95
REMARK SMILES IDX 59 96 60 97 61 98 62 99
REMARK H PARENT 15 15 86 49 52 60
REMARK Flexibility Score: inf
ROOT
ATOM      1  C   UNL A   1      36.060  21.138  25.322  1.00  0.00     0.275 C 
ENDROOT
BRANCH   1   2
ATOM      2  O   UNL A   1      35.517  22.191  26.117  1.00  0.00    -0.458 OA
BRANCH   2   3
ATOM      3  C   UNL A   1      34.311  21.939  26.672  1.00  0.00     0.338 C 
ATOM      4  O   UNL A   1      34.085  21.464  27.764  1.00  0.00    -0.246 OA
BRANCH   3   5
ATOM      5  C   UNL A   1      33.291  22.509  25.783  1.00  0.00     0.062 A 
ATOM      6  C   UNL A   1      32.821  23.924  23.887  1.00  0.00     0.045 A 
ATOM      7  C   UNL A   1      33.734  23.381  24.791  1.00  0.00     0.042 A 
ATOM      8  C   UNL A   1      31.438  23.710  24.068  1.00  0.00    -0.027 A 
ATOM      9  C   UNL A   1      31.020  22.793  25.051  1.00  0.00     0.006 A 
ATOM     10  C   UNL A   1      30.373  24.268  23.164  1.00  0.00     0.046 C 
ATOM     11  C   UNL A   1      31.943  22.185  25.899  1.00  0.00     0.016 A 
BRANCH   6  12
ATOM     12  N   UNL A   1      33.291  24.611  22.753  1.00  0.00    -0.322 N 
ATOM     13  C   UNL A   1      33.232  25.961  22.431  1.00  0.00     0.259 C 
ATOM     14  O   UNL A   1      33.548  26.285  21.283  1.00  0.00    -0.269 OA
ATOM     15  H   UNL A   1      33.732  24.044  22.079  1.00  0.00     0.170 HD
BRANCH  13  16
ATOM     16  C   UNL A   1      32.885  27.040  23.412  1.00  0.00     0.082 A 
ATOM     17  C   UNL A   1      31.731  27.816  23.372  1.00  0.00     0.132 A 
ATOM     18  C   UNL A   1      31.701  29.009  24.093  1.00  0.00     0.056 A 
ATOM     19  C   UNL A   1      32.600  29.272  25.130  1.00  0.00    -0.015 A 
ATOM     20  C   UNL A   1      33.793  27.276  24.469  1.00  0.00     0.026 A 
ATOM     21  C   UNL A   1      32.427  30.376  25.981  1.00  0.00     0.009 A 
ATOM     22  C   UNL A   1      33.609  28.336  25.390  1.00  0.00    -0.017 A 
ATOM     23  C   UNL A   1      33.129  30.468  27.180  1.00  0.00     0.001 A 
ATOM     24  C   UNL A   1      34.361  28.481  26.574  1.00  0.00     0.009 A 
ATOM     25  C   UNL A   1      34.089  29.512  27.482  1.00  0.00     0.001 A 
BRANCH  17  26
ATOM     26  O   UNL A   1      30.593  27.572  22.653  1.00  0.00    -0.496 OA
ATOM     27  C   UNL A   1      29.443  28.300  23.080  1.00  0.00     0.278 C 
ENDBRANCH  17  26
ENDBRANCH  13  16
ENDBRANCH   6  12
ENDBRANCH   3   5
ENDBRANCH   2   3
ENDBRANCH   1   2
BRANCH   1  28
ATOM     28  C   UNL A   1      37.529  21.327  24.890  1.00  0.00     0.275 C 
BRANCH  28  29
ATOM     29  O   UNL A   1      38.353  22.402  25.422  1.00  0.00    -0.458 OA
BRANCH  29  30
ATOM     30  C   UNL A   1      39.315  22.201  26.369  1.00  0.00     0.338 C 
ATOM     31  O   UNL A   1      39.679  21.092  26.718  1.00  0.00    -0.246 OA
BRANCH  30  32
ATOM     32  C   UNL A   1      39.939  23.485  26.801  1.00  0.00     0.060 A 
ATOM     33  C   UNL A   1      40.534  24.410  25.920  1.00  0.00     0.016 A 
ATOM     34  C   UNL A   1      39.673  23.865  28.100  1.00  0.00     0.016 A 
ATOM     35  C   UNL A   1      40.802  25.729  26.353  1.00  0.00     0.010 A 
ATOM     36  C   UNL A   1      39.615  25.197  28.379  1.00  0.00     0.010 A 
ATOM     37  C   UNL A   1      40.317  26.129  27.599  1.00  0.00    -0.014 A 
BRANCH  37  38
ATOM     38  C   UNL A   1      40.577  27.348  28.393  1.00  0.00     0.031 A 
ATOM     39  C   UNL A   1      39.707  28.545  28.427  1.00  0.00     0.074 A 
ATOM     40  C   UNL A   1      41.485  27.103  29.373  1.00  0.00     0.049 A 
ATOM     41  N   UNL A   1      39.288  29.083  29.530  1.00  0.00    -0.248 NA
ATOM     42  C   UNL A   1      39.165  29.189  27.229  1.00  0.00     0.031 C 
ATOM     43  C   UNL A   1      41.856  27.828  30.569  1.00  0.00     0.029 A 
ATOM     44  N   UNL A   1      42.424  26.057  29.338  1.00  0.00    -0.354 N 
ATOM     45  C   UNL A   1      38.479  30.167  29.214  1.00  0.00     0.074 A 
ATOM     46  C   UNL A   1      38.377  30.140  27.756  1.00  0.00     0.031 C 
ATOM     47  C   UNL A   1      43.127  27.489  30.877  1.00  0.00     0.029 A 
ATOM     48  C   UNL A   1      43.608  26.575  29.843  1.00  0.00     0.049 A 
ATOM     49  H   UNL A   1      42.270  25.138  29.019  1.00  0.00     0.167 HD
ATOM     50  C   UNL A   1      38.630  31.337  29.901  1.00  0.00     0.037 A 
ATOM     51  C   UNL A   1      44.555  26.821  28.888  1.00  0.00     0.037 A 
ATOM     52  C   UNL A   1      39.985  31.441  30.391  1.00  0.00     0.049 A 
ATOM     53  C   UNL A   1      44.640  28.312  28.652  1.00  0.00     0.074 A 
ATOM     54  C   UNL A   1      40.633  31.096  31.562  1.00  0.00     0.029 A 
ATOM     55  N   UNL A   1      40.965  31.651  29.437  1.00  0.00    -0.354 N 
ATOM     56  N   UNL A   1      43.651  29.154  28.825  1.00  0.00    -0.248 NA
ATOM     57  C   UNL A   1      45.903  28.979  28.373  1.00  0.00     0.031 C 
ATOM     58  C   UNL A   1      42.026  31.021  31.269  1.00  0.00     0.029 A 
ATOM     59  C   UNL A   1      42.209  31.333  29.929  1.00  0.00     0.049 A 
ATOM     60  H   UNL A   1      40.794  31.985  28.527  1.00  0.00     0.167 HD
ATOM     61  C   UNL A   1      44.138  30.434  28.806  1.00  0.00     0.074 A 
ATOM     62  C   UNL A   1      45.548  30.268  28.497  1.00  0.00     0.031 C 
ATOM     63  C   UNL A   1      43.386  31.539  29.098  1.00  0.00     0.037 A 
BRANCH  50  64
ATOM     64  C   UNL A   1      37.416  32.055  30.451  1.00  0.00     0.058 A 
ATOM     65  C   UNL A   1      36.973  33.270  29.883  1.00  0.00     0.135 A 
ATOM     66  C   UNL A   1      36.678  31.620  31.573  1.00  0.00     0.135 A 
ATOM     67  F   UNL A   1      37.567  33.790  28.800  1.00  0.00    -0.206 F 
ATOM     68  C   UNL A   1      35.923  34.024  30.414  1.00  0.00     0.059 A 
ATOM     69  C   UNL A   1      35.619  32.361  32.125  1.00  0.00     0.059 A 
ATOM     70  F   UNL A   1      36.966  30.455  32.176  1.00  0.00    -0.206 F 
ATOM     71  C   UNL A   1      35.260  33.574  31.548  1.00  0.00     0.060 A 
BRANCH  71  72
ATOM     72  S   UNL A   1      33.973  34.626  32.260  1.00  0.00     0.124 S 
ATOM     73  O   UNL A   1      33.313  33.712  33.188  1.00  0.00    -0.237 OA
ATOM     74  O   UNL A   1      34.753  35.696  32.874  1.00  0.00    -0.237 OA
ATOM     75  O   UNL A   1      33.172  35.017  31.104  1.00  0.00    -0.744 OA
ENDBRANCH  71  72
ENDBRANCH  50  64
BRANCH  51  76
ATOM     76  C   UNL A   1      44.641  25.690  27.882  1.00  0.00     0.058 A 
ATOM     77  C   UNL A   1      44.339  26.008  26.532  1.00  0.00     0.135 A 
ATOM     78  C   UNL A   1      45.315  24.476  28.087  1.00  0.00     0.135 A 
ATOM     79  F   UNL A   1      43.709  27.161  26.244  1.00  0.00    -0.206 F 
ATOM     80  C   UNL A   1      44.770  25.239  25.452  1.00  0.00     0.059 A 
ATOM     81  C   UNL A   1      45.731  23.666  27.012  1.00  0.00     0.059 A 
ATOM     82  F   UNL A   1      45.663  24.095  29.326  1.00  0.00    -0.206 F 
ATOM     83  C   UNL A   1      45.487  24.076  25.699  1.00  0.00     0.060 A 
BRANCH  83  84
ATOM     84  S   UNL A   1      46.206  23.207  24.279  1.00  0.00     0.124 S 
ATOM     85  O   UNL A   1      46.722  21.991  24.901  1.00  0.00    -0.237 OA
ATOM     86  O   UNL A   1      45.040  23.029  23.418  1.00  0.00    -0.237 OA
ATOM     87  O   UNL A   1      47.214  24.144  23.794  1.00  0.00    -0.744 OA
ENDBRANCH  83  84
ENDBRANCH  51  76
BRANCH  63  88
ATOM     88  C   UNL A   1      43.733  32.956  28.691  1.00  0.00     0.058 A 
ATOM     89  C   UNL A   1      43.957  33.344  27.361  1.00  0.00     0.135 A 
ATOM     90  C   UNL A   1      43.680  34.023  29.628  1.00  0.00     0.135 A 
ATOM     91  F   UNL A   1      43.865  32.473  26.346  1.00  0.00    -0.206 F 
ATOM     92  C   UNL A   1      44.230  34.658  27.002  1.00  0.00     0.059 A 
ATOM     93  C   UNL A   1      43.857  35.355  29.274  1.00  0.00     0.059 A 
ATOM     94  F   UNL A   1      43.422  33.819  30.928  1.00  0.00    -0.206 F 
ATOM     95  C   UNL A   1      44.181  35.658  27.965  1.00  0.00     0.060 A 
BRANCH  95  96
ATOM     96  S   UNL A   1      44.510  37.355  27.482  1.00  0.00     0.124 S 
ATOM     97  O   UNL A   1      45.657  37.179  26.596  1.00  0.00    -0.237 OA
ATOM     98  O   UNL A   1      43.263  37.746  26.833  1.00  0.00    -0.237 OA
ATOM     99  O   UNL A   1      44.784  38.019  28.751  1.00  0.00    -0.744 OA
ENDBRANCH  95  96
ENDBRANCH  63  88
ENDBRANCH  37  38
ENDBRANCH  30  32
ENDBRANCH  29  30
ENDBRANCH  28  29
ENDBRANCH   1  28
TORSDOF 17
ENDMDL
MODEL 2
REMARK VINA RESULT:     -13.3      3.381      9.986
REMARK SMILES COc1cc2ccccc2cc1C(=O)Nc1cc(C(=O)OCCOC(=O)c2ccc(-c3c4nc(c(-c5c(F)cc(S(=O)(=O)[O-])cc5F)c5ccc([nH]5)c(-c5c(F)cc(S(=O)(=O)[O-])cc5F)c5nc(c(-c6c(F)cc(S(=O)(=O)[O-])cc6F)c6ccc3[nH]6)C=C5)C=C4)cc2)ccc1C
REMARK SMILES IDX 22 1 21 2 19 3 20 4 18 5 16 6 17 7 95 8 94 9 96 10 93 11
REMARK SMILES IDX 15 12 13 13 14 14 12 16 3 17 4 18 5 19 11 20 6 21 10 22 7 23
REMARK SMILES IDX 9 24 8 25 2 26 1 27 23 28 24 29 25 30 26 31 27 32 28 33
REMARK SMILES IDX 92 34 29 35 91 36 30 37 31 38 32 39 85 40 33 41 90 42 84 43
REMARK SMILES IDX 86 44 34 45 89 46 83 47 82 48 35 50 69 51 48 52 68 53 49 54
REMARK SMILES IDX 52 55 67 56 87 57 50 58 51 59 66 61 88 62 53 63 36 64 37 65
REMARK SMILES IDX 46 66 38 67 39 68 45 69 47 70 40 71 41 72 42 73 43 74 44 75
REMARK SMILES IDX 70 76 71 77 80 78 72 79 73 80 79 81 81 82 74 83 75 84 76 85
REMARK SMILES IDX 77 86 78 87 54 88 55 89 64 90 56 91 57 92 63 93 65 94 58 95
REMARK SMILES IDX 59 96 60 97 61 98 62 99
REMARK H PARENT 15 15 86 49 52 60
REMARK Flexibility Score: inf
ROOT
ATOM      1  C   UNL A   1      32.206  30.112  25.641  1.00  0.00     0.275 C 
ENDROOT
BRANCH   1   2
ATOM      2  O   UNL A   1      33.191  29.141  25.293  1.00  0.00    -0.458 OA
BRANCH   2   3
ATOM      3  C   UNL A   1      33.256  28.822  23.982  1.00  0.00     0.338 C 
ATOM      4  O   UNL A   1      33.895  29.382  23.117  1.00  0.00    -0.246 OA
BRANCH   3   5
ATOM      5  C   UNL A   1      32.545  27.550  23.803  1.00  0.00     0.062 A 
ATOM      6  C   UNL A   1      31.661  25.562  24.843  1.00  0.00     0.045 A 
ATOM      7  C   UNL A   1      32.365  26.763  24.937  1.00  0.00     0.042 A 
ATOM      8  C   UNL A   1      31.262  25.076  23.579  1.00  0.00    -0.027 A 
ATOM      9  C   UNL A   1      31.418  25.910  22.456  1.00  0.00     0.006 A 
ATOM     10  C   UNL A   1      30.518  23.785  23.368  1.00  0.00     0.046 C 
ATOM     11  C   UNL A   1      32.047  27.149  22.567  1.00  0.00     0.016 A 
BRANCH   6  12
ATOM     12  N   UNL A   1      31.279  24.887  26.017  1.00  0.00    -0.322 N 
ATOM     13  C   UNL A   1      31.753  23.704  26.568  1.00  0.00     0.259 C 
ATOM     14  O   UNL A   1      31.118  23.220  27.508  1.00  0.00    -0.269 OA
ATOM     15  H   UNL A   1      30.559  25.323  26.528  1.00  0.00     0.170 HD
BRANCH  13  16
ATOM     16  C   UNL A   1      33.023  23.032  26.139  1.00  0.00     0.082 A 
ATOM     17  C   UNL A   1      33.101  21.786  25.526  1.00  0.00     0.132 A 
ATOM     18  C   UNL A   1      34.324  21.116  25.520  1.00  0.00     0.056 A 
ATOM     19  C   UNL A   1      35.532  21.779  25.753  1.00  0.00    -0.015 A 
ATOM     20  C   UNL A   1      34.235  23.726  26.359  1.00  0.00     0.026 A 
ATOM     21  C   UNL A   1      36.765  21.141  25.537  1.00  0.00     0.009 A 
ATOM     22  C   UNL A   1      35.493  23.140  26.082  1.00  0.00    -0.017 A 
ATOM     23  C   UNL A   1      37.946  21.877  25.474  1.00  0.00     0.001 A 
ATOM     24  C   UNL A   1      36.706  23.858  26.084  1.00  0.00     0.009 A 
ATOM     25  C   UNL A   1      37.914  23.240  25.735  1.00  0.00     0.001 A 
BRANCH  17  26
ATOM     26  O   UNL A   1      32.080  21.083  24.944  1.00  0.00    -0.496 OA
ATOM     27  C   UNL A   1      32.490  20.104  23.991  1.00  0.00     0.278 C 
ENDBRANCH  17  26
ENDBRANCH  13  16
ENDBRANCH   6  12
ENDBRANCH   3   5
ENDBRANCH   2   3
ENDBRANCH   1   2
BRANCH   1  28
ATOM     28  C   UNL A   1      32.346  30.717  27.055  1.00  0.00     0.275 C 
BRANCH  28  29
ATOM     29  O   UNL A   1      33.549  30.533  27.852  1.00  0.00    -0.458 OA
BRANCH  29  30
ATOM     30  C   UNL A   1      34.468  31.524  28.046  1.00  0.00     0.338 C 
ATOM     31  O   UNL A   1      34.232  32.699  27.828  1.00  0.00    -0.246 OA
BRANCH  30  32
ATOM     32  C   UNL A   1      35.714  31.001  28.680  1.00  0.00     0.060 A 
ATOM     33  C   UNL A   1      35.732  30.112  29.773  1.00  0.00     0.016 A 
ATOM     34  C   UNL A   1      36.876  31.223  27.970  1.00  0.00     0.016 A 
ATOM     35  C   UNL A   1      36.918  29.416  30.099  1.00  0.00     0.010 A 
ATOM     36  C   UNL A   1      37.877  30.306  28.078  1.00  0.00     0.010 A 
ATOM     37  C   UNL A   1      38.001  29.504  29.223  1.00  0.00    -0.014 A 
BRANCH  37  38
ATOM     38  C   UNL A   1      39.402  29.055  29.368  1.00  0.00     0.031 A 
ATOM     39  C   UNL A   1      39.908  27.713  29.002  1.00  0.00     0.074 A 
ATOM     40  C   UNL A   1      40.239  30.115  29.508  1.00  0.00     0.049 A 
ATOM     41  N   UNL A   1      40.944  27.532  28.243  1.00  0.00    -0.248 NA
ATOM     42  C   UNL A   1      39.249  26.463  29.384  1.00  0.00     0.031 C 
ATOM     43  C   UNL A   1      41.674  30.254  29.387  1.00  0.00     0.029 A 
ATOM     44  N   UNL A   1      39.841  31.380  29.975  1.00  0.00    -0.354 N 
ATOM     45  C   UNL A   1      41.137  26.166  28.076  1.00  0.00     0.074 A 
ATOM     46  C   UNL A   1      39.999  25.547  28.752  1.00  0.00     0.031 C 
ATOM     47  C   UNL A   1      42.051  31.308  30.143  1.00  0.00     0.029 A 
ATOM     48  C   UNL A   1      40.856  31.830  30.807  1.00  0.00     0.049 A 
ATOM     49  H   UNL A   1      39.006  31.854  29.752  1.00  0.00     0.167 HD
ATOM     50  C   UNL A   1      42.398  25.652  28.175  1.00  0.00     0.037 A 
ATOM     51  C   UNL A   1      40.548  31.768  32.137  1.00  0.00     0.037 A 
ATOM     52  C   UNL A   1      43.201  26.495  29.032  1.00  0.00     0.049 A 
ATOM     53  C   UNL A   1      41.291  30.609  32.761  1.00  0.00     0.074 A 
ATOM     54  C   UNL A   1      44.049  27.568  28.835  1.00  0.00     0.029 A 
ATOM     55  N   UNL A   1      42.880  26.478  30.378  1.00  0.00    -0.354 N 
ATOM     56  N   UNL A   1      41.657  29.524  32.124  1.00  0.00    -0.248 NA
ATOM     57  C   UNL A   1      41.830  30.674  34.112  1.00  0.00     0.031 C 
ATOM     58  C   UNL A   1      44.166  28.249  30.081  1.00  0.00     0.029 A 
ATOM     59  C   UNL A   1      43.399  27.576  31.023  1.00  0.00     0.049 A 
ATOM     60  H   UNL A   1      42.351  25.773  30.816  1.00  0.00     0.167 HD
ATOM     61  C   UNL A   1      42.546  28.823  32.894  1.00  0.00     0.074 A 
ATOM     62  C   UNL A   1      42.602  29.575  34.137  1.00  0.00     0.031 C 
ATOM     63  C   UNL A   1      43.223  27.717  32.460  1.00  0.00     0.037 A 
BRANCH  50  64
ATOM     64  C   UNL A   1      42.910  24.691  27.124  1.00  0.00     0.058 A 
ATOM     65  C   UNL A   1      42.966  23.302  27.376  1.00  0.00     0.135 A 
ATOM     66  C   UNL A   1      43.407  25.086  25.862  1.00  0.00     0.135 A 
ATOM     67  F   UNL A   1      42.509  22.784  28.524  1.00  0.00    -0.206 F 
ATOM     68  C   UNL A   1      43.524  22.385  26.481  1.00  0.00     0.059 A 
ATOM     69  C   UNL A   1      43.972  24.182  24.947  1.00  0.00     0.059 A 
ATOM     70  F   UNL A   1      43.364  26.372  25.479  1.00  0.00    -0.206 F 
ATOM     71  C   UNL A   1      44.042  22.832  25.274  1.00  0.00     0.060 A 
BRANCH  71  72
ATOM     72  S   UNL A   1      44.841  21.628  24.188  1.00  0.00     0.124 S 
ATOM     73  O   UNL A   1      44.221  20.376  24.614  1.00  0.00    -0.237 OA
ATOM     74  O   UNL A   1      44.456  22.104  22.862  1.00  0.00    -0.237 OA
ATOM     75  O   UNL A   1      46.258  21.758  24.514  1.00  0.00    -0.744 OA
ENDBRANCH  71  72
ENDBRANCH  50  64
BRANCH  51  76
ATOM     76  C   UNL A   1      39.137  32.252  32.407  1.00  0.00     0.058 A 
ATOM     77  C   UNL A   1      38.854  33.608  32.100  1.00  0.00     0.135 A 
ATOM     78  C   UNL A   1      38.021  31.421  32.594  1.00  0.00     0.135 A 
ATOM     79  F   UNL A   1      39.865  34.468  31.889  1.00  0.00    -0.206 F 
ATOM     80  C   UNL A   1      37.563  34.087  31.879  1.00  0.00     0.059 A 
ATOM     81  C   UNL A   1      36.705  31.892  32.409  1.00  0.00     0.059 A 
ATOM     82  F   UNL A   1      38.183  30.119  32.870  1.00  0.00    -0.206 F 
ATOM     83  C   UNL A   1      36.490  33.215  32.015  1.00  0.00     0.060 A 
BRANCH  83  84
ATOM     84  S   UNL A   1      34.848  33.811  31.528  1.00  0.00     0.124 S 
ATOM     85  O   UNL A   1      34.597  34.848  32.524  1.00  0.00    -0.237 OA
ATOM     86  O   UNL A   1      35.096  34.287  30.170  1.00  0.00    -0.237 OA
ATOM     87  O   UNL A   1      34.018  32.616  31.638  1.00  0.00    -0.744 OA
ENDBRANCH  83  84
ENDBRANCH  51  76
BRANCH  63  88
ATOM     88  C   UNL A   1      43.866  26.684  33.362  1.00  0.00     0.058 A 
ATOM     89  C   UNL A   1      45.247  26.435  33.388  1.00  0.00     0.135 A 
ATOM     90  C   UNL A   1      43.115  26.020  34.370  1.00  0.00     0.135 A 
ATOM     91  F   UNL A   1      46.102  27.116  32.613  1.00  0.00    -0.206 F 
ATOM     92  C   UNL A   1      45.824  25.514  34.255  1.00  0.00     0.059 A 
ATOM     93  C   UNL A   1      43.687  25.167  35.306  1.00  0.00     0.059 A 
ATOM     94  F   UNL A   1      41.793  26.196  34.507  1.00  0.00    -0.206 F 
ATOM     95  C   UNL A   1      45.037  24.882  35.209  1.00  0.00     0.060 A 
BRANCH  95  96
ATOM     96  S   UNL A   1      45.800  23.714  36.338  1.00  0.00     0.124 S 
ATOM     97  O   UNL A   1      44.952  22.542  36.147  1.00  0.00    -0.237 OA
ATOM     98  O   UNL A   1      47.157  23.608  35.812  1.00  0.00    -0.237 OA
ATOM     99  O   UNL A   1      45.687  24.375  37.634  1.00  0.00    -0.744 OA
ENDBRANCH  95  96
ENDBRANCH  63  88
ENDBRANCH  37  38
ENDBRANCH  30  32
ENDBRANCH  29  30
ENDBRANCH  28  29
ENDBRANCH   1  28
TORSDOF 17
ENDMDL
MODEL 3
REMARK VINA RESULT:     -13.1      3.564     10.187
REMARK SMILES COc1cc2ccccc2cc1C(=O)Nc1cc(C(=O)OCCOC(=O)c2ccc(-c3c4nc(c(-c5c(F)cc(S(=O)(=O)[O-])cc5F)c5ccc([nH]5)c(-c5c(F)cc(S(=O)(=O)[O-])cc5F)c5nc(c(-c6c(F)cc(S(=O)(=O)[O-])cc6F)c6ccc3[nH]6)C=C5)C=C4)cc2)ccc1C
REMARK SMILES IDX 22 1 21 2 19 3 20 4 18 5 16 6 17 7 95 8 94 9 96 10 93 11
REMARK SMILES IDX 15 12 13 13 14 14 12 16 3 17 4 18 5 19 11 20 6 21 10 22 7 23
REMARK SMILES IDX 9 24 8 25 2 26 1 27 23 28 24 29 25 30 26 31 27 32 28 33
REMARK SMILES IDX 92 34 29 35 91 36 30 37 31 38 32 39 85 40 33 41 90 42 84 43
REMARK SMILES IDX 86 44 34 45 89 46 83 47 82 48 35 50 69 51 48 52 68 53 49 54
REMARK SMILES IDX 52 55 67 56 87 57 50 58 51 59 66 61 88 62 53 63 36 64 37 65
REMARK SMILES IDX 46 66 38 67 39 68 45 69 47 70 40 71 41 72 42 73 43 74 44 75
REMARK SMILES IDX 70 76 71 77 80 78 72 79 73 80 79 81 81 82 74 83 75 84 76 85
REMARK SMILES IDX 77 86 78 87 54 88 55 89 64 90 56 91 57 92 63 93 65 94 58 95
REMARK SMILES IDX 59 96 60 97 61 98 62 99
REMARK H PARENT 15 15 86 49 52 60
REMARK Flexibility Score: inf
ROOT
ATOM      1  C   UNL A   1      32.251  29.682  24.856  1.00  0.00     0.275 C 
ENDROOT
BRANCH   1   2
ATOM      2  O   UNL A   1      31.017  29.011  24.604  1.00  0.00    -0.458 OA
BRANCH   2   3
ATOM      3  C   UNL A   1      31.097  27.928  23.800  1.00  0.00     0.338 C 
ATOM      4  O   UNL A   1      31.230  27.911  22.595  1.00  0.00    -0.246 OA
BRANCH   3   5
ATOM      5  C   UNL A   1      31.174  26.744  24.665  1.00  0.00     0.062 A 
ATOM      6  C   UNL A   1      32.577  25.062  25.673  1.00  0.00     0.045 A 
ATOM      7  C   UNL A   1      32.428  26.163  24.831  1.00  0.00     0.042 A 
ATOM      8  C   UNL A   1      31.437  24.447  26.237  1.00  0.00    -0.027 A 
ATOM      9  C   UNL A   1      30.187  25.078  26.089  1.00  0.00     0.006 A 
ATOM     10  C   UNL A   1      31.488  23.245  27.139  1.00  0.00     0.046 C 
ATOM     11  C   UNL A   1      30.056  26.229  25.315  1.00  0.00     0.016 A 
BRANCH   6  12
ATOM     12  N   UNL A   1      33.867  24.622  26.023  1.00  0.00    -0.322 N 
ATOM     13  C   UNL A   1      34.505  23.416  25.768  1.00  0.00     0.259 C 
ATOM     14  O   UNL A   1      35.572  23.204  26.350  1.00  0.00    -0.269 OA
ATOM     15  H   UNL A   1      34.402  25.275  26.531  1.00  0.00     0.170 HD
BRANCH  13  16
ATOM     16  C   UNL A   1      34.015  22.403  24.777  1.00  0.00     0.082 A 
ATOM     17  C   UNL A   1      33.679  22.676  23.455  1.00  0.00     0.132 A 
ATOM     18  C   UNL A   1      32.897  21.755  22.759  1.00  0.00     0.056 A 
ATOM     19  C   UNL A   1      32.757  20.431  23.184  1.00  0.00    -0.015 A 
ATOM     20  C   UNL A   1      33.903  21.064  25.215  1.00  0.00     0.026 A 
ATOM     21  C   UNL A   1      32.145  19.466  22.367  1.00  0.00     0.009 A 
ATOM     22  C   UNL A   1      33.358  20.051  24.390  1.00  0.00    -0.017 A 
ATOM     23  C   UNL A   1      32.274  18.108  22.649  1.00  0.00     0.001 A 
ATOM     24  C   UNL A   1      33.420  18.676  24.698  1.00  0.00     0.009 A 
ATOM     25  C   UNL A   1      32.924  17.713  23.810  1.00  0.00     0.001 A 
BRANCH  17  26
ATOM     26  O   UNL A   1      33.992  23.797  22.735  1.00  0.00    -0.496 OA
ATOM     27  C   UNL A   1      32.954  24.269  21.876  1.00  0.00     0.278 C 
ENDBRANCH  17  26
ENDBRANCH  13  16
ENDBRANCH   6  12
ENDBRANCH   3   5
ENDBRANCH   2   3
ENDBRANCH   1   2
BRANCH   1  28
ATOM     28  C   UNL A   1      32.530  30.014  26.337  1.00  0.00     0.275 C 
BRANCH  28  29
ATOM     29  O   UNL A   1      33.884  30.077  26.867  1.00  0.00    -0.458 OA
BRANCH  29  30
ATOM     30  C   UNL A   1      34.365  31.160  27.544  1.00  0.00     0.338 C 
ATOM     31  O   UNL A   1      33.739  32.199  27.665  1.00  0.00    -0.246 OA
BRANCH  30  32
ATOM     32  C   UNL A   1      35.663  30.857  28.215  1.00  0.00     0.060 A 
ATOM     33  C   UNL A   1      35.786  30.511  29.575  1.00  0.00     0.016 A 
ATOM     34  C   UNL A   1      36.737  30.669  27.370  1.00  0.00     0.016 A 
ATOM     35  C   UNL A   1      36.982  29.926  30.051  1.00  0.00     0.010 A 
ATOM     36  C   UNL A   1      37.717  29.807  27.761  1.00  0.00     0.010 A 
ATOM     37  C   UNL A   1      37.954  29.554  29.121  1.00  0.00    -0.014 A 
BRANCH  37  38
ATOM     38  C   UNL A   1      39.348  29.100  29.307  1.00  0.00     0.031 A 
ATOM     39  C   UNL A   1      39.842  27.731  29.031  1.00  0.00     0.074 A 
ATOM     40  C   UNL A   1      40.196  30.157  29.387  1.00  0.00     0.049 A 
ATOM     41  N   UNL A   1      40.882  27.491  28.295  1.00  0.00    -0.248 NA
ATOM     42  C   UNL A   1      39.165  26.516  29.486  1.00  0.00     0.031 C 
ATOM     43  C   UNL A   1      41.633  30.272  29.271  1.00  0.00     0.029 A 
ATOM     44  N   UNL A   1      39.808  31.454  29.768  1.00  0.00    -0.354 N 
ATOM     45  C   UNL A   1      41.061  26.116  28.217  1.00  0.00     0.074 A 
ATOM     46  C   UNL A   1      39.911  25.553  28.921  1.00  0.00     0.031 C 
ATOM     47  C   UNL A   1      42.016  31.368  29.962  1.00  0.00     0.029 A 
ATOM     48  C   UNL A   1      40.822  31.944  30.580  1.00  0.00     0.049 A 
ATOM     49  H   UNL A   1      38.981  31.922  29.509  1.00  0.00     0.167 HD
ATOM     50  C   UNL A   1      42.315  25.595  28.360  1.00  0.00     0.037 A 
ATOM     51  C   UNL A   1      40.502  31.971  31.908  1.00  0.00     0.037 A 
ATOM     52  C   UNL A   1      43.120  26.482  29.169  1.00  0.00     0.049 A 
ATOM     53  C   UNL A   1      41.226  30.846  32.612  1.00  0.00     0.074 A 
ATOM     54  C   UNL A   1      43.982  27.531  28.912  1.00  0.00     0.029 A 
ATOM     55  N   UNL A   1      42.788  26.555  30.511  1.00  0.00    -0.354 N 
ATOM     56  N   UNL A   1      41.585  29.719  32.048  1.00  0.00    -0.248 NA
ATOM     57  C   UNL A   1      41.754  30.991  33.961  1.00  0.00     0.031 C 
ATOM     58  C   UNL A   1      44.097  28.289  30.114  1.00  0.00     0.029 A 
ATOM     59  C   UNL A   1      43.314  27.685  31.089  1.00  0.00     0.049 A 
ATOM     60  H   UNL A   1      42.247  25.884  30.988  1.00  0.00     0.167 HD
ATOM     61  C   UNL A   1      42.459  29.059  32.870  1.00  0.00     0.074 A 
ATOM     62  C   UNL A   1      42.513  29.888  34.062  1.00  0.00     0.031 C 
ATOM     63  C   UNL A   1      43.127  27.920  32.513  1.00  0.00     0.037 A 
BRANCH  50  64
ATOM     64  C   UNL A   1      42.825  24.563  27.377  1.00  0.00     0.058 A 
ATOM     65  C   UNL A   1      42.853  23.192  27.714  1.00  0.00     0.135 A 
ATOM     66  C   UNL A   1      43.347  24.873  26.102  1.00  0.00     0.135 A 
ATOM     67  F   UNL A   1      42.370  22.752  28.884  1.00  0.00    -0.206 F 
ATOM     68  C   UNL A   1      43.407  22.213  26.885  1.00  0.00     0.059 A 
ATOM     69  C   UNL A   1      43.909  23.906  25.252  1.00  0.00     0.059 A 
ATOM     70  F   UNL A   1      43.332  26.134  25.641  1.00  0.00    -0.206 F 
ATOM     71  C   UNL A   1      43.951  22.577  25.661  1.00  0.00     0.060 A 
BRANCH  71  72
ATOM     72  S   UNL A   1      44.743  21.296  24.662  1.00  0.00     0.124 S 
ATOM     73  O   UNL A   1      44.688  21.877  23.323  1.00  0.00    -0.237 OA
ATOM     74  O   UNL A   1      46.071  21.213  25.261  1.00  0.00    -0.237 OA
ATOM     75  O   UNL A   1      43.891  20.128  24.863  1.00  0.00    -0.744 OA
ENDBRANCH  71  72
ENDBRANCH  50  64
BRANCH  51  76
ATOM     76  C   UNL A   1      39.094  32.486  32.134  1.00  0.00     0.058 A 
ATOM     77  C   UNL A   1      38.199  31.626  32.821  1.00  0.00     0.135 A 
ATOM     78  C   UNL A   1      38.702  33.831  32.045  1.00  0.00     0.135 A 
ATOM     79  F   UNL A   1      38.504  30.325  32.967  1.00  0.00    -0.206 F 
ATOM     80  C   UNL A   1      37.053  32.081  33.474  1.00  0.00     0.059 A 
ATOM     81  C   UNL A   1      37.532  34.307  32.669  1.00  0.00     0.059 A 
ATOM     82  F   UNL A   1      39.489  34.728  31.432  1.00  0.00    -0.206 F 
ATOM     83  C   UNL A   1      36.736  33.431  33.412  1.00  0.00     0.060 A 
BRANCH  83  84
ATOM     84  S   UNL A   1      35.359  34.025  34.433  1.00  0.00     0.124 S 
ATOM     85  O   UNL A   1      35.856  33.775  35.782  1.00  0.00    -0.237 OA
ATOM     86  O   UNL A   1      35.283  35.429  34.039  1.00  0.00    -0.237 OA
ATOM     87  O   UNL A   1      34.245  33.186  34.004  1.00  0.00    -0.744 OA
ENDBRANCH  83  84
ENDBRANCH  51  76
BRANCH  63  88
ATOM     88  C   UNL A   1      43.750  26.939  33.485  1.00  0.00     0.058 A 
ATOM     89  C   UNL A   1      45.132  26.704  33.564  1.00  0.00     0.135 A 
ATOM     90  C   UNL A   1      42.975  26.321  34.503  1.00  0.00     0.135 A 
ATOM     91  F   UNL A   1      46.005  27.351  32.780  1.00  0.00    -0.206 F 
ATOM     92  C   UNL A   1      45.689  25.833  34.492  1.00  0.00     0.059 A 
ATOM     93  C   UNL A   1      43.525  25.522  35.498  1.00  0.00     0.059 A 
ATOM     94  F   UNL A   1      41.648  26.493  34.593  1.00  0.00    -0.206 F 
ATOM     95  C   UNL A   1      44.879  25.244  35.454  1.00  0.00     0.060 A 
BRANCH  95  96
ATOM     96  S   UNL A   1      45.617  24.141  36.663  1.00  0.00     0.124 S 
ATOM     97  O   UNL A   1      45.107  22.849  36.215  1.00  0.00    -0.237 OA
ATOM     98  O   UNL A   1      47.045  24.363  36.463  1.00  0.00    -0.237 OA
ATOM     99  O   UNL A   1      45.085  24.628  37.931  1.00  0.00    -0.744 OA
ENDBRANCH  95  96
ENDBRANCH  63  88
ENDBRANCH  37  38
ENDBRANCH  30  32
ENDBRANCH  29  30
ENDBRANCH  28  29
ENDBRANCH   1  28
TORSDOF 17
ENDMDL
