MODEL 1
REMARK VINA RESULT:     -12.2      0.000      0.000
REMARK SMILES Cc1oc2c(C)c3oc(=O)c(CC(=O)N[C@@H](CC(C)C)C(=O)OCCOC(=O)c4ccc(-c5c6nc(c(-c7c(F)cc(S(=O)(=O)[O-])cc7F)c7ccc([nH]7)c(-c7c(F)cc(S(=O)(=O)[O-])cc7F)c7nc(c(-c8c(F)cc(S(=O)(=O)[O-])cc8F)c8ccc5[nH]8)C=C7)C=C6)cc4)c(C)c3cc2c1C
REMARK SMILES IDX 24 1 23 2 21 3 22 4 16 5 15 6 13 7 14 8 12 10 11 11 1 12
REMARK SMILES IDX 2 13 3 14 100 15 4 16 99 17 101 18 5 19 98 20 6 21 7 22
REMARK SMILES IDX 97 23 8 24 95 25 9 26 96 27 10 28 17 29 18 30 19 31 20 32
REMARK SMILES IDX 25 33 26 34 27 35 28 36 29 37 30 38 94 39 31 40 93 41 32 42
REMARK SMILES IDX 33 43 34 44 87 45 35 46 92 47 86 48 88 49 36 50 91 51 85 52
REMARK SMILES IDX 84 53 37 55 71 56 50 57 70 58 51 59 54 60 69 61 89 62 52 63
REMARK SMILES IDX 53 64 68 66 90 67 55 68 38 69 39 70 48 71 40 72 41 73 47 74
REMARK SMILES IDX 49 75 42 76 43 77 44 78 45 79 46 80 72 81 73 82 82 83 74 84
REMARK SMILES IDX 75 85 81 86 83 87 76 88 77 89 78 90 79 91 80 92 56 93 57 94
REMARK SMILES IDX 66 95 58 96 59 97 65 98 67 99 60 100 61 101 62 102 63 103
REMARK SMILES IDX 64 104
REMARK H PARENT 15 9 88 54 54 65
REMARK Flexibility Score: inf
ROOT
ATOM      1  C   UNL A   1      36.376  22.047  24.691  1.00  0.00     0.274 C 
ENDROOT
BRANCH   1   2
ATOM      2  O   UNL A   1      35.156  21.514  25.229  1.00  0.00    -0.461 OA
BRANCH   2   3
ATOM      3  C   UNL A   1      34.446  22.354  26.025  1.00  0.00     0.328 C 
ATOM      4  O   UNL A   1      34.789  22.716  27.145  1.00  0.00    -0.250 OA
BRANCH   3   5
ATOM      5  C   UNL A   1      33.118  22.779  25.391  1.00  0.00     0.192 C 
BRANCH   5   6
ATOM      6  N   UNL A   1      32.893  22.424  23.993  1.00  0.00    -0.342 N 
ATOM      7  C   UNL A   1      33.256  23.098  22.862  1.00  0.00     0.225 C 
ATOM      8  O   UNL A   1      32.816  22.696  21.783  1.00  0.00    -0.275 OA
ATOM      9  H   UNL A   1      32.413  21.577  23.843  1.00  0.00     0.164 HD
BRANCH   7  10
ATOM     10  C   UNL A   1      34.170  24.319  22.949  1.00  0.00     0.143 C 
BRANCH  10  11
ATOM     11  C   UNL A   1      33.459  25.578  23.378  1.00  0.00     0.051 A 
ATOM     12  C   UNL A   1      28.546  32.423  23.578  1.00  0.00     0.088 C 
ATOM     13  C   UNL A   1      29.214  31.108  23.517  1.00  0.00     0.105 A 
ATOM     14  O   UNL A   1      29.959  30.759  24.604  1.00  0.00    -0.461 OA
ATOM     15  C   UNL A   1      29.300  30.139  22.536  1.00  0.00    -0.002 A 
ATOM     16  C   UNL A   1      30.600  29.595  24.298  1.00  0.00     0.141 A 
ATOM     17  C   UNL A   1      30.222  29.177  23.032  1.00  0.00     0.025 A 
ATOM     18  C   UNL A   1      28.661  30.112  21.199  1.00  0.00     0.049 C 
ATOM     19  C   UNL A   1      31.524  28.931  25.110  1.00  0.00     0.036 A 
ATOM     20  C   UNL A   1      30.796  28.013  22.498  1.00  0.00     0.024 A 
ATOM     21  C   UNL A   1      31.876  29.407  26.483  1.00  0.00     0.052 C 
ATOM     22  C   UNL A   1      32.127  27.815  24.487  1.00  0.00     0.145 A 
ATOM     23  C   UNL A   1      31.801  27.349  23.209  1.00  0.00     0.022 A 
ATOM     24  O   UNL A   1      33.144  27.173  25.218  1.00  0.00    -0.422 OA
ATOM     25  C   UNL A   1      32.511  26.190  22.642  1.00  0.00    -0.029 A 
ATOM     26  C   UNL A   1      33.897  26.146  24.683  1.00  0.00     0.340 A 
ATOM     27  C   UNL A   1      32.156  25.754  21.240  1.00  0.00     0.046 C 
ATOM     28  O   UNL A   1      34.853  25.702  25.307  1.00  0.00    -0.246 OA
ENDBRANCH  10  11
ENDBRANCH   7  10
ENDBRANCH   5   6
BRANCH   5  29
ATOM     29  C   UNL A   1      31.917  22.357  26.257  1.00  0.00     0.040 C 
BRANCH  29  30
ATOM     30  C   UNL A   1      30.963  23.480  26.724  1.00  0.00    -0.015 C 
ATOM     31  C   UNL A   1      30.717  24.555  25.666  1.00  0.00     0.007 C 
ATOM     32  C   UNL A   1      29.624  22.863  27.141  1.00  0.00     0.007 C 
ENDBRANCH  29  30
ENDBRANCH   5  29
ENDBRANCH   3   5
ENDBRANCH   2   3
ENDBRANCH   1   2
BRANCH   1  33
ATOM     33  C   UNL A   1      37.584  21.569  25.495  1.00  0.00     0.275 C 
BRANCH  33  34
ATOM     34  O   UNL A   1      38.189  22.633  26.251  1.00  0.00    -0.458 OA
BRANCH  34  35
ATOM     35  C   UNL A   1      39.461  22.362  26.610  1.00  0.00     0.338 C 
ATOM     36  O   UNL A   1      40.011  21.258  26.564  1.00  0.00    -0.246 OA
BRANCH  35  37
ATOM     37  C   UNL A   1      40.186  23.530  27.106  1.00  0.00     0.060 A 
ATOM     38  C   UNL A   1      39.504  24.567  27.743  1.00  0.00     0.016 A 
ATOM     39  C   UNL A   1      41.492  23.709  26.641  1.00  0.00     0.016 A 
ATOM     40  C   UNL A   1      40.085  25.838  27.773  1.00  0.00     0.010 A 
ATOM     41  C   UNL A   1      42.079  24.966  26.710  1.00  0.00     0.010 A 
ATOM     42  C   UNL A   1      41.349  26.053  27.207  1.00  0.00    -0.014 A 
BRANCH  42  43
ATOM     43  C   UNL A   1      41.929  27.408  27.265  1.00  0.00     0.031 A 
ATOM     44  C   UNL A   1      40.887  28.435  27.527  1.00  0.00     0.074 A 
ATOM     45  C   UNL A   1      43.196  27.684  27.652  1.00  0.00     0.049 A 
ATOM     46  N   UNL A   1      40.344  28.536  28.703  1.00  0.00    -0.248 NA
ATOM     47  C   UNL A   1      40.191  29.177  26.481  1.00  0.00     0.031 C 
ATOM     48  C   UNL A   1      44.048  26.767  28.420  1.00  0.00     0.029 A 
ATOM     49  N   UNL A   1      43.896  28.875  27.660  1.00  0.00    -0.354 N 
ATOM     50  C   UNL A   1      39.206  29.293  28.563  1.00  0.00     0.074 A 
ATOM     51  C   UNL A   1      39.158  29.690  27.171  1.00  0.00     0.031 C 
ATOM     52  C   UNL A   1      45.042  27.477  28.992  1.00  0.00     0.029 A 
ATOM     53  C   UNL A   1      45.005  28.857  28.510  1.00  0.00     0.049 A 
ATOM     54  H   UNL A   1      43.638  29.658  27.121  1.00  0.00     0.167 HD
ATOM     55  C   UNL A   1      38.366  29.521  29.603  1.00  0.00     0.037 A 
ATOM     56  C   UNL A   1      45.457  29.916  29.242  1.00  0.00     0.037 A 
ATOM     57  C   UNL A   1      38.750  28.931  30.853  1.00  0.00     0.049 A 
ATOM     58  C   UNL A   1      44.304  30.154  30.184  1.00  0.00     0.074 A 
ATOM     59  C   UNL A   1      38.505  27.755  31.530  1.00  0.00     0.029 A 
ATOM     60  N   UNL A   1      39.687  29.587  31.618  1.00  0.00    -0.354 N 
ATOM     61  N   UNL A   1      44.045  29.485  31.275  1.00  0.00    -0.248 NA
ATOM     62  C   UNL A   1      43.199  30.984  29.699  1.00  0.00     0.031 C 
ATOM     63  C   UNL A   1      39.628  27.572  32.399  1.00  0.00     0.029 A 
ATOM     64  C   UNL A   1      40.507  28.623  32.153  1.00  0.00     0.049 A 
ATOM     65  H   UNL A   1      39.755  30.559  31.756  1.00  0.00     0.167 HD
ATOM     66  C   UNL A   1      42.666  29.604  31.463  1.00  0.00     0.074 A 
ATOM     67  C   UNL A   1      42.213  30.562  30.476  1.00  0.00     0.031 C 
ATOM     68  C   UNL A   1      41.939  28.792  32.283  1.00  0.00     0.037 A 
BRANCH  55  69
ATOM     69  C   UNL A   1      37.222  30.443  29.549  1.00  0.00     0.058 A 
ATOM     70  C   UNL A   1      36.135  30.085  28.739  1.00  0.00     0.135 A 
ATOM     71  C   UNL A   1      37.264  31.731  30.088  1.00  0.00     0.135 A 
ATOM     72  F   UNL A   1      36.074  28.853  28.204  1.00  0.00    -0.206 F 
ATOM     73  C   UNL A   1      35.147  30.998  28.416  1.00  0.00     0.059 A 
ATOM     74  C   UNL A   1      36.277  32.664  29.783  1.00  0.00     0.059 A 
ATOM     75  F   UNL A   1      38.289  32.108  30.870  1.00  0.00    -0.206 F 
ATOM     76  C   UNL A   1      35.240  32.294  28.921  1.00  0.00     0.060 A 
BRANCH  76  77
ATOM     77  S   UNL A   1      34.015  33.499  28.373  1.00  0.00     0.124 S 
ATOM     78  O   UNL A   1      34.814  34.362  27.507  1.00  0.00    -0.237 OA
ATOM     79  O   UNL A   1      33.039  32.650  27.700  1.00  0.00    -0.237 OA
ATOM     80  O   UNL A   1      33.560  34.110  29.618  1.00  0.00    -0.744 OA
ENDBRANCH  76  77
ENDBRANCH  55  69
BRANCH  56  81
ATOM     81  C   UNL A   1      46.122  31.030  28.484  1.00  0.00     0.058 A 
ATOM     82  C   UNL A   1      47.255  31.658  29.044  1.00  0.00     0.135 A 
ATOM     83  C   UNL A   1      45.695  31.535  27.244  1.00  0.00     0.135 A 
ATOM     84  F   UNL A   1      47.659  31.348  30.287  1.00  0.00    -0.206 F 
ATOM     85  C   UNL A   1      48.004  32.609  28.351  1.00  0.00     0.059 A 
ATOM     86  C   UNL A   1      46.442  32.465  26.517  1.00  0.00     0.059 A 
ATOM     87  F   UNL A   1      44.545  31.128  26.690  1.00  0.00    -0.206 F 
ATOM     88  C   UNL A   1      47.613  32.973  27.066  1.00  0.00     0.060 A 
BRANCH  88  89
ATOM     89  S   UNL A   1      48.690  34.063  26.111  1.00  0.00     0.124 S 
ATOM     90  O   UNL A   1      49.181  34.976  27.135  1.00  0.00    -0.237 OA
ATOM     91  O   UNL A   1      49.669  33.122  25.575  1.00  0.00    -0.237 OA
ATOM     92  O   UNL A   1      47.788  34.647  25.123  1.00  0.00    -0.744 OA
ENDBRANCH  88  89
ENDBRANCH  56  81
BRANCH  68  93
ATOM     93  C   UNL A   1      42.718  27.881  33.171  1.00  0.00     0.058 A 
ATOM     94  C   UNL A   1      42.797  28.141  34.545  1.00  0.00     0.135 A 
ATOM     95  C   UNL A   1      43.315  26.704  32.690  1.00  0.00     0.135 A 
ATOM     96  F   UNL A   1      42.238  29.251  35.058  1.00  0.00    -0.206 F 
ATOM     97  C   UNL A   1      43.403  27.246  35.420  1.00  0.00     0.059 A 
ATOM     98  C   UNL A   1      43.909  25.784  33.550  1.00  0.00     0.059 A 
ATOM     99  F   UNL A   1      43.290  26.410  31.379  1.00  0.00    -0.206 F 
ATOM    100  C   UNL A   1      43.935  26.058  34.917  1.00  0.00     0.060 A 
BRANCH 100 101
ATOM    101  S   UNL A   1      44.578  24.841  36.085  1.00  0.00     0.124 S 
ATOM    102  O   UNL A   1      43.770  25.097  37.272  1.00  0.00    -0.237 OA
ATOM    103  O   UNL A   1      44.312  23.580  35.398  1.00  0.00    -0.237 OA
ATOM    104  O   UNL A   1      45.992  25.190  36.202  1.00  0.00    -0.744 OA
ENDBRANCH 100 101
ENDBRANCH  68  93
ENDBRANCH  42  43
ENDBRANCH  35  37
ENDBRANCH  34  35
ENDBRANCH  33  34
ENDBRANCH   1  33
TORSDOF 19
ENDMDL
MODEL 2
REMARK VINA RESULT:     -12.2      1.338      2.040
REMARK SMILES Cc1oc2c(C)c3oc(=O)c(CC(=O)N[C@@H](CC(C)C)C(=O)OCCOC(=O)c4ccc(-c5c6nc(c(-c7c(F)cc(S(=O)(=O)[O-])cc7F)c7ccc([nH]7)c(-c7c(F)cc(S(=O)(=O)[O-])cc7F)c7nc(c(-c8c(F)cc(S(=O)(=O)[O-])cc8F)c8ccc5[nH]8)C=C7)C=C6)cc4)c(C)c3cc2c1C
REMARK SMILES IDX 24 1 23 2 21 3 22 4 16 5 15 6 13 7 14 8 12 10 11 11 1 12
REMARK SMILES IDX 2 13 3 14 100 15 4 16 99 17 101 18 5 19 98 20 6 21 7 22
REMARK SMILES IDX 97 23 8 24 95 25 9 26 96 27 10 28 17 29 18 30 19 31 20 32
REMARK SMILES IDX 25 33 26 34 27 35 28 36 29 37 30 38 94 39 31 40 93 41 32 42
REMARK SMILES IDX 33 43 34 44 87 45 35 46 92 47 86 48 88 49 36 50 91 51 85 52
REMARK SMILES IDX 84 53 37 55 71 56 50 57 70 58 51 59 54 60 69 61 89 62 52 63
REMARK SMILES IDX 53 64 68 66 90 67 55 68 38 69 39 70 48 71 40 72 41 73 47 74
REMARK SMILES IDX 49 75 42 76 43 77 44 78 45 79 46 80 72 81 73 82 82 83 74 84
REMARK SMILES IDX 75 85 81 86 83 87 76 88 77 89 78 90 79 91 80 92 56 93 57 94
REMARK SMILES IDX 66 95 58 96 59 97 65 98 67 99 60 100 61 101 62 102 63 103
REMARK SMILES IDX 64 104
REMARK H PARENT 15 9 88 54 54 65
REMARK Flexibility Score: inf
ROOT
ATOM      1  C   UNL A   1      37.231  23.164  25.679  1.00  0.00     0.274 C 
ENDROOT
BRANCH   1   2
ATOM      2  O   UNL A   1      36.793  21.821  25.943  1.00  0.00    -0.461 OA
BRANCH   2   3
ATOM      3  C   UNL A   1      35.469  21.675  26.207  1.00  0.00     0.328 C 
ATOM      4  O   UNL A   1      34.943  21.889  27.293  1.00  0.00    -0.250 OA
BRANCH   3   5
ATOM      5  C   UNL A   1      34.686  21.154  24.998  1.00  0.00     0.192 C 
BRANCH   5   6
ATOM      6  N   UNL A   1      34.635  22.002  23.811  1.00  0.00    -0.342 N 
ATOM      7  C   UNL A   1      33.695  22.923  23.447  1.00  0.00     0.225 C 
ATOM      8  O   UNL A   1      33.765  23.407  22.317  1.00  0.00    -0.275 OA
ATOM      9  H   UNL A   1      35.385  21.895  23.182  1.00  0.00     0.164 HD
BRANCH   7  10
ATOM     10  C   UNL A   1      32.587  23.323  24.421  1.00  0.00     0.143 C 
BRANCH  10  11
ATOM     11  C   UNL A   1      32.284  24.800  24.420  1.00  0.00     0.051 A 
ATOM     12  C   UNL A   1      28.701  32.321  23.139  1.00  0.00     0.088 C 
ATOM     13  C   UNL A   1      29.139  30.951  23.473  1.00  0.00     0.105 A 
ATOM     14  O   UNL A   1      30.281  30.845  24.211  1.00  0.00    -0.461 OA
ATOM     15  C   UNL A   1      28.656  29.700  23.140  1.00  0.00    -0.002 A 
ATOM     16  C   UNL A   1      30.589  29.519  24.289  1.00  0.00     0.141 A 
ATOM     17  C   UNL A   1      29.613  28.777  23.643  1.00  0.00     0.025 A 
ATOM     18  C   UNL A   1      27.453  29.350  22.348  1.00  0.00     0.049 C 
ATOM     19  C   UNL A   1      31.727  28.978  24.894  1.00  0.00     0.036 A 
ATOM     20  C   UNL A   1      29.754  27.383  23.569  1.00  0.00     0.024 A 
ATOM     21  C   UNL A   1      32.737  29.820  25.606  1.00  0.00     0.052 C 
ATOM     22  C   UNL A   1      31.855  27.582  24.716  1.00  0.00     0.145 A 
ATOM     23  C   UNL A   1      30.913  26.778  24.063  1.00  0.00     0.022 A 
ATOM     24  O   UNL A   1      33.036  27.000  25.211  1.00  0.00    -0.422 OA
ATOM     25  C   UNL A   1      31.157  25.333  23.908  1.00  0.00    -0.029 A 
ATOM     26  C   UNL A   1      33.344  25.670  25.001  1.00  0.00     0.340 A 
ATOM     27  C   UNL A   1      30.134  24.516  23.156  1.00  0.00     0.046 C 
ATOM     28  O   UNL A   1      34.439  25.237  25.339  1.00  0.00    -0.246 OA
ENDBRANCH  10  11
ENDBRANCH   7  10
ENDBRANCH   5   6
BRANCH   5  29
ATOM     29  C   UNL A   1      35.109  19.721  24.624  1.00  0.00     0.040 C 
BRANCH  29  30
ATOM     30  C   UNL A   1      33.998  18.646  24.612  1.00  0.00    -0.015 C 
ATOM     31  C   UNL A   1      32.711  19.101  23.927  1.00  0.00     0.007 C 
ATOM     32  C   UNL A   1      34.525  17.386  23.917  1.00  0.00     0.007 C 
ENDBRANCH  29  30
ENDBRANCH   5  29
ENDBRANCH   3   5
ENDBRANCH   2   3
ENDBRANCH   1   2
BRANCH   1  33
ATOM     33  C   UNL A   1      38.699  23.344  26.060  1.00  0.00     0.275 C 
BRANCH  33  34
ATOM     34  O   UNL A   1      39.090  22.482  27.144  1.00  0.00    -0.458 OA
BRANCH  34  35
ATOM     35  C   UNL A   1      40.404  22.182  27.125  1.00  0.00     0.338 C 
ATOM     36  O   UNL A   1      40.896  21.076  26.881  1.00  0.00    -0.246 OA
BRANCH  35  37
ATOM     37  C   UNL A   1      41.265  23.317  27.452  1.00  0.00     0.060 A 
ATOM     38  C   UNL A   1      40.884  24.233  28.435  1.00  0.00     0.016 A 
ATOM     39  C   UNL A   1      42.284  23.621  26.547  1.00  0.00     0.016 A 
ATOM     40  C   UNL A   1      41.429  25.519  28.405  1.00  0.00     0.010 A 
ATOM     41  C   UNL A   1      42.850  24.890  26.548  1.00  0.00     0.010 A 
ATOM     42  C   UNL A   1      42.371  25.867  27.429  1.00  0.00    -0.014 A 
BRANCH  42  43
ATOM     43  C   UNL A   1      42.926  27.235  27.437  1.00  0.00     0.031 A 
ATOM     44  C   UNL A   1      41.851  28.259  27.384  1.00  0.00     0.074 A 
ATOM     45  C   UNL A   1      44.099  27.583  28.015  1.00  0.00     0.049 A 
ATOM     46  N   UNL A   1      41.100  28.476  28.422  1.00  0.00    -0.248 NA
ATOM     47  C   UNL A   1      41.357  28.862  26.151  1.00  0.00     0.031 C 
ATOM     48  C   UNL A   1      44.798  26.778  29.025  1.00  0.00     0.029 A 
ATOM     49  N   UNL A   1      44.782  28.784  28.015  1.00  0.00    -0.354 N 
ATOM     50  C   UNL A   1      40.004  29.186  27.991  1.00  0.00     0.074 A 
ATOM     51  C   UNL A   1      40.212  29.424  26.578  1.00  0.00     0.031 C 
ATOM     52  C   UNL A   1      45.667  27.572  29.684  1.00  0.00     0.029 A 
ATOM     53  C   UNL A   1      45.715  28.888  29.050  1.00  0.00     0.049 A 
ATOM     54  H   UNL A   1      44.625  29.495  27.352  1.00  0.00     0.167 HD
ATOM     55  C   UNL A   1      38.986  29.508  28.827  1.00  0.00     0.037 A 
ATOM     56  C   UNL A   1      46.021  30.033  29.726  1.00  0.00     0.037 A 
ATOM     57  C   UNL A   1      39.135  29.070  30.185  1.00  0.00     0.049 A 
ATOM     58  C   UNL A   1      44.713  30.346  30.408  1.00  0.00     0.074 A 
ATOM     59  C   UNL A   1      38.773  27.971  30.935  1.00  0.00     0.029 A 
ATOM     60  N   UNL A   1      39.913  29.830  31.029  1.00  0.00    -0.354 N 
ATOM     61  N   UNL A   1      44.259  29.796  31.503  1.00  0.00    -0.248 NA
ATOM     62  C   UNL A   1      43.713  31.090  29.638  1.00  0.00     0.031 C 
ATOM     63  C   UNL A   1      39.717  27.914  32.011  1.00  0.00     0.029 A 
ATOM     64  C   UNL A   1      40.623  28.952  31.811  1.00  0.00     0.049 A 
ATOM     65  H   UNL A   1      39.951  30.813  31.065  1.00  0.00     0.167 HD
ATOM     66  C   UNL A   1      42.869  29.902  31.420  1.00  0.00     0.074 A 
ATOM     67  C   UNL A   1      42.602  30.733  30.265  1.00  0.00     0.031 C 
ATOM     68  C   UNL A   1      42.005  29.169  32.181  1.00  0.00     0.037 A 
BRANCH  55  69
ATOM     69  C   UNL A   1      37.869  30.390  28.460  1.00  0.00     0.058 A 
ATOM     70  C   UNL A   1      37.969  31.745  28.803  1.00  0.00     0.135 A 
ATOM     71  C   UNL A   1      36.646  29.904  27.990  1.00  0.00     0.135 A 
ATOM     72  F   UNL A   1      39.134  32.236  29.263  1.00  0.00    -0.206 F 
ATOM     73  C   UNL A   1      36.872  32.587  28.744  1.00  0.00     0.059 A 
ATOM     74  C   UNL A   1      35.530  30.733  27.916  1.00  0.00     0.059 A 
ATOM     75  F   UNL A   1      36.514  28.611  27.652  1.00  0.00    -0.206 F 
ATOM     76  C   UNL A   1      35.649  32.064  28.324  1.00  0.00     0.060 A 
BRANCH  76  77
ATOM     77  S   UNL A   1      34.208  33.147  28.389  1.00  0.00     0.124 S 
ATOM     78  O   UNL A   1      33.178  32.308  27.782  1.00  0.00    -0.237 OA
ATOM     79  O   UNL A   1      34.073  33.382  29.822  1.00  0.00    -0.237 OA
ATOM     80  O   UNL A   1      34.617  34.305  27.602  1.00  0.00    -0.744 OA
ENDBRANCH  76  77
ENDBRANCH  55  69
BRANCH  56  81
ATOM     81  C   UNL A   1      46.811  31.070  28.981  1.00  0.00     0.058 A 
ATOM     82  C   UNL A   1      47.693  30.658  27.960  1.00  0.00     0.135 A 
ATOM     83  C   UNL A   1      46.769  32.454  29.229  1.00  0.00     0.135 A 
ATOM     84  F   UNL A   1      47.914  29.351  27.740  1.00  0.00    -0.206 F 
ATOM     85  C   UNL A   1      48.365  31.563  27.139  1.00  0.00     0.059 A 
ATOM     86  C   UNL A   1      47.408  33.382  28.404  1.00  0.00     0.059 A 
ATOM     87  F   UNL A   1      46.091  32.949  30.273  1.00  0.00    -0.206 F 
ATOM     88  C   UNL A   1      48.178  32.927  27.341  1.00  0.00     0.060 A 
BRANCH  88  89
ATOM     89  S   UNL A   1      48.904  34.083  26.159  1.00  0.00     0.124 S 
ATOM     90  O   UNL A   1      49.883  33.244  25.478  1.00  0.00    -0.237 OA
ATOM     91  O   UNL A   1      47.741  34.473  25.368  1.00  0.00    -0.237 OA
ATOM     92  O   UNL A   1      49.455  35.134  27.009  1.00  0.00    -0.744 OA
ENDBRANCH  88  89
ENDBRANCH  56  81
BRANCH  68  93
ATOM     93  C   UNL A   1      42.610  28.382  33.294  1.00  0.00     0.058 A 
ATOM     94  C   UNL A   1      42.523  28.851  34.611  1.00  0.00     0.135 A 
ATOM     95  C   UNL A   1      43.199  27.124  33.082  1.00  0.00     0.135 A 
ATOM     96  F   UNL A   1      41.965  30.046  34.870  1.00  0.00    -0.206 F 
ATOM     97  C   UNL A   1      42.960  28.084  35.686  1.00  0.00     0.059 A 
ATOM     98  C   UNL A   1      43.623  26.330  34.145  1.00  0.00     0.059 A 
ATOM     99  F   UNL A   1      43.329  26.630  31.840  1.00  0.00    -0.206 F 
ATOM    100  C   UNL A   1      43.487  26.814  35.445  1.00  0.00     0.060 A 
BRANCH 100 101
ATOM    101  S   UNL A   1      43.903  25.774  36.860  1.00  0.00     0.124 S 
ATOM    102  O   UNL A   1      43.243  26.469  37.959  1.00  0.00    -0.237 OA
ATOM    103  O   UNL A   1      43.321  24.489  36.483  1.00  0.00    -0.237 OA
ATOM    104  O   UNL A   1      45.364  25.800  36.889  1.00  0.00    -0.744 OA
ENDBRANCH 100 101
ENDBRANCH  68  93
ENDBRANCH  42  43
ENDBRANCH  35  37
ENDBRANCH  34  35
ENDBRANCH  33  34
ENDBRANCH   1  33
TORSDOF 19
ENDMDL
MODEL 3
REMARK VINA RESULT:     -12.1      1.828      3.085
REMARK SMILES Cc1oc2c(C)c3oc(=O)c(CC(=O)N[C@@H](CC(C)C)C(=O)OCCOC(=O)c4ccc(-c5c6nc(c(-c7c(F)cc(S(=O)(=O)[O-])cc7F)c7ccc([nH]7)c(-c7c(F)cc(S(=O)(=O)[O-])cc7F)c7nc(c(-c8c(F)cc(S(=O)(=O)[O-])cc8F)c8ccc5[nH]8)C=C7)C=C6)cc4)c(C)c3cc2c1C
REMARK SMILES IDX 24 1 23 2 21 3 22 4 16 5 15 6 13 7 14 8 12 10 11 11 1 12
REMARK SMILES IDX 2 13 3 14 100 15 4 16 99 17 101 18 5 19 98 20 6 21 7 22
REMARK SMILES IDX 97 23 8 24 95 25 9 26 96 27 10 28 17 29 18 30 19 31 20 32
REMARK SMILES IDX 25 33 26 34 27 35 28 36 29 37 30 38 94 39 31 40 93 41 32 42
REMARK SMILES IDX 33 43 34 44 87 45 35 46 92 47 86 48 88 49 36 50 91 51 85 52
REMARK SMILES IDX 84 53 37 55 71 56 50 57 70 58 51 59 54 60 69 61 89 62 52 63
REMARK SMILES IDX 53 64 68 66 90 67 55 68 38 69 39 70 48 71 40 72 41 73 47 74
REMARK SMILES IDX 49 75 42 76 43 77 44 78 45 79 46 80 72 81 73 82 82 83 74 84
REMARK SMILES IDX 75 85 81 86 83 87 76 88 77 89 78 90 79 91 80 92 56 93 57 94
REMARK SMILES IDX 66 95 58 96 59 97 65 98 67 99 60 100 61 101 62 102 63 103
REMARK SMILES IDX 64 104
REMARK H PARENT 15 9 88 54 54 65
REMARK Flexibility Score: inf
ROOT
ATOM      1  C   UNL A   1      36.577  21.933  24.984  1.00  0.00     0.274 C 
ENDROOT
BRANCH   1   2
ATOM      2  O   UNL A   1      35.713  20.790  25.091  1.00  0.00    -0.461 OA
BRANCH   2   3
ATOM      3  C   UNL A   1      34.487  21.027  25.622  1.00  0.00     0.328 C 
ATOM      4  O   UNL A   1      34.260  21.191  26.816  1.00  0.00    -0.250 OA
BRANCH   3   5
ATOM      5  C   UNL A   1      33.379  21.019  24.565  1.00  0.00     0.192 C 
BRANCH   5   6
ATOM      6  N   UNL A   1      33.460  22.009  23.495  1.00  0.00    -0.342 N 
ATOM      7  C   UNL A   1      32.686  23.113  23.279  1.00  0.00     0.225 C 
ATOM      8  O   UNL A   1      32.827  23.720  22.216  1.00  0.00    -0.275 OA
ATOM      9  H   UNL A   1      34.175  21.860  22.835  1.00  0.00     0.164 HD
BRANCH   7  10
ATOM     10  C   UNL A   1      31.672  23.564  24.330  1.00  0.00     0.143 C 
BRANCH  10  11
ATOM     11  C   UNL A   1      31.807  25.016  24.717  1.00  0.00     0.051 A 
ATOM     12  C   UNL A   1      34.474  32.285  28.045  1.00  0.00     0.088 C 
ATOM     13  C   UNL A   1      34.206  31.008  27.355  1.00  0.00     0.105 A 
ATOM     14  O   UNL A   1      33.111  30.979  26.543  1.00  0.00    -0.461 OA
ATOM     15  C   UNL A   1      34.814  29.768  27.397  1.00  0.00    -0.002 A 
ATOM     16  C   UNL A   1      32.956  29.692  26.119  1.00  0.00     0.141 A 
ATOM     17  C   UNL A   1      33.985  28.912  26.622  1.00  0.00     0.025 A 
ATOM     18  C   UNL A   1      36.019  29.350  28.152  1.00  0.00     0.049 C 
ATOM     19  C   UNL A   1      31.909  29.212  25.329  1.00  0.00     0.036 A 
ATOM     20  C   UNL A   1      33.999  27.538  26.339  1.00  0.00     0.024 A 
ATOM     21  C   UNL A   1      30.837  30.102  24.785  1.00  0.00     0.052 C 
ATOM     22  C   UNL A   1      31.932  27.810  25.147  1.00  0.00     0.145 A 
ATOM     23  C   UNL A   1      32.933  26.965  25.638  1.00  0.00     0.022 A 
ATOM     24  O   UNL A   1      30.842  27.258  24.449  1.00  0.00    -0.422 OA
ATOM     25  C   UNL A   1      32.847  25.511  25.415  1.00  0.00    -0.029 A 
ATOM     26  C   UNL A   1      30.678  25.894  24.304  1.00  0.00     0.340 A 
ATOM     27  C   UNL A   1      33.928  24.636  26.005  1.00  0.00     0.046 C 
ATOM     28  O   UNL A   1      29.651  25.454  23.800  1.00  0.00    -0.246 OA
ENDBRANCH  10  11
ENDBRANCH   7  10
ENDBRANCH   5   6
BRANCH   5  29
ATOM     29  C   UNL A   1      33.159  19.610  23.985  1.00  0.00     0.040 C 
BRANCH  29  30
ATOM     30  C   UNL A   1      33.585  18.417  24.870  1.00  0.00    -0.015 C 
ATOM     31  C   UNL A   1      32.416  17.554  25.342  1.00  0.00     0.007 C 
ATOM     32  C   UNL A   1      34.579  17.544  24.095  1.00  0.00     0.007 C 
ENDBRANCH  29  30
ENDBRANCH   5  29
ENDBRANCH   3   5
ENDBRANCH   2   3
ENDBRANCH   1   2
BRANCH   1  33
ATOM     33  C   UNL A   1      37.911  21.678  25.684  1.00  0.00     0.275 C 
BRANCH  33  34
ATOM     34  O   UNL A   1      38.619  22.898  25.966  1.00  0.00    -0.458 OA
BRANCH  34  35
ATOM     35  C   UNL A   1      39.525  22.760  26.956  1.00  0.00     0.338 C 
ATOM     36  O   UNL A   1      39.947  21.695  27.414  1.00  0.00    -0.246 OA
BRANCH  35  37
ATOM     37  C   UNL A   1      39.990  24.035  27.500  1.00  0.00     0.060 A 
ATOM     38  C   UNL A   1      39.295  25.215  27.227  1.00  0.00     0.016 A 
ATOM     39  C   UNL A   1      41.291  24.070  28.007  1.00  0.00     0.016 A 
ATOM     40  C   UNL A   1      39.973  26.433  27.323  1.00  0.00     0.010 A 
ATOM     41  C   UNL A   1      41.945  25.288  28.138  1.00  0.00     0.010 A 
ATOM     42  C   UNL A   1      41.315  26.468  27.724  1.00  0.00    -0.014 A 
BRANCH  42  43
ATOM     43  C   UNL A   1      41.992  27.776  27.818  1.00  0.00     0.031 A 
ATOM     44  C   UNL A   1      41.100  28.810  28.405  1.00  0.00     0.074 A 
ATOM     45  C   UNL A   1      43.327  27.940  27.965  1.00  0.00     0.049 A 
ATOM     46  N   UNL A   1      40.810  28.785  29.671  1.00  0.00    -0.248 NA
ATOM     47  C   UNL A   1      40.266  29.711  27.617  1.00  0.00     0.031 C 
ATOM     48  C   UNL A   1      44.246  26.892  28.430  1.00  0.00     0.029 A 
ATOM     49  N   UNL A   1      44.100  29.085  27.967  1.00  0.00    -0.354 N 
ATOM     50  C   UNL A   1      39.724  29.607  29.857  1.00  0.00     0.074 A 
ATOM     51  C   UNL A   1      39.430  30.181  28.560  1.00  0.00     0.031 C 
ATOM     52  C   UNL A   1      45.382  27.476  28.863  1.00  0.00     0.029 A 
ATOM     53  C   UNL A   1      45.351  28.906  28.562  1.00  0.00     0.049 A 
ATOM     54  H   UNL A   1      43.797  29.942  27.586  1.00  0.00     0.167 HD
ATOM     55  C   UNL A   1      39.126  29.740  31.067  1.00  0.00     0.037 A 
ATOM     56  C   UNL A   1      46.014  29.841  29.302  1.00  0.00     0.037 A 
ATOM     57  C   UNL A   1      39.706  28.978  32.135  1.00  0.00     0.049 A 
ATOM     58  C   UNL A   1      45.092  30.011  30.482  1.00  0.00     0.074 A 
ATOM     59  C   UNL A   1      39.516  27.738  32.707  1.00  0.00     0.029 A 
ATOM     60  N   UNL A   1      40.822  29.485  32.761  1.00  0.00    -0.354 N 
ATOM     61  N   UNL A   1      45.006  29.220  31.519  1.00  0.00    -0.248 NA
ATOM     62  C   UNL A   1      43.975  30.947  30.335  1.00  0.00     0.031 C 
ATOM     63  C   UNL A   1      40.772  27.392  33.299  1.00  0.00     0.029 A 
ATOM     64  C   UNL A   1      41.660  28.423  33.000  1.00  0.00     0.049 A 
ATOM     65  H   UNL A   1      40.986  30.427  32.993  1.00  0.00     0.167 HD
ATOM     66  C   UNL A   1      43.704  29.380  31.999  1.00  0.00     0.074 A 
ATOM     67  C   UNL A   1      43.135  30.477  31.244  1.00  0.00     0.031 C 
ATOM     68  C   UNL A   1      43.097  28.505  32.852  1.00  0.00     0.037 A 
BRANCH  55  69
ATOM     69  C   UNL A   1      38.064  30.714  31.356  1.00  0.00     0.058 A 
ATOM     70  C   UNL A   1      38.451  32.018  31.697  1.00  0.00     0.135 A 
ATOM     71  C   UNL A   1      36.726  30.348  31.514  1.00  0.00     0.135 A 
ATOM     72  F   UNL A   1      39.735  32.394  31.560  1.00  0.00    -0.206 F 
ATOM     73  C   UNL A   1      37.552  32.918  32.242  1.00  0.00     0.059 A 
ATOM     74  C   UNL A   1      35.801  31.238  32.053  1.00  0.00     0.059 A 
ATOM     75  F   UNL A   1      36.318  29.108  31.196  1.00  0.00    -0.206 F 
ATOM     76  C   UNL A   1      36.233  32.509  32.441  1.00  0.00     0.060 A 
BRANCH  76  77
ATOM     77  S   UNL A   1      35.118  33.653  33.278  1.00  0.00     0.124 S 
ATOM     78  O   UNL A   1      35.427  33.395  34.682  1.00  0.00    -0.237 OA
ATOM     79  O   UNL A   1      35.561  34.941  32.756  1.00  0.00    -0.237 OA
ATOM     80  O   UNL A   1      33.796  33.221  32.838  1.00  0.00    -0.744 OA
ENDBRANCH  76  77
ENDBRANCH  55  69
BRANCH  56  81
ATOM     81  C   UNL A   1      46.595  31.009  28.558  1.00  0.00     0.058 A 
ATOM     82  C   UNL A   1      47.903  31.437  28.868  1.00  0.00     0.135 A 
ATOM     83  C   UNL A   1      45.929  31.752  27.568  1.00  0.00     0.135 A 
ATOM     84  F   UNL A   1      48.572  30.887  29.895  1.00  0.00    -0.206 F 
ATOM     85  C   UNL A   1      48.560  32.428  28.140  1.00  0.00     0.059 A 
ATOM     86  C   UNL A   1      46.573  32.728  26.804  1.00  0.00     0.059 A 
ATOM     87  F   UNL A   1      44.633  31.541  27.300  1.00  0.00    -0.206 F 
ATOM     88  C   UNL A   1      47.899  33.037  27.077  1.00  0.00     0.060 A 
BRANCH  88  89
ATOM     89  S   UNL A   1      48.820  34.182  26.028  1.00  0.00     0.124 S 
ATOM     90  O   UNL A   1      49.818  33.305  25.426  1.00  0.00    -0.237 OA
ATOM     91  O   UNL A   1      47.778  34.670  25.129  1.00  0.00    -0.237 OA
ATOM     92  O   UNL A   1      49.334  35.168  26.973  1.00  0.00    -0.744 OA
ENDBRANCH  88  89
ENDBRANCH  56  81
BRANCH  68  93
ATOM     93  C   UNL A   1      43.968  27.452  33.449  1.00  0.00     0.058 A 
ATOM     94  C   UNL A   1      44.482  27.619  34.742  1.00  0.00     0.135 A 
ATOM     95  C   UNL A   1      44.230  26.240  32.789  1.00  0.00     0.135 A 
ATOM     96  F   UNL A   1      44.257  28.758  35.419  1.00  0.00    -0.206 F 
ATOM     97  C   UNL A   1      45.188  26.604  35.379  1.00  0.00     0.059 A 
ATOM     98  C   UNL A   1      44.916  25.203  33.416  1.00  0.00     0.059 A 
ATOM     99  F   UNL A   1      43.781  26.030  31.541  1.00  0.00    -0.206 F 
ATOM    100  C   UNL A   1      45.380  25.390  34.718  1.00  0.00     0.060 A 
BRANCH 100 101
ATOM    101  S   UNL A   1      46.163  24.035  35.617  1.00  0.00     0.124 S 
ATOM    102  O   UNL A   1      47.043  24.745  36.538  1.00  0.00    -0.237 OA
ATOM    103  O   UNL A   1      45.017  23.364  36.226  1.00  0.00    -0.237 OA
ATOM    104  O   UNL A   1      46.836  23.270  34.570  1.00  0.00    -0.744 OA
ENDBRANCH 100 101
ENDBRANCH  68  93
ENDBRANCH  42  43
ENDBRANCH  35  37
ENDBRANCH  34  35
ENDBRANCH  33  34
ENDBRANCH   1  33
TORSDOF 19
ENDMDL
