MODEL 1
REMARK VINA RESULT:     -11.3      0.000      0.000
REMARK SMILES O=C(OCCOC(=O)c1cccnc1Nc1cccc(C(F)(F)F)c1)c1ccc(-c2c3nc(c(-c4c(F)cc(S(=O)(=O)[O-])cc4F)c4ccc([nH]4)c(-c4c(F)cc(S(=O)(=O)[O-])cc4F)c4nc(c(-c5c(F)cc(S(=O)(=O)[O-])cc5F)c5ccc2[nH]5)C=C4)C=C3)cc1
REMARK SMILES IDX 4 1 3 2 2 3 1 4 26 5 27 6 91 7 28 8 90 9 29 10 30 11 31 12
REMARK SMILES IDX 84 13 32 14 89 15 83 16 85 17 33 18 88 19 82 20 81 21 34 23
REMARK SMILES IDX 68 24 47 25 67 26 48 27 51 28 66 29 86 30 49 31 50 32 65 34
REMARK SMILES IDX 87 35 52 36 35 37 36 38 45 39 37 40 38 41 44 42 46 43 39 44
REMARK SMILES IDX 40 45 41 46 42 47 43 48 69 49 70 50 79 51 71 52 72 53 78 54
REMARK SMILES IDX 80 55 73 56 74 57 75 58 76 59 77 60 53 61 54 62 63 63 55 64
REMARK SMILES IDX 56 65 62 66 64 67 57 68 58 69 59 70 60 71 61 72 5 73 6 74
REMARK SMILES IDX 7 75 8 76 9 77 10 78 14 79 11 80 13 81 12 82 15 83 16 85
REMARK SMILES IDX 17 86 25 87 18 88 20 89 19 90 21 91 22 92 23 93 24 94
REMARK H PARENT 85 22 51 33 15 84
REMARK Flexibility Score: inf
ROOT
ATOM      1  C   UNL A   1      45.293  25.169  26.326  1.00  0.00     0.275 C 
ENDROOT
BRANCH   1   2
ATOM      2  O   UNL A   1      44.330  25.831  25.484  1.00  0.00    -0.458 OA
BRANCH   2   3
ATOM      3  C   UNL A   1      43.097  26.309  25.769  1.00  0.00     0.338 C 
ATOM      4  O   UNL A   1      42.285  26.436  24.854  1.00  0.00    -0.246 OA
BRANCH   3   5
ATOM      5  C   UNL A   1      42.716  26.847  27.108  1.00  0.00     0.060 A 
ATOM      6  C   UNL A   1      41.793  26.268  27.978  1.00  0.00     0.016 A 
ATOM      7  C   UNL A   1      43.313  28.062  27.488  1.00  0.00     0.016 A 
ATOM      8  C   UNL A   1      41.519  26.856  29.215  1.00  0.00     0.010 A 
ATOM      9  C   UNL A   1      43.065  28.644  28.730  1.00  0.00     0.010 A 
ATOM     10  C   UNL A   1      42.137  28.055  29.586  1.00  0.00    -0.014 A 
BRANCH  10  11
ATOM     11  C   UNL A   1      41.622  28.779  30.766  1.00  0.00     0.031 A 
ATOM     12  C   UNL A   1      42.391  28.662  32.050  1.00  0.00     0.074 A 
ATOM     13  C   UNL A   1      40.561  29.597  30.655  1.00  0.00     0.049 A 
ATOM     14  N   UNL A   1      42.270  29.357  33.148  1.00  0.00    -0.248 NA
ATOM     15  C   UNL A   1      43.456  27.643  32.096  1.00  0.00     0.031 C 
ATOM     16  C   UNL A   1      39.768  29.789  29.441  1.00  0.00     0.029 A 
ATOM     17  N   UNL A   1      39.981  30.436  31.569  1.00  0.00    -0.354 N 
ATOM     18  C   UNL A   1      43.265  28.887  33.998  1.00  0.00     0.074 A 
ATOM     19  C   UNL A   1      43.936  27.803  33.318  1.00  0.00     0.031 C 
ATOM     20  C   UNL A   1      38.799  30.687  29.685  1.00  0.00     0.029 A 
ATOM     21  C   UNL A   1      38.916  31.146  31.066  1.00  0.00     0.049 A 
ATOM     22  H   UNL A   1      40.295  30.521  32.497  1.00  0.00     0.167 HD
ATOM     23  C   UNL A   1      43.609  29.344  35.223  1.00  0.00     0.037 A 
ATOM     24  C   UNL A   1      38.148  32.083  31.654  1.00  0.00     0.037 A 
ATOM     25  C   UNL A   1      42.911  30.406  35.892  1.00  0.00     0.049 A 
ATOM     26  C   UNL A   1      38.506  32.530  33.047  1.00  0.00     0.074 A 
ATOM     27  C   UNL A   1      43.158  30.954  37.137  1.00  0.00     0.029 A 
ATOM     28  N   UNL A   1      41.810  31.070  35.368  1.00  0.00    -0.354 N 
ATOM     29  N   UNL A   1      39.497  32.129  33.811  1.00  0.00    -0.248 NA
ATOM     30  C   UNL A   1      37.671  33.579  33.645  1.00  0.00     0.031 C 
ATOM     31  C   UNL A   1      42.179  31.922  37.382  1.00  0.00     0.029 A 
ATOM     32  C   UNL A   1      41.351  32.010  36.272  1.00  0.00     0.049 A 
ATOM     33  H   UNL A   1      41.415  30.897  34.483  1.00  0.00     0.167 HD
ATOM     34  C   UNL A   1      39.430  32.905  34.962  1.00  0.00     0.074 A 
ATOM     35  C   UNL A   1      38.301  33.800  34.791  1.00  0.00     0.031 C 
ATOM     36  C   UNL A   1      40.231  32.892  36.057  1.00  0.00     0.037 A 
BRANCH  23  37
ATOM     37  C   UNL A   1      44.772  28.676  35.897  1.00  0.00     0.058 A 
ATOM     38  C   UNL A   1      46.094  29.101  35.674  1.00  0.00     0.135 A 
ATOM     39  C   UNL A   1      44.573  27.577  36.745  1.00  0.00     0.135 A 
ATOM     40  F   UNL A   1      46.343  30.131  34.850  1.00  0.00    -0.206 F 
ATOM     41  C   UNL A   1      47.178  28.436  36.240  1.00  0.00     0.059 A 
ATOM     42  C   UNL A   1      45.641  26.910  37.339  1.00  0.00     0.059 A 
ATOM     43  F   UNL A   1      43.332  27.123  36.982  1.00  0.00    -0.206 F 
ATOM     44  C   UNL A   1      46.940  27.336  37.064  1.00  0.00     0.060 A 
BRANCH  44  45
ATOM     45  S   UNL A   1      48.356  26.465  37.769  1.00  0.00     0.124 S 
ATOM     46  O   UNL A   1      47.743  25.206  38.186  1.00  0.00    -0.237 OA
ATOM     47  O   UNL A   1      49.268  26.378  36.633  1.00  0.00    -0.237 OA
ATOM     48  O   UNL A   1      48.789  27.342  38.852  1.00  0.00    -0.744 OA
ENDBRANCH  44  45
ENDBRANCH  23  37
BRANCH  24  49
ATOM     49  C   UNL A   1      37.010  32.692  30.915  1.00  0.00     0.058 A 
ATOM     50  C   UNL A   1      37.203  33.752  30.017  1.00  0.00     0.135 A 
ATOM     51  C   UNL A   1      35.699  32.218  31.089  1.00  0.00     0.135 A 
ATOM     52  F   UNL A   1      38.436  34.240  29.813  1.00  0.00    -0.206 F 
ATOM     53  C   UNL A   1      36.139  34.337  29.336  1.00  0.00     0.059 A 
ATOM     54  C   UNL A   1      34.622  32.772  30.405  1.00  0.00     0.059 A 
ATOM     55  F   UNL A   1      35.461  31.191  31.920  1.00  0.00    -0.206 F 
ATOM     56  C   UNL A   1      34.850  33.839  29.537  1.00  0.00     0.060 A 
BRANCH  56  57
ATOM     57  S   UNL A   1      33.481  34.577  28.617  1.00  0.00     0.124 S 
ATOM     58  O   UNL A   1      32.559  34.926  29.690  1.00  0.00    -0.237 OA
ATOM     59  O   UNL A   1      34.135  35.697  27.945  1.00  0.00    -0.237 OA
ATOM     60  O   UNL A   1      33.049  33.496  27.737  1.00  0.00    -0.744 OA
ENDBRANCH  56  57
ENDBRANCH  24  49
BRANCH  36  61
ATOM     61  C   UNL A   1      39.941  33.903  37.128  1.00  0.00     0.058 A 
ATOM     62  C   UNL A   1      39.171  33.581  38.257  1.00  0.00     0.135 A 
ATOM     63  C   UNL A   1      40.489  35.193  37.047  1.00  0.00     0.135 A 
ATOM     64  F   UNL A   1      38.624  32.362  38.377  1.00  0.00    -0.206 F 
ATOM     65  C   UNL A   1      38.932  34.515  39.258  1.00  0.00     0.059 A 
ATOM     66  C   UNL A   1      40.285  36.134  38.049  1.00  0.00     0.059 A 
ATOM     67  F   UNL A   1      41.243  35.542  35.993  1.00  0.00    -0.206 F 
ATOM     68  C   UNL A   1      39.493  35.789  39.145  1.00  0.00     0.060 A 
BRANCH  68  69
ATOM     69  S   UNL A   1      39.200  36.986  40.463  1.00  0.00     0.124 S 
ATOM     70  O   UNL A   1      40.556  37.218  40.952  1.00  0.00    -0.237 OA
ATOM     71  O   UNL A   1      38.585  38.099  39.747  1.00  0.00    -0.237 OA
ATOM     72  O   UNL A   1      38.315  36.271  41.377  1.00  0.00    -0.744 OA
ENDBRANCH  68  69
ENDBRANCH  36  61
ENDBRANCH  10  11
ENDBRANCH   3   5
ENDBRANCH   2   3
ENDBRANCH   1   2
BRANCH   1  73
ATOM     73  C   UNL A   1      45.234  23.641  26.310  1.00  0.00     0.275 C 
BRANCH  73  74
ATOM     74  O   UNL A   1      43.933  23.103  26.586  1.00  0.00    -0.458 OA
BRANCH  74  75
ATOM     75  C   UNL A   1      43.362  22.436  25.548  1.00  0.00     0.342 C 
ATOM     76  O   UNL A   1      43.096  22.912  24.457  1.00  0.00    -0.246 OA
BRANCH  75  77
ATOM     77  C   UNL A   1      43.196  21.010  25.887  1.00  0.00     0.102 A 
ATOM     78  C   UNL A   1      43.959  20.039  25.223  1.00  0.00     0.021 A 
ATOM     79  C   UNL A   1      42.267  20.616  26.862  1.00  0.00     0.144 A 
ATOM     80  C   UNL A   1      43.782  18.699  25.543  1.00  0.00     0.021 A 
ATOM     81  N   UNL A   1      42.119  19.304  27.179  1.00  0.00    -0.238 NA
ATOM     82  C   UNL A   1      42.855  18.384  26.516  1.00  0.00     0.113 A 
BRANCH  79  83
ATOM     83  N   UNL A   1      41.425  21.555  27.492  1.00  0.00    -0.340 N 
ATOM     84  H   UNL A   1      41.671  21.800  28.414  1.00  0.00     0.168 HD
BRANCH  83  85
ATOM     85  C   UNL A   1      40.283  22.184  26.977  1.00  0.00     0.040 A 
ATOM     86  C   UNL A   1      40.034  23.532  27.265  1.00  0.00     0.026 A 
ATOM     87  C   UNL A   1      39.402  21.503  26.134  1.00  0.00     0.039 A 
ATOM     88  C   UNL A   1      38.927  24.187  26.724  1.00  0.00     0.003 A 
ATOM     89  C   UNL A   1      38.249  22.128  25.637  1.00  0.00     0.058 A 
ATOM     90  C   UNL A   1      38.031  23.483  25.923  1.00  0.00     0.013 A 
BRANCH  89  91
ATOM     91  C   UNL A   1      37.231  21.348  24.851  1.00  0.00     0.416 C 
ATOM     92  F   UNL A   1      37.615  20.051  24.664  1.00  0.00    -0.166 F 
ATOM     93  F   UNL A   1      36.018  21.284  25.466  1.00  0.00    -0.166 F 
ATOM     94  F   UNL A   1      36.993  21.838  23.602  1.00  0.00    -0.166 F 
ENDBRANCH  89  91
ENDBRANCH  83  85
ENDBRANCH  79  83
ENDBRANCH  75  77
ENDBRANCH  74  75
ENDBRANCH  73  74
ENDBRANCH   1  73
TORSDOF 17
ENDMDL
MODEL 2
REMARK VINA RESULT:     -11.2      1.908      2.533
REMARK SMILES O=C(OCCOC(=O)c1cccnc1Nc1cccc(C(F)(F)F)c1)c1ccc(-c2c3nc(c(-c4c(F)cc(S(=O)(=O)[O-])cc4F)c4ccc([nH]4)c(-c4c(F)cc(S(=O)(=O)[O-])cc4F)c4nc(c(-c5c(F)cc(S(=O)(=O)[O-])cc5F)c5ccc2[nH]5)C=C4)C=C3)cc1
REMARK SMILES IDX 4 1 3 2 2 3 1 4 26 5 27 6 91 7 28 8 90 9 29 10 30 11 31 12
REMARK SMILES IDX 84 13 32 14 89 15 83 16 85 17 33 18 88 19 82 20 81 21 34 23
REMARK SMILES IDX 68 24 47 25 67 26 48 27 51 28 66 29 86 30 49 31 50 32 65 34
REMARK SMILES IDX 87 35 52 36 35 37 36 38 45 39 37 40 38 41 44 42 46 43 39 44
REMARK SMILES IDX 40 45 41 46 42 47 43 48 69 49 70 50 79 51 71 52 72 53 78 54
REMARK SMILES IDX 80 55 73 56 74 57 75 58 76 59 77 60 53 61 54 62 63 63 55 64
REMARK SMILES IDX 56 65 62 66 64 67 57 68 58 69 59 70 60 71 61 72 5 73 6 74
REMARK SMILES IDX 7 75 8 76 9 77 10 78 14 79 11 80 13 81 12 82 15 83 16 85
REMARK SMILES IDX 17 86 25 87 18 88 20 89 19 90 21 91 22 92 23 93 24 94
REMARK H PARENT 85 22 51 33 15 84
REMARK Flexibility Score: inf
ROOT
ATOM      1  C   UNL A   1      44.983  25.227  25.375  1.00  0.00     0.275 C 
ENDROOT
BRANCH   1   2
ATOM      2  O   UNL A   1      43.570  25.178  25.646  1.00  0.00    -0.458 OA
BRANCH   2   3
ATOM      3  C   UNL A   1      42.666  26.176  25.779  1.00  0.00     0.338 C 
ATOM      4  O   UNL A   1      42.277  26.761  24.768  1.00  0.00    -0.246 OA
BRANCH   3   5
ATOM      5  C   UNL A   1      42.235  26.721  27.099  1.00  0.00     0.060 A 
ATOM      6  C   UNL A   1      41.030  26.431  27.738  1.00  0.00     0.016 A 
ATOM      7  C   UNL A   1      43.108  27.636  27.714  1.00  0.00     0.016 A 
ATOM      8  C   UNL A   1      40.733  26.993  28.981  1.00  0.00     0.010 A 
ATOM      9  C   UNL A   1      42.832  28.184  28.966  1.00  0.00     0.010 A 
ATOM     10  C   UNL A   1      41.622  27.886  29.589  1.00  0.00    -0.014 A 
BRANCH  10  11
ATOM     11  C   UNL A   1      41.155  28.662  30.756  1.00  0.00     0.031 A 
ATOM     12  C   UNL A   1      41.916  28.517  32.042  1.00  0.00     0.074 A 
ATOM     13  C   UNL A   1      40.149  29.545  30.631  1.00  0.00     0.049 A 
ATOM     14  N   UNL A   1      41.841  29.237  33.129  1.00  0.00    -0.248 NA
ATOM     15  C   UNL A   1      42.913  27.433  32.106  1.00  0.00     0.031 C 
ATOM     16  C   UNL A   1      39.369  29.767  29.414  1.00  0.00     0.029 A 
ATOM     17  N   UNL A   1      39.625  30.434  31.531  1.00  0.00    -0.354 N 
ATOM     18  C   UNL A   1      42.805  28.718  33.986  1.00  0.00     0.074 A 
ATOM     19  C   UNL A   1      43.404  27.582  33.325  1.00  0.00     0.031 C 
ATOM     20  C   UNL A   1      38.460  30.730  29.642  1.00  0.00     0.029 A 
ATOM     21  C   UNL A   1      38.608  31.203  31.016  1.00  0.00     0.049 A 
ATOM     22  H   UNL A   1      39.944  30.515  32.458  1.00  0.00     0.167 HD
ATOM     23  C   UNL A   1      43.178  29.173  35.204  1.00  0.00     0.037 A 
ATOM     24  C   UNL A   1      37.902  32.197  31.588  1.00  0.00     0.037 A 
ATOM     25  C   UNL A   1      42.551  30.289  35.855  1.00  0.00     0.049 A 
ATOM     26  C   UNL A   1      38.289  32.644  32.973  1.00  0.00     0.074 A 
ATOM     27  C   UNL A   1      42.833  30.840  37.090  1.00  0.00     0.029 A 
ATOM     28  N   UNL A   1      41.494  31.013  35.319  1.00  0.00    -0.354 N 
ATOM     29  N   UNL A   1      39.253  32.192  33.745  1.00  0.00    -0.248 NA
ATOM     30  C   UNL A   1      37.524  33.754  33.553  1.00  0.00     0.031 C 
ATOM     31  C   UNL A   1      41.918  31.874  37.319  1.00  0.00     0.029 A 
ATOM     32  C   UNL A   1      41.097  31.996  36.207  1.00  0.00     0.049 A 
ATOM     33  H   UNL A   1      41.088  30.851  34.438  1.00  0.00     0.167 HD
ATOM     34  C   UNL A   1      39.237  32.991  34.881  1.00  0.00     0.074 A 
ATOM     35  C   UNL A   1      38.168  33.954  34.695  1.00  0.00     0.031 C 
ATOM     36  C   UNL A   1      40.036  32.944  35.977  1.00  0.00     0.037 A 
BRANCH  23  37
ATOM     37  C   UNL A   1      44.296  28.443  35.889  1.00  0.00     0.058 A 
ATOM     38  C   UNL A   1      44.046  27.385  36.781  1.00  0.00     0.135 A 
ATOM     39  C   UNL A   1      45.631  28.824  35.685  1.00  0.00     0.135 A 
ATOM     40  F   UNL A   1      42.785  26.998  37.033  1.00  0.00    -0.206 F 
ATOM     41  C   UNL A   1      45.077  26.756  37.473  1.00  0.00     0.059 A 
ATOM     42  C   UNL A   1      46.680  28.194  36.349  1.00  0.00     0.059 A 
ATOM     43  F   UNL A   1      45.925  29.836  34.853  1.00  0.00    -0.206 F 
ATOM     44  C   UNL A   1      46.390  27.175  37.256  1.00  0.00     0.060 A 
BRANCH  44  45
ATOM     45  S   UNL A   1      47.716  26.370  38.181  1.00  0.00     0.124 S 
ATOM     46  O   UNL A   1      48.060  27.404  39.153  1.00  0.00    -0.237 OA
ATOM     47  O   UNL A   1      47.048  25.190  38.722  1.00  0.00    -0.237 OA
ATOM     48  O   UNL A   1      48.727  26.104  37.163  1.00  0.00    -0.744 OA
ENDBRANCH  44  45
ENDBRANCH  23  37
BRANCH  24  49
ATOM     49  C   UNL A   1      36.805  32.866  30.838  1.00  0.00     0.058 A 
ATOM     50  C   UNL A   1      37.072  33.808  29.835  1.00  0.00     0.135 A 
ATOM     51  C   UNL A   1      35.459  32.569  31.109  1.00  0.00     0.135 A 
ATOM     52  F   UNL A   1      38.341  34.126  29.535  1.00  0.00    -0.206 F 
ATOM     53  C   UNL A   1      36.048  34.450  29.142  1.00  0.00     0.059 A 
ATOM     54  C   UNL A   1      34.419  33.181  30.417  1.00  0.00     0.059 A 
ATOM     55  F   UNL A   1      35.147  31.658  32.045  1.00  0.00    -0.206 F 
ATOM     56  C   UNL A   1      34.723  34.128  29.441  1.00  0.00     0.060 A 
BRANCH  56  57
ATOM     57  S   UNL A   1      33.403  34.935  28.508  1.00  0.00     0.124 S 
ATOM     58  O   UNL A   1      34.143  35.951  27.769  1.00  0.00    -0.237 OA
ATOM     59  O   UNL A   1      32.869  33.830  27.717  1.00  0.00    -0.237 OA
ATOM     60  O   UNL A   1      32.513  35.435  29.552  1.00  0.00    -0.744 OA
ENDBRANCH  56  57
ENDBRANCH  24  49
BRANCH  36  61
ATOM     61  C   UNL A   1      39.813  33.990  37.031  1.00  0.00     0.058 A 
ATOM     62  C   UNL A   1      39.027  33.736  38.166  1.00  0.00     0.135 A 
ATOM     63  C   UNL A   1      40.440  35.241  36.927  1.00  0.00     0.135 A 
ATOM     64  F   UNL A   1      38.404  32.556  38.308  1.00  0.00    -0.206 F 
ATOM     65  C   UNL A   1      38.849  34.701  39.151  1.00  0.00     0.059 A 
ATOM     66  C   UNL A   1      40.298  36.210  37.913  1.00  0.00     0.059 A 
ATOM     67  F   UNL A   1      41.212  35.524  35.866  1.00  0.00    -0.206 F 
ATOM     68  C   UNL A   1      39.489  35.935  39.015  1.00  0.00     0.060 A 
BRANCH  68  69
ATOM     69  S   UNL A   1      39.275  37.170  40.313  1.00  0.00     0.124 S 
ATOM     70  O   UNL A   1      40.660  37.486  40.646  1.00  0.00    -0.237 OA
ATOM     71  O   UNL A   1      38.532  38.222  39.627  1.00  0.00    -0.237 OA
ATOM     72  O   UNL A   1      38.528  36.453  41.342  1.00  0.00    -0.744 OA
ENDBRANCH  68  69
ENDBRANCH  36  61
ENDBRANCH  10  11
ENDBRANCH   3   5
ENDBRANCH   2   3
ENDBRANCH   1   2
BRANCH   1  73
ATOM     73  C   UNL A   1      45.733  23.910  25.572  1.00  0.00     0.275 C 
BRANCH  73  74
ATOM     74  O   UNL A   1      45.901  23.146  24.370  1.00  0.00    -0.458 OA
BRANCH  74  75
ATOM     75  C   UNL A   1      44.874  22.302  24.084  1.00  0.00     0.342 C 
ATOM     76  O   UNL A   1      43.889  22.579  23.420  1.00  0.00    -0.246 OA
BRANCH  75  77
ATOM     77  C   UNL A   1      45.162  20.953  24.607  1.00  0.00     0.102 A 
ATOM     78  C   UNL A   1      46.436  20.394  24.438  1.00  0.00     0.021 A 
ATOM     79  C   UNL A   1      44.161  20.218  25.260  1.00  0.00     0.144 A 
ATOM     80  C   UNL A   1      46.689  19.117  24.924  1.00  0.00     0.021 A 
ATOM     81  N   UNL A   1      44.427  18.979  25.748  1.00  0.00    -0.238 NA
ATOM     82  C   UNL A   1      45.660  18.453  25.562  1.00  0.00     0.113 A 
BRANCH  79  83
ATOM     83  N   UNL A   1      42.847  20.713  25.377  1.00  0.00    -0.340 N 
ATOM     84  H   UNL A   1      42.220  20.437  24.669  1.00  0.00     0.168 HD
BRANCH  83  85
ATOM     85  C   UNL A   1      42.315  21.547  26.371  1.00  0.00     0.040 A 
ATOM     86  C   UNL A   1      40.932  21.760  26.443  1.00  0.00     0.026 A 
ATOM     87  C   UNL A   1      43.138  22.139  27.331  1.00  0.00     0.039 A 
ATOM     88  C   UNL A   1      40.382  22.550  27.453  1.00  0.00     0.003 A 
ATOM     89  C   UNL A   1      42.607  22.990  28.312  1.00  0.00     0.058 A 
ATOM     90  C   UNL A   1      41.218  23.173  28.376  1.00  0.00     0.013 A 
BRANCH  89  91
ATOM     91  C   UNL A   1      43.512  23.739  29.250  1.00  0.00     0.416 C 
ATOM     92  F   UNL A   1      42.861  24.761  29.880  1.00  0.00    -0.166 F 
ATOM     93  F   UNL A   1      44.013  22.957  30.246  1.00  0.00    -0.166 F 
ATOM     94  F   UNL A   1      44.591  24.315  28.648  1.00  0.00    -0.166 F 
ENDBRANCH  89  91
ENDBRANCH  83  85
ENDBRANCH  79  83
ENDBRANCH  75  77
ENDBRANCH  74  75
ENDBRANCH  73  74
ENDBRANCH   1  73
TORSDOF 17
ENDMDL
MODEL 3
REMARK VINA RESULT:     -11.2      5.857     13.728
REMARK SMILES O=C(OCCOC(=O)c1cccnc1Nc1cccc(C(F)(F)F)c1)c1ccc(-c2c3nc(c(-c4c(F)cc(S(=O)(=O)[O-])cc4F)c4ccc([nH]4)c(-c4c(F)cc(S(=O)(=O)[O-])cc4F)c4nc(c(-c5c(F)cc(S(=O)(=O)[O-])cc5F)c5ccc2[nH]5)C=C4)C=C3)cc1
REMARK SMILES IDX 4 1 3 2 2 3 1 4 26 5 27 6 91 7 28 8 90 9 29 10 30 11 31 12
REMARK SMILES IDX 84 13 32 14 89 15 83 16 85 17 33 18 88 19 82 20 81 21 34 23
REMARK SMILES IDX 68 24 47 25 67 26 48 27 51 28 66 29 86 30 49 31 50 32 65 34
REMARK SMILES IDX 87 35 52 36 35 37 36 38 45 39 37 40 38 41 44 42 46 43 39 44
REMARK SMILES IDX 40 45 41 46 42 47 43 48 69 49 70 50 79 51 71 52 72 53 78 54
REMARK SMILES IDX 80 55 73 56 74 57 75 58 76 59 77 60 53 61 54 62 63 63 55 64
REMARK SMILES IDX 56 65 62 66 64 67 57 68 58 69 59 70 60 71 61 72 5 73 6 74
REMARK SMILES IDX 7 75 8 76 9 77 10 78 14 79 11 80 13 81 12 82 15 83 16 85
REMARK SMILES IDX 17 86 25 87 18 88 20 89 19 90 21 91 22 92 23 93 24 94
REMARK H PARENT 85 22 51 33 15 84
REMARK Flexibility Score: inf
ROOT
ATOM      1  C   UNL A   1      37.593  32.001  33.576  1.00  0.00     0.275 C 
ENDROOT
BRANCH   1   2
ATOM      2  O   UNL A   1      37.124  30.733  33.079  1.00  0.00    -0.458 OA
BRANCH   2   3
ATOM      3  C   UNL A   1      37.129  30.226  31.826  1.00  0.00     0.338 C 
ATOM      4  O   UNL A   1      36.089  29.748  31.376  1.00  0.00    -0.246 OA
BRANCH   3   5
ATOM      5  C   UNL A   1      38.370  30.063  31.013  1.00  0.00     0.060 A 
ATOM      6  C   UNL A   1      38.425  30.027  29.620  1.00  0.00     0.016 A 
ATOM      7  C   UNL A   1      39.568  29.887  31.728  1.00  0.00     0.016 A 
ATOM      8  C   UNL A   1      39.647  29.879  28.962  1.00  0.00     0.010 A 
ATOM      9  C   UNL A   1      40.797  29.763  31.080  1.00  0.00     0.010 A 
ATOM     10  C   UNL A   1      40.833  29.725  29.688  1.00  0.00    -0.014 A 
BRANCH  10  11
ATOM     11  C   UNL A   1      42.051  29.300  28.969  1.00  0.00     0.031 A 
ATOM     12  C   UNL A   1      43.161  30.301  28.822  1.00  0.00     0.074 A 
ATOM     13  C   UNL A   1      42.193  28.028  28.559  1.00  0.00     0.049 A 
ATOM     14  N   UNL A   1      44.392  30.112  28.430  1.00  0.00    -0.248 NA
ATOM     15  C   UNL A   1      42.853  31.695  29.188  1.00  0.00     0.031 C 
ATOM     16  C   UNL A   1      41.176  26.985  28.682  1.00  0.00     0.029 A 
ATOM     17  N   UNL A   1      43.257  27.391  27.978  1.00  0.00    -0.354 N 
ATOM     18  C   UNL A   1      45.012  31.352  28.540  1.00  0.00     0.074 A 
ATOM     19  C   UNL A   1      44.009  32.299  28.968  1.00  0.00     0.031 C 
ATOM     20  C   UNL A   1      41.662  25.834  28.186  1.00  0.00     0.029 A 
ATOM     21  C   UNL A   1      43.031  26.058  27.729  1.00  0.00     0.049 A 
ATOM     22  H   UNL A   1      44.102  27.844  27.758  1.00  0.00     0.167 HD
ATOM     23  C   UNL A   1      46.312  31.662  28.334  1.00  0.00     0.037 A 
ATOM     24  C   UNL A   1      43.854  25.123  27.217  1.00  0.00     0.037 A 
ATOM     25  C   UNL A   1      47.288  30.711  27.882  1.00  0.00     0.049 A 
ATOM     26  C   UNL A   1      45.282  25.507  26.930  1.00  0.00     0.074 A 
ATOM     27  C   UNL A   1      48.632  30.904  27.630  1.00  0.00     0.029 A 
ATOM     28  N   UNL A   1      47.009  29.380  27.599  1.00  0.00    -0.354 N 
ATOM     29  N   UNL A   1      45.874  26.666  27.109  1.00  0.00    -0.248 NA
ATOM     30  C   UNL A   1      46.162  24.455  26.408  1.00  0.00     0.031 C 
ATOM     31  C   UNL A   1      49.159  29.699  27.153  1.00  0.00     0.029 A 
ATOM     32  C   UNL A   1      48.152  28.743  27.154  1.00  0.00     0.049 A 
ATOM     33  H   UNL A   1      46.128  28.954  27.700  1.00  0.00     0.167 HD
ATOM     34  C   UNL A   1      47.205  26.472  26.763  1.00  0.00     0.074 A 
ATOM     35  C   UNL A   1      47.330  25.082  26.364  1.00  0.00     0.031 C 
ATOM     36  C   UNL A   1      48.237  27.353  26.780  1.00  0.00     0.037 A 
BRANCH  23  37
ATOM     37  C   UNL A   1      46.719  33.086  28.583  1.00  0.00     0.058 A 
ATOM     38  C   UNL A   1      46.691  34.049  27.559  1.00  0.00     0.135 A 
ATOM     39  C   UNL A   1      47.177  33.488  29.847  1.00  0.00     0.135 A 
ATOM     40  F   UNL A   1      46.287  33.710  26.324  1.00  0.00    -0.206 F 
ATOM     41  C   UNL A   1      47.137  35.349  27.770  1.00  0.00     0.059 A 
ATOM     42  C   UNL A   1      47.607  34.790  30.087  1.00  0.00     0.059 A 
ATOM     43  F   UNL A   1      47.234  32.606  30.857  1.00  0.00    -0.206 F 
ATOM     44  C   UNL A   1      47.602  35.707  29.037  1.00  0.00     0.060 A 
BRANCH  44  45
ATOM     45  S   UNL A   1      48.205  37.391  29.290  1.00  0.00     0.124 S 
ATOM     46  O   UNL A   1      47.789  37.643  30.667  1.00  0.00    -0.237 OA
ATOM     47  O   UNL A   1      49.642  37.243  29.081  1.00  0.00    -0.237 OA
ATOM     48  O   UNL A   1      47.501  38.160  28.270  1.00  0.00    -0.744 OA
ENDBRANCH  44  45
ENDBRANCH  23  37
BRANCH  24  49
ATOM     49  C   UNL A   1      43.367  23.734  26.997  1.00  0.00     0.058 A 
ATOM     50  C   UNL A   1      42.976  23.287  25.727  1.00  0.00     0.135 A 
ATOM     51  C   UNL A   1      43.289  22.819  28.061  1.00  0.00     0.135 A 
ATOM     52  F   UNL A   1      43.033  24.121  24.677  1.00  0.00    -0.206 F 
ATOM     53  C   UNL A   1      42.504  21.994  25.520  1.00  0.00     0.059 A 
ATOM     54  C   UNL A   1      42.840  21.516  27.876  1.00  0.00     0.059 A 
ATOM     55  F   UNL A   1      43.672  23.189  29.294  1.00  0.00    -0.206 F 
ATOM     56  C   UNL A   1      42.440  21.114  26.602  1.00  0.00     0.060 A 
BRANCH  56  57
ATOM     57  S   UNL A   1      41.865  19.426  26.315  1.00  0.00     0.124 S 
ATOM     58  O   UNL A   1      40.426  19.623  26.185  1.00  0.00    -0.237 OA
ATOM     59  O   UNL A   1      42.575  19.066  25.091  1.00  0.00    -0.237 OA
ATOM     60  O   UNL A   1      42.301  18.716  27.514  1.00  0.00    -0.744 OA
ENDBRANCH  56  57
ENDBRANCH  24  49
BRANCH  36  61
ATOM     61  C   UNL A   1      49.592  26.828  26.402  1.00  0.00     0.058 A 
ATOM     62  C   UNL A   1      50.397  26.136  27.320  1.00  0.00     0.135 A 
ATOM     63  C   UNL A   1      50.063  26.974  25.087  1.00  0.00     0.135 A 
ATOM     64  F   UNL A   1      49.990  25.975  28.589  1.00  0.00    -0.206 F 
ATOM     65  C   UNL A   1      51.638  25.629  26.953  1.00  0.00     0.059 A 
ATOM     66  C   UNL A   1      51.288  26.452  24.692  1.00  0.00     0.059 A 
ATOM     67  F   UNL A   1      49.322  27.616  24.171  1.00  0.00    -0.206 F 
ATOM     68  C   UNL A   1      52.075  25.792  25.636  1.00  0.00     0.060 A 
BRANCH  68  69
ATOM     69  S   UNL A   1      53.675  25.106  25.163  1.00  0.00     0.124 S 
ATOM     70  O   UNL A   1      53.847  25.666  23.826  1.00  0.00    -0.237 OA
ATOM     71  O   UNL A   1      54.562  25.636  26.192  1.00  0.00    -0.237 OA
ATOM     72  O   UNL A   1      53.453  23.664  25.217  1.00  0.00    -0.744 OA
ENDBRANCH  68  69
ENDBRANCH  36  61
ENDBRANCH  10  11
ENDBRANCH   3   5
ENDBRANCH   2   3
ENDBRANCH   1   2
BRANCH   1  73
ATOM     73  C   UNL A   1      36.689  32.675  34.608  1.00  0.00     0.275 C 
BRANCH  73  74
ATOM     74  O   UNL A   1      35.548  33.336  34.043  1.00  0.00    -0.458 OA
BRANCH  74  75
ATOM     75  C   UNL A   1      35.772  34.617  33.644  1.00  0.00     0.342 C 
ATOM     76  O   UNL A   1      36.844  35.197  33.687  1.00  0.00    -0.246 OA
BRANCH  75  77
ATOM     77  C   UNL A   1      34.550  35.187  33.048  1.00  0.00     0.102 A 
ATOM     78  C   UNL A   1      33.970  36.336  33.604  1.00  0.00     0.021 A 
ATOM     79  C   UNL A   1      33.952  34.576  31.935  1.00  0.00     0.144 A 
ATOM     80  C   UNL A   1      32.810  36.854  33.040  1.00  0.00     0.021 A 
ATOM     81  N   UNL A   1      32.830  35.104  31.381  1.00  0.00    -0.238 NA
ATOM     82  C   UNL A   1      32.280  36.206  31.942  1.00  0.00     0.113 A 
BRANCH  79  83
ATOM     83  N   UNL A   1      34.459  33.375  31.400  1.00  0.00    -0.340 N 
ATOM     84  H   UNL A   1      34.106  32.546  31.798  1.00  0.00     0.168 HD
BRANCH  83  85
ATOM     85  C   UNL A   1      35.399  33.207  30.373  1.00  0.00     0.040 A 
ATOM     86  C   UNL A   1      35.052  32.507  29.210  1.00  0.00     0.026 A 
ATOM     87  C   UNL A   1      36.674  33.769  30.465  1.00  0.00     0.039 A 
ATOM     88  C   UNL A   1      35.960  32.370  28.160  1.00  0.00     0.003 A 
ATOM     89  C   UNL A   1      37.620  33.582  29.446  1.00  0.00     0.058 A 
ATOM     90  C   UNL A   1      37.244  32.895  28.283  1.00  0.00     0.013 A 
BRANCH  89  91
ATOM     91  C   UNL A   1      39.035  34.064  29.615  1.00  0.00     0.416 C 
ATOM     92  F   UNL A   1      39.488  34.716  28.504  1.00  0.00    -0.166 F 
ATOM     93  F   UNL A   1      39.179  34.949  30.640  1.00  0.00    -0.166 F 
ATOM     94  F   UNL A   1      39.941  33.072  29.846  1.00  0.00    -0.166 F 
ENDBRANCH  89  91
ENDBRANCH  83  85
ENDBRANCH  79  83
ENDBRANCH  75  77
ENDBRANCH  74  75
ENDBRANCH  73  74
ENDBRANCH   1  73
TORSDOF 17
ENDMDL
