MODEL 1
REMARK VINA RESULT:     -11.7      0.000      0.000
REMARK SMILES C=Cc1cc(Cl)cc2c1O[C@H](C(F)(F)F)C(C(=O)OCCOC(=O)c1ccc(-c3c4nc(c(-c5c(F)cc(S(=O)(=O)[O-])cc5F)c5ccc([nH]5)c(-c5c(F)cc(S(=O)(=O)[O-])cc5F)c5nc(c(-c6c(F)cc(S(=O)(=O)[O-])cc6F)c6ccc3[nH]6)C=C5)C=C4)cc1)=C2
REMARK SMILES IDX 21 1 20 2 19 3 17 4 18 5 16 6 3 7 4 8 9 9 5 10 8 11 10 12
REMARK SMILES IDX 6 13 7 14 91 15 11 16 2 17 1 18 12 19 13 20 14 21 15 22
REMARK SMILES IDX 22 23 23 24 24 25 25 26 26 27 90 28 27 29 89 30 28 31 29 32
REMARK SMILES IDX 30 33 83 34 31 35 88 36 82 37 84 38 32 39 87 40 81 41 80 42
REMARK SMILES IDX 33 44 67 45 46 46 66 47 47 48 50 49 65 50 85 51 48 52 49 53
REMARK SMILES IDX 64 55 86 56 51 57 34 58 35 59 44 60 36 61 37 62 43 63 45 64
REMARK SMILES IDX 38 65 39 66 40 67 41 68 42 69 68 70 69 71 78 72 70 73 71 74
REMARK SMILES IDX 77 75 79 76 72 77 73 78 74 79 75 80 76 81 52 82 53 83 62 84
REMARK SMILES IDX 54 85 55 86 61 87 63 88 56 89 57 90 58 91 59 92 60 93
REMARK H PARENT 84 43 50 54
REMARK Flexibility Score: inf
ROOT
ATOM      1  C   UNL A   1      39.349  23.016  26.419  1.00  0.00     0.275 C 
ENDROOT
BRANCH   1   2
ATOM      2  C   UNL A   1      38.214  22.449  25.566  1.00  0.00     0.275 C 
BRANCH   2   3
ATOM      3  O   UNL A   1      37.379  23.497  25.022  1.00  0.00    -0.459 OA
BRANCH   3   4
ATOM      4  C   UNL A   1      36.509  23.112  24.059  1.00  0.00     0.338 C 
ATOM      5  O   UNL A   1      36.794  22.625  22.977  1.00  0.00    -0.246 OA
BRANCH   4   6
ATOM      6  C   UNL A   1      35.117  23.342  24.492  1.00  0.00     0.087 C 
ATOM      7  C   UNL A   1      31.273  23.949  26.072  1.00  0.00     0.018 A 
ATOM      8  C   UNL A   1      30.955  25.219  26.585  1.00  0.00     0.032 A 
ATOM      9  C   UNL A   1      32.545  23.735  25.509  1.00  0.00     0.135 A 
ATOM     10  C   UNL A   1      31.868  26.266  26.500  1.00  0.00     0.042 A 
ATOM     11  C   UNL A   1      33.458  24.790  25.448  1.00  0.00     0.019 A 
ATOM     12  O   UNL A   1      32.829  22.488  25.011  1.00  0.00    -0.475 OA
ATOM     13  Cl  UNL A   1      31.457  27.816  27.123  1.00  0.00    -0.084 Cl
ATOM     14  C   UNL A   1      33.116  26.060  25.928  1.00  0.00     0.032 A 
ATOM     15  C   UNL A   1      34.783  24.566  24.912  1.00  0.00     0.027 C 
ATOM     16  C   UNL A   1      34.182  22.173  24.579  1.00  0.00     0.316 C 
BRANCH   7  17
ATOM     17  C   UNL A   1      30.307  22.845  26.188  1.00  0.00     0.004 C 
ATOM     18  C   UNL A   1      29.432  22.726  27.194  1.00  0.00     0.009 C 
ENDBRANCH   7  17
BRANCH  16  19
ATOM     19  C   UNL A   1      34.750  21.079  25.499  1.00  0.00     0.430 C 
ATOM     20  F   UNL A   1      35.317  21.615  26.608  1.00  0.00    -0.167 F 
ATOM     21  F   UNL A   1      33.780  20.238  25.933  1.00  0.00    -0.167 F 
ATOM     22  F   UNL A   1      35.692  20.330  24.885  1.00  0.00    -0.167 F 
ENDBRANCH  16  19
ENDBRANCH   4   6
ENDBRANCH   3   4
ENDBRANCH   2   3
ENDBRANCH   1   2
BRANCH   1  23
ATOM     23  O   UNL A   1      39.239  24.445  26.523  1.00  0.00    -0.458 OA
BRANCH  23  24
ATOM     24  C   UNL A   1      40.414  25.114  26.518  1.00  0.00     0.338 C 
ATOM     25  O   UNL A   1      41.248  25.142  25.630  1.00  0.00    -0.246 OA
BRANCH  24  26
ATOM     26  C   UNL A   1      40.511  25.940  27.729  1.00  0.00     0.060 A 
ATOM     27  C   UNL A   1      41.394  27.007  27.819  1.00  0.00     0.016 A 
ATOM     28  C   UNL A   1      39.571  25.728  28.729  1.00  0.00     0.016 A 
ATOM     29  C   UNL A   1      41.321  27.853  28.935  1.00  0.00     0.010 A 
ATOM     30  C   UNL A   1      39.393  26.660  29.743  1.00  0.00     0.010 A 
ATOM     31  C   UNL A   1      40.290  27.719  29.889  1.00  0.00    -0.014 A 
BRANCH  31  32
ATOM     32  C   UNL A   1      40.147  28.668  31.033  1.00  0.00     0.031 A 
ATOM     33  C   UNL A   1      41.041  28.563  32.250  1.00  0.00     0.074 A 
ATOM     34  C   UNL A   1      39.179  29.608  30.999  1.00  0.00     0.049 A 
ATOM     35  N   UNL A   1      41.060  29.309  33.327  1.00  0.00    -0.248 NA
ATOM     36  C   UNL A   1      42.007  27.452  32.291  1.00  0.00     0.031 C 
ATOM     37  C   UNL A   1      38.177  29.752  29.940  1.00  0.00     0.029 A 
ATOM     38  N   UNL A   1      38.889  30.634  31.865  1.00  0.00    -0.354 N 
ATOM     39  C   UNL A   1      42.017  28.746  34.168  1.00  0.00     0.074 A 
ATOM     40  C   UNL A   1      42.493  27.548  33.519  1.00  0.00     0.031 C 
ATOM     41  C   UNL A   1      37.444  30.852  30.170  1.00  0.00     0.029 A 
ATOM     42  C   UNL A   1      37.888  31.466  31.417  1.00  0.00     0.049 A 
ATOM     43  H   UNL A   1      39.352  30.762  32.724  1.00  0.00     0.167 HD
ATOM     44  C   UNL A   1      42.498  29.209  35.347  1.00  0.00     0.037 A 
ATOM     45  C   UNL A   1      37.398  32.609  31.936  1.00  0.00     0.037 A 
ATOM     46  C   UNL A   1      42.064  30.435  35.962  1.00  0.00     0.049 A 
ATOM     47  C   UNL A   1      37.982  33.137  33.217  1.00  0.00     0.074 A 
ATOM     48  C   UNL A   1      42.535  31.033  37.117  1.00  0.00     0.029 A 
ATOM     49  N   UNL A   1      41.067  31.259  35.461  1.00  0.00    -0.354 N 
ATOM     50  N   UNL A   1      38.936  32.627  33.957  1.00  0.00    -0.248 NA
ATOM     51  C   UNL A   1      37.428  34.397  33.729  1.00  0.00     0.031 C 
ATOM     52  C   UNL A   1      41.799  32.201  37.334  1.00  0.00     0.029 A 
ATOM     53  C   UNL A   1      40.901  32.357  36.289  1.00  0.00     0.049 A 
ATOM     54  H   UNL A   1      40.552  31.089  34.639  1.00  0.00     0.167 HD
ATOM     55  C   UNL A   1      39.111  33.513  35.015  1.00  0.00     0.074 A 
ATOM     56  C   UNL A   1      38.175  34.599  34.807  1.00  0.00     0.031 C 
ATOM     57  C   UNL A   1      39.967  33.431  36.064  1.00  0.00     0.037 A 
BRANCH  44  58
ATOM     58  C   UNL A   1      43.580  28.408  36.028  1.00  0.00     0.058 A 
ATOM     59  C   UNL A   1      43.274  27.298  36.834  1.00  0.00     0.135 A 
ATOM     60  C   UNL A   1      44.936  28.724  35.846  1.00  0.00     0.135 A 
ATOM     61  F   UNL A   1      41.995  26.955  37.054  1.00  0.00    -0.206 F 
ATOM     62  C   UNL A   1      44.268  26.555  37.461  1.00  0.00     0.059 A 
ATOM     63  C   UNL A   1      45.949  27.974  36.438  1.00  0.00     0.059 A 
ATOM     64  F   UNL A   1      45.291  29.772  35.084  1.00  0.00    -0.206 F 
ATOM     65  C   UNL A   1      45.604  26.900  37.257  1.00  0.00     0.060 A 
BRANCH  65  66
ATOM     66  S   UNL A   1      46.878  25.914  38.072  1.00  0.00     0.124 S 
ATOM     67  O   UNL A   1      48.083  26.676  37.757  1.00  0.00    -0.237 OA
ATOM     68  O   UNL A   1      46.453  25.951  39.468  1.00  0.00    -0.237 OA
ATOM     69  O   UNL A   1      46.771  24.613  37.421  1.00  0.00    -0.744 OA
ENDBRANCH  65  66
ENDBRANCH  44  58
BRANCH  45  70
ATOM     70  C   UNL A   1      36.348  33.361  31.197  1.00  0.00     0.058 A 
ATOM     71  C   UNL A   1      35.034  33.423  31.684  1.00  0.00     0.135 A 
ATOM     72  C   UNL A   1      36.645  34.081  30.030  1.00  0.00     0.135 A 
ATOM     73  F   UNL A   1      34.699  32.748  32.795  1.00  0.00    -0.206 F 
ATOM     74  C   UNL A   1      34.050  34.168  31.042  1.00  0.00     0.059 A 
ATOM     75  C   UNL A   1      35.684  34.855  29.383  1.00  0.00     0.059 A 
ATOM     76  F   UNL A   1      37.891  34.072  29.532  1.00  0.00    -0.206 F 
ATOM     77  C   UNL A   1      34.389  34.890  29.896  1.00  0.00     0.060 A 
BRANCH  77  78
ATOM     78  S   UNL A   1      33.122  35.917  29.120  1.00  0.00     0.124 S 
ATOM     79  O   UNL A   1      32.394  34.938  28.322  1.00  0.00    -0.237 OA
ATOM     80  O   UNL A   1      32.413  36.452  30.279  1.00  0.00    -0.237 OA
ATOM     81  O   UNL A   1      33.899  36.896  28.364  1.00  0.00    -0.744 OA
ENDBRANCH  77  78
ENDBRANCH  45  70
BRANCH  57  82
ATOM     82  C   UNL A   1      39.952  34.556  37.060  1.00  0.00     0.058 A 
ATOM     83  C   UNL A   1      39.068  34.559  38.149  1.00  0.00     0.135 A 
ATOM     84  C   UNL A   1      40.882  35.604  36.962  1.00  0.00     0.135 A 
ATOM     85  F   UNL A   1      38.157  33.582  38.285  1.00  0.00    -0.206 F 
ATOM     86  C   UNL A   1      39.093  35.574  39.099  1.00  0.00     0.059 A 
ATOM     87  C   UNL A   1      40.943  36.614  37.915  1.00  0.00     0.059 A 
ATOM     88  F   UNL A   1      41.757  35.639  35.945  1.00  0.00    -0.206 F 
ATOM     89  C   UNL A   1      40.037  36.596  38.976  1.00  0.00     0.060 A 
BRANCH  89  90
ATOM     90  S   UNL A   1      40.081  37.885  40.238  1.00  0.00     0.124 S 
ATOM     91  O   UNL A   1      38.684  38.304  40.279  1.00  0.00    -0.237 OA
ATOM     92  O   UNL A   1      40.560  37.158  41.409  1.00  0.00    -0.237 OA
ATOM     93  O   UNL A   1      41.014  38.866  39.691  1.00  0.00    -0.744 OA
ENDBRANCH  89  90
ENDBRANCH  57  82
ENDBRANCH  31  32
ENDBRANCH  24  26
ENDBRANCH  23  24
ENDBRANCH   1  23
TORSDOF 16
ENDMDL
MODEL 2
REMARK VINA RESULT:     -11.5      5.399      9.793
REMARK SMILES C=Cc1cc(Cl)cc2c1O[C@H](C(F)(F)F)C(C(=O)OCCOC(=O)c1ccc(-c3c4nc(c(-c5c(F)cc(S(=O)(=O)[O-])cc5F)c5ccc([nH]5)c(-c5c(F)cc(S(=O)(=O)[O-])cc5F)c5nc(c(-c6c(F)cc(S(=O)(=O)[O-])cc6F)c6ccc3[nH]6)C=C5)C=C4)cc1)=C2
REMARK SMILES IDX 21 1 20 2 19 3 17 4 18 5 16 6 3 7 4 8 9 9 5 10 8 11 10 12
REMARK SMILES IDX 6 13 7 14 91 15 11 16 2 17 1 18 12 19 13 20 14 21 15 22
REMARK SMILES IDX 22 23 23 24 24 25 25 26 26 27 90 28 27 29 89 30 28 31 29 32
REMARK SMILES IDX 30 33 83 34 31 35 88 36 82 37 84 38 32 39 87 40 81 41 80 42
REMARK SMILES IDX 33 44 67 45 46 46 66 47 47 48 50 49 65 50 85 51 48 52 49 53
REMARK SMILES IDX 64 55 86 56 51 57 34 58 35 59 44 60 36 61 37 62 43 63 45 64
REMARK SMILES IDX 38 65 39 66 40 67 41 68 42 69 68 70 69 71 78 72 70 73 71 74
REMARK SMILES IDX 77 75 79 76 72 77 73 78 74 79 75 80 76 81 52 82 53 83 62 84
REMARK SMILES IDX 54 85 55 86 61 87 63 88 56 89 57 90 58 91 59 92 60 93
REMARK H PARENT 84 43 50 54
REMARK Flexibility Score: inf
ROOT
ATOM      1  C   UNL A   1      32.567  28.365  27.559  1.00  0.00     0.275 C 
ENDROOT
BRANCH   1   2
ATOM      2  C   UNL A   1      31.800  28.485  26.242  1.00  0.00     0.275 C 
BRANCH   2   3
ATOM      3  O   UNL A   1      31.533  27.190  25.658  1.00  0.00    -0.459 OA
BRANCH   3   4
ATOM      4  C   UNL A   1      32.405  26.786  24.705  1.00  0.00     0.338 C 
ATOM      5  O   UNL A   1      32.743  27.417  23.716  1.00  0.00    -0.246 OA
BRANCH   4   6
ATOM      6  C   UNL A   1      32.938  25.447  25.020  1.00  0.00     0.087 C 
ATOM      7  C   UNL A   1      34.551  21.605  25.558  1.00  0.00     0.018 A 
ATOM      8  C   UNL A   1      35.944  21.480  25.699  1.00  0.00     0.032 A 
ATOM      9  C   UNL A   1      33.989  22.887  25.409  1.00  0.00     0.135 A 
ATOM     10  C   UNL A   1      36.757  22.610  25.736  1.00  0.00     0.042 A 
ATOM     11  C   UNL A   1      34.819  24.010  25.429  1.00  0.00     0.019 A 
ATOM     12  O   UNL A   1      32.626  22.983  25.277  1.00  0.00    -0.475 OA
ATOM     13  Cl  UNL A   1      38.458  22.437  25.920  1.00  0.00    -0.084 Cl
ATOM     14  C   UNL A   1      36.201  23.875  25.608  1.00  0.00     0.032 A 
ATOM     15  C   UNL A   1      34.253  25.327  25.231  1.00  0.00     0.027 C 
ATOM     16  C   UNL A   1      32.020  24.265  24.950  1.00  0.00     0.316 C 
BRANCH   7  17
ATOM     17  C   UNL A   1      33.706  20.403  25.498  1.00  0.00     0.004 C 
ATOM     18  C   UNL A   1      33.280  19.849  24.356  1.00  0.00     0.009 C 
ENDBRANCH   7  17
BRANCH  16  19
ATOM     19  C   UNL A   1      31.363  24.157  23.563  1.00  0.00     0.430 C 
ATOM     20  F   UNL A   1      30.265  24.948  23.476  1.00  0.00    -0.167 F 
ATOM     21  F   UNL A   1      32.203  24.559  22.580  1.00  0.00    -0.167 F 
ATOM     22  F   UNL A   1      30.975  22.894  23.275  1.00  0.00    -0.167 F 
ENDBRANCH  16  19
ENDBRANCH   4   6
ENDBRANCH   3   4
ENDBRANCH   2   3
ENDBRANCH   1   2
BRANCH   1  23
ATOM     23  O   UNL A   1      33.964  28.638  27.359  1.00  0.00    -0.458 OA
BRANCH  23  24
ATOM     24  C   UNL A   1      34.361  29.884  27.701  1.00  0.00     0.338 C 
ATOM     25  O   UNL A   1      33.675  30.889  27.763  1.00  0.00    -0.246 OA
BRANCH  24  26
ATOM     26  C   UNL A   1      35.766  29.850  28.126  1.00  0.00     0.060 A 
ATOM     27  C   UNL A   1      36.141  29.393  29.383  1.00  0.00     0.016 A 
ATOM     28  C   UNL A   1      36.734  30.132  27.172  1.00  0.00     0.016 A 
ATOM     29  C   UNL A   1      37.504  29.232  29.665  1.00  0.00     0.010 A 
ATOM     30  C   UNL A   1      38.067  29.813  27.398  1.00  0.00     0.010 A 
ATOM     31  C   UNL A   1      38.484  29.395  28.663  1.00  0.00    -0.014 A 
BRANCH  31  32
ATOM     32  C   UNL A   1      39.931  29.140  28.926  1.00  0.00     0.031 A 
ATOM     33  C   UNL A   1      40.566  27.812  28.577  1.00  0.00     0.074 A 
ATOM     34  C   UNL A   1      40.675  30.095  29.523  1.00  0.00     0.049 A 
ATOM     35  N   UNL A   1      41.809  27.426  28.729  1.00  0.00    -0.248 NA
ATOM     36  C   UNL A   1      39.690  26.761  28.032  1.00  0.00     0.031 C 
ATOM     37  C   UNL A   1      40.168  31.380  30.014  1.00  0.00     0.029 A 
ATOM     38  N   UNL A   1      42.019  30.148  29.801  1.00  0.00    -0.354 N 
ATOM     39  C   UNL A   1      41.851  26.096  28.318  1.00  0.00     0.074 A 
ATOM     40  C   UNL A   1      40.497  25.713  27.996  1.00  0.00     0.031 C 
ATOM     41  C   UNL A   1      41.196  32.126  30.447  1.00  0.00     0.029 A 
ATOM     42  C   UNL A   1      42.429  31.358  30.313  1.00  0.00     0.049 A 
ATOM     43  H   UNL A   1      42.631  29.392  29.649  1.00  0.00     0.167 HD
ATOM     44  C   UNL A   1      42.923  25.280  28.168  1.00  0.00     0.037 A 
ATOM     45  C   UNL A   1      43.661  31.812  30.618  1.00  0.00     0.037 A 
ATOM     46  C   UNL A   1      44.278  25.684  28.433  1.00  0.00     0.049 A 
ATOM     47  C   UNL A   1      44.844  30.912  30.394  1.00  0.00     0.074 A 
ATOM     48  C   UNL A   1      45.444  24.962  28.248  1.00  0.00     0.029 A 
ATOM     49  N   UNL A   1      44.650  26.926  28.926  1.00  0.00    -0.354 N 
ATOM     50  N   UNL A   1      44.869  29.684  29.936  1.00  0.00    -0.248 NA
ATOM     51  C   UNL A   1      46.167  31.460  30.720  1.00  0.00     0.031 C 
ATOM     52  C   UNL A   1      46.518  25.755  28.660  1.00  0.00     0.029 A 
ATOM     53  C   UNL A   1      46.027  26.989  29.059  1.00  0.00     0.049 A 
ATOM     54  H   UNL A   1      44.027  27.655  29.149  1.00  0.00     0.167 HD
ATOM     55  C   UNL A   1      46.209  29.317  29.902  1.00  0.00     0.074 A 
ATOM     56  C   UNL A   1      46.966  30.461  30.369  1.00  0.00     0.031 C 
ATOM     57  C   UNL A   1      46.763  28.138  29.521  1.00  0.00     0.037 A 
BRANCH  44  58
ATOM     58  C   UNL A   1      42.677  23.883  27.656  1.00  0.00     0.058 A 
ATOM     59  C   UNL A   1      42.484  22.803  28.534  1.00  0.00     0.135 A 
ATOM     60  C   UNL A   1      42.595  23.622  26.278  1.00  0.00     0.135 A 
ATOM     61  F   UNL A   1      42.563  22.988  29.862  1.00  0.00    -0.206 F 
ATOM     62  C   UNL A   1      42.254  21.513  28.067  1.00  0.00     0.059 A 
ATOM     63  C   UNL A   1      42.333  22.345  25.788  1.00  0.00     0.059 A 
ATOM     64  F   UNL A   1      42.768  24.615  25.390  1.00  0.00    -0.206 F 
ATOM     65  C   UNL A   1      42.179  21.294  26.691  1.00  0.00     0.060 A 
BRANCH  65  66
ATOM     66  S   UNL A   1      41.869  19.614  26.108  1.00  0.00     0.124 S 
ATOM     67  O   UNL A   1      42.254  18.824  27.275  1.00  0.00    -0.237 OA
ATOM     68  O   UNL A   1      40.440  19.647  25.810  1.00  0.00    -0.237 OA
ATOM     69  O   UNL A   1      42.745  19.487  24.949  1.00  0.00    -0.744 OA
ENDBRANCH  65  66
ENDBRANCH  44  58
BRANCH  45  70
ATOM     70  C   UNL A   1      43.833  33.211  31.095  1.00  0.00     0.058 A 
ATOM     71  C   UNL A   1      44.003  34.263  30.183  1.00  0.00     0.135 A 
ATOM     72  C   UNL A   1      43.769  33.534  32.459  1.00  0.00     0.135 A 
ATOM     73  F   UNL A   1      44.073  34.004  28.867  1.00  0.00    -0.206 F 
ATOM     74  C   UNL A   1      44.105  35.585  30.602  1.00  0.00     0.059 A 
ATOM     75  C   UNL A   1      43.844  34.852  32.902  1.00  0.00     0.059 A 
ATOM     76  F   UNL A   1      43.588  32.568  33.372  1.00  0.00    -0.206 F 
ATOM     77  C   UNL A   1      44.015  35.871  31.966  1.00  0.00     0.060 A 
BRANCH  77  78
ATOM     78  S   UNL A   1      44.069  37.598  32.490  1.00  0.00     0.124 S 
ATOM     79  O   UNL A   1      43.048  37.625  33.530  1.00  0.00    -0.237 OA
ATOM     80  O   UNL A   1      45.449  37.734  32.945  1.00  0.00    -0.237 OA
ATOM     81  O   UNL A   1      43.746  38.331  31.268  1.00  0.00    -0.744 OA
ENDBRANCH  77  78
ENDBRANCH  45  70
BRANCH  57  82
ATOM     82  C   UNL A   1      48.260  28.027  29.571  1.00  0.00     0.058 A 
ATOM     83  C   UNL A   1      48.919  27.480  30.682  1.00  0.00     0.135 A 
ATOM     84  C   UNL A   1      49.038  28.407  28.465  1.00  0.00     0.135 A 
ATOM     85  F   UNL A   1      48.222  27.106  31.766  1.00  0.00    -0.206 F 
ATOM     86  C   UNL A   1      50.302  27.329  30.702  1.00  0.00     0.059 A 
ATOM     87  C   UNL A   1      50.418  28.240  28.453  1.00  0.00     0.059 A 
ATOM     88  F   UNL A   1      48.453  28.925  27.373  1.00  0.00    -0.206 F 
ATOM     89  C   UNL A   1      51.042  27.708  29.581  1.00  0.00     0.060 A 
BRANCH  89  90
ATOM     90  S   UNL A   1      52.831  27.471  29.610  1.00  0.00     0.124 S 
ATOM     91  O   UNL A   1      52.952  26.095  29.140  1.00  0.00    -0.237 OA
ATOM     92  O   UNL A   1      53.296  28.501  28.686  1.00  0.00    -0.237 OA
ATOM     93  O   UNL A   1      53.182  27.689  31.010  1.00  0.00    -0.744 OA
ENDBRANCH  89  90
ENDBRANCH  57  82
ENDBRANCH  31  32
ENDBRANCH  24  26
ENDBRANCH  23  24
ENDBRANCH   1  23
TORSDOF 16
ENDMDL
MODEL 3
REMARK VINA RESULT:     -11.5      4.974     10.411
REMARK SMILES C=Cc1cc(Cl)cc2c1O[C@H](C(F)(F)F)C(C(=O)OCCOC(=O)c1ccc(-c3c4nc(c(-c5c(F)cc(S(=O)(=O)[O-])cc5F)c5ccc([nH]5)c(-c5c(F)cc(S(=O)(=O)[O-])cc5F)c5nc(c(-c6c(F)cc(S(=O)(=O)[O-])cc6F)c6ccc3[nH]6)C=C5)C=C4)cc1)=C2
REMARK SMILES IDX 21 1 20 2 19 3 17 4 18 5 16 6 3 7 4 8 9 9 5 10 8 11 10 12
REMARK SMILES IDX 6 13 7 14 91 15 11 16 2 17 1 18 12 19 13 20 14 21 15 22
REMARK SMILES IDX 22 23 23 24 24 25 25 26 26 27 90 28 27 29 89 30 28 31 29 32
REMARK SMILES IDX 30 33 83 34 31 35 88 36 82 37 84 38 32 39 87 40 81 41 80 42
REMARK SMILES IDX 33 44 67 45 46 46 66 47 47 48 50 49 65 50 85 51 48 52 49 53
REMARK SMILES IDX 64 55 86 56 51 57 34 58 35 59 44 60 36 61 37 62 43 63 45 64
REMARK SMILES IDX 38 65 39 66 40 67 41 68 42 69 68 70 69 71 78 72 70 73 71 74
REMARK SMILES IDX 77 75 79 76 72 77 73 78 74 79 75 80 76 81 52 82 53 83 62 84
REMARK SMILES IDX 54 85 55 86 61 87 63 88 56 89 57 90 58 91 59 92 60 93
REMARK H PARENT 84 43 50 54
REMARK Flexibility Score: inf
ROOT
ATOM      1  C   UNL A   1      32.570  28.729  27.038  1.00  0.00     0.275 C 
ENDROOT
BRANCH   1   2
ATOM      2  C   UNL A   1      32.161  27.271  26.826  1.00  0.00     0.275 C 
BRANCH   2   3
ATOM      3  O   UNL A   1      31.856  26.998  25.439  1.00  0.00    -0.459 OA
BRANCH   3   4
ATOM      4  C   UNL A   1      32.918  26.708  24.653  1.00  0.00     0.338 C 
ATOM      5  O   UNL A   1      33.462  27.461  23.861  1.00  0.00    -0.246 OA
BRANCH   4   6
ATOM      6  C   UNL A   1      33.377  25.324  24.883  1.00  0.00     0.087 C 
ATOM      7  C   UNL A   1      34.801  21.384  25.189  1.00  0.00     0.018 A 
ATOM      8  C   UNL A   1      36.173  21.187  25.421  1.00  0.00     0.032 A 
ATOM      9  C   UNL A   1      34.299  22.697  25.116  1.00  0.00     0.135 A 
ATOM     10  C   UNL A   1      37.022  22.273  25.620  1.00  0.00     0.042 A 
ATOM     11  C   UNL A   1      35.165  23.777  25.298  1.00  0.00     0.019 A 
ATOM     12  O   UNL A   1      32.955  22.864  24.893  1.00  0.00    -0.475 OA
ATOM     13  Cl  UNL A   1      38.696  22.011  25.914  1.00  0.00    -0.084 Cl
ATOM     14  C   UNL A   1      36.524  23.567  25.567  1.00  0.00     0.032 A 
ATOM     15  C   UNL A   1      34.666  25.130  25.180  1.00  0.00     0.027 C 
ATOM     16  C   UNL A   1      32.423  24.194  24.639  1.00  0.00     0.316 C 
BRANCH   7  17
ATOM     17  C   UNL A   1      33.919  20.229  24.958  1.00  0.00     0.004 C 
ATOM     18  C   UNL A   1      34.360  19.018  24.598  1.00  0.00     0.009 C 
ENDBRANCH   7  17
BRANCH  16  19
ATOM     19  C   UNL A   1      31.873  24.237  23.203  1.00  0.00     0.430 C 
ATOM     20  F   UNL A   1      30.972  25.239  23.051  1.00  0.00    -0.167 F 
ATOM     21  F   UNL A   1      32.855  24.464  22.298  1.00  0.00    -0.167 F 
ATOM     22  F   UNL A   1      31.258  23.085  22.855  1.00  0.00    -0.167 F 
ENDBRANCH  16  19
ENDBRANCH   4   6
ENDBRANCH   3   4
ENDBRANCH   2   3
ENDBRANCH   1   2
BRANCH   1  23
ATOM     23  O   UNL A   1      33.985  28.828  27.272  1.00  0.00    -0.458 OA
BRANCH  23  24
ATOM     24  C   UNL A   1      34.402  30.009  27.782  1.00  0.00     0.338 C 
ATOM     25  O   UNL A   1      33.730  31.004  27.992  1.00  0.00    -0.246 OA
BRANCH  24  26
ATOM     26  C   UNL A   1      35.810  29.899  28.183  1.00  0.00     0.060 A 
ATOM     27  C   UNL A   1      36.182  29.391  29.420  1.00  0.00     0.016 A 
ATOM     28  C   UNL A   1      36.776  30.163  27.220  1.00  0.00     0.016 A 
ATOM     29  C   UNL A   1      37.541  29.160  29.676  1.00  0.00     0.010 A 
ATOM     30  C   UNL A   1      38.096  29.777  27.416  1.00  0.00     0.010 A 
ATOM     31  C   UNL A   1      38.512  29.305  28.662  1.00  0.00    -0.014 A 
BRANCH  31  32
ATOM     32  C   UNL A   1      39.950  28.977  28.894  1.00  0.00     0.031 A 
ATOM     33  C   UNL A   1      40.879  29.967  29.563  1.00  0.00     0.074 A 
ATOM     34  C   UNL A   1      40.439  27.794  28.464  1.00  0.00     0.049 A 
ATOM     35  N   UNL A   1      42.150  29.841  29.852  1.00  0.00    -0.248 NA
ATOM     36  C   UNL A   1      40.327  31.287  29.914  1.00  0.00     0.031 C 
ATOM     37  C   UNL A   1      39.684  26.792  27.706  1.00  0.00     0.029 A 
ATOM     38  N   UNL A   1      41.677  27.222  28.619  1.00  0.00    -0.354 N 
ATOM     39  C   UNL A   1      42.544  31.062  30.393  1.00  0.00     0.074 A 
ATOM     40  C   UNL A   1      41.405  31.945  30.311  1.00  0.00     0.031 C 
ATOM     41  C   UNL A   1      40.442  25.698  27.542  1.00  0.00     0.029 A 
ATOM     42  C   UNL A   1      41.753  25.935  28.137  1.00  0.00     0.049 A 
ATOM     43  H   UNL A   1      42.438  27.687  29.034  1.00  0.00     0.167 HD
ATOM     44  C   UNL A   1      43.728  31.407  30.957  1.00  0.00     0.037 A 
ATOM     45  C   UNL A   1      42.755  25.035  28.188  1.00  0.00     0.037 A 
ATOM     46  C   UNL A   1      44.841  30.506  31.090  1.00  0.00     0.049 A 
ATOM     47  C   UNL A   1      44.041  25.415  28.866  1.00  0.00     0.074 A 
ATOM     48  C   UNL A   1      46.060  30.728  31.707  1.00  0.00     0.029 A 
ATOM     49  N   UNL A   1      44.866  29.204  30.611  1.00  0.00    -0.354 N 
ATOM     50  N   UNL A   1      44.367  26.550  29.436  1.00  0.00    -0.248 NA
ATOM     51  C   UNL A   1      45.094  24.392  28.916  1.00  0.00     0.031 C 
ATOM     52  C   UNL A   1      46.834  29.572  31.572  1.00  0.00     0.029 A 
ATOM     53  C   UNL A   1      46.082  28.613  30.911  1.00  0.00     0.049 A 
ATOM     54  H   UNL A   1      44.129  28.765  30.128  1.00  0.00     0.167 HD
ATOM     55  C   UNL A   1      45.656  26.374  29.927  1.00  0.00     0.074 A 
ATOM     56  C   UNL A   1      46.042  25.016  29.603  1.00  0.00     0.031 C 
ATOM     57  C   UNL A   1      46.447  27.257  30.585  1.00  0.00     0.037 A 
BRANCH  44  58
ATOM     58  C   UNL A   1      43.863  32.803  31.510  1.00  0.00     0.058 A 
ATOM     59  C   UNL A   1      43.505  33.104  32.836  1.00  0.00     0.135 A 
ATOM     60  C   UNL A   1      44.391  33.843  30.728  1.00  0.00     0.135 A 
ATOM     61  F   UNL A   1      42.984  32.153  33.628  1.00  0.00    -0.206 F 
ATOM     62  C   UNL A   1      43.631  34.389  33.352  1.00  0.00     0.059 A 
ATOM     63  C   UNL A   1      44.556  35.129  31.235  1.00  0.00     0.059 A 
ATOM     64  F   UNL A   1      44.755  33.615  29.456  1.00  0.00    -0.206 F 
ATOM     65  C   UNL A   1      44.159  35.396  32.544  1.00  0.00     0.060 A 
BRANCH  65  66
ATOM     66  S   UNL A   1      44.323  37.054  33.240  1.00  0.00     0.124 S 
ATOM     67  O   UNL A   1      44.152  37.887  32.053  1.00  0.00    -0.237 OA
ATOM     68  O   UNL A   1      43.229  37.096  34.205  1.00  0.00    -0.237 OA
ATOM     69  O   UNL A   1      45.663  37.051  33.816  1.00  0.00    -0.744 OA
ENDBRANCH  65  66
ENDBRANCH  44  58
BRANCH  45  70
ATOM     70  C   UNL A   1      42.542  23.666  27.644  1.00  0.00     0.058 A 
ATOM     71  C   UNL A   1      42.658  23.415  26.269  1.00  0.00     0.135 A 
ATOM     72  C   UNL A   1      42.282  22.574  28.486  1.00  0.00     0.135 A 
ATOM     73  F   UNL A   1      42.902  24.428  25.422  1.00  0.00    -0.206 F 
ATOM     74  C   UNL A   1      42.522  22.134  25.745  1.00  0.00     0.059 A 
ATOM     75  C   UNL A   1      42.167  21.278  27.989  1.00  0.00     0.059 A 
ATOM     76  F   UNL A   1      42.181  22.755  29.812  1.00  0.00    -0.206 F 
ATOM     77  C   UNL A   1      42.287  21.069  26.616  1.00  0.00     0.060 A 
BRANCH  77  78
ATOM     78  S   UNL A   1      42.193  19.401  25.931  1.00  0.00     0.124 S 
ATOM     79  O   UNL A   1      40.761  19.253  25.703  1.00  0.00    -0.237 OA
ATOM     80  O   UNL A   1      43.022  19.517  24.734  1.00  0.00    -0.237 OA
ATOM     81  O   UNL A   1      42.753  18.568  26.992  1.00  0.00    -0.744 OA
ENDBRANCH  77  78
ENDBRANCH  45  70
BRANCH  57  82
ATOM     82  C   UNL A   1      47.805  26.782  31.019  1.00  0.00     0.058 A 
ATOM     83  C   UNL A   1      48.001  26.155  32.258  1.00  0.00     0.135 A 
ATOM     84  C   UNL A   1      48.906  26.893  30.154  1.00  0.00     0.135 A 
ATOM     85  F   UNL A   1      46.982  26.029  33.122  1.00  0.00    -0.206 F 
ATOM     86  C   UNL A   1      49.248  25.669  32.634  1.00  0.00     0.059 A 
ATOM     87  C   UNL A   1      50.156  26.390  30.499  1.00  0.00     0.059 A 
ATOM     88  F   UNL A   1      48.767  27.475  28.953  1.00  0.00    -0.206 F 
ATOM     89  C   UNL A   1      50.319  25.787  31.746  1.00  0.00     0.060 A 
BRANCH  89  90
ATOM     90  S   UNL A   1      51.922  25.117  32.234  1.00  0.00     0.124 S 
ATOM     91  O   UNL A   1      51.645  23.684  32.262  1.00  0.00    -0.237 OA
ATOM     92  O   UNL A   1      52.792  25.574  31.156  1.00  0.00    -0.237 OA
ATOM     93  O   UNL A   1      52.168  25.734  33.534  1.00  0.00    -0.744 OA
ENDBRANCH  89  90
ENDBRANCH  57  82
ENDBRANCH  31  32
ENDBRANCH  24  26
ENDBRANCH  23  24
ENDBRANCH   1  23
TORSDOF 16
ENDMDL
