MODEL 1
REMARK VINA RESULT:     -10.4      0.000      0.000
REMARK SMILES CC1(C)[C@H]2CC[C@]1(C)[C@H](NC(=O)CCC(=O)OCCOC(=O)c1ccc(-c3c4nc(c(-c5c(F)cc(S(=O)(=O)[O-])cc5F)c5ccc([nH]5)c(-c5c(F)cc(S(=O)(=O)[O-])cc5F)c5nc(c(-c6c(F)cc(S(=O)(=O)[O-])cc6F)c6ccc3[nH]6)C=C5)C=C4)cc1)C2
REMARK SMILES IDX 18 1 17 2 15 3 16 4 14 5 13 6 11 7 10 8 12 10 9 11 1 12 2 13
REMARK SMILES IDX 3 14 4 15 7 16 5 17 89 18 6 19 8 20 19 21 20 22 21 23 22 24
REMARK SMILES IDX 23 25 24 26 88 27 25 28 87 29 26 30 27 31 28 32 81 33 29 34
REMARK SMILES IDX 86 35 80 36 82 37 30 38 85 39 79 40 78 41 31 43 65 44 44 45
REMARK SMILES IDX 64 46 45 47 48 48 63 49 83 50 46 51 47 52 62 54 84 55 49 56
REMARK SMILES IDX 32 57 33 58 42 59 34 60 35 61 41 62 43 63 36 64 37 65 38 66
REMARK SMILES IDX 39 67 40 68 66 69 67 70 76 71 68 72 69 73 75 74 77 75 70 76
REMARK SMILES IDX 71 77 72 78 73 79 74 80 50 81 51 82 60 83 52 84 53 85 59 86
REMARK SMILES IDX 61 87 54 88 55 89 56 90 57 91 58 92
REMARK H PARENT 10 9 82 42 48 53
REMARK Flexibility Score: inf
ROOT
ATOM      1  C   UNL A   1      33.708  33.943  28.659  1.00  0.00     0.274 C 
ENDROOT
BRANCH   1   2
ATOM      2  O   UNL A   1      32.948  34.598  29.754  1.00  0.00    -0.462 OA
BRANCH   2   3
ATOM      3  C   UNL A   1      32.903  35.974  29.829  1.00  0.00     0.306 C 
ATOM      4  O   UNL A   1      32.741  36.676  28.834  1.00  0.00    -0.252 OA
BRANCH   3   5
ATOM      5  C   UNL A   1      33.174  36.609  31.271  1.00  0.00     0.132 C 
BRANCH   5   6
ATOM      6  C   UNL A   1      33.958  36.016  32.530  1.00  0.00     0.111 C 
BRANCH   6   7
ATOM      7  C   UNL A   1      34.274  34.475  32.797  1.00  0.00     0.220 C 
ATOM      8  N   UNL A   1      35.545  33.885  32.705  1.00  0.00    -0.353 N 
ATOM      9  H   UNL A   1      35.560  32.983  32.312  1.00  0.00     0.163 HD
ATOM     10  O   UNL A   1      33.321  33.701  32.960  1.00  0.00    -0.275 OA
BRANCH   8  11
ATOM     11  C   UNL A   1      36.876  34.421  33.113  1.00  0.00     0.088 C 
ATOM     12  C   UNL A   1      40.366  32.395  33.525  1.00  0.00     0.012 C 
ATOM     13  C   UNL A   1      39.306  33.368  32.974  1.00  0.00    -0.025 C 
ATOM     14  C   UNL A   1      40.201  34.370  32.263  1.00  0.00     0.012 C 
ATOM     15  C   UNL A   1      38.350  32.944  31.905  1.00  0.00    -0.003 C 
ATOM     16  C   UNL A   1      38.023  33.669  33.951  1.00  0.00    -0.007 C 
ATOM     17  C   UNL A   1      37.611  31.778  32.628  1.00  0.00     0.005 C 
ATOM     18  C   UNL A   1      37.654  34.344  31.895  1.00  0.00     0.029 C 
ATOM     19  C   UNL A   1      37.492  32.247  34.105  1.00  0.00     0.010 C 
ATOM     20  C   UNL A   1      38.451  34.455  35.173  1.00  0.00     0.014 C 
ENDBRANCH   8  11
ENDBRANCH   6   7
ENDBRANCH   5   6
ENDBRANCH   3   5
ENDBRANCH   2   3
ENDBRANCH   1   2
BRANCH   1  21
ATOM     21  C   UNL A   1      34.809  32.876  29.020  1.00  0.00     0.275 C 
BRANCH  21  22
ATOM     22  O   UNL A   1      34.276  31.514  29.051  1.00  0.00    -0.458 OA
BRANCH  22  23
ATOM     23  C   UNL A   1      34.821  30.558  28.226  1.00  0.00     0.338 C 
ATOM     24  O   UNL A   1      34.285  30.128  27.202  1.00  0.00    -0.246 OA
BRANCH  23  25
ATOM     25  C   UNL A   1      36.281  30.310  28.571  1.00  0.00     0.060 A 
ATOM     26  C   UNL A   1      37.230  30.428  27.557  1.00  0.00     0.016 A 
ATOM     27  C   UNL A   1      36.688  29.664  29.759  1.00  0.00     0.016 A 
ATOM     28  C   UNL A   1      38.467  29.779  27.666  1.00  0.00     0.010 A 
ATOM     29  C   UNL A   1      38.026  29.195  29.926  1.00  0.00     0.010 A 
ATOM     30  C   UNL A   1      38.955  29.263  28.876  1.00  0.00    -0.014 A 
BRANCH  30  31
ATOM     31  C   UNL A   1      40.438  28.991  29.022  1.00  0.00     0.031 A 
ATOM     32  C   UNL A   1      41.475  30.058  29.327  1.00  0.00     0.074 A 
ATOM     33  C   UNL A   1      40.885  27.721  28.841  1.00  0.00     0.049 A 
ATOM     34  N   UNL A   1      42.775  30.029  29.131  1.00  0.00    -0.248 NA
ATOM     35  C   UNL A   1      41.010  31.299  29.966  1.00  0.00     0.031 C 
ATOM     36  C   UNL A   1      40.046  26.529  28.653  1.00  0.00     0.029 A 
ATOM     37  N   UNL A   1      42.164  27.209  28.761  1.00  0.00    -0.354 N 
ATOM     38  C   UNL A   1      43.278  31.255  29.571  1.00  0.00     0.074 A 
ATOM     39  C   UNL A   1      42.138  31.998  30.077  1.00  0.00     0.031 C 
ATOM     40  C   UNL A   1      40.810  25.445  28.518  1.00  0.00     0.029 A 
ATOM     41  C   UNL A   1      42.186  25.876  28.406  1.00  0.00     0.049 A 
ATOM     42  H   UNL A   1      42.974  27.738  28.939  1.00  0.00     0.167 HD
ATOM     43  C   UNL A   1      44.559  31.715  29.534  1.00  0.00     0.037 A 
ATOM     44  C   UNL A   1      43.154  25.084  27.907  1.00  0.00     0.037 A 
ATOM     45  C   UNL A   1      45.686  30.945  29.047  1.00  0.00     0.049 A 
ATOM     46  C   UNL A   1      44.515  25.655  27.697  1.00  0.00     0.074 A 
ATOM     47  C   UNL A   1      47.011  31.333  28.918  1.00  0.00     0.029 A 
ATOM     48  N   UNL A   1      45.624  29.626  28.618  1.00  0.00    -0.354 N 
ATOM     49  N   UNL A   1      44.948  26.858  27.975  1.00  0.00    -0.248 NA
ATOM     50  C   UNL A   1      45.515  24.770  27.089  1.00  0.00     0.031 C 
ATOM     51  C   UNL A   1      47.735  30.270  28.361  1.00  0.00     0.029 A 
ATOM     52  C   UNL A   1      46.877  29.197  28.202  1.00  0.00     0.049 A 
ATOM     53  H   UNL A   1      44.809  29.074  28.609  1.00  0.00     0.167 HD
ATOM     54  C   UNL A   1      46.286  26.866  27.608  1.00  0.00     0.074 A 
ATOM     55  C   UNL A   1      46.588  25.548  27.090  1.00  0.00     0.031 C 
ATOM     56  C   UNL A   1      47.180  27.879  27.702  1.00  0.00     0.037 A 
BRANCH  43  57
ATOM     57  C   UNL A   1      44.837  33.144  29.958  1.00  0.00     0.058 A 
ATOM     58  C   UNL A   1      44.692  34.237  29.090  1.00  0.00     0.135 A 
ATOM     59  C   UNL A   1      45.169  33.427  31.297  1.00  0.00     0.135 A 
ATOM     60  F   UNL A   1      44.369  34.037  27.802  1.00  0.00    -0.206 F 
ATOM     61  C   UNL A   1      44.896  35.549  29.522  1.00  0.00     0.059 A 
ATOM     62  C   UNL A   1      45.352  34.731  31.758  1.00  0.00     0.059 A 
ATOM     63  F   UNL A   1      45.301  32.429  32.185  1.00  0.00    -0.206 F 
ATOM     64  C   UNL A   1      45.231  35.787  30.857  1.00  0.00     0.060 A 
BRANCH  64  65
ATOM     65  S   UNL A   1      45.516  37.488  31.398  1.00  0.00     0.124 S 
ATOM     66  O   UNL A   1      44.150  37.995  31.497  1.00  0.00    -0.237 OA
ATOM     67  O   UNL A   1      46.215  37.302  32.665  1.00  0.00    -0.237 OA
ATOM     68  O   UNL A   1      46.318  38.061  30.322  1.00  0.00    -0.744 OA
ENDBRANCH  64  65
ENDBRANCH  43  57
BRANCH  44  69
ATOM     69  C   UNL A   1      42.815  23.701  27.467  1.00  0.00     0.058 A 
ATOM     70  C   UNL A   1      42.589  23.407  26.117  1.00  0.00     0.135 A 
ATOM     71  C   UNL A   1      42.754  22.638  28.388  1.00  0.00     0.135 A 
ATOM     72  F   UNL A   1      42.629  24.388  25.202  1.00  0.00    -0.206 F 
ATOM     73  C   UNL A   1      42.310  22.112  25.693  1.00  0.00     0.059 A 
ATOM     74  C   UNL A   1      42.516  21.330  27.984  1.00  0.00     0.059 A 
ATOM     75  F   UNL A   1      42.984  22.861  29.692  1.00  0.00    -0.206 F 
ATOM     76  C   UNL A   1      42.281  21.080  26.634  1.00  0.00     0.060 A 
BRANCH  76  77
ATOM     77  S   UNL A   1      41.962  19.397  26.064  1.00  0.00     0.124 S 
ATOM     78  O   UNL A   1      40.526  19.439  25.819  1.00  0.00    -0.237 OA
ATOM     79  O   UNL A   1      42.811  19.308  24.881  1.00  0.00    -0.237 OA
ATOM     80  O   UNL A   1      42.386  18.573  27.194  1.00  0.00    -0.744 OA
ENDBRANCH  76  77
ENDBRANCH  44  69
BRANCH  56  81
ATOM     81  C   UNL A   1      48.594  27.575  27.300  1.00  0.00     0.058 A 
ATOM     82  C   UNL A   1      49.010  27.612  25.960  1.00  0.00     0.135 A 
ATOM     83  C   UNL A   1      49.551  27.259  28.278  1.00  0.00     0.135 A 
ATOM     84  F   UNL A   1      48.130  27.886  24.985  1.00  0.00    -0.206 F 
ATOM     85  C   UNL A   1      50.326  27.331  25.602  1.00  0.00     0.059 A 
ATOM     86  C   UNL A   1      50.877  27.003  27.946  1.00  0.00     0.059 A 
ATOM     87  F   UNL A   1      49.202  27.205  29.572  1.00  0.00    -0.206 F 
ATOM     88  C   UNL A   1      51.252  27.033  26.603  1.00  0.00     0.060 A 
BRANCH  88  89
ATOM     89  S   UNL A   1      52.965  26.720  26.129  1.00  0.00     0.124 S 
ATOM     90  O   UNL A   1      53.325  25.629  27.029  1.00  0.00    -0.237 OA
ATOM     91  O   UNL A   1      52.837  26.363  24.720  1.00  0.00    -0.237 OA
ATOM     92  O   UNL A   1      53.628  27.994  26.389  1.00  0.00    -0.744 OA
ENDBRANCH  88  89
ENDBRANCH  56  81
ENDBRANCH  30  31
ENDBRANCH  23  25
ENDBRANCH  22  23
ENDBRANCH  21  22
ENDBRANCH   1  21
TORSDOF 17
ENDMDL
MODEL 2
REMARK VINA RESULT:      -9.9      5.823     10.964
REMARK SMILES CC1(C)[C@H]2CC[C@]1(C)[C@H](NC(=O)CCC(=O)OCCOC(=O)c1ccc(-c3c4nc(c(-c5c(F)cc(S(=O)(=O)[O-])cc5F)c5ccc([nH]5)c(-c5c(F)cc(S(=O)(=O)[O-])cc5F)c5nc(c(-c6c(F)cc(S(=O)(=O)[O-])cc6F)c6ccc3[nH]6)C=C5)C=C4)cc1)C2
REMARK SMILES IDX 18 1 17 2 15 3 16 4 14 5 13 6 11 7 10 8 12 10 9 11 1 12 2 13
REMARK SMILES IDX 3 14 4 15 7 16 5 17 89 18 6 19 8 20 19 21 20 22 21 23 22 24
REMARK SMILES IDX 23 25 24 26 88 27 25 28 87 29 26 30 27 31 28 32 81 33 29 34
REMARK SMILES IDX 86 35 80 36 82 37 30 38 85 39 79 40 78 41 31 43 65 44 44 45
REMARK SMILES IDX 64 46 45 47 48 48 63 49 83 50 46 51 47 52 62 54 84 55 49 56
REMARK SMILES IDX 32 57 33 58 42 59 34 60 35 61 41 62 43 63 36 64 37 65 38 66
REMARK SMILES IDX 39 67 40 68 66 69 67 70 76 71 68 72 69 73 75 74 77 75 70 76
REMARK SMILES IDX 71 77 72 78 73 79 74 80 50 81 51 82 60 83 52 84 53 85 59 86
REMARK SMILES IDX 61 87 54 88 55 89 56 90 57 91 58 92
REMARK H PARENT 10 9 82 42 48 53
REMARK Flexibility Score: inf
ROOT
ATOM      1  C   UNL A   1      31.578  30.336  25.577  1.00  0.00     0.274 C 
ENDROOT
BRANCH   1   2
ATOM      2  O   UNL A   1      31.970  29.303  24.586  1.00  0.00    -0.462 OA
BRANCH   2   3
ATOM      3  C   UNL A   1      31.056  28.870  23.650  1.00  0.00     0.306 C 
ATOM      4  O   UNL A   1      30.564  29.629  22.819  1.00  0.00    -0.252 OA
BRANCH   3   5
ATOM      5  C   UNL A   1      30.595  27.343  23.770  1.00  0.00     0.132 C 
BRANCH   5   6
ATOM      6  C   UNL A   1      30.320  26.446  25.062  1.00  0.00     0.111 C 
BRANCH   6   7
ATOM      7  C   UNL A   1      31.402  26.014  26.152  1.00  0.00     0.220 C 
ATOM      8  N   UNL A   1      31.882  24.707  26.337  1.00  0.00    -0.353 N 
ATOM      9  H   UNL A   1      32.025  24.442  27.275  1.00  0.00     0.163 HD
ATOM     10  O   UNL A   1      31.749  26.850  26.997  1.00  0.00    -0.275 OA
BRANCH   8  11
ATOM     11  C   UNL A   1      32.209  23.660  25.326  1.00  0.00     0.088 C 
ATOM     12  C   UNL A   1      35.780  22.936  23.542  1.00  0.00     0.012 C 
ATOM     13  C   UNL A   1      34.535  22.753  24.432  1.00  0.00    -0.025 C 
ATOM     14  C   UNL A   1      34.523  21.240  24.573  1.00  0.00     0.012 C 
ATOM     15  C   UNL A   1      34.523  23.229  25.849  1.00  0.00    -0.003 C 
ATOM     16  C   UNL A   1      33.272  23.753  24.123  1.00  0.00    -0.007 C 
ATOM     17  C   UNL A   1      34.750  24.757  25.641  1.00  0.00     0.005 C 
ATOM     18  C   UNL A   1      33.053  22.740  26.059  1.00  0.00     0.029 C 
ATOM     19  C   UNL A   1      33.961  25.095  24.346  1.00  0.00     0.010 C 
ATOM     20  C   UNL A   1      32.649  23.433  22.781  1.00  0.00     0.014 C 
ENDBRANCH   8  11
ENDBRANCH   6   7
ENDBRANCH   5   6
ENDBRANCH   3   5
ENDBRANCH   2   3
ENDBRANCH   1   2
BRANCH   1  21
ATOM     21  C   UNL A   1      32.291  30.364  26.982  1.00  0.00     0.275 C 
BRANCH  21  22
ATOM     22  O   UNL A   1      33.735  30.572  26.869  1.00  0.00    -0.458 OA
BRANCH  22  23
ATOM     23  C   UNL A   1      34.325  31.592  27.579  1.00  0.00     0.338 C 
ATOM     24  O   UNL A   1      33.832  32.711  27.737  1.00  0.00    -0.246 OA
BRANCH  23  25
ATOM     25  C   UNL A   1      35.513  31.082  28.380  1.00  0.00     0.060 A 
ATOM     26  C   UNL A   1      36.580  31.949  28.605  1.00  0.00     0.016 A 
ATOM     27  C   UNL A   1      35.736  29.710  28.630  1.00  0.00     0.016 A 
ATOM     28  C   UNL A   1      37.854  31.442  28.897  1.00  0.00     0.010 A 
ATOM     29  C   UNL A   1      36.987  29.243  29.131  1.00  0.00     0.010 A 
ATOM     30  C   UNL A   1      38.075  30.115  29.294  1.00  0.00    -0.014 A 
BRANCH  30  31
ATOM     31  C   UNL A   1      39.361  29.759  30.012  1.00  0.00     0.031 A 
ATOM     32  C   UNL A   1      40.377  28.755  29.494  1.00  0.00     0.074 A 
ATOM     33  C   UNL A   1      39.619  30.345  31.210  1.00  0.00     0.049 A 
ATOM     34  N   UNL A   1      41.312  28.109  30.154  1.00  0.00    -0.248 NA
ATOM     35  C   UNL A   1      40.373  28.463  28.052  1.00  0.00     0.031 C 
ATOM     36  C   UNL A   1      38.833  31.419  31.832  1.00  0.00     0.029 A 
ATOM     37  N   UNL A   1      40.607  30.111  32.143  1.00  0.00    -0.354 N 
ATOM     38  C   UNL A   1      41.975  27.300  29.228  1.00  0.00     0.074 A 
ATOM     39  C   UNL A   1      41.350  27.564  27.945  1.00  0.00     0.031 C 
ATOM     40  C   UNL A   1      39.374  31.769  32.999  1.00  0.00     0.029 A 
ATOM     41  C   UNL A   1      40.420  30.820  33.312  1.00  0.00     0.049 A 
ATOM     42  H   UNL A   1      41.366  29.503  31.992  1.00  0.00     0.167 HD
ATOM     43  C   UNL A   1      42.989  26.416  29.439  1.00  0.00     0.037 A 
ATOM     44  C   UNL A   1      40.911  30.669  34.556  1.00  0.00     0.037 A 
ATOM     45  C   UNL A   1      43.615  26.189  30.726  1.00  0.00     0.049 A 
ATOM     46  C   UNL A   1      41.887  29.572  34.817  1.00  0.00     0.074 A 
ATOM     47  C   UNL A   1      44.611  25.282  31.058  1.00  0.00     0.029 A 
ATOM     48  N   UNL A   1      43.316  26.881  31.891  1.00  0.00    -0.354 N 
ATOM     49  N   UNL A   1      42.398  28.715  33.971  1.00  0.00    -0.248 NA
ATOM     50  C   UNL A   1      42.340  29.408  36.203  1.00  0.00     0.031 C 
ATOM     51  C   UNL A   1      44.871  25.388  32.430  1.00  0.00     0.029 A 
ATOM     52  C   UNL A   1      44.086  26.405  32.943  1.00  0.00     0.049 A 
ATOM     53  H   UNL A   1      42.653  27.605  31.962  1.00  0.00     0.167 HD
ATOM     54  C   UNL A   1      43.264  27.928  34.715  1.00  0.00     0.074 A 
ATOM     55  C   UNL A   1      43.207  28.414  36.079  1.00  0.00     0.031 C 
ATOM     56  C   UNL A   1      44.040  26.900  34.297  1.00  0.00     0.037 A 
BRANCH  43  57
ATOM     57  C   UNL A   1      43.459  25.553  28.285  1.00  0.00     0.058 A 
ATOM     58  C   UNL A   1      44.539  25.906  27.461  1.00  0.00     0.135 A 
ATOM     59  C   UNL A   1      42.865  24.296  28.060  1.00  0.00     0.135 A 
ATOM     60  F   UNL A   1      45.155  27.088  27.627  1.00  0.00    -0.206 F 
ATOM     61  C   UNL A   1      44.991  25.065  26.442  1.00  0.00     0.059 A 
ATOM     62  C   UNL A   1      43.316  23.427  27.065  1.00  0.00     0.059 A 
ATOM     63  F   UNL A   1      41.842  23.887  28.826  1.00  0.00    -0.206 F 
ATOM     64  C   UNL A   1      44.370  23.829  26.248  1.00  0.00     0.060 A 
BRANCH  64  65
ATOM     65  S   UNL A   1      44.949  22.759  24.911  1.00  0.00     0.124 S 
ATOM     66  O   UNL A   1      43.718  22.071  24.534  1.00  0.00    -0.237 OA
ATOM     67  O   UNL A   1      45.460  23.720  23.938  1.00  0.00    -0.237 OA
ATOM     68  O   UNL A   1      45.960  21.924  25.552  1.00  0.00    -0.744 OA
ENDBRANCH  64  65
ENDBRANCH  43  57
BRANCH  44  69
ATOM     69  C   UNL A   1      40.381  31.517  35.661  1.00  0.00     0.058 A 
ATOM     70  C   UNL A   1      39.152  31.231  36.267  1.00  0.00     0.135 A 
ATOM     71  C   UNL A   1      41.120  32.605  36.162  1.00  0.00     0.135 A 
ATOM     72  F   UNL A   1      38.407  30.207  35.820  1.00  0.00    -0.206 F 
ATOM     73  C   UNL A   1      38.668  31.994  37.323  1.00  0.00     0.059 A 
ATOM     74  C   UNL A   1      40.676  33.358  37.242  1.00  0.00     0.059 A 
ATOM     75  F   UNL A   1      42.316  32.911  35.633  1.00  0.00    -0.206 F 
ATOM     76  C   UNL A   1      39.440  33.053  37.808  1.00  0.00     0.060 A 
BRANCH  76  77
ATOM     77  S   UNL A   1      38.821  34.007  39.210  1.00  0.00     0.124 S 
ATOM     78  O   UNL A   1      39.804  33.685  40.237  1.00  0.00    -0.237 OA
ATOM     79  O   UNL A   1      38.859  35.371  38.692  1.00  0.00    -0.237 OA
ATOM     80  O   UNL A   1      37.483  33.463  39.423  1.00  0.00    -0.744 OA
ENDBRANCH  76  77
ENDBRANCH  44  69
BRANCH  56  81
ATOM     81  C   UNL A   1      44.948  26.277  35.317  1.00  0.00     0.058 A 
ATOM     82  C   UNL A   1      44.544  25.189  36.106  1.00  0.00     0.135 A 
ATOM     83  C   UNL A   1      46.251  26.768  35.493  1.00  0.00     0.135 A 
ATOM     84  F   UNL A   1      43.301  24.696  35.994  1.00  0.00    -0.206 F 
ATOM     85  C   UNL A   1      45.398  24.618  37.046  1.00  0.00     0.059 A 
ATOM     86  C   UNL A   1      47.131  26.196  36.406  1.00  0.00     0.059 A 
ATOM     87  F   UNL A   1      46.684  27.811  34.767  1.00  0.00    -0.206 F 
ATOM     88  C   UNL A   1      46.691  25.126  37.184  1.00  0.00     0.060 A 
BRANCH  88  89
ATOM     89  S   UNL A   1      47.803  24.345  38.371  1.00  0.00     0.124 S 
ATOM     90  O   UNL A   1      46.891  24.026  39.464  1.00  0.00    -0.237 OA
ATOM     91  O   UNL A   1      48.313  23.205  37.616  1.00  0.00    -0.237 OA
ATOM     92  O   UNL A   1      48.783  25.389  38.656  1.00  0.00    -0.744 OA
ENDBRANCH  88  89
ENDBRANCH  56  81
ENDBRANCH  30  31
ENDBRANCH  23  25
ENDBRANCH  22  23
ENDBRANCH  21  22
ENDBRANCH   1  21
TORSDOF 17
ENDMDL
MODEL 3
REMARK VINA RESULT:      -9.9      3.888      9.612
REMARK SMILES CC1(C)[C@H]2CC[C@]1(C)[C@H](NC(=O)CCC(=O)OCCOC(=O)c1ccc(-c3c4nc(c(-c5c(F)cc(S(=O)(=O)[O-])cc5F)c5ccc([nH]5)c(-c5c(F)cc(S(=O)(=O)[O-])cc5F)c5nc(c(-c6c(F)cc(S(=O)(=O)[O-])cc6F)c6ccc3[nH]6)C=C5)C=C4)cc1)C2
REMARK SMILES IDX 18 1 17 2 15 3 16 4 14 5 13 6 11 7 10 8 12 10 9 11 1 12 2 13
REMARK SMILES IDX 3 14 4 15 7 16 5 17 89 18 6 19 8 20 19 21 20 22 21 23 22 24
REMARK SMILES IDX 23 25 24 26 88 27 25 28 87 29 26 30 27 31 28 32 81 33 29 34
REMARK SMILES IDX 86 35 80 36 82 37 30 38 85 39 79 40 78 41 31 43 65 44 44 45
REMARK SMILES IDX 64 46 45 47 48 48 63 49 83 50 46 51 47 52 62 54 84 55 49 56
REMARK SMILES IDX 32 57 33 58 42 59 34 60 35 61 41 62 43 63 36 64 37 65 38 66
REMARK SMILES IDX 39 67 40 68 66 69 67 70 76 71 68 72 69 73 75 74 77 75 70 76
REMARK SMILES IDX 71 77 72 78 73 79 74 80 50 81 51 82 60 83 52 84 53 85 59 86
REMARK SMILES IDX 61 87 54 88 55 89 56 90 57 91 58 92
REMARK H PARENT 10 9 82 42 48 53
REMARK Flexibility Score: inf
ROOT
ATOM      1  C   UNL A   1      36.118  20.624  25.183  1.00  0.00     0.274 C 
ENDROOT
BRANCH   1   2
ATOM      2  O   UNL A   1      35.080  21.666  25.387  1.00  0.00    -0.462 OA
BRANCH   2   3
ATOM      3  C   UNL A   1      34.351  22.125  24.310  1.00  0.00     0.306 C 
ATOM      4  O   UNL A   1      34.853  22.815  23.428  1.00  0.00    -0.252 OA
BRANCH   3   5
ATOM      5  C   UNL A   1      32.786  21.790  24.327  1.00  0.00     0.132 C 
BRANCH   5   6
ATOM      6  C   UNL A   1      31.660  22.175  25.391  1.00  0.00     0.111 C 
BRANCH   6   7
ATOM      7  C   UNL A   1      31.746  23.353  26.465  1.00  0.00     0.220 C 
ATOM      8  N   UNL A   1      32.258  24.636  26.213  1.00  0.00    -0.353 N 
ATOM      9  H   UNL A   1      32.789  25.026  26.946  1.00  0.00     0.163 HD
ATOM     10  O   UNL A   1      31.478  23.091  27.645  1.00  0.00    -0.275 OA
BRANCH   8  11
ATOM     11  C   UNL A   1      32.120  25.497  25.004  1.00  0.00     0.088 C 
ATOM     12  C   UNL A   1      32.613  29.515  24.726  1.00  0.00     0.012 C 
ATOM     13  C   UNL A   1      32.855  28.004  24.544  1.00  0.00    -0.025 C 
ATOM     14  C   UNL A   1      33.681  28.014  23.268  1.00  0.00     0.012 C 
ATOM     15  C   UNL A   1      33.713  27.238  25.500  1.00  0.00    -0.003 C 
ATOM     16  C   UNL A   1      31.603  27.019  24.934  1.00  0.00    -0.007 C 
ATOM     17  C   UNL A   1      32.920  27.447  26.825  1.00  0.00     0.005 C 
ATOM     18  C   UNL A   1      33.482  25.901  24.724  1.00  0.00     0.029 C 
ATOM     19  C   UNL A   1      31.427  27.413  26.397  1.00  0.00     0.010 C 
ATOM     20  C   UNL A   1      30.458  27.192  23.958  1.00  0.00     0.014 C 
ENDBRANCH   8  11
ENDBRANCH   6   7
ENDBRANCH   5   6
ENDBRANCH   3   5
ENDBRANCH   2   3
ENDBRANCH   1   2
BRANCH   1  21
ATOM     21  C   UNL A   1      37.597  21.065  24.865  1.00  0.00     0.275 C 
BRANCH  21  22
ATOM     22  O   UNL A   1      38.071  22.117  25.765  1.00  0.00    -0.458 OA
BRANCH  22  23
ATOM     23  C   UNL A   1      39.272  21.955  26.416  1.00  0.00     0.338 C 
ATOM     24  O   UNL A   1      39.890  20.890  26.489  1.00  0.00    -0.246 OA
BRANCH  23  25
ATOM     25  C   UNL A   1      39.880  23.300  26.780  1.00  0.00     0.060 A 
ATOM     26  C   UNL A   1      40.949  23.323  27.673  1.00  0.00     0.016 A 
ATOM     27  C   UNL A   1      39.231  24.528  26.524  1.00  0.00     0.016 A 
ATOM     28  C   UNL A   1      41.239  24.485  28.401  1.00  0.00     0.010 A 
ATOM     29  C   UNL A   1      39.682  25.743  27.121  1.00  0.00     0.010 A 
ATOM     30  C   UNL A   1      40.720  25.745  28.067  1.00  0.00    -0.014 A 
BRANCH  30  31
ATOM     31  C   UNL A   1      41.403  26.991  28.590  1.00  0.00     0.031 A 
ATOM     32  C   UNL A   1      40.680  28.129  29.292  1.00  0.00     0.074 A 
ATOM     33  C   UNL A   1      42.741  27.128  28.397  1.00  0.00     0.049 A 
ATOM     34  N   UNL A   1      41.067  29.373  29.465  1.00  0.00    -0.248 NA
ATOM     35  C   UNL A   1      39.380  27.831  29.912  1.00  0.00     0.031 C 
ATOM     36  C   UNL A   1      43.642  26.106  27.848  1.00  0.00     0.029 A 
ATOM     37  N   UNL A   1      43.588  28.193  28.620  1.00  0.00    -0.354 N 
ATOM     38  C   UNL A   1      40.047  30.020  30.165  1.00  0.00     0.074 A 
ATOM     39  C   UNL A   1      39.031  29.015  30.414  1.00  0.00     0.031 C 
ATOM     40  C   UNL A   1      44.892  26.566  27.810  1.00  0.00     0.029 A 
ATOM     41  C   UNL A   1      44.862  27.975  28.136  1.00  0.00     0.049 A 
ATOM     42  H   UNL A   1      43.314  29.020  29.077  1.00  0.00     0.167 HD
ATOM     43  C   UNL A   1      39.965  31.326  30.541  1.00  0.00     0.037 A 
ATOM     44  C   UNL A   1      45.877  28.808  27.841  1.00  0.00     0.037 A 
ATOM     45  C   UNL A   1      41.005  32.308  30.304  1.00  0.00     0.049 A 
ATOM     46  C   UNL A   1      45.706  30.269  28.087  1.00  0.00     0.074 A 
ATOM     47  C   UNL A   1      41.001  33.664  30.596  1.00  0.00     0.029 A 
ATOM     48  N   UNL A   1      42.238  32.038  29.727  1.00  0.00    -0.354 N 
ATOM     49  N   UNL A   1      44.682  30.895  28.610  1.00  0.00    -0.248 NA
ATOM     50  C   UNL A   1      46.816  31.140  27.686  1.00  0.00     0.031 C 
ATOM     51  C   UNL A   1      42.205  34.220  30.146  1.00  0.00     0.029 A 
ATOM     52  C   UNL A   1      42.989  33.202  29.633  1.00  0.00     0.049 A 
ATOM     53  H   UNL A   1      42.538  31.150  29.428  1.00  0.00     0.167 HD
ATOM     54  C   UNL A   1      45.039  32.235  28.635  1.00  0.00     0.074 A 
ATOM     55  C   UNL A   1      46.372  32.326  28.075  1.00  0.00     0.031 C 
ATOM     56  C   UNL A   1      44.322  33.290  29.090  1.00  0.00     0.037 A 
BRANCH  43  57
ATOM     57  C   UNL A   1      38.686  31.824  31.185  1.00  0.00     0.058 A 
ATOM     58  C   UNL A   1      38.475  31.803  32.572  1.00  0.00     0.135 A 
ATOM     59  C   UNL A   1      37.686  32.421  30.393  1.00  0.00     0.135 A 
ATOM     60  F   UNL A   1      39.392  31.255  33.386  1.00  0.00    -0.206 F 
ATOM     61  C   UNL A   1      37.313  32.323  33.146  1.00  0.00     0.059 A 
ATOM     62  C   UNL A   1      36.529  32.970  30.945  1.00  0.00     0.059 A 
ATOM     63  F   UNL A   1      37.836  32.494  29.061  1.00  0.00    -0.206 F 
ATOM     64  C   UNL A   1      36.342  32.901  32.324  1.00  0.00     0.060 A 
BRANCH  64  65
ATOM     65  S   UNL A   1      34.831  33.549  33.076  1.00  0.00     0.124 S 
ATOM     66  O   UNL A   1      35.127  33.401  34.498  1.00  0.00    -0.237 OA
ATOM     67  O   UNL A   1      34.794  34.919  32.577  1.00  0.00    -0.237 OA
ATOM     68  O   UNL A   1      33.786  32.669  32.561  1.00  0.00    -0.744 OA
ENDBRANCH  64  65
ENDBRANCH  43  57
BRANCH  44  69
ATOM     69  C   UNL A   1      47.094  28.270  27.170  1.00  0.00     0.058 A 
ATOM     70  C   UNL A   1      47.154  28.140  25.777  1.00  0.00     0.135 A 
ATOM     71  C   UNL A   1      48.240  27.919  27.909  1.00  0.00     0.135 A 
ATOM     72  F   UNL A   1      46.085  28.456  25.029  1.00  0.00    -0.206 F 
ATOM     73  C   UNL A   1      48.299  27.675  25.140  1.00  0.00     0.059 A 
ATOM     74  C   UNL A   1      49.408  27.490  27.293  1.00  0.00     0.059 A 
ATOM     75  F   UNL A   1      48.245  28.045  29.246  1.00  0.00    -0.206 F 
ATOM     76  C   UNL A   1      49.423  27.358  25.906  1.00  0.00     0.060 A 
BRANCH  76  77
ATOM     77  S   UNL A   1      50.918  26.799  25.062  1.00  0.00     0.124 S 
ATOM     78  O   UNL A   1      51.827  27.910  25.314  1.00  0.00    -0.237 OA
ATOM     79  O   UNL A   1      51.218  25.555  25.763  1.00  0.00    -0.237 OA
ATOM     80  O   UNL A   1      50.483  26.640  23.677  1.00  0.00    -0.744 OA
ENDBRANCH  76  77
ENDBRANCH  44  69
BRANCH  56  81
ATOM     81  C   UNL A   1      44.998  34.630  29.068  1.00  0.00     0.058 A 
ATOM     82  C   UNL A   1      44.871  35.508  27.981  1.00  0.00     0.135 A 
ATOM     83  C   UNL A   1      45.772  35.045  30.163  1.00  0.00     0.135 A 
ATOM     84  F   UNL A   1      44.161  35.149  26.900  1.00  0.00    -0.206 F 
ATOM     85  C   UNL A   1      45.500  36.750  27.976  1.00  0.00     0.059 A 
ATOM     86  C   UNL A   1      46.387  36.293  30.191  1.00  0.00     0.059 A 
ATOM     87  F   UNL A   1      45.930  34.239  31.224  1.00  0.00    -0.206 F 
ATOM     88  C   UNL A   1      46.252  37.134  29.087  1.00  0.00     0.060 A 
BRANCH  88  89
ATOM     89  S   UNL A   1      47.022  38.766  29.087  1.00  0.00     0.124 S 
ATOM     90  O   UNL A   1      47.207  39.005  27.660  1.00  0.00    -0.237 OA
ATOM     91  O   UNL A   1      46.010  39.588  29.743  1.00  0.00    -0.237 OA
ATOM     92  O   UNL A   1      48.248  38.563  29.853  1.00  0.00    -0.744 OA
ENDBRANCH  88  89
ENDBRANCH  56  81
ENDBRANCH  30  31
ENDBRANCH  23  25
ENDBRANCH  22  23
ENDBRANCH  21  22
ENDBRANCH   1  21
TORSDOF 17
ENDMDL
