MODEL 1
REMARK VINA RESULT:     -11.5      0.000      0.000
REMARK SMILES CCCc1cc(OC(F)(F)F)cc2c1O[C@H](C(F)(F)F)C(C(=O)OCCOC(=O)c1ccc(-c3c4nc(c(-c5c(F)cc(S(=O)(=O)[O-])cc5F)c5ccc([nH]5)c(-c5c(F)cc(S(=O)(=O)[O-])cc5F)c5nc(c(-c6c(F)cc(S(=O)(=O)[O-])cc6F)c6ccc3[nH]6)C=C5)C=C4)cc1)=C2
REMARK SMILES IDX 26 1 25 2 24 3 22 4 23 5 21 6 4 7 5 8 14 9 6 10 13 11 15 12
REMARK SMILES IDX 12 13 96 14 16 15 3 16 2 17 1 18 7 19 8 20 9 21 10 22 11 23
REMARK SMILES IDX 17 24 18 25 19 26 20 27 27 28 28 29 29 30 30 31 31 32 95 33
REMARK SMILES IDX 32 34 94 35 33 36 34 37 35 38 88 39 36 40 93 41 87 42 89 43
REMARK SMILES IDX 37 44 92 45 86 46 85 47 38 49 72 50 51 51 71 52 52 53 55 54
REMARK SMILES IDX 70 55 90 56 53 57 54 58 69 60 91 61 56 62 39 63 40 64 49 65
REMARK SMILES IDX 41 66 42 67 48 68 50 69 43 70 44 71 45 72 46 73 47 74 73 75
REMARK SMILES IDX 74 76 83 77 75 78 76 79 82 80 84 81 77 82 78 83 79 84 80 85
REMARK SMILES IDX 81 86 57 87 58 88 67 89 59 90 60 91 66 92 68 93 61 94 62 95
REMARK SMILES IDX 63 96 64 97 65 98
REMARK H PARENT 89 48 55 59
REMARK Flexibility Score: inf
ROOT
ATOM      1  C   UNL A   1      33.511  28.786  25.977  1.00  0.00     0.275 C 
ENDROOT
BRANCH   1   2
ATOM      2  C   UNL A   1      31.992  28.686  25.843  1.00  0.00     0.275 C 
BRANCH   2   3
ATOM      3  O   UNL A   1      31.598  27.504  25.114  1.00  0.00    -0.459 OA
BRANCH   3   4
ATOM      4  C   UNL A   1      31.358  26.412  25.882  1.00  0.00     0.338 C 
ATOM      5  O   UNL A   1      30.597  26.354  26.827  1.00  0.00    -0.246 OA
BRANCH   4   6
ATOM      6  C   UNL A   1      32.127  25.238  25.434  1.00  0.00     0.087 C 
ATOM      7  C   UNL A   1      33.319  21.331  24.664  1.00  0.00    -0.002 A 
ATOM      8  C   UNL A   1      34.644  20.978  24.954  1.00  0.00     0.054 A 
ATOM      9  C   UNL A   1      32.903  22.621  25.020  1.00  0.00     0.131 A 
ATOM     10  C   UNL A   1      35.495  21.855  25.643  1.00  0.00     0.130 A 
ATOM     11  C   UNL A   1      33.747  23.521  25.695  1.00  0.00     0.021 A 
ATOM     12  O   UNL A   1      31.626  22.987  24.657  1.00  0.00    -0.475 OA
ATOM     13  C   UNL A   1      35.042  23.126  26.011  1.00  0.00     0.058 A 
ATOM     14  C   UNL A   1      33.225  24.831  26.084  1.00  0.00     0.027 C 
ATOM     15  C   UNL A   1      31.522  24.396  24.335  1.00  0.00     0.316 C 
BRANCH   7  16
ATOM     16  C   UNL A   1      32.341  20.427  23.935  1.00  0.00     0.039 C 
BRANCH  16  17
ATOM     17  C   UNL A   1      32.733  18.968  23.675  1.00  0.00     0.001 C 
ATOM     18  C   UNL A   1      32.416  18.038  24.837  1.00  0.00     0.004 C 
ENDBRANCH  16  17
ENDBRANCH   7  16
BRANCH  10  19
ATOM     19  O   UNL A   1      36.787  21.594  26.003  1.00  0.00    -0.406 OA
BRANCH  19  20
ATOM     20  C   UNL A   1      37.723  21.399  24.956  1.00  0.00     0.573 C 
ATOM     21  F   UNL A   1      37.815  20.096  24.613  1.00  0.00    -0.132 F 
ATOM     22  F   UNL A   1      37.400  22.133  23.872  1.00  0.00    -0.132 F 
ATOM     23  F   UNL A   1      38.940  21.802  25.388  1.00  0.00    -0.132 F 
ENDBRANCH  19  20
ENDBRANCH  10  19
BRANCH  15  24
ATOM     24  C   UNL A   1      32.100  24.708  22.932  1.00  0.00     0.430 C 
ATOM     25  F   UNL A   1      32.559  23.609  22.287  1.00  0.00    -0.167 F 
ATOM     26  F   UNL A   1      31.161  25.264  22.132  1.00  0.00    -0.167 F 
ATOM     27  F   UNL A   1      33.133  25.580  22.999  1.00  0.00    -0.167 F 
ENDBRANCH  15  24
ENDBRANCH   4   6
ENDBRANCH   3   4
ENDBRANCH   2   3
ENDBRANCH   1   2
BRANCH   1  28
ATOM     28  O   UNL A   1      33.887  28.819  27.366  1.00  0.00    -0.458 OA
BRANCH  28  29
ATOM     29  C   UNL A   1      34.314  30.017  27.823  1.00  0.00     0.338 C 
ATOM     30  O   UNL A   1      33.646  31.032  27.963  1.00  0.00    -0.246 OA
BRANCH  29  31
ATOM     31  C   UNL A   1      35.738  29.949  28.182  1.00  0.00     0.060 A 
ATOM     32  C   UNL A   1      36.702  30.223  27.217  1.00  0.00     0.016 A 
ATOM     33  C   UNL A   1      36.122  29.452  29.426  1.00  0.00     0.016 A 
ATOM     34  C   UNL A   1      38.032  29.878  27.440  1.00  0.00     0.010 A 
ATOM     35  C   UNL A   1      37.478  29.233  29.693  1.00  0.00     0.010 A 
ATOM     36  C   UNL A   1      38.450  29.401  28.688  1.00  0.00    -0.014 A 
BRANCH  36  37
ATOM     37  C   UNL A   1      39.883  29.061  28.940  1.00  0.00     0.031 A 
ATOM     38  C   UNL A   1      40.825  30.102  29.494  1.00  0.00     0.074 A 
ATOM     39  C   UNL A   1      40.353  27.826  28.668  1.00  0.00     0.049 A 
ATOM     40  N   UNL A   1      42.133  30.096  29.538  1.00  0.00    -0.248 NA
ATOM     41  C   UNL A   1      40.216  31.319  30.056  1.00  0.00     0.031 C 
ATOM     42  C   UNL A   1      39.555  26.698  28.182  1.00  0.00     0.029 A 
ATOM     43  N   UNL A   1      41.624  27.308  28.759  1.00  0.00    -0.354 N 
ATOM     44  C   UNL A   1      42.505  31.331  30.060  1.00  0.00     0.074 A 
ATOM     45  C   UNL A   1      41.283  32.059  30.326  1.00  0.00     0.031 C 
ATOM     46  C   UNL A   1      40.340  25.618  28.057  1.00  0.00     0.029 A 
ATOM     47  C   UNL A   1      41.717  26.002  28.338  1.00  0.00     0.049 A 
ATOM     48  H   UNL A   1      42.393  27.823  29.094  1.00  0.00     0.167 HD
ATOM     49  C   UNL A   1      43.752  31.810  30.289  1.00  0.00     0.037 A 
ATOM     50  C   UNL A   1      42.788  25.212  28.131  1.00  0.00     0.037 A 
ATOM     51  C   UNL A   1      44.958  31.046  30.088  1.00  0.00     0.049 A 
ATOM     52  C   UNL A   1      44.162  25.771  28.361  1.00  0.00     0.074 A 
ATOM     53  C   UNL A   1      46.270  31.433  30.307  1.00  0.00     0.029 A 
ATOM     54  N   UNL A   1      45.000  29.733  29.640  1.00  0.00    -0.354 N 
ATOM     55  N   UNL A   1      44.502  26.967  28.777  1.00  0.00    -0.248 NA
ATOM     56  C   UNL A   1      45.296  24.887  28.068  1.00  0.00     0.031 C 
ATOM     57  C   UNL A   1      47.106  30.366  29.961  1.00  0.00     0.029 A 
ATOM     58  C   UNL A   1      46.314  29.299  29.568  1.00  0.00     0.049 A 
ATOM     59  H   UNL A   1      44.212  29.191  29.409  1.00  0.00     0.167 HD
ATOM     60  C   UNL A   1      45.892  26.975  28.807  1.00  0.00     0.074 A 
ATOM     61  C   UNL A   1      46.327  25.660  28.382  1.00  0.00     0.031 C 
ATOM     62  C   UNL A   1      46.729  27.983  29.151  1.00  0.00     0.037 A 
BRANCH  49  63
ATOM     63  C   UNL A   1      43.888  33.239  30.745  1.00  0.00     0.058 A 
ATOM     64  C   UNL A   1      43.974  34.310  29.843  1.00  0.00     0.135 A 
ATOM     65  C   UNL A   1      43.884  33.542  32.118  1.00  0.00     0.135 A 
ATOM     66  F   UNL A   1      43.995  34.081  28.521  1.00  0.00    -0.206 F 
ATOM     67  C   UNL A   1      44.076  35.628  30.284  1.00  0.00     0.059 A 
ATOM     68  C   UNL A   1      43.959  34.852  32.581  1.00  0.00     0.059 A 
ATOM     69  F   UNL A   1      43.801  32.557  33.027  1.00  0.00    -0.206 F 
ATOM     70  C   UNL A   1      44.069  35.889  31.657  1.00  0.00     0.060 A 
BRANCH  70  71
ATOM     71  S   UNL A   1      44.197  37.601  32.216  1.00  0.00     0.124 S 
ATOM     72  O   UNL A   1      45.605  37.682  32.589  1.00  0.00    -0.237 OA
ATOM     73  O   UNL A   1      43.814  38.350  31.023  1.00  0.00    -0.237 OA
ATOM     74  O   UNL A   1      43.249  37.669  33.324  1.00  0.00    -0.744 OA
ENDBRANCH  70  71
ENDBRANCH  49  63
BRANCH  50  75
ATOM     75  C   UNL A   1      42.595  23.828  27.619  1.00  0.00     0.058 A 
ATOM     76  C   UNL A   1      42.548  23.567  26.242  1.00  0.00     0.135 A 
ATOM     77  C   UNL A   1      42.495  22.736  28.495  1.00  0.00     0.135 A 
ATOM     78  F   UNL A   1      42.627  24.579  25.364  1.00  0.00    -0.206 F 
ATOM     79  C   UNL A   1      42.409  22.272  25.751  1.00  0.00     0.059 A 
ATOM     80  C   UNL A   1      42.387  21.430  28.029  1.00  0.00     0.059 A 
ATOM     81  F   UNL A   1      42.548  22.930  29.822  1.00  0.00    -0.206 F 
ATOM     82  C   UNL A   1      42.336  21.210  26.654  1.00  0.00     0.060 A 
BRANCH  82  83
ATOM     83  S   UNL A   1      42.228  19.526  26.009  1.00  0.00     0.124 S 
ATOM     84  O   UNL A   1      43.141  19.587  24.875  1.00  0.00    -0.237 OA
ATOM     85  O   UNL A   1      42.674  18.730  27.148  1.00  0.00    -0.237 OA
ATOM     86  O   UNL A   1      40.813  19.386  25.675  1.00  0.00    -0.744 OA
ENDBRANCH  82  83
ENDBRANCH  50  75
BRANCH  62  87
ATOM     87  C   UNL A   1      48.202  27.693  29.122  1.00  0.00     0.058 A 
ATOM     88  C   UNL A   1      48.872  27.170  30.237  1.00  0.00     0.135 A 
ATOM     89  C   UNL A   1      48.939  27.889  27.943  1.00  0.00     0.135 A 
ATOM     90  F   UNL A   1      48.214  26.975  31.391  1.00  0.00    -0.206 F 
ATOM     91  C   UNL A   1      50.229  26.866  30.191  1.00  0.00     0.059 A 
ATOM     92  C   UNL A   1      50.291  27.570  27.866  1.00  0.00     0.059 A 
ATOM     93  F   UNL A   1      48.341  28.382  26.846  1.00  0.00    -0.206 F 
ATOM     94  C   UNL A   1      50.929  27.066  28.999  1.00  0.00     0.060 A 
BRANCH  94  95
ATOM     95  S   UNL A   1      52.678  26.625  28.937  1.00  0.00     0.124 S 
ATOM     96  O   UNL A   1      53.309  27.938  28.840  1.00  0.00    -0.237 OA
ATOM     97  O   UNL A   1      52.869  25.923  30.202  1.00  0.00    -0.237 OA
ATOM     98  O   UNL A   1      52.776  25.791  27.743  1.00  0.00    -0.744 OA
ENDBRANCH  94  95
ENDBRANCH  62  87
ENDBRANCH  36  37
ENDBRANCH  29  31
ENDBRANCH  28  29
ENDBRANCH   1  28
TORSDOF 19
ENDMDL
MODEL 2
REMARK VINA RESULT:     -11.4      3.794      9.740
REMARK SMILES CCCc1cc(OC(F)(F)F)cc2c1O[C@H](C(F)(F)F)C(C(=O)OCCOC(=O)c1ccc(-c3c4nc(c(-c5c(F)cc(S(=O)(=O)[O-])cc5F)c5ccc([nH]5)c(-c5c(F)cc(S(=O)(=O)[O-])cc5F)c5nc(c(-c6c(F)cc(S(=O)(=O)[O-])cc6F)c6ccc3[nH]6)C=C5)C=C4)cc1)=C2
REMARK SMILES IDX 26 1 25 2 24 3 22 4 23 5 21 6 4 7 5 8 14 9 6 10 13 11 15 12
REMARK SMILES IDX 12 13 96 14 16 15 3 16 2 17 1 18 7 19 8 20 9 21 10 22 11 23
REMARK SMILES IDX 17 24 18 25 19 26 20 27 27 28 28 29 29 30 30 31 31 32 95 33
REMARK SMILES IDX 32 34 94 35 33 36 34 37 35 38 88 39 36 40 93 41 87 42 89 43
REMARK SMILES IDX 37 44 92 45 86 46 85 47 38 49 72 50 51 51 71 52 52 53 55 54
REMARK SMILES IDX 70 55 90 56 53 57 54 58 69 60 91 61 56 62 39 63 40 64 49 65
REMARK SMILES IDX 41 66 42 67 48 68 50 69 43 70 44 71 45 72 46 73 47 74 73 75
REMARK SMILES IDX 74 76 83 77 75 78 76 79 82 80 84 81 77 82 78 83 79 84 80 85
REMARK SMILES IDX 81 86 57 87 58 88 67 89 59 90 60 91 66 92 68 93 61 94 62 95
REMARK SMILES IDX 63 96 64 97 65 98
REMARK H PARENT 89 48 55 59
REMARK Flexibility Score: inf
ROOT
ATOM      1  C   UNL A   1      36.206  23.110  25.822  1.00  0.00     0.275 C 
ENDROOT
BRANCH   1   2
ATOM      2  C   UNL A   1      35.615  22.134  24.805  1.00  0.00     0.275 C 
BRANCH   2   3
ATOM      3  O   UNL A   1      34.273  22.507  24.426  1.00  0.00    -0.459 OA
BRANCH   3   4
ATOM      4  C   UNL A   1      34.194  23.435  23.440  1.00  0.00     0.338 C 
ATOM      5  O   UNL A   1      34.690  23.349  22.334  1.00  0.00    -0.246 OA
BRANCH   4   6
ATOM      6  C   UNL A   1      33.398  24.607  23.843  1.00  0.00     0.087 C 
ATOM      7  C   UNL A   1      30.931  27.952  23.756  1.00  0.00    -0.002 A 
ATOM      8  C   UNL A   1      31.328  29.080  24.486  1.00  0.00     0.054 A 
ATOM      9  C   UNL A   1      31.819  26.868  23.713  1.00  0.00     0.131 A 
ATOM     10  C   UNL A   1      32.594  29.151  25.084  1.00  0.00     0.130 A 
ATOM     11  C   UNL A   1      33.086  26.913  24.322  1.00  0.00     0.021 A 
ATOM     12  O   UNL A   1      31.387  25.733  23.063  1.00  0.00    -0.475 OA
ATOM     13  C   UNL A   1      33.470  28.064  25.000  1.00  0.00     0.058 A 
ATOM     14  C   UNL A   1      33.982  25.763  24.188  1.00  0.00     0.027 C 
ATOM     15  C   UNL A   1      31.901  24.519  23.664  1.00  0.00     0.316 C 
BRANCH   7  16
ATOM     16  C   UNL A   1      29.583  27.815  23.072  1.00  0.00     0.039 C 
BRANCH  16  17
ATOM     17  C   UNL A   1      28.810  29.084  22.696  1.00  0.00     0.001 C 
ATOM     18  C   UNL A   1      27.321  28.998  22.996  1.00  0.00     0.004 C 
ENDBRANCH  16  17
ENDBRANCH   7  16
BRANCH  10  19
ATOM     19  O   UNL A   1      33.087  30.215  25.785  1.00  0.00    -0.406 OA
BRANCH  19  20
ATOM     20  C   UNL A   1      32.518  30.471  27.058  1.00  0.00     0.573 C 
ATOM     21  F   UNL A   1      32.017  29.345  27.610  1.00  0.00    -0.132 F 
ATOM     22  F   UNL A   1      33.422  31.023  27.893  1.00  0.00    -0.132 F 
ATOM     23  F   UNL A   1      31.499  31.347  26.905  1.00  0.00    -0.132 F 
ENDBRANCH  19  20
ENDBRANCH  10  19
BRANCH  15  24
ATOM     24  C   UNL A   1      31.145  24.161  24.969  1.00  0.00     0.430 C 
ATOM     25  F   UNL A   1      30.028  24.901  25.160  1.00  0.00    -0.167 F 
ATOM     26  F   UNL A   1      30.756  22.865  24.965  1.00  0.00    -0.167 F 
ATOM     27  F   UNL A   1      31.922  24.340  26.062  1.00  0.00    -0.167 F 
ENDBRANCH  15  24
ENDBRANCH   4   6
ENDBRANCH   3   4
ENDBRANCH   2   3
ENDBRANCH   1   2
BRANCH   1  28
ATOM     28  O   UNL A   1      37.404  23.710  25.298  1.00  0.00    -0.458 OA
BRANCH  28  29
ATOM     29  C   UNL A   1      38.562  23.228  25.802  1.00  0.00     0.338 C 
ATOM     30  O   UNL A   1      39.063  22.135  25.580  1.00  0.00    -0.246 OA
BRANCH  29  31
ATOM     31  C   UNL A   1      39.199  24.232  26.667  1.00  0.00     0.060 A 
ATOM     32  C   UNL A   1      38.907  24.249  28.027  1.00  0.00     0.016 A 
ATOM     33  C   UNL A   1      39.953  25.260  26.105  1.00  0.00     0.016 A 
ATOM     34  C   UNL A   1      39.251  25.354  28.802  1.00  0.00     0.010 A 
ATOM     35  C   UNL A   1      40.413  26.303  26.918  1.00  0.00     0.010 A 
ATOM     36  C   UNL A   1      40.031  26.389  28.270  1.00  0.00    -0.014 A 
BRANCH  36  37
ATOM     37  C   UNL A   1      40.429  27.558  29.109  1.00  0.00     0.031 A 
ATOM     38  C   UNL A   1      41.726  27.534  29.880  1.00  0.00     0.074 A 
ATOM     39  C   UNL A   1      39.633  28.645  29.193  1.00  0.00     0.049 A 
ATOM     40  N   UNL A   1      42.126  28.315  30.852  1.00  0.00    -0.248 NA
ATOM     41  C   UNL A   1      42.692  26.483  29.525  1.00  0.00     0.031 C 
ATOM     42  C   UNL A   1      38.377  28.841  28.464  1.00  0.00     0.029 A 
ATOM     43  N   UNL A   1      39.759  29.796  29.935  1.00  0.00    -0.354 N 
ATOM     44  C   UNL A   1      43.351  27.806  31.273  1.00  0.00     0.074 A 
ATOM     45  C   UNL A   1      43.633  26.653  30.444  1.00  0.00     0.031 C 
ATOM     46  C   UNL A   1      37.873  30.046  28.761  1.00  0.00     0.029 A 
ATOM     47  C   UNL A   1      38.701  30.662  29.789  1.00  0.00     0.049 A 
ATOM     48  H   UNL A   1      40.532  29.981  30.515  1.00  0.00     0.167 HD
ATOM     49  C   UNL A   1      44.158  28.259  32.263  1.00  0.00     0.037 A 
ATOM     50  C   UNL A   1      38.384  31.793  30.449  1.00  0.00     0.037 A 
ATOM     51  C   UNL A   1      43.900  29.450  33.031  1.00  0.00     0.049 A 
ATOM     52  C   UNL A   1      39.275  32.261  31.563  1.00  0.00     0.074 A 
ATOM     53  C   UNL A   1      44.664  30.005  34.045  1.00  0.00     0.029 A 
ATOM     54  N   UNL A   1      42.803  30.283  32.859  1.00  0.00    -0.354 N 
ATOM     55  N   UNL A   1      40.387  31.725  32.005  1.00  0.00    -0.248 NA
ATOM     56  C   UNL A   1      38.857  33.468  32.286  1.00  0.00     0.031 C 
ATOM     57  C   UNL A   1      44.014  31.154  34.507  1.00  0.00     0.029 A 
ATOM     58  C   UNL A   1      42.866  31.341  33.753  1.00  0.00     0.049 A 
ATOM     59  H   UNL A   1      42.088  30.143  32.199  1.00  0.00     0.167 HD
ATOM     60  C   UNL A   1      40.809  32.538  33.051  1.00  0.00     0.074 A 
ATOM     61  C   UNL A   1      39.840  33.609  33.165  1.00  0.00     0.031 C 
ATOM     62  C   UNL A   1      41.898  32.404  33.847  1.00  0.00     0.037 A 
BRANCH  49  63
ATOM     63  C   UNL A   1      45.380  27.447  32.607  1.00  0.00     0.058 A 
ATOM     64  C   UNL A   1      45.328  26.342  33.470  1.00  0.00     0.135 A 
ATOM     65  C   UNL A   1      46.619  27.757  32.018  1.00  0.00     0.135 A 
ATOM     66  F   UNL A   1      44.177  26.006  34.070  1.00  0.00    -0.206 F 
ATOM     67  C   UNL A   1      46.465  25.589  33.758  1.00  0.00     0.059 A 
ATOM     68  C   UNL A   1      47.761  27.003  32.270  1.00  0.00     0.059 A 
ATOM     69  F   UNL A   1      46.726  28.802  31.181  1.00  0.00    -0.206 F 
ATOM     70  C   UNL A   1      47.678  25.929  33.153  1.00  0.00     0.060 A 
BRANCH  70  71
ATOM     71  S   UNL A   1      49.143  24.942  33.530  1.00  0.00     0.124 S 
ATOM     72  O   UNL A   1      49.868  25.830  34.432  1.00  0.00    -0.237 OA
ATOM     73  O   UNL A   1      48.567  23.749  34.143  1.00  0.00    -0.237 OA
ATOM     74  O   UNL A   1      49.759  24.735  32.223  1.00  0.00    -0.744 OA
ENDBRANCH  70  71
ENDBRANCH  49  63
BRANCH  50  75
ATOM     75  C   UNL A   1      37.131  32.519  30.109  1.00  0.00     0.058 A 
ATOM     76  C   UNL A   1      35.922  32.216  30.753  1.00  0.00     0.135 A 
ATOM     77  C   UNL A   1      37.125  33.557  29.164  1.00  0.00     0.135 A 
ATOM     78  F   UNL A   1      35.874  31.225  31.655  1.00  0.00    -0.206 F 
ATOM     79  C   UNL A   1      34.753  32.916  30.471  1.00  0.00     0.059 A 
ATOM     80  C   UNL A   1      35.977  34.291  28.888  1.00  0.00     0.059 A 
ATOM     81  F   UNL A   1      38.259  33.895  28.528  1.00  0.00    -0.206 F 
ATOM     82  C   UNL A   1      34.793  33.957  29.542  1.00  0.00     0.060 A 
BRANCH  82  83
ATOM     83  S   UNL A   1      33.287  34.907  29.235  1.00  0.00     0.124 S 
ATOM     84  O   UNL A   1      32.615  34.078  28.243  1.00  0.00    -0.237 OA
ATOM     85  O   UNL A   1      32.673  34.948  30.559  1.00  0.00    -0.237 OA
ATOM     86  O   UNL A   1      33.794  36.189  28.750  1.00  0.00    -0.744 OA
ENDBRANCH  82  83
ENDBRANCH  50  75
BRANCH  62  87
ATOM     87  C   UNL A   1      42.122  33.463  34.887  1.00  0.00     0.058 A 
ATOM     88  C   UNL A   1      41.702  33.292  36.214  1.00  0.00     0.135 A 
ATOM     89  C   UNL A   1      42.815  34.640  34.562  1.00  0.00     0.135 A 
ATOM     90  F   UNL A   1      41.025  32.189  36.573  1.00  0.00    -0.206 F 
ATOM     91  C   UNL A   1      41.948  34.260  37.183  1.00  0.00     0.059 A 
ATOM     92  C   UNL A   1      43.093  35.610  35.518  1.00  0.00     0.059 A 
ATOM     93  F   UNL A   1      43.243  34.847  33.306  1.00  0.00    -0.206 F 
ATOM     94  C   UNL A   1      42.648  35.415  36.825  1.00  0.00     0.060 A 
BRANCH  94  95
ATOM     95  S   UNL A   1      43.001  36.643  38.100  1.00  0.00     0.124 S 
ATOM     96  O   UNL A   1      43.377  35.796  39.228  1.00  0.00    -0.237 OA
ATOM     97  O   UNL A   1      44.082  37.416  37.499  1.00  0.00    -0.237 OA
ATOM     98  O   UNL A   1      41.734  37.355  38.245  1.00  0.00    -0.744 OA
ENDBRANCH  94  95
ENDBRANCH  62  87
ENDBRANCH  36  37
ENDBRANCH  29  31
ENDBRANCH  28  29
ENDBRANCH   1  28
TORSDOF 19
ENDMDL
MODEL 3
REMARK VINA RESULT:     -11.3      3.973      7.294
REMARK SMILES CCCc1cc(OC(F)(F)F)cc2c1O[C@H](C(F)(F)F)C(C(=O)OCCOC(=O)c1ccc(-c3c4nc(c(-c5c(F)cc(S(=O)(=O)[O-])cc5F)c5ccc([nH]5)c(-c5c(F)cc(S(=O)(=O)[O-])cc5F)c5nc(c(-c6c(F)cc(S(=O)(=O)[O-])cc6F)c6ccc3[nH]6)C=C5)C=C4)cc1)=C2
REMARK SMILES IDX 26 1 25 2 24 3 22 4 23 5 21 6 4 7 5 8 14 9 6 10 13 11 15 12
REMARK SMILES IDX 12 13 96 14 16 15 3 16 2 17 1 18 7 19 8 20 9 21 10 22 11 23
REMARK SMILES IDX 17 24 18 25 19 26 20 27 27 28 28 29 29 30 30 31 31 32 95 33
REMARK SMILES IDX 32 34 94 35 33 36 34 37 35 38 88 39 36 40 93 41 87 42 89 43
REMARK SMILES IDX 37 44 92 45 86 46 85 47 38 49 72 50 51 51 71 52 52 53 55 54
REMARK SMILES IDX 70 55 90 56 53 57 54 58 69 60 91 61 56 62 39 63 40 64 49 65
REMARK SMILES IDX 41 66 42 67 48 68 50 69 43 70 44 71 45 72 46 73 47 74 73 75
REMARK SMILES IDX 74 76 83 77 75 78 76 79 82 80 84 81 77 82 78 83 79 84 80 85
REMARK SMILES IDX 81 86 57 87 58 88 67 89 59 90 60 91 66 92 68 93 61 94 62 95
REMARK SMILES IDX 63 96 64 97 65 98
REMARK H PARENT 89 48 55 59
REMARK Flexibility Score: inf
ROOT
ATOM      1  C   UNL A   1      33.654  32.839  27.986  1.00  0.00     0.275 C 
ENDROOT
BRANCH   1   2
ATOM      2  C   UNL A   1      34.245  34.172  28.443  1.00  0.00     0.275 C 
BRANCH   2   3
ATOM      3  O   UNL A   1      35.229  33.991  29.483  1.00  0.00    -0.459 OA
BRANCH   3   4
ATOM      4  C   UNL A   1      34.748  34.088  30.748  1.00  0.00     0.338 C 
ATOM      5  O   UNL A   1      33.657  34.514  31.070  1.00  0.00    -0.246 OA
BRANCH   4   6
ATOM      6  C   UNL A   1      35.710  33.588  31.747  1.00  0.00     0.087 C 
ATOM      7  C   UNL A   1      39.180  32.945  33.944  1.00  0.00    -0.002 A 
ATOM      8  C   UNL A   1      39.528  31.623  34.250  1.00  0.00     0.054 A 
ATOM      9  C   UNL A   1      38.063  33.142  33.119  1.00  0.00     0.131 A 
ATOM     10  C   UNL A   1      38.833  30.540  33.691  1.00  0.00     0.130 A 
ATOM     11  C   UNL A   1      37.343  32.070  32.564  1.00  0.00     0.021 A 
ATOM     12  O   UNL A   1      37.679  34.445  32.891  1.00  0.00    -0.475 OA
ATOM     13  C   UNL A   1      37.741  30.769  32.849  1.00  0.00     0.058 A 
ATOM     14  C   UNL A   1      36.222  32.353  31.667  1.00  0.00     0.027 C 
ATOM     15  C   UNL A   1      36.244  34.584  32.749  1.00  0.00     0.316 C 
BRANCH   7  16
ATOM     16  C   UNL A   1      39.896  34.162  34.500  1.00  0.00     0.039 C 
BRANCH  16  17
ATOM     17  C   UNL A   1      39.543  34.650  35.909  1.00  0.00     0.001 C 
ATOM     18  C   UNL A   1      38.884  33.585  36.773  1.00  0.00     0.004 C 
ENDBRANCH  16  17
ENDBRANCH   7  16
BRANCH  10  19
ATOM     19  O   UNL A   1      39.115  29.219  33.899  1.00  0.00    -0.406 OA
BRANCH  19  20
ATOM     20  C   UNL A   1      40.106  28.632  33.072  1.00  0.00     0.573 C 
ATOM     21  F   UNL A   1      39.557  28.021  32.001  1.00  0.00    -0.132 F 
ATOM     22  F   UNL A   1      41.003  29.551  32.660  1.00  0.00    -0.132 F 
ATOM     23  F   UNL A   1      40.766  27.695  33.792  1.00  0.00    -0.132 F 
ENDBRANCH  19  20
ENDBRANCH  10  19
BRANCH  15  24
ATOM     24  C   UNL A   1      35.524  34.525  34.119  1.00  0.00     0.430 C 
ATOM     25  F   UNL A   1      36.376  34.537  35.171  1.00  0.00    -0.167 F 
ATOM     26  F   UNL A   1      34.695  35.581  34.280  1.00  0.00    -0.167 F 
ATOM     27  F   UNL A   1      34.771  33.407  34.241  1.00  0.00    -0.167 F 
ENDBRANCH  15  24
ENDBRANCH   4   6
ENDBRANCH   3   4
ENDBRANCH   2   3
ENDBRANCH   1   2
BRANCH   1  28
ATOM     28  O   UNL A   1      34.237  31.755  28.732  1.00  0.00    -0.458 OA
BRANCH  28  29
ATOM     29  C   UNL A   1      34.333  30.581  28.070  1.00  0.00     0.338 C 
ATOM     30  O   UNL A   1      33.465  30.039  27.401  1.00  0.00    -0.246 OA
BRANCH  29  31
ATOM     31  C   UNL A   1      35.682  30.016  28.226  1.00  0.00     0.060 A 
ATOM     32  C   UNL A   1      36.068  29.493  29.456  1.00  0.00     0.016 A 
ATOM     33  C   UNL A   1      36.620  30.156  27.206  1.00  0.00     0.016 A 
ATOM     34  C   UNL A   1      37.411  29.234  29.715  1.00  0.00     0.010 A 
ATOM     35  C   UNL A   1      37.946  29.767  27.428  1.00  0.00     0.010 A 
ATOM     36  C   UNL A   1      38.371  29.341  28.701  1.00  0.00    -0.014 A 
BRANCH  36  37
ATOM     37  C   UNL A   1      39.807  29.031  28.969  1.00  0.00     0.031 A 
ATOM     38  C   UNL A   1      40.721  30.091  29.534  1.00  0.00     0.074 A 
ATOM     39  C   UNL A   1      40.306  27.805  28.702  1.00  0.00     0.049 A 
ATOM     40  N   UNL A   1      42.029  30.110  29.593  1.00  0.00    -0.248 NA
ATOM     41  C   UNL A   1      40.082  31.294  30.089  1.00  0.00     0.031 C 
ATOM     42  C   UNL A   1      39.537  26.661  28.207  1.00  0.00     0.029 A 
ATOM     43  N   UNL A   1      41.586  27.313  28.808  1.00  0.00    -0.354 N 
ATOM     44  C   UNL A   1      42.370  31.353  30.120  1.00  0.00     0.074 A 
ATOM     45  C   UNL A   1      41.130  32.056  30.372  1.00  0.00     0.031 C 
ATOM     46  C   UNL A   1      40.345  25.598  28.091  1.00  0.00     0.029 A 
ATOM     47  C   UNL A   1      41.710  26.010  28.387  1.00  0.00     0.049 A 
ATOM     48  H   UNL A   1      42.340  27.844  29.151  1.00  0.00     0.167 HD
ATOM     49  C   UNL A   1      43.604  31.857  30.363  1.00  0.00     0.037 A 
ATOM     50  C   UNL A   1      42.799  25.242  28.192  1.00  0.00     0.037 A 
ATOM     51  C   UNL A   1      44.827  31.118  30.175  1.00  0.00     0.049 A 
ATOM     52  C   UNL A   1      44.159  25.829  28.438  1.00  0.00     0.074 A 
ATOM     53  C   UNL A   1      46.129  31.531  30.410  1.00  0.00     0.029 A 
ATOM     54  N   UNL A   1      44.901  29.807  29.728  1.00  0.00    -0.354 N 
ATOM     55  N   UNL A   1      44.470  27.031  28.858  1.00  0.00    -0.248 NA
ATOM     56  C   UNL A   1      45.314  24.968  28.158  1.00  0.00     0.031 C 
ATOM     57  C   UNL A   1      46.990  30.483  30.072  1.00  0.00     0.029 A 
ATOM     58  C   UNL A   1      46.225  29.399  29.670  1.00  0.00     0.049 A 
ATOM     59  H   UNL A   1      44.127  29.249  29.488  1.00  0.00     0.167 HD
ATOM     60  C   UNL A   1      45.859  27.068  28.904  1.00  0.00     0.074 A 
ATOM     61  C   UNL A   1      46.326  25.762  28.484  1.00  0.00     0.031 C 
ATOM     62  C   UNL A   1      46.672  28.093  29.258  1.00  0.00     0.037 A 
BRANCH  49  63
ATOM     63  C   UNL A   1      43.706  33.289  30.821  1.00  0.00     0.058 A 
ATOM     64  C   UNL A   1      43.512  33.664  32.159  1.00  0.00     0.135 A 
ATOM     65  C   UNL A   1      44.052  34.297  29.905  1.00  0.00     0.135 A 
ATOM     66  F   UNL A   1      43.168  32.747  33.076  1.00  0.00    -0.206 F 
ATOM     67  C   UNL A   1      43.633  34.991  32.568  1.00  0.00     0.059 A 
ATOM     68  C   UNL A   1      44.204  35.624  30.295  1.00  0.00     0.059 A 
ATOM     69  F   UNL A   1      44.253  33.994  28.612  1.00  0.00    -0.206 F 
ATOM     70  C   UNL A   1      43.978  35.964  31.627  1.00  0.00     0.060 A 
BRANCH  70  71
ATOM     71  S   UNL A   1      44.138  37.679  32.171  1.00  0.00     0.124 S 
ATOM     72  O   UNL A   1      43.643  38.402  31.004  1.00  0.00    -0.237 OA
ATOM     73  O   UNL A   1      43.277  37.716  33.349  1.00  0.00    -0.237 OA
ATOM     74  O   UNL A   1      45.566  37.820  32.438  1.00  0.00    -0.744 OA
ENDBRANCH  70  71
ENDBRANCH  49  63
BRANCH  50  75
ATOM     75  C   UNL A   1      42.641  23.855  27.677  1.00  0.00     0.058 A 
ATOM     76  C   UNL A   1      42.556  22.764  28.553  1.00  0.00     0.135 A 
ATOM     77  C   UNL A   1      42.531  23.598  26.301  1.00  0.00     0.135 A 
ATOM     78  F   UNL A   1      42.668  22.956  29.876  1.00  0.00    -0.206 F 
ATOM     79  C   UNL A   1      42.367  21.467  28.084  1.00  0.00     0.059 A 
ATOM     80  C   UNL A   1      42.311  22.316  25.810  1.00  0.00     0.059 A 
ATOM     81  F   UNL A   1      42.592  24.610  25.420  1.00  0.00    -0.206 F 
ATOM     82  C   UNL A   1      42.239  21.255  26.711  1.00  0.00     0.060 A 
BRANCH  82  83
ATOM     83  S   UNL A   1      41.923  19.579  26.114  1.00  0.00     0.124 S 
ATOM     84  O   UNL A   1      42.787  19.518  24.942  1.00  0.00    -0.237 OA
ATOM     85  O   UNL A   1      42.331  18.764  27.254  1.00  0.00    -0.237 OA
ATOM     86  O   UNL A   1      40.487  19.586  25.843  1.00  0.00    -0.744 OA
ENDBRANCH  82  83
ENDBRANCH  50  75
BRANCH  62  87
ATOM     87  C   UNL A   1      48.151  27.832  29.245  1.00  0.00     0.058 A 
ATOM     88  C   UNL A   1      48.795  27.191  30.313  1.00  0.00     0.135 A 
ATOM     89  C   UNL A   1      48.921  28.181  28.125  1.00  0.00     0.135 A 
ATOM     90  F   UNL A   1      48.103  26.847  31.412  1.00  0.00    -0.206 F 
ATOM     91  C   UNL A   1      50.158  26.917  30.278  1.00  0.00     0.059 A 
ATOM     92  C   UNL A   1      50.281  27.896  28.057  1.00  0.00     0.059 A 
ATOM     93  F   UNL A   1      48.349  28.792  27.075  1.00  0.00    -0.206 F 
ATOM     94  C   UNL A   1      50.892  27.271  29.143  1.00  0.00     0.060 A 
BRANCH  94  95
ATOM     95  S   UNL A   1      52.651  26.869  29.090  1.00  0.00     0.124 S 
ATOM     96  O   UNL A   1      52.722  26.012  27.912  1.00  0.00    -0.237 OA
ATOM     97  O   UNL A   1      53.268  28.185  28.955  1.00  0.00    -0.237 OA
ATOM     98  O   UNL A   1      52.885  26.202  30.368  1.00  0.00    -0.744 OA
ENDBRANCH  94  95
ENDBRANCH  62  87
ENDBRANCH  36  37
ENDBRANCH  29  31
ENDBRANCH  28  29
ENDBRANCH   1  28
TORSDOF 19
ENDMDL
