MODEL 1
REMARK VINA RESULT:     -10.7      0.000      0.000
REMARK SMILES C[NH2+][C@@]1(C(=O)OCCOC(=O)c2ccc(-c3c4nc(c(-c5c(F)cc(S(=O)(=O)[O-])cc5F)c5ccc([nH]5)c(-c5c(F)cc(S(=O)(=O)[O-])cc5F)c5nc(c(-c6c(F)cc(S(=O)(=O)[O-])cc6F)c6ccc3[nH]6)C=C5)C=C4)cc2)CCC[C@H](n2cc(I)cn2)C1
REMARK SMILES IDX 8 1 7 2 6 3 4 4 5 5 3 6 78 7 88 8 79 9 81 10 80 11 2 12 1 13
REMARK SMILES IDX 82 16 83 17 87 18 84 19 86 20 85 21 9 22 10 23 11 24 12 25
REMARK SMILES IDX 13 26 77 27 14 28 76 29 15 30 16 31 17 32 70 33 18 34 75 35
REMARK SMILES IDX 69 36 71 37 19 38 74 39 68 40 67 41 20 43 54 44 33 45 53 46
REMARK SMILES IDX 34 47 37 48 52 49 72 50 35 51 36 52 51 54 73 55 38 56 21 57
REMARK SMILES IDX 22 58 31 59 23 60 24 61 30 62 32 63 25 64 26 65 27 66 28 67
REMARK SMILES IDX 29 68 55 69 56 70 65 71 57 72 58 73 64 74 66 75 59 76 60 77
REMARK SMILES IDX 61 78 62 79 63 80 39 81 40 82 49 83 41 84 42 85 48 86 50 87
REMARK SMILES IDX 43 88 44 89 45 90 46 91 47 92
REMARK H PARENT 2 14 2 15 71 42 37 53
REMARK Flexibility Score: inf
ROOT
ATOM      1  C   UNL A   1      32.519  29.452  27.062  1.00  0.00     0.275 C 
ENDROOT
BRANCH   1   2
ATOM      2  C   UNL A   1      31.620  28.309  27.522  1.00  0.00     0.274 C 
BRANCH   2   3
ATOM      3  O   UNL A   1      32.196  27.045  27.133  1.00  0.00    -0.457 OA
BRANCH   3   4
ATOM      4  C   UNL A   1      31.439  26.245  26.338  1.00  0.00     0.368 C 
ATOM      5  O   UNL A   1      30.215  26.220  26.386  1.00  0.00    -0.245 OA
BRANCH   4   6
ATOM      6  C   UNL A   1      32.319  25.291  25.452  1.00  0.00     0.196 C 
ATOM      7  C   UNL A   1      33.763  25.826  25.467  1.00  0.00     0.081 C 
ATOM      8  C   UNL A   1      31.763  25.130  24.002  1.00  0.00     0.108 C 
ATOM      9  C   UNL A   1      33.971  27.008  24.530  1.00  0.00     0.009 C 
ATOM     10  C   UNL A   1      32.163  26.194  22.945  1.00  0.00     0.114 C 
ATOM     11  C   UNL A   1      33.632  26.610  23.101  1.00  0.00     0.028 C 
BRANCH   6  12
ATOM     12  N   UNL A   1      32.267  23.900  26.022  1.00  0.00    -0.334 N 
ATOM     13  C   UNL A   1      33.526  23.169  26.127  1.00  0.00     0.331 C 
ATOM     14  H   UNL A   1      31.874  23.968  26.961  1.00  0.00     0.347 HD
ATOM     15  H   UNL A   1      31.711  23.366  25.354  1.00  0.00     0.347 HD
ENDBRANCH   6  12
BRANCH  10  16
ATOM     16  N   UNL A   1      31.211  27.294  22.796  1.00  0.00    -0.268 N 
ATOM     17  C   UNL A   1      29.870  27.321  23.077  1.00  0.00     0.123 A 
ATOM     18  N   UNL A   1      31.692  28.515  22.468  1.00  0.00    -0.180 NA
ATOM     19  C   UNL A   1      29.464  28.607  22.829  1.00  0.00     0.051 A 
ATOM     20  C   UNL A   1      30.613  29.301  22.447  1.00  0.00     0.149 A 
ATOM     21  I   UNL A   1      27.592  29.312  23.003  1.00  0.00    -0.041 I 
ENDBRANCH  10  16
ENDBRANCH   4   6
ENDBRANCH   3   4
ENDBRANCH   2   3
ENDBRANCH   1   2
BRANCH   1  22
ATOM     22  O   UNL A   1      33.835  29.241  27.591  1.00  0.00    -0.458 OA
BRANCH  22  23
ATOM     23  C   UNL A   1      34.455  30.328  28.095  1.00  0.00     0.338 C 
ATOM     24  O   UNL A   1      33.986  31.443  28.282  1.00  0.00    -0.246 OA
BRANCH  23  25
ATOM     25  C   UNL A   1      35.861  29.980  28.331  1.00  0.00     0.060 A 
ATOM     26  C   UNL A   1      36.275  29.569  29.599  1.00  0.00     0.016 A 
ATOM     27  C   UNL A   1      36.776  30.083  27.286  1.00  0.00     0.016 A 
ATOM     28  C   UNL A   1      37.615  29.274  29.837  1.00  0.00     0.010 A 
ATOM     29  C   UNL A   1      38.108  29.735  27.509  1.00  0.00     0.010 A 
ATOM     30  C   UNL A   1      38.540  29.339  28.788  1.00  0.00    -0.014 A 
BRANCH  30  31
ATOM     31  C   UNL A   1      39.971  29.020  29.016  1.00  0.00     0.031 A 
ATOM     32  C   UNL A   1      40.897  30.092  29.515  1.00  0.00     0.074 A 
ATOM     33  C   UNL A   1      40.437  27.786  28.743  1.00  0.00     0.049 A 
ATOM     34  N   UNL A   1      42.201  30.090  29.591  1.00  0.00    -0.248 NA
ATOM     35  C   UNL A   1      40.267  31.340  29.977  1.00  0.00     0.031 C 
ATOM     36  C   UNL A   1      39.623  26.655  28.293  1.00  0.00     0.029 A 
ATOM     37  N   UNL A   1      41.711  27.280  28.790  1.00  0.00    -0.354 N 
ATOM     38  C   UNL A   1      42.554  31.345  30.073  1.00  0.00     0.074 A 
ATOM     39  C   UNL A   1      41.325  32.086  30.264  1.00  0.00     0.031 C 
ATOM     40  C   UNL A   1      40.417  25.589  28.105  1.00  0.00     0.029 A 
ATOM     41  C   UNL A   1      41.800  25.977  28.360  1.00  0.00     0.049 A 
ATOM     42  H   UNL A   1      42.487  27.800  29.102  1.00  0.00     0.167 HD
ATOM     43  C   UNL A   1      43.792  31.833  30.325  1.00  0.00     0.037 A 
ATOM     44  C   UNL A   1      42.879  25.199  28.151  1.00  0.00     0.037 A 
ATOM     45  C   UNL A   1      45.003  31.073  30.146  1.00  0.00     0.049 A 
ATOM     46  C   UNL A   1      44.247  25.769  28.410  1.00  0.00     0.074 A 
ATOM     47  C   UNL A   1      46.311  31.469  30.362  1.00  0.00     0.029 A 
ATOM     48  N   UNL A   1      45.051  29.755  29.714  1.00  0.00    -0.354 N 
ATOM     49  N   UNL A   1      44.571  26.972  28.825  1.00  0.00    -0.248 NA
ATOM     50  C   UNL A   1      45.394  24.887  28.164  1.00  0.00     0.031 C 
ATOM     51  C   UNL A   1      47.150  30.397  30.036  1.00  0.00     0.029 A 
ATOM     52  C   UNL A   1      46.364  29.323  29.652  1.00  0.00     0.049 A 
ATOM     53  H   UNL A   1      44.265  29.207  29.486  1.00  0.00     0.167 HD
ATOM     54  C   UNL A   1      45.958  26.987  28.900  1.00  0.00     0.074 A 
ATOM     55  C   UNL A   1      46.411  25.668  28.503  1.00  0.00     0.031 C 
ATOM     56  C   UNL A   1      46.785  28.000  29.259  1.00  0.00     0.037 A 
BRANCH  43  57
ATOM     57  C   UNL A   1      43.895  33.261  30.783  1.00  0.00     0.058 A 
ATOM     58  C   UNL A   1      43.837  33.610  32.141  1.00  0.00     0.135 A 
ATOM     59  C   UNL A   1      44.060  34.297  29.849  1.00  0.00     0.135 A 
ATOM     60  F   UNL A   1      43.662  32.661  33.076  1.00  0.00    -0.206 F 
ATOM     61  C   UNL A   1      43.907  34.937  32.556  1.00  0.00     0.059 A 
ATOM     62  C   UNL A   1      44.155  35.629  30.243  1.00  0.00     0.059 A 
ATOM     63  F   UNL A   1      44.120  34.021  28.537  1.00  0.00    -0.206 F 
ATOM     64  C   UNL A   1      44.060  35.940  31.598  1.00  0.00     0.060 A 
BRANCH  64  65
ATOM     65  S   UNL A   1      44.137  37.659  32.148  1.00  0.00     0.124 S 
ATOM     66  O   UNL A   1      43.211  37.645  33.276  1.00  0.00    -0.237 OA
ATOM     67  O   UNL A   1      45.547  37.817  32.488  1.00  0.00    -0.237 OA
ATOM     68  O   UNL A   1      43.691  38.410  30.978  1.00  0.00    -0.744 OA
ENDBRANCH  64  65
ENDBRANCH  43  57
BRANCH  44  69
ATOM     69  C   UNL A   1      42.706  23.812  27.642  1.00  0.00     0.058 A 
ATOM     70  C   UNL A   1      42.627  22.724  28.522  1.00  0.00     0.135 A 
ATOM     71  C   UNL A   1      42.586  23.552  26.268  1.00  0.00     0.135 A 
ATOM     72  F   UNL A   1      42.747  22.920  29.844  1.00  0.00    -0.206 F 
ATOM     73  C   UNL A   1      42.438  21.425  28.060  1.00  0.00     0.059 A 
ATOM     74  C   UNL A   1      42.372  22.265  25.783  1.00  0.00     0.059 A 
ATOM     75  F   UNL A   1      42.643  24.560  25.385  1.00  0.00    -0.206 F 
ATOM     76  C   UNL A   1      42.307  21.206  26.687  1.00  0.00     0.060 A 
BRANCH  76  77
ATOM     77  S   UNL A   1      41.996  19.526  26.099  1.00  0.00     0.124 S 
ATOM     78  O   UNL A   1      42.833  19.474  24.906  1.00  0.00    -0.237 OA
ATOM     79  O   UNL A   1      42.443  18.716  27.227  1.00  0.00    -0.237 OA
ATOM     80  O   UNL A   1      40.556  19.516  25.862  1.00  0.00    -0.744 OA
ENDBRANCH  76  77
ENDBRANCH  44  69
BRANCH  56  81
ATOM     81  C   UNL A   1      48.259  27.710  29.266  1.00  0.00     0.058 A 
ATOM     82  C   UNL A   1      48.907  27.229  30.413  1.00  0.00     0.135 A 
ATOM     83  C   UNL A   1      49.019  27.873  28.098  1.00  0.00     0.135 A 
ATOM     84  F   UNL A   1      48.223  27.064  31.557  1.00  0.00    -0.206 F 
ATOM     85  C   UNL A   1      50.266  26.934  30.408  1.00  0.00     0.059 A 
ATOM     86  C   UNL A   1      50.374  27.565  28.063  1.00  0.00     0.059 A 
ATOM     87  F   UNL A   1      48.442  28.324  26.973  1.00  0.00    -0.206 F 
ATOM     88  C   UNL A   1      50.991  27.106  29.226  1.00  0.00     0.060 A 
BRANCH  88  89
ATOM     89  S   UNL A   1      52.748  26.688  29.219  1.00  0.00     0.124 S 
ATOM     90  O   UNL A   1      52.868  25.904  30.443  1.00  0.00    -0.237 OA
ATOM     91  O   UNL A   1      52.890  25.944  27.972  1.00  0.00    -0.237 OA
ATOM     92  O   UNL A   1      53.405  27.992  29.240  1.00  0.00    -0.744 OA
ENDBRANCH  88  89
ENDBRANCH  56  81
ENDBRANCH  30  31
ENDBRANCH  23  25
ENDBRANCH  22  23
ENDBRANCH   1  22
TORSDOF 16
ENDMDL
MODEL 2
REMARK VINA RESULT:     -10.7      5.327     10.737
REMARK SMILES C[NH2+][C@@]1(C(=O)OCCOC(=O)c2ccc(-c3c4nc(c(-c5c(F)cc(S(=O)(=O)[O-])cc5F)c5ccc([nH]5)c(-c5c(F)cc(S(=O)(=O)[O-])cc5F)c5nc(c(-c6c(F)cc(S(=O)(=O)[O-])cc6F)c6ccc3[nH]6)C=C5)C=C4)cc2)CCC[C@H](n2cc(I)cn2)C1
REMARK SMILES IDX 8 1 7 2 6 3 4 4 5 5 3 6 78 7 88 8 79 9 81 10 80 11 2 12 1 13
REMARK SMILES IDX 82 16 83 17 87 18 84 19 86 20 85 21 9 22 10 23 11 24 12 25
REMARK SMILES IDX 13 26 77 27 14 28 76 29 15 30 16 31 17 32 70 33 18 34 75 35
REMARK SMILES IDX 69 36 71 37 19 38 74 39 68 40 67 41 20 43 54 44 33 45 53 46
REMARK SMILES IDX 34 47 37 48 52 49 72 50 35 51 36 52 51 54 73 55 38 56 21 57
REMARK SMILES IDX 22 58 31 59 23 60 24 61 30 62 32 63 25 64 26 65 27 66 28 67
REMARK SMILES IDX 29 68 55 69 56 70 65 71 57 72 58 73 64 74 66 75 59 76 60 77
REMARK SMILES IDX 61 78 62 79 63 80 39 81 40 82 49 83 41 84 42 85 48 86 50 87
REMARK SMILES IDX 43 88 44 89 45 90 46 91 47 92
REMARK H PARENT 2 14 2 15 71 42 37 53
REMARK Flexibility Score: inf
ROOT
ATOM      1  C   UNL A   1      38.105  22.972  25.862  1.00  0.00     0.275 C 
ENDROOT
BRANCH   1   2
ATOM      2  C   UNL A   1      36.775  23.143  25.137  1.00  0.00     0.274 C 
BRANCH   2   3
ATOM      3  O   UNL A   1      35.865  22.094  25.526  1.00  0.00    -0.457 OA
BRANCH   3   4
ATOM      4  C   UNL A   1      34.690  22.478  26.089  1.00  0.00     0.368 C 
ATOM      5  O   UNL A   1      34.614  23.351  26.947  1.00  0.00    -0.245 OA
BRANCH   4   6
ATOM      6  C   UNL A   1      33.484  21.600  25.597  1.00  0.00     0.196 C 
ATOM      7  C   UNL A   1      33.690  21.305  24.099  1.00  0.00     0.081 C 
ATOM      8  C   UNL A   1      32.099  22.261  25.884  1.00  0.00     0.108 C 
ATOM      9  C   UNL A   1      33.301  22.473  23.203  1.00  0.00     0.009 C 
ATOM     10  C   UNL A   1      31.549  23.281  24.853  1.00  0.00     0.114 C 
ATOM     11  C   UNL A   1      31.837  22.830  23.414  1.00  0.00     0.028 C 
BRANCH   6  12
ATOM     12  N   UNL A   1      33.451  20.319  26.385  1.00  0.00    -0.334 N 
ATOM     13  C   UNL A   1      33.011  19.113  25.691  1.00  0.00     0.331 C 
ATOM     14  H   UNL A   1      34.397  20.147  26.728  1.00  0.00     0.347 HD
ATOM     15  H   UNL A   1      32.747  20.476  27.106  1.00  0.00     0.347 HD
ENDBRANCH   6  12
BRANCH  10  16
ATOM     16  N   UNL A   1      31.866  24.678  25.148  1.00  0.00    -0.268 N 
ATOM     17  C   UNL A   1      31.465  25.451  26.207  1.00  0.00     0.123 A 
ATOM     18  N   UNL A   1      32.785  25.301  24.377  1.00  0.00    -0.180 NA
ATOM     19  C   UNL A   1      32.097  26.657  26.047  1.00  0.00     0.051 A 
ATOM     20  C   UNL A   1      32.888  26.523  24.905  1.00  0.00     0.149 A 
ATOM     21  I   UNL A   1      31.907  28.261  27.241  1.00  0.00    -0.041 I 
ENDBRANCH  10  16
ENDBRANCH   4   6
ENDBRANCH   3   4
ENDBRANCH   2   3
ENDBRANCH   1   2
BRANCH   1  22
ATOM     22  O   UNL A   1      38.578  24.265  26.263  1.00  0.00    -0.458 OA
BRANCH  22  23
ATOM     23  C   UNL A   1      39.831  24.312  26.762  1.00  0.00     0.338 C 
ATOM     24  O   UNL A   1      40.761  23.550  26.533  1.00  0.00    -0.246 OA
BRANCH  23  25
ATOM     25  C   UNL A   1      39.896  25.421  27.721  1.00  0.00     0.060 A 
ATOM     26  C   UNL A   1      40.808  26.460  27.525  1.00  0.00     0.016 A 
ATOM     27  C   UNL A   1      39.056  25.416  28.831  1.00  0.00     0.016 A 
ATOM     28  C   UNL A   1      40.899  27.495  28.452  1.00  0.00     0.010 A 
ATOM     29  C   UNL A   1      39.109  26.480  29.731  1.00  0.00     0.010 A 
ATOM     30  C   UNL A   1      40.038  27.522  29.555  1.00  0.00    -0.014 A 
BRANCH  30  31
ATOM     31  C   UNL A   1      40.111  28.620  30.549  1.00  0.00     0.031 A 
ATOM     32  C   UNL A   1      41.088  28.524  31.686  1.00  0.00     0.074 A 
ATOM     33  C   UNL A   1      39.281  29.676  30.448  1.00  0.00     0.049 A 
ATOM     34  N   UNL A   1      41.180  29.259  32.762  1.00  0.00    -0.248 NA
ATOM     35  C   UNL A   1      42.086  27.445  31.603  1.00  0.00     0.031 C 
ATOM     36  C   UNL A   1      38.320  29.896  29.364  1.00  0.00     0.029 A 
ATOM     37  N   UNL A   1      39.102  30.756  31.274  1.00  0.00    -0.354 N 
ATOM     38  C   UNL A   1      42.219  28.710  33.506  1.00  0.00     0.074 A 
ATOM     39  C   UNL A   1      42.722  27.577  32.759  1.00  0.00     0.031 C 
ATOM     40  C   UNL A   1      37.653  31.038  29.594  1.00  0.00     0.029 A 
ATOM     41  C   UNL A   1      38.093  31.597  30.868  1.00  0.00     0.049 A 
ATOM     42  H   UNL A   1      39.644  30.914  32.082  1.00  0.00     0.167 HD
ATOM     43  C   UNL A   1      42.702  29.117  34.704  1.00  0.00     0.037 A 
ATOM     44  C   UNL A   1      37.554  32.671  31.475  1.00  0.00     0.037 A 
ATOM     45  C   UNL A   1      42.201  30.260  35.424  1.00  0.00     0.049 A 
ATOM     46  C   UNL A   1      38.086  33.089  32.819  1.00  0.00     0.074 A 
ATOM     47  C   UNL A   1      42.610  30.758  36.648  1.00  0.00     0.029 A 
ATOM     48  N   UNL A   1      41.183  31.090  34.974  1.00  0.00    -0.354 N 
ATOM     49  N   UNL A   1      39.041  32.538  33.533  1.00  0.00    -0.248 NA
ATOM     50  C   UNL A   1      37.465  34.262  33.446  1.00  0.00     0.031 C 
ATOM     51  C   UNL A   1      41.820  31.873  36.950  1.00  0.00     0.029 A 
ATOM     52  C   UNL A   1      40.945  32.092  35.899  1.00  0.00     0.049 A 
ATOM     53  H   UNL A   1      40.701  30.981  34.123  1.00  0.00     0.167 HD
ATOM     54  C   UNL A   1      39.142  33.303  34.687  1.00  0.00     0.074 A 
ATOM     55  C   UNL A   1      38.163  34.366  34.570  1.00  0.00     0.031 C 
ATOM     56  C   UNL A   1      39.967  33.142  35.752  1.00  0.00     0.037 A 
BRANCH  43  57
ATOM     57  C   UNL A   1      43.800  28.297  35.323  1.00  0.00     0.058 A 
ATOM     58  C   UNL A   1      45.154  28.543  35.048  1.00  0.00     0.135 A 
ATOM     59  C   UNL A   1      43.494  27.252  36.211  1.00  0.00     0.135 A 
ATOM     60  F   UNL A   1      45.504  29.518  34.192  1.00  0.00    -0.206 F 
ATOM     61  C   UNL A   1      46.164  27.764  35.605  1.00  0.00     0.059 A 
ATOM     62  C   UNL A   1      44.488  26.475  36.797  1.00  0.00     0.059 A 
ATOM     63  F   UNL A   1      42.215  26.972  36.508  1.00  0.00    -0.206 F 
ATOM     64  C   UNL A   1      45.820  26.728  36.474  1.00  0.00     0.060 A 
BRANCH  64  65
ATOM     65  S   UNL A   1      47.138  25.715  37.180  1.00  0.00     0.124 S 
ATOM     66  O   UNL A   1      46.627  24.367  36.946  1.00  0.00    -0.237 OA
ATOM     67  O   UNL A   1      48.295  26.100  36.378  1.00  0.00    -0.237 OA
ATOM     68  O   UNL A   1      47.181  26.137  38.577  1.00  0.00    -0.744 OA
ENDBRANCH  64  65
ENDBRANCH  43  57
BRANCH  44  69
ATOM     69  C   UNL A   1      36.430  33.402  30.831  1.00  0.00     0.058 A 
ATOM     70  C   UNL A   1      35.128  33.323  31.343  1.00  0.00     0.135 A 
ATOM     71  C   UNL A   1      36.643  34.219  29.709  1.00  0.00     0.135 A 
ATOM     72  F   UNL A   1      34.871  32.547  32.407  1.00  0.00    -0.206 F 
ATOM     73  C   UNL A   1      34.073  34.023  30.765  1.00  0.00     0.059 A 
ATOM     74  C   UNL A   1      35.610  34.948  29.128  1.00  0.00     0.059 A 
ATOM     75  F   UNL A   1      37.873  34.338  29.187  1.00  0.00    -0.206 F 
ATOM     76  C   UNL A   1      34.326  34.838  29.659  1.00  0.00     0.060 A 
BRANCH  76  77
ATOM     77  S   UNL A   1      32.965  35.795  28.954  1.00  0.00     0.124 S 
ATOM     78  O   UNL A   1      32.325  34.806  28.095  1.00  0.00    -0.237 OA
ATOM     79  O   UNL A   1      32.215  36.188  30.142  1.00  0.00    -0.237 OA
ATOM     80  O   UNL A   1      33.647  36.886  28.263  1.00  0.00    -0.744 OA
ENDBRANCH  76  77
ENDBRANCH  44  69
BRANCH  56  81
ATOM     81  C   UNL A   1      39.862  34.153  36.858  1.00  0.00     0.058 A 
ATOM     82  C   UNL A   1      40.494  35.403  36.772  1.00  0.00     0.135 A 
ATOM     83  C   UNL A   1      39.082  33.884  37.993  1.00  0.00     0.135 A 
ATOM     84  F   UNL A   1      41.256  35.703  35.709  1.00  0.00    -0.206 F 
ATOM     85  C   UNL A   1      40.371  36.347  37.785  1.00  0.00     0.059 A 
ATOM     86  C   UNL A   1      38.928  34.821  39.008  1.00  0.00     0.059 A 
ATOM     87  F   UNL A   1      38.452  32.705  38.117  1.00  0.00    -0.206 F 
ATOM     88  C   UNL A   1      39.585  36.046  38.900  1.00  0.00     0.060 A 
BRANCH  88  89
ATOM     89  S   UNL A   1      39.403  37.292  40.195  1.00  0.00     0.124 S 
ATOM     90  O   UNL A   1      38.672  38.341  39.491  1.00  0.00    -0.237 OA
ATOM     91  O   UNL A   1      38.652  36.574  41.220  1.00  0.00    -0.237 OA
ATOM     92  O   UNL A   1      40.782  37.615  40.549  1.00  0.00    -0.744 OA
ENDBRANCH  88  89
ENDBRANCH  56  81
ENDBRANCH  30  31
ENDBRANCH  23  25
ENDBRANCH  22  23
ENDBRANCH   1  22
TORSDOF 16
ENDMDL
MODEL 3
REMARK VINA RESULT:     -10.6      5.644     10.980
REMARK SMILES C[NH2+][C@@]1(C(=O)OCCOC(=O)c2ccc(-c3c4nc(c(-c5c(F)cc(S(=O)(=O)[O-])cc5F)c5ccc([nH]5)c(-c5c(F)cc(S(=O)(=O)[O-])cc5F)c5nc(c(-c6c(F)cc(S(=O)(=O)[O-])cc6F)c6ccc3[nH]6)C=C5)C=C4)cc2)CCC[C@H](n2cc(I)cn2)C1
REMARK SMILES IDX 8 1 7 2 6 3 4 4 5 5 3 6 78 7 88 8 79 9 81 10 80 11 2 12 1 13
REMARK SMILES IDX 82 16 83 17 87 18 84 19 86 20 85 21 9 22 10 23 11 24 12 25
REMARK SMILES IDX 13 26 77 27 14 28 76 29 15 30 16 31 17 32 70 33 18 34 75 35
REMARK SMILES IDX 69 36 71 37 19 38 74 39 68 40 67 41 20 43 54 44 33 45 53 46
REMARK SMILES IDX 34 47 37 48 52 49 72 50 35 51 36 52 51 54 73 55 38 56 21 57
REMARK SMILES IDX 22 58 31 59 23 60 24 61 30 62 32 63 25 64 26 65 27 66 28 67
REMARK SMILES IDX 29 68 55 69 56 70 65 71 57 72 58 73 64 74 66 75 59 76 60 77
REMARK SMILES IDX 61 78 62 79 63 80 39 81 40 82 49 83 41 84 42 85 48 86 50 87
REMARK SMILES IDX 43 88 44 89 45 90 46 91 47 92
REMARK H PARENT 2 14 2 15 71 42 37 53
REMARK Flexibility Score: inf
ROOT
ATOM      1  C   UNL A   1      38.684  22.784  26.125  1.00  0.00     0.275 C 
ENDROOT
BRANCH   1   2
ATOM      2  C   UNL A   1      37.479  23.592  25.655  1.00  0.00     0.274 C 
BRANCH   2   3
ATOM      3  O   UNL A   1      36.261  22.902  26.001  1.00  0.00    -0.457 OA
BRANCH   3   4
ATOM      4  C   UNL A   1      35.391  22.647  24.988  1.00  0.00     0.368 C 
ATOM      5  O   UNL A   1      35.617  21.830  24.103  1.00  0.00    -0.245 OA
BRANCH   4   6
ATOM      6  C   UNL A   1      34.141  23.598  25.031  1.00  0.00     0.196 C 
ATOM      7  C   UNL A   1      33.697  23.734  26.499  1.00  0.00     0.081 C 
ATOM      8  C   UNL A   1      32.982  23.111  24.105  1.00  0.00     0.108 C 
ATOM      9  C   UNL A   1      32.896  22.537  26.994  1.00  0.00     0.009 C 
ATOM     10  C   UNL A   1      31.985  22.065  24.671  1.00  0.00     0.114 C 
ATOM     11  C   UNL A   1      31.649  22.353  26.141  1.00  0.00     0.028 C 
BRANCH   6  12
ATOM     12  N   UNL A   1      34.521  24.940  24.469  1.00  0.00    -0.334 N 
ATOM     13  C   UNL A   1      33.658  25.507  23.438  1.00  0.00     0.331 C 
ATOM     14  H   UNL A   1      34.544  25.602  25.246  1.00  0.00     0.347 HD
ATOM     15  H   UNL A   1      35.415  24.784  24.003  1.00  0.00     0.347 HD
ENDBRANCH   6  12
BRANCH  10  16
ATOM     16  N   UNL A   1      32.323  20.675  24.366  1.00  0.00    -0.268 N 
ATOM     17  C   UNL A   1      32.671  19.661  25.220  1.00  0.00     0.123 A 
ATOM     18  N   UNL A   1      32.153  20.240  23.096  1.00  0.00    -0.180 NA
ATOM     19  C   UNL A   1      32.815  18.546  24.436  1.00  0.00     0.051 A 
ATOM     20  C   UNL A   1      32.498  18.951  23.138  1.00  0.00     0.149 A 
ATOM     21  I   UNL A   1      33.360  16.718  25.063  1.00  0.00    -0.041 I 
ENDBRANCH  10  16
ENDBRANCH   4   6
ENDBRANCH   3   4
ENDBRANCH   2   3
ENDBRANCH   1   2
BRANCH   1  22
ATOM     22  O   UNL A   1      39.286  23.464  27.235  1.00  0.00    -0.458 OA
BRANCH  22  23
ATOM     23  C   UNL A   1      40.361  24.229  26.952  1.00  0.00     0.338 C 
ATOM     24  O   UNL A   1      41.224  24.032  26.108  1.00  0.00    -0.246 OA
BRANCH  23  25
ATOM     25  C   UNL A   1      40.382  25.350  27.900  1.00  0.00     0.060 A 
ATOM     26  C   UNL A   1      41.489  26.199  27.953  1.00  0.00     0.016 A 
ATOM     27  C   UNL A   1      39.298  25.545  28.753  1.00  0.00     0.016 A 
ATOM     28  C   UNL A   1      41.528  27.240  28.876  1.00  0.00     0.010 A 
ATOM     29  C   UNL A   1      39.314  26.620  29.641  1.00  0.00     0.010 A 
ATOM     30  C   UNL A   1      40.433  27.470  29.717  1.00  0.00    -0.014 A 
BRANCH  30  31
ATOM     31  C   UNL A   1      40.450  28.580  30.701  1.00  0.00     0.031 A 
ATOM     32  C   UNL A   1      41.408  28.527  31.858  1.00  0.00     0.074 A 
ATOM     33  C   UNL A   1      39.588  29.606  30.572  1.00  0.00     0.049 A 
ATOM     34  N   UNL A   1      41.454  29.275  32.928  1.00  0.00    -0.248 NA
ATOM     35  C   UNL A   1      42.442  27.482  31.805  1.00  0.00     0.031 C 
ATOM     36  C   UNL A   1      38.642  29.783  29.468  1.00  0.00     0.029 A 
ATOM     37  N   UNL A   1      39.357  30.688  31.384  1.00  0.00    -0.354 N 
ATOM     38  C   UNL A   1      42.496  28.769  33.697  1.00  0.00     0.074 A 
ATOM     39  C   UNL A   1      43.051  27.646  32.972  1.00  0.00     0.031 C 
ATOM     40  C   UNL A   1      37.933  30.905  29.673  1.00  0.00     0.029 A 
ATOM     41  C   UNL A   1      38.328  31.491  30.949  1.00  0.00     0.049 A 
ATOM     42  H   UNL A   1      39.877  30.871  32.200  1.00  0.00     0.167 HD
ATOM     43  C   UNL A   1      42.941  29.203  34.900  1.00  0.00     0.037 A 
ATOM     44  C   UNL A   1      37.742  32.552  31.535  1.00  0.00     0.037 A 
ATOM     45  C   UNL A   1      42.388  30.336  35.598  1.00  0.00     0.049 A 
ATOM     46  C   UNL A   1      38.234  33.000  32.884  1.00  0.00     0.074 A 
ATOM     47  C   UNL A   1      42.756  30.859  36.824  1.00  0.00     0.029 A 
ATOM     48  N   UNL A   1      41.352  31.127  35.120  1.00  0.00    -0.354 N 
ATOM     49  N   UNL A   1      39.192  32.489  33.622  1.00  0.00    -0.248 NA
ATOM     50  C   UNL A   1      37.561  34.158  33.487  1.00  0.00     0.031 C 
ATOM     51  C   UNL A   1      41.924  31.951  37.100  1.00  0.00     0.029 A 
ATOM     52  C   UNL A   1      41.063  32.130  36.029  1.00  0.00     0.049 A 
ATOM     53  H   UNL A   1      40.891  30.994  34.261  1.00  0.00     0.167 HD
ATOM     54  C   UNL A   1      39.245  33.268  34.770  1.00  0.00     0.074 A 
ATOM     55  C   UNL A   1      38.233  34.297  34.623  1.00  0.00     0.031 C 
ATOM     56  C   UNL A   1      40.053  33.145  35.852  1.00  0.00     0.037 A 
BRANCH  43  57
ATOM     57  C   UNL A   1      44.054  28.427  35.549  1.00  0.00     0.058 A 
ATOM     58  C   UNL A   1      45.403  28.752  35.342  1.00  0.00     0.135 A 
ATOM     59  C   UNL A   1      43.765  27.344  36.396  1.00  0.00     0.135 A 
ATOM     60  F   UNL A   1      45.737  29.766  34.527  1.00  0.00    -0.206 F 
ATOM     61  C   UNL A   1      46.428  28.012  35.925  1.00  0.00     0.059 A 
ATOM     62  C   UNL A   1      44.773  26.605  37.008  1.00  0.00     0.059 A 
ATOM     63  F   UNL A   1      42.491  26.989  36.628  1.00  0.00    -0.206 F 
ATOM     64  C   UNL A   1      46.102  26.937  36.752  1.00  0.00     0.060 A 
BRANCH  64  65
ATOM     65  S   UNL A   1      47.441  25.977  37.493  1.00  0.00     0.124 S 
ATOM     66  O   UNL A   1      48.615  26.719  37.043  1.00  0.00    -0.237 OA
ATOM     67  O   UNL A   1      47.142  26.070  38.919  1.00  0.00    -0.237 OA
ATOM     68  O   UNL A   1      47.273  24.651  36.907  1.00  0.00    -0.744 OA
ENDBRANCH  64  65
ENDBRANCH  43  57
BRANCH  44  69
ATOM     69  C   UNL A   1      36.608  33.238  30.861  1.00  0.00     0.058 A 
ATOM     70  C   UNL A   1      35.290  33.060  31.302  1.00  0.00     0.135 A 
ATOM     71  C   UNL A   1      36.824  34.111  29.782  1.00  0.00     0.135 A 
ATOM     72  F   UNL A   1      35.031  32.228  32.323  1.00  0.00    -0.206 F 
ATOM     73  C   UNL A   1      34.223  33.717  30.697  1.00  0.00     0.059 A 
ATOM     74  C   UNL A   1      35.777  34.798  29.177  1.00  0.00     0.059 A 
ATOM     75  F   UNL A   1      38.068  34.325  29.329  1.00  0.00    -0.206 F 
ATOM     76  C   UNL A   1      34.478  34.589  29.636  1.00  0.00     0.060 A 
BRANCH  76  77
ATOM     77  S   UNL A   1      33.095  35.490  28.898  1.00  0.00     0.124 S 
ATOM     78  O   UNL A   1      32.425  34.434  28.149  1.00  0.00    -0.237 OA
ATOM     79  O   UNL A   1      32.387  35.986  30.074  1.00  0.00    -0.237 OA
ATOM     80  O   UNL A   1      33.755  36.515  28.095  1.00  0.00    -0.744 OA
ENDBRANCH  76  77
ENDBRANCH  44  69
BRANCH  56  81
ATOM     81  C   UNL A   1      39.893  34.163  36.945  1.00  0.00     0.058 A 
ATOM     82  C   UNL A   1      40.470  35.438  36.850  1.00  0.00     0.135 A 
ATOM     83  C   UNL A   1      39.115  33.872  38.076  1.00  0.00     0.135 A 
ATOM     84  F   UNL A   1      41.228  35.760  35.791  1.00  0.00    -0.206 F 
ATOM     85  C   UNL A   1      40.295  36.388  37.851  1.00  0.00     0.059 A 
ATOM     86  C   UNL A   1      38.910  34.813  39.079  1.00  0.00     0.059 A 
ATOM     87  F   UNL A   1      38.537  32.668  38.208  1.00  0.00    -0.206 F 
ATOM     88  C   UNL A   1      39.513  36.065  38.963  1.00  0.00     0.060 A 
BRANCH  88  89
ATOM     89  S   UNL A   1      39.264  37.316  40.241  1.00  0.00     0.124 S 
ATOM     90  O   UNL A   1      38.546  36.555  41.259  1.00  0.00    -0.237 OA
ATOM     91  O   UNL A   1      40.631  37.697  40.580  1.00  0.00    -0.237 OA
ATOM     92  O   UNL A   1      38.484  38.345  39.558  1.00  0.00    -0.744 OA
ENDBRANCH  88  89
ENDBRANCH  56  81
ENDBRANCH  30  31
ENDBRANCH  23  25
ENDBRANCH  22  23
ENDBRANCH   1  22
TORSDOF 16
ENDMDL
