MODEL 1
REMARK VINA RESULT:     -11.9      0.000      0.000
REMARK SMILES Cc1cc2nc(NC3=[NH+][C@H](CC(=O)OCCOC(=O)c4ccc(-c5c6nc(c(-c7c(F)cc(S(=O)(=O)[O-])cc7F)c7ccc([nH]7)c(-c7c(F)cc(S(=O)(=O)[O-])cc7F)c7nc(c(-c8c(F)cc(S(=O)(=O)[O-])cc8F)c8ccc5[nH]8)C=C7)C=C6)cc4)C(=O)N3)nc(C)c2cc1C
REMARK SMILES IDX 16 1 15 2 14 3 12 4 13 5 11 6 10 7 7 8 8 9 9 11 88 12 86 14
REMARK SMILES IDX 87 16 6 17 1 18 2 19 3 20 94 21 4 22 93 23 95 24 5 25 92 26
REMARK SMILES IDX 90 27 89 28 91 29 17 30 18 31 19 32 20 33 21 34 85 35 22 36
REMARK SMILES IDX 84 37 23 38 24 39 25 40 78 41 26 42 83 43 77 44 79 45 27 46
REMARK SMILES IDX 82 47 76 48 75 49 28 51 62 52 41 53 61 54 42 55 45 56 60 57
REMARK SMILES IDX 80 58 43 59 44 60 59 62 81 63 46 64 29 65 30 66 39 67 31 68
REMARK SMILES IDX 32 69 38 70 40 71 33 72 34 73 35 74 36 75 37 76 63 77 64 78
REMARK SMILES IDX 73 79 65 80 66 81 72 82 74 83 67 84 68 85 69 86 70 87 71 88
REMARK SMILES IDX 47 89 48 90 57 91 49 92 50 93 56 94 58 95 51 96 52 97 53 98
REMARK SMILES IDX 54 99 55 100
REMARK H PARENT 7 10 9 13 88 15 79 50 45 61
REMARK Flexibility Score: inf
ROOT
ATOM      1  C   UNL A   1      41.459  23.083  26.584  1.00  0.00     0.275 C 
ENDROOT
BRANCH   1   2
ATOM      2  C   UNL A   1      40.870  21.749  26.125  1.00  0.00     0.274 C 
BRANCH   2   3
ATOM      3  O   UNL A   1      41.450  20.660  26.861  1.00  0.00    -0.462 OA
BRANCH   3   4
ATOM      4  C   UNL A   1      42.198  19.762  26.177  1.00  0.00     0.310 C 
ATOM      5  O   UNL A   1      41.791  18.673  25.790  1.00  0.00    -0.252 OA
BRANCH   4   6
ATOM      6  C   UNL A   1      43.631  20.199  25.995  1.00  0.00     0.175 C 
BRANCH   6   7
ATOM      7  C   UNL A   1      44.113  20.181  24.550  1.00  0.00     0.262 C 
ATOM      8  N   UNL A   1      46.611  22.618  23.972  1.00  0.00    -0.212 N 
ATOM      9  C   UNL A   1      45.826  21.524  24.084  1.00  0.00     0.358 C 
ATOM     10  H   UNL A   1      47.364  22.610  23.338  1.00  0.00     0.270 HD
ATOM     11  N   UNL A   1      44.538  21.550  24.190  1.00  0.00    -0.263 N 
ATOM     12  N   UNL A   1      46.365  20.291  24.112  1.00  0.00    -0.211 N 
ATOM     13  H   UNL A   1      43.953  22.331  24.056  1.00  0.00     0.261 HD
ATOM     14  C   UNL A   1      45.397  19.391  24.421  1.00  0.00     0.320 C 
ATOM     15  H   UNL A   1      47.310  20.077  23.938  1.00  0.00     0.270 HD
ATOM     16  O   UNL A   1      45.569  18.202  24.626  1.00  0.00    -0.252 OA
BRANCH   8  17
ATOM     17  C   UNL A   1      46.376  23.757  24.737  1.00  0.00     0.291 A 
ATOM     18  C   UNL A   1      43.752  25.391  29.944  1.00  0.00     0.044 C 
ATOM     19  C   UNL A   1      44.554  25.662  28.699  1.00  0.00    -0.046 A 
ATOM     20  C   UNL A   1      44.820  24.581  27.842  1.00  0.00     0.033 A 
ATOM     21  C   UNL A   1      44.998  26.940  28.329  1.00  0.00    -0.047 A 
ATOM     22  C   UNL A   1      45.522  24.723  26.652  1.00  0.00     0.078 A 
ATOM     23  C   UNL A   1      45.717  27.086  27.129  1.00  0.00     0.016 A 
ATOM     24  C   UNL A   1      44.718  28.153  29.172  1.00  0.00     0.044 C 
ATOM     25  N   UNL A   1      45.726  23.644  25.904  1.00  0.00    -0.198 NA
ATOM     26  C   UNL A   1      45.984  25.981  26.284  1.00  0.00     0.022 A 
ATOM     27  C   UNL A   1      46.689  26.007  25.068  1.00  0.00     0.052 A 
ATOM     28  N   UNL A   1      46.906  24.907  24.307  1.00  0.00    -0.203 NA
ATOM     29  C   UNL A   1      47.259  27.284  24.523  1.00  0.00     0.067 C 
ENDBRANCH   8  17
ENDBRANCH   6   7
ENDBRANCH   4   6
ENDBRANCH   3   4
ENDBRANCH   2   3
ENDBRANCH   1   2
BRANCH   1  30
ATOM     30  O   UNL A   1      40.466  24.122  26.544  1.00  0.00    -0.458 OA
BRANCH  30  31
ATOM     31  C   UNL A   1      40.921  25.355  26.216  1.00  0.00     0.338 C 
ATOM     32  O   UNL A   1      41.288  25.747  25.124  1.00  0.00    -0.246 OA
BRANCH  31  33
ATOM     33  C   UNL A   1      40.799  26.229  27.389  1.00  0.00     0.060 A 
ATOM     34  C   UNL A   1      41.509  27.428  27.447  1.00  0.00     0.016 A 
ATOM     35  C   UNL A   1      39.935  25.858  28.424  1.00  0.00     0.016 A 
ATOM     36  C   UNL A   1      41.367  28.249  28.565  1.00  0.00     0.010 A 
ATOM     37  C   UNL A   1      39.789  26.684  29.537  1.00  0.00     0.010 A 
ATOM     38  C   UNL A   1      40.509  27.882  29.618  1.00  0.00    -0.014 A 
BRANCH  38  39
ATOM     39  C   UNL A   1      40.342  28.781  30.784  1.00  0.00     0.031 A 
ATOM     40  C   UNL A   1      41.229  28.651  31.987  1.00  0.00     0.074 A 
ATOM     41  C   UNL A   1      39.384  29.726  30.740  1.00  0.00     0.049 A 
ATOM     42  N   UNL A   1      41.290  29.413  33.049  1.00  0.00    -0.248 NA
ATOM     43  C   UNL A   1      42.167  27.517  32.007  1.00  0.00     0.031 C 
ATOM     44  C   UNL A   1      38.436  29.909  29.639  1.00  0.00     0.029 A 
ATOM     45  N   UNL A   1      39.057  30.716  31.630  1.00  0.00    -0.354 N 
ATOM     46  C   UNL A   1      42.282  28.866  33.853  1.00  0.00     0.074 A 
ATOM     47  C   UNL A   1      42.758  27.675  33.184  1.00  0.00     0.031 C 
ATOM     48  C   UNL A   1      37.662  30.975  29.899  1.00  0.00     0.029 A 
ATOM     49  C   UNL A   1      38.041  31.534  31.194  1.00  0.00     0.049 A 
ATOM     50  H   UNL A   1      39.506  30.831  32.498  1.00  0.00     0.167 HD
ATOM     51  C   UNL A   1      42.767  29.335  35.028  1.00  0.00     0.037 A 
ATOM     52  C   UNL A   1      37.488  32.619  31.768  1.00  0.00     0.037 A 
ATOM     53  C   UNL A   1      42.277  30.519  35.687  1.00  0.00     0.049 A 
ATOM     54  C   UNL A   1      38.023  33.100  33.088  1.00  0.00     0.074 A 
ATOM     55  C   UNL A   1      42.724  31.097  36.862  1.00  0.00     0.029 A 
ATOM     56  N   UNL A   1      41.224  31.302  35.234  1.00  0.00    -0.354 N 
ATOM     57  N   UNL A   1      39.012  32.616  33.802  1.00  0.00    -0.248 NA
ATOM     58  C   UNL A   1      37.373  34.278  33.681  1.00  0.00     0.031 C 
ATOM     59  C   UNL A   1      41.913  32.200  37.144  1.00  0.00     0.029 A 
ATOM     60  C   UNL A   1      40.992  32.343  36.118  1.00  0.00     0.049 A 
ATOM     61  H   UNL A   1      40.717  31.141  34.405  1.00  0.00     0.167 HD
ATOM     62  C   UNL A   1      39.115  33.439  34.918  1.00  0.00     0.074 A 
ATOM     63  C   UNL A   1      38.099  34.462  34.775  1.00  0.00     0.031 C 
ATOM     64  C   UNL A   1      39.972  33.352  35.965  1.00  0.00     0.037 A 
BRANCH  51  65
ATOM     65  C   UNL A   1      43.898  28.579  35.672  1.00  0.00     0.058 A 
ATOM     66  C   UNL A   1      43.655  27.546  36.592  1.00  0.00     0.135 A 
ATOM     67  C   UNL A   1      45.233  28.841  35.322  1.00  0.00     0.135 A 
ATOM     68  F   UNL A   1      42.399  27.260  36.972  1.00  0.00    -0.206 F 
ATOM     69  C   UNL A   1      44.694  26.812  37.155  1.00  0.00     0.059 A 
ATOM     70  C   UNL A   1      46.287  28.101  35.854  1.00  0.00     0.059 A 
ATOM     71  F   UNL A   1      45.524  29.816  34.447  1.00  0.00    -0.206 F 
ATOM     72  C   UNL A   1      46.007  27.094  36.777  1.00  0.00     0.060 A 
BRANCH  72  73
ATOM     73  S   UNL A   1      47.338  26.113  37.502  1.00  0.00     0.124 S 
ATOM     74  O   UNL A   1      48.480  26.525  36.692  1.00  0.00    -0.237 OA
ATOM     75  O   UNL A   1      47.345  26.576  38.886  1.00  0.00    -0.237 OA
ATOM     76  O   UNL A   1      46.896  24.736  37.306  1.00  0.00    -0.744 OA
ENDBRANCH  72  73
ENDBRANCH  51  65
BRANCH  52  77
ATOM     77  C   UNL A   1      36.394  33.345  31.068  1.00  0.00     0.058 A 
ATOM     78  C   UNL A   1      35.080  33.304  31.552  1.00  0.00     0.135 A 
ATOM     79  C   UNL A   1      36.648  34.121  29.927  1.00  0.00     0.135 A 
ATOM     80  F   UNL A   1      34.786  32.573  32.637  1.00  0.00    -0.206 F 
ATOM     81  C   UNL A   1      34.051  34.002  30.926  1.00  0.00     0.059 A 
ATOM     82  C   UNL A   1      35.642  34.847  29.297  1.00  0.00     0.059 A 
ATOM     83  F   UNL A   1      37.893  34.203  29.431  1.00  0.00    -0.206 F 
ATOM     84  C   UNL A   1      34.344  34.777  29.802  1.00  0.00     0.060 A 
BRANCH  84  85
ATOM     85  S   UNL A   1      33.011  35.722  29.034  1.00  0.00     0.124 S 
ATOM     86  O   UNL A   1      33.752  36.780  28.357  1.00  0.00    -0.237 OA
ATOM     87  O   UNL A   1      32.389  34.724  28.170  1.00  0.00    -0.237 OA
ATOM     88  O   UNL A   1      32.201  36.149  30.171  1.00  0.00    -0.744 OA
ENDBRANCH  84  85
ENDBRANCH  52  77
BRANCH  64  89
ATOM     89  C   UNL A   1      39.859  34.394  37.043  1.00  0.00     0.058 A 
ATOM     90  C   UNL A   1      40.529  35.624  36.948  1.00  0.00     0.135 A 
ATOM     91  C   UNL A   1      39.014  34.192  38.147  1.00  0.00     0.135 A 
ATOM     92  F   UNL A   1      41.355  35.865  35.918  1.00  0.00    -0.206 F 
ATOM     93  C   UNL A   1      40.376  36.612  37.915  1.00  0.00     0.059 A 
ATOM     94  C   UNL A   1      38.825  35.177  39.113  1.00  0.00     0.059 A 
ATOM     95  F   UNL A   1      38.343  33.038  38.282  1.00  0.00    -0.206 F 
ATOM     96  C   UNL A   1      39.516  36.381  38.991  1.00  0.00     0.060 A 
BRANCH  96  97
ATOM     97  S   UNL A   1      39.291  37.693  40.210  1.00  0.00     0.124 S 
ATOM     98  O   UNL A   1      38.191  38.454  39.627  1.00  0.00    -0.237 OA
ATOM     99  O   UNL A   1      38.969  36.941  41.420  1.00  0.00    -0.237 OA
ATOM    100  O   UNL A   1      40.584  38.370  40.227  1.00  0.00    -0.744 OA
ENDBRANCH  96  97
ENDBRANCH  64  89
ENDBRANCH  38  39
ENDBRANCH  31  33
ENDBRANCH  30  31
ENDBRANCH   1  30
TORSDOF 16
ENDMDL
MODEL 2
REMARK VINA RESULT:     -11.8      4.344     12.098
REMARK SMILES Cc1cc2nc(NC3=[NH+][C@H](CC(=O)OCCOC(=O)c4ccc(-c5c6nc(c(-c7c(F)cc(S(=O)(=O)[O-])cc7F)c7ccc([nH]7)c(-c7c(F)cc(S(=O)(=O)[O-])cc7F)c7nc(c(-c8c(F)cc(S(=O)(=O)[O-])cc8F)c8ccc5[nH]8)C=C7)C=C6)cc4)C(=O)N3)nc(C)c2cc1C
REMARK SMILES IDX 16 1 15 2 14 3 12 4 13 5 11 6 10 7 7 8 8 9 9 11 88 12 86 14
REMARK SMILES IDX 87 16 6 17 1 18 2 19 3 20 94 21 4 22 93 23 95 24 5 25 92 26
REMARK SMILES IDX 90 27 89 28 91 29 17 30 18 31 19 32 20 33 21 34 85 35 22 36
REMARK SMILES IDX 84 37 23 38 24 39 25 40 78 41 26 42 83 43 77 44 79 45 27 46
REMARK SMILES IDX 82 47 76 48 75 49 28 51 62 52 41 53 61 54 42 55 45 56 60 57
REMARK SMILES IDX 80 58 43 59 44 60 59 62 81 63 46 64 29 65 30 66 39 67 31 68
REMARK SMILES IDX 32 69 38 70 40 71 33 72 34 73 35 74 36 75 37 76 63 77 64 78
REMARK SMILES IDX 73 79 65 80 66 81 72 82 74 83 67 84 68 85 69 86 70 87 71 88
REMARK SMILES IDX 47 89 48 90 57 91 49 92 50 93 56 94 58 95 51 96 52 97 53 98
REMARK SMILES IDX 54 99 55 100
REMARK H PARENT 7 10 9 13 88 15 79 50 45 61
REMARK Flexibility Score: inf
ROOT
ATOM      1  C   UNL A   1      33.697  32.483  27.620  1.00  0.00     0.275 C 
ENDROOT
BRANCH   1   2
ATOM      2  C   UNL A   1      34.922  33.326  27.973  1.00  0.00     0.274 C 
BRANCH   2   3
ATOM      3  O   UNL A   1      35.374  33.031  29.305  1.00  0.00    -0.462 OA
BRANCH   3   4
ATOM      4  C   UNL A   1      35.580  34.071  30.146  1.00  0.00     0.310 C 
ATOM      5  O   UNL A   1      36.540  34.173  30.902  1.00  0.00    -0.252 OA
BRANCH   4   6
ATOM      6  C   UNL A   1      34.459  35.083  30.127  1.00  0.00     0.175 C 
BRANCH   6   7
ATOM      7  C   UNL A   1      33.386  34.850  31.183  1.00  0.00     0.262 C 
ATOM      8  N   UNL A   1      34.789  34.405  34.400  1.00  0.00    -0.212 N 
ATOM      9  C   UNL A   1      34.104  34.752  33.288  1.00  0.00     0.358 C 
ATOM     10  H   UNL A   1      34.418  34.628  35.284  1.00  0.00     0.270 HD
ATOM     11  N   UNL A   1      33.964  34.000  32.245  1.00  0.00    -0.263 N 
ATOM     12  N   UNL A   1      33.519  35.960  33.189  1.00  0.00    -0.211 N 
ATOM     13  H   UNL A   1      34.196  33.046  32.174  1.00  0.00     0.261 HD
ATOM     14  C   UNL A   1      33.069  36.132  31.920  1.00  0.00     0.320 C 
ATOM     15  H   UNL A   1      33.433  36.614  33.920  1.00  0.00     0.270 HD
ATOM     16  O   UNL A   1      32.582  37.155  31.469  1.00  0.00    -0.252 OA
BRANCH   8  17
ATOM     17  C   UNL A   1      36.009  33.740  34.320  1.00  0.00     0.291 A 
ATOM     18  C   UNL A   1      38.267  28.373  32.657  1.00  0.00     0.044 C 
ATOM     19  C   UNL A   1      38.392  29.796  33.134  1.00  0.00    -0.046 A 
ATOM     20  C   UNL A   1      37.212  30.546  33.279  1.00  0.00     0.033 A 
ATOM     21  C   UNL A   1      39.614  30.385  33.492  1.00  0.00    -0.047 A 
ATOM     22  C   UNL A   1      37.209  31.854  33.743  1.00  0.00     0.078 A 
ATOM     23  C   UNL A   1      39.615  31.714  33.953  1.00  0.00     0.016 A 
ATOM     24  C   UNL A   1      40.913  29.636  33.404  1.00  0.00     0.044 C 
ATOM     25  N   UNL A   1      36.044  32.486  33.848  1.00  0.00    -0.198 NA
ATOM     26  C   UNL A   1      38.414  32.457  34.082  1.00  0.00     0.022 A 
ATOM     27  C   UNL A   1      38.294  33.783  34.530  1.00  0.00     0.052 A 
ATOM     28  N   UNL A   1      37.110  34.433  34.630  1.00  0.00    -0.203 NA
ATOM     29  C   UNL A   1      39.498  34.583  34.935  1.00  0.00     0.067 C 
ENDBRANCH   8  17
ENDBRANCH   6   7
ENDBRANCH   4   6
ENDBRANCH   3   4
ENDBRANCH   2   3
ENDBRANCH   1   2
BRANCH   1  30
ATOM     30  O   UNL A   1      33.709  31.237  28.338  1.00  0.00    -0.458 OA
BRANCH  30  31
ATOM     31  C   UNL A   1      34.114  30.156  27.629  1.00  0.00     0.338 C 
ATOM     32  O   UNL A   1      33.494  29.552  26.774  1.00  0.00    -0.246 OA
BRANCH  31  33
ATOM     33  C   UNL A   1      35.513  29.869  27.968  1.00  0.00     0.060 A 
ATOM     34  C   UNL A   1      36.505  29.965  26.992  1.00  0.00     0.016 A 
ATOM     35  C   UNL A   1      35.837  29.539  29.288  1.00  0.00     0.016 A 
ATOM     36  C   UNL A   1      37.829  29.702  27.341  1.00  0.00     0.010 A 
ATOM     37  C   UNL A   1      37.162  29.284  29.635  1.00  0.00     0.010 A 
ATOM     38  C   UNL A   1      38.166  29.357  28.662  1.00  0.00    -0.014 A 
BRANCH  38  39
ATOM     39  C   UNL A   1      39.583  29.114  29.026  1.00  0.00     0.031 A 
ATOM     40  C   UNL A   1      40.233  27.793  28.736  1.00  0.00     0.074 A 
ATOM     41  C   UNL A   1      40.279  30.106  29.612  1.00  0.00     0.049 A 
ATOM     42  N   UNL A   1      41.484  27.442  28.893  1.00  0.00    -0.248 NA
ATOM     43  C   UNL A   1      39.371  26.725  28.207  1.00  0.00     0.031 C 
ATOM     44  C   UNL A   1      39.731  31.413  29.980  1.00  0.00     0.029 A 
ATOM     45  N   UNL A   1      41.596  30.179  29.987  1.00  0.00    -0.354 N 
ATOM     46  C   UNL A   1      41.565  26.123  28.465  1.00  0.00     0.074 A 
ATOM     47  C   UNL A   1      40.226  25.717  28.096  1.00  0.00     0.031 C 
ATOM     48  C   UNL A   1      40.713  32.173  30.489  1.00  0.00     0.029 A 
ATOM     49  C   UNL A   1      41.953  31.401  30.507  1.00  0.00     0.049 A 
ATOM     50  H   UNL A   1      42.226  29.429  29.892  1.00  0.00     0.167 HD
ATOM     51  C   UNL A   1      42.663  25.337  28.365  1.00  0.00     0.037 A 
ATOM     52  C   UNL A   1      43.147  31.851  30.936  1.00  0.00     0.037 A 
ATOM     53  C   UNL A   1      43.990  25.752  28.745  1.00  0.00     0.049 A 
ATOM     54  C   UNL A   1      44.344  30.946  30.844  1.00  0.00     0.074 A 
ATOM     55  C   UNL A   1      45.174  25.042  28.651  1.00  0.00     0.029 A 
ATOM     56  N   UNL A   1      44.307  26.984  29.301  1.00  0.00    -0.354 N 
ATOM     57  N   UNL A   1      44.420  29.726  30.368  1.00  0.00    -0.248 NA
ATOM     58  C   UNL A   1      45.621  31.479  31.342  1.00  0.00     0.031 C 
ATOM     59  C   UNL A   1      46.198  25.825  29.192  1.00  0.00     0.029 A 
ATOM     60  C   UNL A   1      45.664  27.045  29.577  1.00  0.00     0.049 A 
ATOM     61  H   UNL A   1      43.662  27.708  29.473  1.00  0.00     0.167 HD
ATOM     62  C   UNL A   1      45.754  29.351  30.493  1.00  0.00     0.074 A 
ATOM     63  C   UNL A   1      46.451  30.481  31.072  1.00  0.00     0.031 C 
ATOM     64  C   UNL A   1      46.344  28.177  30.159  1.00  0.00     0.037 A 
BRANCH  51  65
ATOM     65  C   UNL A   1      42.486  23.950  27.808  1.00  0.00     0.058 A 
ATOM     66  C   UNL A   1      42.413  23.724  26.423  1.00  0.00     0.135 A 
ATOM     67  C   UNL A   1      42.453  22.829  28.654  1.00  0.00     0.135 A 
ATOM     68  F   UNL A   1      42.428  24.759  25.567  1.00  0.00    -0.206 F 
ATOM     69  C   UNL A   1      42.297  22.441  25.899  1.00  0.00     0.059 A 
ATOM     70  C   UNL A   1      42.364  21.534  28.150  1.00  0.00     0.059 A 
ATOM     71  F   UNL A   1      42.521  22.986  29.985  1.00  0.00    -0.206 F 
ATOM     72  C   UNL A   1      42.277  21.351  26.770  1.00  0.00     0.060 A 
BRANCH  72  73
ATOM     73  S   UNL A   1      42.150  19.692  26.068  1.00  0.00     0.124 S 
ATOM     74  O   UNL A   1      40.743  19.644  25.683  1.00  0.00    -0.237 OA
ATOM     75  O   UNL A   1      43.105  19.748  24.966  1.00  0.00    -0.237 OA
ATOM     76  O   UNL A   1      42.526  18.821  27.176  1.00  0.00    -0.744 OA
ENDBRANCH  72  73
ENDBRANCH  51  65
BRANCH  52  77
ATOM     77  C   UNL A   1      43.268  33.243  31.446  1.00  0.00     0.058 A 
ATOM     78  C   UNL A   1      43.186  33.515  32.819  1.00  0.00     0.135 A 
ATOM     79  C   UNL A   1      43.505  34.320  30.579  1.00  0.00     0.135 A 
ATOM     80  F   UNL A   1      42.956  32.519  33.688  1.00  0.00    -0.206 F 
ATOM     81  C   UNL A   1      43.328  34.807  33.315  1.00  0.00     0.059 A 
ATOM     82  C   UNL A   1      43.675  35.618  31.053  1.00  0.00     0.059 A 
ATOM     83  F   UNL A   1      43.606  34.110  29.257  1.00  0.00    -0.206 F 
ATOM     84  C   UNL A   1      43.579  35.852  32.424  1.00  0.00     0.060 A 
BRANCH  84  85
ATOM     85  S   UNL A   1      43.817  37.513  33.087  1.00  0.00     0.124 S 
ATOM     86  O   UNL A   1      43.872  38.313  31.868  1.00  0.00    -0.237 OA
ATOM     87  O   UNL A   1      42.624  37.687  33.910  1.00  0.00    -0.237 OA
ATOM     88  O   UNL A   1      45.071  37.406  33.827  1.00  0.00    -0.744 OA
ENDBRANCH  84  85
ENDBRANCH  52  77
BRANCH  64  89
ATOM     89  C   UNL A   1      47.822  28.048  30.403  1.00  0.00     0.058 A 
ATOM     90  C   UNL A   1      48.760  28.375  29.412  1.00  0.00     0.135 A 
ATOM     91  C   UNL A   1      48.307  27.666  31.665  1.00  0.00     0.135 A 
ATOM     92  F   UNL A   1      48.350  28.739  28.187  1.00  0.00    -0.206 F 
ATOM     93  C   UNL A   1      50.128  28.315  29.657  1.00  0.00     0.059 A 
ATOM     94  C   UNL A   1      49.671  27.625  31.941  1.00  0.00     0.059 A 
ATOM     95  F   UNL A   1      47.453  27.351  32.650  1.00  0.00    -0.206 F 
ATOM     96  C   UNL A   1      50.574  27.944  30.928  1.00  0.00     0.060 A 
BRANCH  96  97
ATOM     97  S   UNL A   1      52.351  27.919  31.244  1.00  0.00     0.124 S 
ATOM     98  O   UNL A   1      52.681  29.340  31.188  1.00  0.00    -0.237 OA
ATOM     99  O   UNL A   1      52.423  27.304  32.566  1.00  0.00    -0.237 OA
ATOM    100  O   UNL A   1      52.881  27.108  30.153  1.00  0.00    -0.744 OA
ENDBRANCH  96  97
ENDBRANCH  64  89
ENDBRANCH  38  39
ENDBRANCH  31  33
ENDBRANCH  30  31
ENDBRANCH   1  30
TORSDOF 16
ENDMDL
MODEL 3
REMARK VINA RESULT:     -11.7      5.901     14.408
REMARK SMILES Cc1cc2nc(NC3=[NH+][C@H](CC(=O)OCCOC(=O)c4ccc(-c5c6nc(c(-c7c(F)cc(S(=O)(=O)[O-])cc7F)c7ccc([nH]7)c(-c7c(F)cc(S(=O)(=O)[O-])cc7F)c7nc(c(-c8c(F)cc(S(=O)(=O)[O-])cc8F)c8ccc5[nH]8)C=C7)C=C6)cc4)C(=O)N3)nc(C)c2cc1C
REMARK SMILES IDX 16 1 15 2 14 3 12 4 13 5 11 6 10 7 7 8 8 9 9 11 88 12 86 14
REMARK SMILES IDX 87 16 6 17 1 18 2 19 3 20 94 21 4 22 93 23 95 24 5 25 92 26
REMARK SMILES IDX 90 27 89 28 91 29 17 30 18 31 19 32 20 33 21 34 85 35 22 36
REMARK SMILES IDX 84 37 23 38 24 39 25 40 78 41 26 42 83 43 77 44 79 45 27 46
REMARK SMILES IDX 82 47 76 48 75 49 28 51 62 52 41 53 61 54 42 55 45 56 60 57
REMARK SMILES IDX 80 58 43 59 44 60 59 62 81 63 46 64 29 65 30 66 39 67 31 68
REMARK SMILES IDX 32 69 38 70 40 71 33 72 34 73 35 74 36 75 37 76 63 77 64 78
REMARK SMILES IDX 73 79 65 80 66 81 72 82 74 83 67 84 68 85 69 86 70 87 71 88
REMARK SMILES IDX 47 89 48 90 57 91 49 92 50 93 56 94 58 95 51 96 52 97 53 98
REMARK SMILES IDX 54 99 55 100
REMARK H PARENT 7 10 9 13 88 15 79 50 45 61
REMARK Flexibility Score: inf
ROOT
ATOM      1  C   UNL A   1      35.620  31.859  31.792  1.00  0.00     0.275 C 
ENDROOT
BRANCH   1   2
ATOM      2  C   UNL A   1      36.687  32.856  32.241  1.00  0.00     0.274 C 
BRANCH   2   3
ATOM      3  O   UNL A   1      36.087  34.107  32.612  1.00  0.00    -0.462 OA
BRANCH   3   4
ATOM      4  C   UNL A   1      35.137  34.091  33.576  1.00  0.00     0.310 C 
ATOM      5  O   UNL A   1      35.289  33.609  34.693  1.00  0.00    -0.252 OA
BRANCH   4   6
ATOM      6  C   UNL A   1      33.817  34.666  33.120  1.00  0.00     0.175 C 
BRANCH   6   7
ATOM      7  C   UNL A   1      33.941  35.941  32.295  1.00  0.00     0.262 C 
ATOM      8  N   UNL A   1      33.291  35.351  28.868  1.00  0.00    -0.212 N 
ATOM      9  C   UNL A   1      33.365  35.767  30.152  1.00  0.00     0.358 C 
ATOM     10  H   UNL A   1      32.910  35.952  28.188  1.00  0.00     0.270 HD
ATOM     11  N   UNL A   1      34.376  35.567  30.933  1.00  0.00    -0.263 N 
ATOM     12  N   UNL A   1      32.339  36.425  30.722  1.00  0.00    -0.211 N 
ATOM     13  H   UNL A   1      35.264  35.231  30.671  1.00  0.00     0.261 HD
ATOM     14  C   UNL A   1      32.581  36.558  32.052  1.00  0.00     0.320 C 
ATOM     15  H   UNL A   1      31.540  36.755  30.251  1.00  0.00     0.270 HD
ATOM     16  O   UNL A   1      31.807  37.015  32.875  1.00  0.00    -0.252 OA
BRANCH   8  17
ATOM     17  C   UNL A   1      33.743  34.091  28.489  1.00  0.00     0.291 A 
ATOM     18  C   UNL A   1      31.628  28.893  26.215  1.00  0.00     0.044 C 
ATOM     19  C   UNL A   1      32.729  29.806  26.685  1.00  0.00    -0.046 A 
ATOM     20  C   UNL A   1      32.372  31.094  27.119  1.00  0.00     0.033 A 
ATOM     21  C   UNL A   1      34.074  29.417  26.762  1.00  0.00    -0.047 A 
ATOM     22  C   UNL A   1      33.301  32.005  27.603  1.00  0.00     0.078 A 
ATOM     23  C   UNL A   1      35.019  30.341  27.243  1.00  0.00     0.016 A 
ATOM     24  C   UNL A   1      34.529  28.044  26.355  1.00  0.00     0.044 C 
ATOM     25  N   UNL A   1      32.872  33.202  27.992  1.00  0.00    -0.198 NA
ATOM     26  C   UNL A   1      34.640  31.640  27.666  1.00  0.00     0.022 A 
ATOM     27  C   UNL A   1      35.493  32.641  28.162  1.00  0.00     0.052 A 
ATOM     28  N   UNL A   1      35.059  33.864  28.551  1.00  0.00    -0.203 NA
ATOM     29  C   UNL A   1      36.971  32.415  28.294  1.00  0.00     0.067 C 
ENDBRANCH   8  17
ENDBRANCH   6   7
ENDBRANCH   4   6
ENDBRANCH   3   4
ENDBRANCH   2   3
ENDBRANCH   1   2
BRANCH   1  30
ATOM     30  O   UNL A   1      36.218  30.731  31.129  1.00  0.00    -0.458 OA
BRANCH  30  31
ATOM     31  C   UNL A   1      36.982  29.931  31.910  1.00  0.00     0.338 C 
ATOM     32  O   UNL A   1      36.672  29.401  32.961  1.00  0.00    -0.246 OA
BRANCH  31  33
ATOM     33  C   UNL A   1      38.257  29.685  31.226  1.00  0.00     0.060 A 
ATOM     34  C   UNL A   1      39.384  29.310  31.957  1.00  0.00     0.016 A 
ATOM     35  C   UNL A   1      38.312  29.794  29.833  1.00  0.00     0.016 A 
ATOM     36  C   UNL A   1      40.581  29.068  31.285  1.00  0.00     0.010 A 
ATOM     37  C   UNL A   1      39.507  29.545  29.163  1.00  0.00     0.010 A 
ATOM     38  C   UNL A   1      40.652  29.186  29.885  1.00  0.00    -0.014 A 
BRANCH  38  39
ATOM     39  C   UNL A   1      41.923  28.892  29.181  1.00  0.00     0.031 A 
ATOM     40  C   UNL A   1      42.990  29.938  29.055  1.00  0.00     0.074 A 
ATOM     41  C   UNL A   1      42.106  27.662  28.664  1.00  0.00     0.049 A 
ATOM     42  N   UNL A   1      44.197  29.825  28.562  1.00  0.00    -0.248 NA
ATOM     43  C   UNL A   1      42.663  31.289  29.537  1.00  0.00     0.031 C 
ATOM     44  C   UNL A   1      41.114  26.585  28.690  1.00  0.00     0.029 A 
ATOM     45  N   UNL A   1      43.188  27.105  28.033  1.00  0.00    -0.354 N 
ATOM     46  C   UNL A   1      44.780  31.079  28.693  1.00  0.00     0.074 A 
ATOM     47  C   UNL A   1      43.776  31.954  29.258  1.00  0.00     0.031 C 
ATOM     48  C   UNL A   1      41.649  25.483  28.139  1.00  0.00     0.029 A 
ATOM     49  C   UNL A   1      43.009  25.783  27.699  1.00  0.00     0.049 A 
ATOM     50  H   UNL A   1      44.014  27.603  27.837  1.00  0.00     0.167 HD
ATOM     51  C   UNL A   1      46.047  31.453  28.393  1.00  0.00     0.037 A 
ATOM     52  C   UNL A   1      43.853  24.909  27.118  1.00  0.00     0.037 A 
ATOM     53  C   UNL A   1      47.035  30.573  27.822  1.00  0.00     0.049 A 
ATOM     54  C   UNL A   1      45.243  25.359  26.765  1.00  0.00     0.074 A 
ATOM     55  C   UNL A   1      48.356  30.845  27.514  1.00  0.00     0.029 A 
ATOM     56  N   UNL A   1      46.807  29.250  27.465  1.00  0.00    -0.354 N 
ATOM     57  N   UNL A   1      45.805  26.528  26.963  1.00  0.00    -0.248 NA
ATOM     58  C   UNL A   1      46.118  24.372  26.116  1.00  0.00     0.031 C 
ATOM     59  C   UNL A   1      48.914  29.705  26.928  1.00  0.00     0.029 A 
ATOM     60  C   UNL A   1      47.957  28.703  26.918  1.00  0.00     0.049 A 
ATOM     61  H   UNL A   1      45.955  28.772  27.585  1.00  0.00     0.167 HD
ATOM     62  C   UNL A   1      47.104  26.413  26.479  1.00  0.00     0.074 A 
ATOM     63  C   UNL A   1      47.249  25.054  25.996  1.00  0.00     0.031 C 
ATOM     64  C   UNL A   1      48.084  27.348  26.437  1.00  0.00     0.037 A 
BRANCH  51  65
ATOM     65  C   UNL A   1      46.449  32.873  28.691  1.00  0.00     0.058 A 
ATOM     66  C   UNL A   1      46.956  33.239  29.949  1.00  0.00     0.135 A 
ATOM     67  C   UNL A   1      46.391  33.864  27.697  1.00  0.00     0.135 A 
ATOM     68  F   UNL A   1      47.024  32.336  30.940  1.00  0.00    -0.206 F 
ATOM     69  C   UNL A   1      47.374  34.539  30.216  1.00  0.00     0.059 A 
ATOM     70  C   UNL A   1      46.829  35.165  27.935  1.00  0.00     0.059 A 
ATOM     71  F   UNL A   1      45.917  33.570  26.477  1.00  0.00    -0.206 F 
ATOM     72  C   UNL A   1      47.311  35.495  29.201  1.00  0.00     0.060 A 
BRANCH  72  73
ATOM     73  S   UNL A   1      47.880  37.169  29.562  1.00  0.00     0.124 S 
ATOM     74  O   UNL A   1      49.145  36.909  30.242  1.00  0.00    -0.237 OA
ATOM     75  O   UNL A   1      47.987  37.755  28.229  1.00  0.00    -0.237 OA
ATOM     76  O   UNL A   1      46.820  37.719  30.402  1.00  0.00    -0.744 OA
ENDBRANCH  72  73
ENDBRANCH  51  65
BRANCH  52  77
ATOM     77  C   UNL A   1      43.410  23.509  26.878  1.00  0.00     0.058 A 
ATOM     78  C   UNL A   1      43.068  23.074  25.590  1.00  0.00     0.135 A 
ATOM     79  C   UNL A   1      43.357  22.572  27.922  1.00  0.00     0.135 A 
ATOM     80  F   UNL A   1      43.098  23.933  24.561  1.00  0.00    -0.206 F 
ATOM     81  C   UNL A   1      42.681  21.759  25.344  1.00  0.00     0.059 A 
ATOM     82  C   UNL A   1      42.997  21.246  27.697  1.00  0.00     0.059 A 
ATOM     83  F   UNL A   1      43.688  22.936  29.171  1.00  0.00    -0.206 F 
ATOM     84  C   UNL A   1      42.656  20.851  26.404  1.00  0.00     0.060 A 
BRANCH  84  85
ATOM     85  S   UNL A   1      42.208  19.137  26.060  1.00  0.00     0.124 S 
ATOM     86  O   UNL A   1      40.778  19.252  25.797  1.00  0.00    -0.237 OA
ATOM     87  O   UNL A   1      43.045  18.828  24.906  1.00  0.00    -0.237 OA
ATOM     88  O   UNL A   1      42.568  18.439  27.291  1.00  0.00    -0.744 OA
ENDBRANCH  84  85
ENDBRANCH  52  77
BRANCH  64  89
ATOM     89  C   UNL A   1      49.410  26.940  25.856  1.00  0.00     0.058 A 
ATOM     90  C   UNL A   1      49.709  27.143  24.500  1.00  0.00     0.135 A 
ATOM     91  C   UNL A   1      50.417  26.408  26.678  1.00  0.00     0.135 A 
ATOM     92  F   UNL A   1      48.780  27.640  23.670  1.00  0.00    -0.206 F 
ATOM     93  C   UNL A   1      50.957  26.821  23.975  1.00  0.00     0.059 A 
ATOM     94  C   UNL A   1      51.681  26.104  26.180  1.00  0.00     0.059 A 
ATOM     95  F   UNL A   1      50.186  26.201  27.983  1.00  0.00    -0.206 F 
ATOM     96  C   UNL A   1      51.939  26.308  24.825  1.00  0.00     0.060 A 
BRANCH  96  97
ATOM     97  S   UNL A   1      53.568  25.942  24.138  1.00  0.00     0.124 S 
ATOM     98  O   UNL A   1      53.838  24.624  24.703  1.00  0.00    -0.237 OA
ATOM     99  O   UNL A   1      53.313  25.975  22.701  1.00  0.00    -0.237 OA
ATOM    100  O   UNL A   1      54.404  27.026  24.645  1.00  0.00    -0.744 OA
ENDBRANCH  96  97
ENDBRANCH  64  89
ENDBRANCH  38  39
ENDBRANCH  31  33
ENDBRANCH  30  31
ENDBRANCH   1  30
TORSDOF 16
ENDMDL
