MODEL 1
REMARK VINA RESULT:     -12.4      0.000      0.000
REMARK SMILES Cc1ccc(Nc2c(Cl)cc(Cl)cc2Cl)c(CC(=O)OCCOC(=O)c2ccc(-c3c4nc(c(-c5c(F)cc(S(=O)(=O)[O-])cc5F)c5ccc([nH]5)c(-c5c(F)cc(S(=O)(=O)[O-])cc5F)c5nc(c(-c6c(F)cc(S(=O)(=O)[O-])cc6F)c6ccc3[nH]6)C=C5)C=C4)cc2)c1
REMARK SMILES IDX 21 1 20 2 18 3 19 4 17 5 16 6 1 7 2 8 3 9 92 10 4 11 5 12
REMARK SMILES IDX 6 13 7 15 8 16 14 17 9 18 10 19 13 20 15 21 11 22 12 23
REMARK SMILES IDX 22 24 23 25 24 26 25 27 26 28 27 29 91 30 28 31 90 32 29 33
REMARK SMILES IDX 30 34 31 35 84 36 32 37 89 38 83 39 85 40 33 41 88 42 82 43
REMARK SMILES IDX 81 44 34 46 68 47 47 48 67 49 48 50 51 51 66 52 86 53 49 54
REMARK SMILES IDX 50 55 65 57 87 58 52 59 35 60 36 61 45 62 37 63 38 64 44 65
REMARK SMILES IDX 46 66 39 67 40 68 41 69 42 70 43 71 69 72 70 73 79 74 71 75
REMARK SMILES IDX 72 76 78 77 80 78 73 79 74 80 75 81 76 82 77 83 53 84 54 85
REMARK SMILES IDX 63 86 55 87 56 88 62 89 64 90 57 91 58 92 59 93 60 94 61 95
REMARK H PARENT 6 14 85 45 51 56
REMARK Flexibility Score: inf
ROOT
ATOM      1  C   UNL A   1      36.895  22.763  25.356  1.00  0.00     0.274 C 
ENDROOT
BRANCH   1   2
ATOM      2  O   UNL A   1      36.351  24.065  25.145  1.00  0.00    -0.462 OA
BRANCH   2   3
ATOM      3  C   UNL A   1      35.026  24.196  25.413  1.00  0.00     0.310 C 
ATOM      4  O   UNL A   1      34.455  23.666  26.338  1.00  0.00    -0.252 OA
BRANCH   3   5
ATOM      5  C   UNL A   1      34.417  25.115  24.365  1.00  0.00     0.160 C 
BRANCH   5   6
ATOM      6  C   UNL A   1      33.449  26.078  25.004  1.00  0.00    -0.013 A 
ATOM      7  C   UNL A   1      33.849  28.880  27.520  1.00  0.00     0.044 C 
ATOM      8  C   UNL A   1      33.208  27.878  26.613  1.00  0.00    -0.051 A 
ATOM      9  C   UNL A   1      31.839  27.608  26.669  1.00  0.00     0.005 A 
ATOM     10  C   UNL A   1      34.008  27.104  25.780  1.00  0.00     0.009 A 
ATOM     11  C   UNL A   1      31.269  26.620  25.857  1.00  0.00     0.026 A 
ATOM     12  C   UNL A   1      32.050  25.867  24.978  1.00  0.00     0.042 A 
BRANCH  12  13
ATOM     13  N   UNL A   1      31.493  24.832  24.206  1.00  0.00    -0.353 N 
ATOM     14  H   UNL A   1      30.936  25.146  23.457  1.00  0.00     0.167 HD
BRANCH  13  15
ATOM     15  C   UNL A   1      31.585  23.420  24.305  1.00  0.00     0.076 A 
ATOM     16  C   UNL A   1      32.304  22.662  23.360  1.00  0.00     0.067 A 
ATOM     17  C   UNL A   1      31.215  22.774  25.504  1.00  0.00     0.067 A 
ATOM     18  Cl  UNL A   1      32.820  23.343  21.854  1.00  0.00    -0.082 Cl
ATOM     19  C   UNL A   1      32.633  21.323  23.601  1.00  0.00     0.043 A 
ATOM     20  C   UNL A   1      31.587  21.452  25.770  1.00  0.00     0.043 A 
ATOM     21  Cl  UNL A   1      30.198  23.551  26.668  1.00  0.00    -0.082 Cl
ATOM     22  C   UNL A   1      32.292  20.734  24.814  1.00  0.00     0.044 A 
ATOM     23  Cl  UNL A   1      32.718  19.095  25.120  1.00  0.00    -0.084 Cl
ENDBRANCH  13  15
ENDBRANCH  12  13
ENDBRANCH   5   6
ENDBRANCH   3   5
ENDBRANCH   2   3
ENDBRANCH   1   2
BRANCH   1  24
ATOM     24  C   UNL A   1      38.175  22.822  26.216  1.00  0.00     0.275 C 
BRANCH  24  25
ATOM     25  O   UNL A   1      38.867  24.111  26.296  1.00  0.00    -0.458 OA
BRANCH  25  26
ATOM     26  C   UNL A   1      40.136  24.471  26.666  1.00  0.00     0.338 C 
ATOM     27  O   UNL A   1      41.090  23.914  26.126  1.00  0.00    -0.246 OA
BRANCH  26  28
ATOM     28  C   UNL A   1      40.366  25.757  27.365  1.00  0.00     0.060 A 
ATOM     29  C   UNL A   1      40.654  26.938  26.651  1.00  0.00     0.016 A 
ATOM     30  C   UNL A   1      40.020  25.854  28.687  1.00  0.00     0.016 A 
ATOM     31  C   UNL A   1      40.424  28.188  27.249  1.00  0.00     0.010 A 
ATOM     32  C   UNL A   1      39.457  27.020  29.121  1.00  0.00     0.010 A 
ATOM     33  C   UNL A   1      39.764  28.217  28.480  1.00  0.00    -0.014 A 
BRANCH  33  34
ATOM     34  C   UNL A   1      39.605  29.369  29.366  1.00  0.00     0.031 A 
ATOM     35  C   UNL A   1      38.525  30.356  29.253  1.00  0.00     0.074 A 
ATOM     36  C   UNL A   1      40.538  29.486  30.346  1.00  0.00     0.049 A 
ATOM     37  N   UNL A   1      38.720  31.631  29.215  1.00  0.00    -0.248 NA
ATOM     38  C   UNL A   1      37.114  29.971  29.261  1.00  0.00     0.031 C 
ATOM     39  C   UNL A   1      40.658  30.477  31.393  1.00  0.00     0.029 A 
ATOM     40  N   UNL A   1      41.712  28.730  30.481  1.00  0.00    -0.354 N 
ATOM     41  C   UNL A   1      37.509  32.214  29.527  1.00  0.00     0.074 A 
ATOM     42  C   UNL A   1      36.519  31.165  29.400  1.00  0.00     0.031 C 
ATOM     43  C   UNL A   1      41.944  30.492  31.802  1.00  0.00     0.029 A 
ATOM     44  C   UNL A   1      42.705  29.556  30.978  1.00  0.00     0.049 A 
ATOM     45  H   UNL A   1      41.813  27.776  30.261  1.00  0.00     0.167 HD
ATOM     46  C   UNL A   1      37.453  33.441  30.122  1.00  0.00     0.037 A 
ATOM     47  C   UNL A   1      43.817  29.795  30.223  1.00  0.00     0.037 A 
ATOM     48  C   UNL A   1      38.785  33.881  30.532  1.00  0.00     0.049 A 
ATOM     49  C   UNL A   1      43.834  31.225  29.749  1.00  0.00     0.074 A 
ATOM     50  C   UNL A   1      39.424  33.799  31.760  1.00  0.00     0.029 A 
ATOM     51  N   UNL A   1      39.784  34.128  29.592  1.00  0.00    -0.354 N 
ATOM     52  N   UNL A   1      42.803  32.018  29.837  1.00  0.00    -0.248 NA
ATOM     53  C   UNL A   1      44.989  31.882  29.149  1.00  0.00     0.031 C 
ATOM     54  C   UNL A   1      40.816  33.907  31.548  1.00  0.00     0.029 A 
ATOM     55  C   UNL A   1      41.031  34.082  30.194  1.00  0.00     0.049 A 
ATOM     56  H   UNL A   1      39.626  34.310  28.638  1.00  0.00     0.167 HD
ATOM     57  C   UNL A   1      43.134  33.262  29.385  1.00  0.00     0.074 A 
ATOM     58  C   UNL A   1      44.516  33.129  28.958  1.00  0.00     0.031 C 
ATOM     59  C   UNL A   1      42.250  34.301  29.431  1.00  0.00     0.037 A 
BRANCH  46  60
ATOM     60  C   UNL A   1      36.156  34.014  30.652  1.00  0.00     0.058 A 
ATOM     61  C   UNL A   1      35.155  34.535  29.806  1.00  0.00     0.135 A 
ATOM     62  C   UNL A   1      35.861  34.068  32.032  1.00  0.00     0.135 A 
ATOM     63  F   UNL A   1      35.276  34.515  28.475  1.00  0.00    -0.206 F 
ATOM     64  C   UNL A   1      33.988  35.131  30.287  1.00  0.00     0.059 A 
ATOM     65  C   UNL A   1      34.705  34.678  32.540  1.00  0.00     0.059 A 
ATOM     66  F   UNL A   1      36.707  33.534  32.928  1.00  0.00    -0.206 F 
ATOM     67  C   UNL A   1      33.775  35.215  31.656  1.00  0.00     0.060 A 
BRANCH  67  68
ATOM     68  S   UNL A   1      32.294  36.066  32.242  1.00  0.00     0.124 S 
ATOM     69  O   UNL A   1      31.454  34.956  32.682  1.00  0.00    -0.237 OA
ATOM     70  O   UNL A   1      32.830  36.913  33.302  1.00  0.00    -0.237 OA
ATOM     71  O   UNL A   1      31.815  36.769  31.057  1.00  0.00    -0.744 OA
ENDBRANCH  67  68
ENDBRANCH  46  60
BRANCH  47  72
ATOM     72  C   UNL A   1      44.342  28.602  29.478  1.00  0.00     0.058 A 
ATOM     73  C   UNL A   1      44.922  27.571  30.247  1.00  0.00     0.135 A 
ATOM     74  C   UNL A   1      43.960  28.273  28.166  1.00  0.00     0.135 A 
ATOM     75  F   UNL A   1      45.327  27.822  31.503  1.00  0.00    -0.206 F 
ATOM     76  C   UNL A   1      44.983  26.253  29.800  1.00  0.00     0.059 A 
ATOM     77  C   UNL A   1      44.020  26.953  27.691  1.00  0.00     0.059 A 
ATOM     78  F   UNL A   1      43.387  29.195  27.380  1.00  0.00    -0.206 F 
ATOM     79  C   UNL A   1      44.473  25.943  28.544  1.00  0.00     0.060 A 
BRANCH  79  80
ATOM     80  S   UNL A   1      44.220  24.192  28.153  1.00  0.00     0.124 S 
ATOM     81  O   UNL A   1      45.416  23.571  28.709  1.00  0.00    -0.237 OA
ATOM     82  O   UNL A   1      42.970  23.917  28.857  1.00  0.00    -0.237 OA
ATOM     83  O   UNL A   1      44.116  24.185  26.700  1.00  0.00    -0.744 OA
ENDBRANCH  79  80
ENDBRANCH  47  72
BRANCH  59  84
ATOM     84  C   UNL A   1      42.505  35.678  28.897  1.00  0.00     0.058 A 
ATOM     85  C   UNL A   1      41.927  36.177  27.723  1.00  0.00     0.135 A 
ATOM     86  C   UNL A   1      43.264  36.597  29.663  1.00  0.00     0.135 A 
ATOM     87  F   UNL A   1      41.120  35.415  26.970  1.00  0.00    -0.206 F 
ATOM     88  C   UNL A   1      42.128  37.491  27.303  1.00  0.00     0.059 A 
ATOM     89  C   UNL A   1      43.430  37.923  29.293  1.00  0.00     0.059 A 
ATOM     90  F   UNL A   1      43.864  36.232  30.806  1.00  0.00    -0.206 F 
ATOM     91  C   UNL A   1      42.879  38.356  28.097  1.00  0.00     0.060 A 
BRANCH  91  92
ATOM     92  S   UNL A   1      43.105  40.073  27.611  1.00  0.00     0.124 S 
ATOM     93  O   UNL A   1      42.095  40.212  26.567  1.00  0.00    -0.237 OA
ATOM     94  O   UNL A   1      42.837  40.803  28.847  1.00  0.00    -0.237 OA
ATOM     95  O   UNL A   1      44.492  40.105  27.161  1.00  0.00    -0.744 OA
ENDBRANCH  91  92
ENDBRANCH  59  84
ENDBRANCH  33  34
ENDBRANCH  26  28
ENDBRANCH  25  26
ENDBRANCH  24  25
ENDBRANCH   1  24
TORSDOF 17
ENDMDL
MODEL 2
REMARK VINA RESULT:     -12.3      4.120     10.843
REMARK SMILES Cc1ccc(Nc2c(Cl)cc(Cl)cc2Cl)c(CC(=O)OCCOC(=O)c2ccc(-c3c4nc(c(-c5c(F)cc(S(=O)(=O)[O-])cc5F)c5ccc([nH]5)c(-c5c(F)cc(S(=O)(=O)[O-])cc5F)c5nc(c(-c6c(F)cc(S(=O)(=O)[O-])cc6F)c6ccc3[nH]6)C=C5)C=C4)cc2)c1
REMARK SMILES IDX 21 1 20 2 18 3 19 4 17 5 16 6 1 7 2 8 3 9 92 10 4 11 5 12
REMARK SMILES IDX 6 13 7 15 8 16 14 17 9 18 10 19 13 20 15 21 11 22 12 23
REMARK SMILES IDX 22 24 23 25 24 26 25 27 26 28 27 29 91 30 28 31 90 32 29 33
REMARK SMILES IDX 30 34 31 35 84 36 32 37 89 38 83 39 85 40 33 41 88 42 82 43
REMARK SMILES IDX 81 44 34 46 68 47 47 48 67 49 48 50 51 51 66 52 86 53 49 54
REMARK SMILES IDX 50 55 65 57 87 58 52 59 35 60 36 61 45 62 37 63 38 64 44 65
REMARK SMILES IDX 46 66 39 67 40 68 41 69 42 70 43 71 69 72 70 73 79 74 71 75
REMARK SMILES IDX 72 76 78 77 80 78 73 79 74 80 75 81 76 82 77 83 53 84 54 85
REMARK SMILES IDX 63 86 55 87 56 88 62 89 64 90 57 91 58 92 59 93 60 94 61 95
REMARK H PARENT 6 14 85 45 51 56
REMARK Flexibility Score: inf
ROOT
ATOM      1  C   UNL A   1      33.176  30.860  27.447  1.00  0.00     0.274 C 
ENDROOT
BRANCH   1   2
ATOM      2  O   UNL A   1      32.512  30.400  26.270  1.00  0.00    -0.462 OA
BRANCH   2   3
ATOM      3  C   UNL A   1      32.088  29.110  26.304  1.00  0.00     0.310 C 
ATOM      4  O   UNL A   1      31.554  28.586  27.253  1.00  0.00    -0.252 OA
BRANCH   3   5
ATOM      5  C   UNL A   1      32.398  28.472  24.958  1.00  0.00     0.160 C 
BRANCH   5   6
ATOM      6  C   UNL A   1      31.158  27.848  24.371  1.00  0.00    -0.013 A 
ATOM      7  C   UNL A   1      28.135  29.260  22.579  1.00  0.00     0.044 C 
ATOM      8  C   UNL A   1      29.043  28.290  23.265  1.00  0.00    -0.051 A 
ATOM      9  C   UNL A   1      28.601  27.028  23.668  1.00  0.00     0.005 A 
ATOM     10  C   UNL A   1      30.324  28.695  23.625  1.00  0.00     0.009 A 
ATOM     11  C   UNL A   1      29.448  26.160  24.367  1.00  0.00     0.026 A 
ATOM     12  C   UNL A   1      30.754  26.531  24.693  1.00  0.00     0.042 A 
BRANCH  12  13
ATOM     13  N   UNL A   1      31.588  25.687  25.448  1.00  0.00    -0.353 N 
ATOM     14  H   UNL A   1      31.943  26.102  26.268  1.00  0.00     0.167 HD
BRANCH  13  15
ATOM     15  C   UNL A   1      32.014  24.349  25.249  1.00  0.00     0.076 A 
ATOM     16  C   UNL A   1      31.285  23.261  25.768  1.00  0.00     0.067 A 
ATOM     17  C   UNL A   1      33.002  24.061  24.282  1.00  0.00     0.067 A 
ATOM     18  Cl  UNL A   1      30.043  23.484  26.954  1.00  0.00    -0.082 Cl
ATOM     19  C   UNL A   1      31.536  21.951  25.345  1.00  0.00     0.043 A 
ATOM     20  C   UNL A   1      33.219  22.760  23.819  1.00  0.00     0.043 A 
ATOM     21  Cl  UNL A   1      34.064  25.291  23.690  1.00  0.00    -0.082 Cl
ATOM     22  C   UNL A   1      32.485  21.712  24.356  1.00  0.00     0.044 A 
ATOM     23  Cl  UNL A   1      32.775  20.102  23.819  1.00  0.00    -0.084 Cl
ENDBRANCH  13  15
ENDBRANCH  12  13
ENDBRANCH   5   6
ENDBRANCH   3   5
ENDBRANCH   2   3
ENDBRANCH   1   2
BRANCH   1  24
ATOM     24  C   UNL A   1      34.653  30.411  27.469  1.00  0.00     0.275 C 
BRANCH  24  25
ATOM     25  O   UNL A   1      35.223  30.052  28.770  1.00  0.00    -0.458 OA
BRANCH  25  26
ATOM     26  C   UNL A   1      36.479  30.162  29.305  1.00  0.00     0.338 C 
ATOM     27  O   UNL A   1      36.604  30.659  30.423  1.00  0.00    -0.246 OA
BRANCH  26  28
ATOM     28  C   UNL A   1      37.589  29.346  28.761  1.00  0.00     0.060 A 
ATOM     29  C   UNL A   1      38.226  29.689  27.551  1.00  0.00     0.016 A 
ATOM     30  C   UNL A   1      38.182  28.422  29.579  1.00  0.00     0.016 A 
ATOM     31  C   UNL A   1      39.519  29.209  27.284  1.00  0.00     0.010 A 
ATOM     32  C   UNL A   1      39.538  28.267  29.501  1.00  0.00     0.010 A 
ATOM     33  C   UNL A   1      40.196  28.537  28.304  1.00  0.00    -0.014 A 
BRANCH  33  34
ATOM     34  C   UNL A   1      41.445  27.787  28.186  1.00  0.00     0.031 A 
ATOM     35  C   UNL A   1      41.526  26.365  27.832  1.00  0.00     0.074 A 
ATOM     36  C   UNL A   1      42.578  28.498  28.422  1.00  0.00     0.049 A 
ATOM     37  N   UNL A   1      42.191  25.494  28.513  1.00  0.00    -0.248 NA
ATOM     38  C   UNL A   1      40.920  25.830  26.614  1.00  0.00     0.031 C 
ATOM     39  C   UNL A   1      43.961  28.078  28.365  1.00  0.00     0.029 A 
ATOM     40  N   UNL A   1      42.659  29.804  28.928  1.00  0.00    -0.354 N 
ATOM     41  C   UNL A   1      42.377  24.413  27.677  1.00  0.00     0.074 A 
ATOM     42  C   UNL A   1      41.455  24.600  26.576  1.00  0.00     0.031 C 
ATOM     43  C   UNL A   1      44.683  28.930  29.122  1.00  0.00     0.029 A 
ATOM     44  C   UNL A   1      43.770  29.884  29.747  1.00  0.00     0.049 A 
ATOM     45  H   UNL A   1      42.032  30.538  28.733  1.00  0.00     0.167 HD
ATOM     46  C   UNL A   1      43.458  23.592  27.819  1.00  0.00     0.037 A 
ATOM     47  C   UNL A   1      43.606  30.164  31.073  1.00  0.00     0.037 A 
ATOM     48  C   UNL A   1      44.408  24.146  28.782  1.00  0.00     0.049 A 
ATOM     49  C   UNL A   1      43.942  28.958  31.911  1.00  0.00     0.074 A 
ATOM     50  C   UNL A   1      45.555  24.900  28.587  1.00  0.00     0.029 A 
ATOM     51  N   UNL A   1      44.064  24.305  30.124  1.00  0.00    -0.354 N 
ATOM     52  N   UNL A   1      44.104  27.764  31.411  1.00  0.00    -0.248 NA
ATOM     53  C   UNL A   1      44.126  28.982  33.357  1.00  0.00     0.031 C 
ATOM     54  C   UNL A   1      45.850  25.583  29.787  1.00  0.00     0.029 A 
ATOM     55  C   UNL A   1      44.901  25.230  30.726  1.00  0.00     0.049 A 
ATOM     56  H   UNL A   1      43.332  23.828  30.577  1.00  0.00     0.167 HD
ATOM     57  C   UNL A   1      44.457  26.891  32.398  1.00  0.00     0.074 A 
ATOM     58  C   UNL A   1      44.454  27.699  33.605  1.00  0.00     0.031 C 
ATOM     59  C   UNL A   1      44.752  25.586  32.130  1.00  0.00     0.037 A 
BRANCH  46  60
ATOM     60  C   UNL A   1      43.790  22.524  26.799  1.00  0.00     0.058 A 
ATOM     61  C   UNL A   1      43.028  21.345  26.659  1.00  0.00     0.135 A 
ATOM     62  C   UNL A   1      44.889  22.633  25.919  1.00  0.00     0.135 A 
ATOM     63  F   UNL A   1      41.934  21.121  27.395  1.00  0.00    -0.206 F 
ATOM     64  C   UNL A   1      43.367  20.322  25.772  1.00  0.00     0.059 A 
ATOM     65  C   UNL A   1      45.261  21.611  25.034  1.00  0.00     0.059 A 
ATOM     66  F   UNL A   1      45.643  23.745  25.912  1.00  0.00    -0.206 F 
ATOM     67  C   UNL A   1      44.494  20.452  24.974  1.00  0.00     0.060 A 
BRANCH  67  68
ATOM     68  S   UNL A   1      44.948  19.074  23.900  1.00  0.00     0.124 S 
ATOM     69  O   UNL A   1      46.405  19.071  23.999  1.00  0.00    -0.237 OA
ATOM     70  O   UNL A   1      44.268  17.953  24.539  1.00  0.00    -0.237 OA
ATOM     71  O   UNL A   1      44.420  19.470  22.598  1.00  0.00    -0.744 OA
ENDBRANCH  67  68
ENDBRANCH  46  60
BRANCH  47  72
ATOM     72  C   UNL A   1      42.560  31.197  31.376  1.00  0.00     0.058 A 
ATOM     73  C   UNL A   1      42.823  32.518  30.955  1.00  0.00     0.135 A 
ATOM     74  C   UNL A   1      41.224  30.886  31.680  1.00  0.00     0.135 A 
ATOM     75  F   UNL A   1      44.082  32.887  30.666  1.00  0.00    -0.206 F 
ATOM     76  C   UNL A   1      41.807  33.436  30.704  1.00  0.00     0.059 A 
ATOM     77  C   UNL A   1      40.183  31.798  31.443  1.00  0.00     0.059 A 
ATOM     78  F   UNL A   1      40.893  29.647  32.070  1.00  0.00    -0.206 F 
ATOM     79  C   UNL A   1      40.485  33.046  30.892  1.00  0.00     0.060 A 
BRANCH  79  80
ATOM     80  S   UNL A   1      39.192  34.113  30.205  1.00  0.00     0.124 S 
ATOM     81  O   UNL A   1      38.533  34.618  31.403  1.00  0.00    -0.237 OA
ATOM     82  O   UNL A   1      39.987  35.083  29.455  1.00  0.00    -0.237 OA
ATOM     83  O   UNL A   1      38.408  33.202  29.382  1.00  0.00    -0.744 OA
ENDBRANCH  79  80
ENDBRANCH  47  72
BRANCH  59  84
ATOM     84  C   UNL A   1      45.083  24.545  33.156  1.00  0.00     0.058 A 
ATOM     85  C   UNL A   1      44.264  23.444  33.440  1.00  0.00     0.135 A 
ATOM     86  C   UNL A   1      46.343  24.572  33.801  1.00  0.00     0.135 A 
ATOM     87  F   UNL A   1      43.087  23.277  32.818  1.00  0.00    -0.206 F 
ATOM     88  C   UNL A   1      44.646  22.456  34.346  1.00  0.00     0.059 A 
ATOM     89  C   UNL A   1      46.766  23.572  34.662  1.00  0.00     0.059 A 
ATOM     90  F   UNL A   1      47.211  25.578  33.605  1.00  0.00    -0.206 F 
ATOM     91  C   UNL A   1      45.900  22.528  34.949  1.00  0.00     0.060 A 
BRANCH  91  92
ATOM     92  S   UNL A   1      46.444  21.236  36.076  1.00  0.00     0.124 S 
ATOM     93  O   UNL A   1      46.358  21.920  37.362  1.00  0.00    -0.237 OA
ATOM     94  O   UNL A   1      45.463  20.176  35.859  1.00  0.00    -0.237 OA
ATOM     95  O   UNL A   1      47.792  20.937  35.604  1.00  0.00    -0.744 OA
ENDBRANCH  91  92
ENDBRANCH  59  84
ENDBRANCH  33  34
ENDBRANCH  26  28
ENDBRANCH  25  26
ENDBRANCH  24  25
ENDBRANCH   1  24
TORSDOF 17
ENDMDL
MODEL 3
REMARK VINA RESULT:     -12.2      4.740     11.155
REMARK SMILES Cc1ccc(Nc2c(Cl)cc(Cl)cc2Cl)c(CC(=O)OCCOC(=O)c2ccc(-c3c4nc(c(-c5c(F)cc(S(=O)(=O)[O-])cc5F)c5ccc([nH]5)c(-c5c(F)cc(S(=O)(=O)[O-])cc5F)c5nc(c(-c6c(F)cc(S(=O)(=O)[O-])cc6F)c6ccc3[nH]6)C=C5)C=C4)cc2)c1
REMARK SMILES IDX 21 1 20 2 18 3 19 4 17 5 16 6 1 7 2 8 3 9 92 10 4 11 5 12
REMARK SMILES IDX 6 13 7 15 8 16 14 17 9 18 10 19 13 20 15 21 11 22 12 23
REMARK SMILES IDX 22 24 23 25 24 26 25 27 26 28 27 29 91 30 28 31 90 32 29 33
REMARK SMILES IDX 30 34 31 35 84 36 32 37 89 38 83 39 85 40 33 41 88 42 82 43
REMARK SMILES IDX 81 44 34 46 68 47 47 48 67 49 48 50 51 51 66 52 86 53 49 54
REMARK SMILES IDX 50 55 65 57 87 58 52 59 35 60 36 61 45 62 37 63 38 64 44 65
REMARK SMILES IDX 46 66 39 67 40 68 41 69 42 70 43 71 69 72 70 73 79 74 71 75
REMARK SMILES IDX 72 76 78 77 80 78 73 79 74 80 75 81 76 82 77 83 53 84 54 85
REMARK SMILES IDX 63 86 55 87 56 88 62 89 64 90 57 91 58 92 59 93 60 94 61 95
REMARK H PARENT 6 14 85 45 51 56
REMARK Flexibility Score: inf
ROOT
ATOM      1  C   UNL A   1      33.462  29.369  26.537  1.00  0.00     0.274 C 
ENDROOT
BRANCH   1   2
ATOM      2  O   UNL A   1      32.938  29.948  25.343  1.00  0.00    -0.462 OA
BRANCH   2   3
ATOM      3  C   UNL A   1      32.678  29.075  24.335  1.00  0.00     0.310 C 
ATOM      4  O   UNL A   1      33.312  28.999  23.308  1.00  0.00    -0.252 OA
BRANCH   3   5
ATOM      5  C   UNL A   1      31.477  28.230  24.736  1.00  0.00     0.160 C 
BRANCH   5   6
ATOM      6  C   UNL A   1      30.271  28.603  23.913  1.00  0.00    -0.013 A 
ATOM      7  C   UNL A   1      28.471  31.873  23.270  1.00  0.00     0.044 C 
ATOM      8  C   UNL A   1      28.781  30.410  23.276  1.00  0.00    -0.051 A 
ATOM      9  C   UNL A   1      27.833  29.457  22.898  1.00  0.00     0.005 A 
ATOM     10  C   UNL A   1      29.999  29.974  23.787  1.00  0.00     0.009 A 
ATOM     11  C   UNL A   1      28.120  28.089  22.972  1.00  0.00     0.026 A 
ATOM     12  C   UNL A   1      29.356  27.635  23.436  1.00  0.00     0.042 A 
BRANCH  12  13
ATOM     13  N   UNL A   1      29.628  26.261  23.571  1.00  0.00    -0.353 N 
ATOM     14  H   UNL A   1      28.831  25.686  23.508  1.00  0.00     0.167 HD
BRANCH  13  15
ATOM     15  C   UNL A   1      30.838  25.550  23.781  1.00  0.00     0.076 A 
ATOM     16  C   UNL A   1      31.052  24.797  24.952  1.00  0.00     0.067 A 
ATOM     17  C   UNL A   1      31.725  25.336  22.705  1.00  0.00     0.067 A 
ATOM     18  Cl  UNL A   1      30.029  24.964  26.339  1.00  0.00    -0.082 Cl
ATOM     19  C   UNL A   1      32.105  23.879  25.043  1.00  0.00     0.043 A 
ATOM     20  C   UNL A   1      32.745  24.383  22.773  1.00  0.00     0.043 A 
ATOM     21  Cl  UNL A   1      31.657  26.311  21.277  1.00  0.00    -0.082 Cl
ATOM     22  C   UNL A   1      32.930  23.662  23.944  1.00  0.00     0.044 A 
ATOM     23  Cl  UNL A   1      34.209  22.515  24.049  1.00  0.00    -0.084 Cl
ENDBRANCH  13  15
ENDBRANCH  12  13
ENDBRANCH   5   6
ENDBRANCH   3   5
ENDBRANCH   2   3
ENDBRANCH   1   2
BRANCH   1  24
ATOM     24  C   UNL A   1      34.376  30.361  27.287  1.00  0.00     0.275 C 
BRANCH  24  25
ATOM     25  O   UNL A   1      35.332  29.797  28.244  1.00  0.00    -0.458 OA
BRANCH  25  26
ATOM     26  C   UNL A   1      36.167  30.356  29.174  1.00  0.00     0.338 C 
ATOM     27  O   UNL A   1      35.692  31.129  30.006  1.00  0.00    -0.246 OA
BRANCH  26  28
ATOM     28  C   UNL A   1      37.490  29.746  29.444  1.00  0.00     0.060 A 
ATOM     29  C   UNL A   1      37.639  28.709  30.387  1.00  0.00     0.016 A 
ATOM     30  C   UNL A   1      38.516  29.997  28.572  1.00  0.00     0.016 A 
ATOM     31  C   UNL A   1      38.752  27.854  30.313  1.00  0.00     0.010 A 
ATOM     32  C   UNL A   1      39.371  28.975  28.272  1.00  0.00     0.010 A 
ATOM     33  C   UNL A   1      39.593  27.964  29.203  1.00  0.00    -0.014 A 
BRANCH  33  34
ATOM     34  C   UNL A   1      40.898  27.330  29.021  1.00  0.00     0.031 A 
ATOM     35  C   UNL A   1      41.090  25.961  28.528  1.00  0.00     0.074 A 
ATOM     36  C   UNL A   1      41.970  28.100  29.336  1.00  0.00     0.049 A 
ATOM     37  N   UNL A   1      41.821  25.081  29.124  1.00  0.00    -0.248 NA
ATOM     38  C   UNL A   1      40.529  25.505  27.257  1.00  0.00     0.031 C 
ATOM     39  C   UNL A   1      43.382  27.798  29.248  1.00  0.00     0.029 A 
ATOM     40  N   UNL A   1      41.948  29.352  29.970  1.00  0.00    -0.354 N 
ATOM     41  C   UNL A   1      42.092  24.107  28.186  1.00  0.00     0.074 A 
ATOM     42  C   UNL A   1      41.158  24.330  27.102  1.00  0.00     0.031 C 
ATOM     43  C   UNL A   1      44.035  28.623  30.093  1.00  0.00     0.029 A 
ATOM     44  C   UNL A   1      43.049  29.436  30.802  1.00  0.00     0.049 A 
ATOM     45  H   UNL A   1      41.265  30.050  29.844  1.00  0.00     0.167 HD
ATOM     46  C   UNL A   1      43.234  23.363  28.254  1.00  0.00     0.037 A 
ATOM     47  C   UNL A   1      42.863  29.569  32.148  1.00  0.00     0.037 A 
ATOM     48  C   UNL A   1      44.137  23.890  29.276  1.00  0.00     0.049 A 
ATOM     49  C   UNL A   1      43.293  28.315  32.864  1.00  0.00     0.074 A 
ATOM     50  C   UNL A   1      45.221  24.748  29.166  1.00  0.00     0.029 A 
ATOM     51  N   UNL A   1      43.781  23.888  30.624  1.00  0.00    -0.354 N 
ATOM     52  N   UNL A   1      43.549  27.193  32.249  1.00  0.00    -0.248 NA
ATOM     53  C   UNL A   1      43.474  28.208  34.307  1.00  0.00     0.031 C 
ATOM     54  C   UNL A   1      45.462  25.329  30.431  1.00  0.00     0.029 A 
ATOM     55  C   UNL A   1      44.542  24.810  31.323  1.00  0.00     0.049 A 
ATOM     56  H   UNL A   1      43.089  23.312  31.021  1.00  0.00     0.167 HD
ATOM     57  C   UNL A   1      43.969  26.256  33.147  1.00  0.00     0.074 A 
ATOM     58  C   UNL A   1      43.901  26.937  34.428  1.00  0.00     0.031 C 
ATOM     59  C   UNL A   1      44.366  25.011  32.753  1.00  0.00     0.037 A 
BRANCH  46  60
ATOM     60  C   UNL A   1      43.650  22.432  27.136  1.00  0.00     0.058 A 
ATOM     61  C   UNL A   1      42.988  21.213  26.877  1.00  0.00     0.135 A 
ATOM     62  C   UNL A   1      44.733  22.718  26.276  1.00  0.00     0.135 A 
ATOM     63  F   UNL A   1      41.919  20.828  27.583  1.00  0.00    -0.206 F 
ATOM     64  C   UNL A   1      43.407  20.314  25.896  1.00  0.00     0.059 A 
ATOM     65  C   UNL A   1      45.185  21.822  25.297  1.00  0.00     0.059 A 
ATOM     66  F   UNL A   1      45.392  23.883  26.381  1.00  0.00    -0.206 F 
ATOM     67  C   UNL A   1      44.517  20.615  25.120  1.00  0.00     0.060 A 
BRANCH  67  68
ATOM     68  S   UNL A   1      45.079  19.391  23.917  1.00  0.00     0.124 S 
ATOM     69  O   UNL A   1      46.531  19.522  23.998  1.00  0.00    -0.237 OA
ATOM     70  O   UNL A   1      44.524  18.155  24.458  1.00  0.00    -0.237 OA
ATOM     71  O   UNL A   1      44.488  19.850  22.664  1.00  0.00    -0.744 OA
ENDBRANCH  67  68
ENDBRANCH  46  60
BRANCH  47  72
ATOM     72  C   UNL A   1      41.739  30.481  32.543  1.00  0.00     0.058 A 
ATOM     73  C   UNL A   1      40.540  29.872  32.970  1.00  0.00     0.135 A 
ATOM     74  C   UNL A   1      41.915  31.833  32.882  1.00  0.00     0.135 A 
ATOM     75  F   UNL A   1      40.299  28.586  32.663  1.00  0.00    -0.206 F 
ATOM     76  C   UNL A   1      39.636  30.516  33.811  1.00  0.00     0.059 A 
ATOM     77  C   UNL A   1      41.014  32.506  33.722  1.00  0.00     0.059 A 
ATOM     78  F   UNL A   1      43.036  32.476  32.527  1.00  0.00    -0.206 F 
ATOM     79  C   UNL A   1      39.912  31.812  34.232  1.00  0.00     0.060 A 
BRANCH  79  80
ATOM     80  S   UNL A   1      38.933  32.473  35.605  1.00  0.00     0.124 S 
ATOM     81  O   UNL A   1      39.478  31.757  36.752  1.00  0.00    -0.237 OA
ATOM     82  O   UNL A   1      39.253  33.897  35.529  1.00  0.00    -0.237 OA
ATOM     83  O   UNL A   1      37.565  32.134  35.234  1.00  0.00    -0.744 OA
ENDBRANCH  79  80
ENDBRANCH  47  72
BRANCH  59  84
ATOM     84  C   UNL A   1      44.777  23.902  33.673  1.00  0.00     0.058 A 
ATOM     85  C   UNL A   1      43.900  22.918  34.145  1.00  0.00     0.135 A 
ATOM     86  C   UNL A   1      46.145  23.734  34.000  1.00  0.00     0.135 A 
ATOM     87  F   UNL A   1      42.598  22.936  33.821  1.00  0.00    -0.206 F 
ATOM     88  C   UNL A   1      44.339  21.857  34.937  1.00  0.00     0.059 A 
ATOM     89  C   UNL A   1      46.611  22.657  34.738  1.00  0.00     0.059 A 
ATOM     90  F   UNL A   1      47.075  24.614  33.601  1.00  0.00    -0.206 F 
ATOM     91  C   UNL A   1      45.697  21.735  35.224  1.00  0.00     0.060 A 
BRANCH  91  92
ATOM     92  S   UNL A   1      46.302  20.344  36.192  1.00  0.00     0.124 S 
ATOM     93  O   UNL A   1      45.856  20.711  37.532  1.00  0.00    -0.237 OA
ATOM     94  O   UNL A   1      45.617  19.203  35.590  1.00  0.00    -0.237 OA
ATOM     95  O   UNL A   1      47.743  20.391  35.967  1.00  0.00    -0.744 OA
ENDBRANCH  91  92
ENDBRANCH  59  84
ENDBRANCH  33  34
ENDBRANCH  26  28
ENDBRANCH  25  26
ENDBRANCH  24  25
ENDBRANCH   1  24
TORSDOF 17
ENDMDL
