MODEL 1
REMARK VINA RESULT:     -11.3      0.000      0.000
REMARK SMILES COc1cc(C(=O)N[C@H]2CCCC[C@H]2C(=O)OCCOC(=O)c2ccc(-c3c4nc(c(-c5c(F)cc(S(=O)(=O)[O-])cc5F)c5ccc([nH]5)c(-c5c(F)cc(S(=O)(=O)[O-])cc5F)c5nc(c(-c6c(F)cc(S(=O)(=O)[O-])cc6F)c6ccc3[nH]6)C=C5)C=C4)cc2)cc(Cl)c1OC
REMARK SMILES IDX 18 1 17 2 15 3 16 4 14 5 9 6 10 7 11 8 13 9 12 10 8 11 6 12
REMARK SMILES IDX 7 13 5 15 3 16 4 17 92 18 90 19 89 20 91 21 2 22 1 23 93 24
REMARK SMILES IDX 94 25 19 26 20 27 21 28 22 29 23 30 24 31 88 32 25 33 87 34
REMARK SMILES IDX 26 35 27 36 28 37 81 38 29 39 86 40 80 41 82 42 30 43 85 44
REMARK SMILES IDX 79 45 78 46 31 48 65 49 44 50 64 51 45 52 48 53 63 54 83 55
REMARK SMILES IDX 46 56 47 57 62 59 84 60 49 61 32 62 33 63 42 64 34 65 35 66
REMARK SMILES IDX 41 67 43 68 36 69 37 70 38 71 39 72 40 73 66 74 67 75 76 76
REMARK SMILES IDX 68 77 69 78 75 79 77 80 70 81 71 82 72 83 73 84 74 85 50 86
REMARK SMILES IDX 51 87 60 88 52 89 53 90 59 91 61 92 54 93 55 94 56 95 57 96
REMARK SMILES IDX 58 97
REMARK H PARENT 8 14 82 47 48 58
REMARK Flexibility Score: inf
ROOT
ATOM      1  C   UNL A   1      34.220  29.529  27.032  1.00  0.00     0.274 C 
ENDROOT
BRANCH   1   2
ATOM      2  O   UNL A   1      32.844  29.110  26.922  1.00  0.00    -0.462 OA
BRANCH   2   3
ATOM      3  C   UNL A   1      32.113  29.715  25.953  1.00  0.00     0.311 C 
ATOM      4  O   UNL A   1      31.503  30.767  26.100  1.00  0.00    -0.252 OA
BRANCH   3   5
ATOM      5  C   UNL A   1      32.060  28.930  24.656  1.00  0.00     0.121 C 
ATOM      6  C   UNL A   1      32.491  27.444  24.717  1.00  0.00     0.096 C 
ATOM      7  C   UNL A   1      32.473  26.846  23.297  1.00  0.00     0.026 C 
ATOM      8  C   UNL A   1      31.162  27.093  22.553  1.00  0.00     0.002 C 
ATOM      9  C   UNL A   1      30.729  29.145  23.938  1.00  0.00     0.017 C 
ATOM     10  C   UNL A   1      30.795  28.571  22.527  1.00  0.00     0.001 C 
BRANCH   6  11
ATOM     11  N   UNL A   1      31.716  26.632  25.659  1.00  0.00    -0.348 N 
ATOM     12  C   UNL A   1      31.900  25.380  26.197  1.00  0.00     0.251 C 
ATOM     13  O   UNL A   1      31.084  24.998  27.039  1.00  0.00    -0.269 OA
ATOM     14  H   UNL A   1      30.892  27.074  25.970  1.00  0.00     0.164 HD
BRANCH  12  15
ATOM     15  C   UNL A   1      32.968  24.433  25.766  1.00  0.00     0.045 A 
ATOM     16  C   UNL A   1      33.509  22.343  24.639  1.00  0.00     0.163 A 
ATOM     17  C   UNL A   1      32.564  23.261  25.114  1.00  0.00     0.064 A 
ATOM     18  C   UNL A   1      34.896  22.575  24.795  1.00  0.00     0.179 A 
ATOM     19  C   UNL A   1      35.291  23.723  25.495  1.00  0.00     0.087 A 
ATOM     20  C   UNL A   1      34.328  24.614  26.004  1.00  0.00     0.038 A 
ATOM     21  Cl  UNL A   1      36.925  24.180  25.834  1.00  0.00    -0.080 Cl
BRANCH  16  22
ATOM     22  O   UNL A   1      33.150  21.146  24.059  1.00  0.00    -0.493 OA
ATOM     23  C   UNL A   1      32.256  20.334  24.808  1.00  0.00     0.278 C 
ENDBRANCH  16  22
BRANCH  18  24
ATOM     24  O   UNL A   1      35.669  21.592  24.237  1.00  0.00    -0.491 OA
ATOM     25  C   UNL A   1      36.552  20.813  25.025  1.00  0.00     0.278 C 
ENDBRANCH  18  24
ENDBRANCH  12  15
ENDBRANCH   6  11
ENDBRANCH   3   5
ENDBRANCH   2   3
ENDBRANCH   1   2
BRANCH   1  26
ATOM     26  C   UNL A   1      34.387  30.710  27.994  1.00  0.00     0.275 C 
BRANCH  26  27
ATOM     27  O   UNL A   1      35.761  31.130  28.104  1.00  0.00    -0.458 OA
BRANCH  27  28
ATOM     28  C   UNL A   1      36.376  30.786  29.259  1.00  0.00     0.338 C 
ATOM     29  O   UNL A   1      35.909  30.835  30.385  1.00  0.00    -0.246 OA
BRANCH  28  30
ATOM     30  C   UNL A   1      37.688  30.184  28.977  1.00  0.00     0.060 A 
ATOM     31  C   UNL A   1      38.613  30.113  30.024  1.00  0.00     0.016 A 
ATOM     32  C   UNL A   1      38.046  29.787  27.689  1.00  0.00     0.016 A 
ATOM     33  C   UNL A   1      39.904  29.655  29.787  1.00  0.00     0.010 A 
ATOM     34  C   UNL A   1      39.345  29.323  27.452  1.00  0.00     0.010 A 
ATOM     35  C   UNL A   1      40.284  29.267  28.497  1.00  0.00    -0.014 A 
BRANCH  35  36
ATOM     36  C   UNL A   1      41.683  28.847  28.244  1.00  0.00     0.031 A 
ATOM     37  C   UNL A   1      42.788  29.864  28.278  1.00  0.00     0.074 A 
ATOM     38  C   UNL A   1      41.960  27.550  28.012  1.00  0.00     0.049 A 
ATOM     39  N   UNL A   1      44.061  29.709  28.019  1.00  0.00    -0.248 NA
ATOM     40  C   UNL A   1      42.413  31.236  28.653  1.00  0.00     0.031 C 
ATOM     41  C   UNL A   1      40.974  26.467  27.994  1.00  0.00     0.029 A 
ATOM     42  N   UNL A   1      43.150  26.923  27.744  1.00  0.00    -0.354 N 
ATOM     43  C   UNL A   1      44.636  30.964  28.178  1.00  0.00     0.074 A 
ATOM     44  C   UNL A   1      43.571  31.873  28.546  1.00  0.00     0.031 C 
ATOM     45  C   UNL A   1      41.602  25.310  27.722  1.00  0.00     0.029 A 
ATOM     46  C   UNL A   1      43.021  25.575  27.507  1.00  0.00     0.049 A 
ATOM     47  H   UNL A   1      44.014  27.395  27.721  1.00  0.00     0.167 HD
ATOM     48  C   UNL A   1      45.933  31.321  28.031  1.00  0.00     0.037 A 
ATOM     49  C   UNL A   1      43.939  24.663  27.133  1.00  0.00     0.037 A 
ATOM     50  C   UNL A   1      46.991  30.407  27.682  1.00  0.00     0.049 A 
ATOM     51  C   UNL A   1      45.367  25.095  26.938  1.00  0.00     0.074 A 
ATOM     52  C   UNL A   1      48.341  30.672  27.527  1.00  0.00     0.029 A 
ATOM     53  N   UNL A   1      46.819  29.054  27.437  1.00  0.00    -0.354 N 
ATOM     54  N   UNL A   1      45.896  26.285  27.091  1.00  0.00    -0.248 NA
ATOM     55  C   UNL A   1      46.324  24.062  26.517  1.00  0.00     0.031 C 
ATOM     56  C   UNL A   1      48.980  29.485  27.154  1.00  0.00     0.029 A 
ATOM     57  C   UNL A   1      48.034  28.472  27.116  1.00  0.00     0.049 A 
ATOM     58  H   UNL A   1      45.960  28.576  27.485  1.00  0.00     0.167 HD
ATOM     59  C   UNL A   1      47.249  26.141  26.803  1.00  0.00     0.074 A 
ATOM     60  C   UNL A   1      47.460  24.745  26.479  1.00  0.00     0.031 C 
ATOM     61  C   UNL A   1      48.227  27.078  26.803  1.00  0.00     0.037 A 
BRANCH  48  62
ATOM     62  C   UNL A   1      46.285  32.770  28.224  1.00  0.00     0.058 A 
ATOM     63  C   UNL A   1      46.736  33.262  29.459  1.00  0.00     0.135 A 
ATOM     64  C   UNL A   1      46.215  33.666  27.145  1.00  0.00     0.135 A 
ATOM     65  F   UNL A   1      46.805  32.450  30.525  1.00  0.00    -0.206 F 
ATOM     66  C   UNL A   1      47.091  34.598  29.621  1.00  0.00     0.059 A 
ATOM     67  C   UNL A   1      46.584  35.001  27.279  1.00  0.00     0.059 A 
ATOM     68  F   UNL A   1      45.787  33.245  25.944  1.00  0.00    -0.206 F 
ATOM     69  C   UNL A   1      47.012  35.459  28.525  1.00  0.00     0.060 A 
BRANCH  69  70
ATOM     70  S   UNL A   1      47.492  37.186  28.745  1.00  0.00     0.124 S 
ATOM     71  O   UNL A   1      46.376  37.881  28.110  1.00  0.00    -0.237 OA
ATOM     72  O   UNL A   1      47.569  37.307  30.197  1.00  0.00    -0.237 OA
ATOM     73  O   UNL A   1      48.768  37.277  28.044  1.00  0.00    -0.744 OA
ENDBRANCH  69  70
ENDBRANCH  48  62
BRANCH  49  74
ATOM     74  C   UNL A   1      43.531  23.256  26.888  1.00  0.00     0.058 A 
ATOM     75  C   UNL A   1      43.224  22.394  27.950  1.00  0.00     0.135 A 
ATOM     76  C   UNL A   1      43.440  22.746  25.583  1.00  0.00     0.135 A 
ATOM     77  F   UNL A   1      43.305  22.833  29.215  1.00  0.00    -0.206 F 
ATOM     78  C   UNL A   1      42.856  21.069  27.730  1.00  0.00     0.059 A 
ATOM     79  C   UNL A   1      43.052  21.433  25.337  1.00  0.00     0.059 A 
ATOM     80  F   UNL A   1      43.713  23.534  24.532  1.00  0.00    -0.206 F 
ATOM     81  C   UNL A   1      42.774  20.599  26.419  1.00  0.00     0.060 A 
BRANCH  81  82
ATOM     82  S   UNL A   1      42.256  18.891  26.137  1.00  0.00     0.124 S 
ATOM     83  O   UNL A   1      40.864  19.069  25.743  1.00  0.00    -0.237 OA
ATOM     84  O   UNL A   1      43.169  18.460  25.082  1.00  0.00    -0.237 OA
ATOM     85  O   UNL A   1      42.471  18.260  27.437  1.00  0.00    -0.744 OA
ENDBRANCH  81  82
ENDBRANCH  49  74
BRANCH  61  86
ATOM     86  C   UNL A   1      49.620  26.622  26.473  1.00  0.00     0.058 A 
ATOM     87  C   UNL A   1      50.429  25.986  27.425  1.00  0.00     0.135 A 
ATOM     88  C   UNL A   1      50.133  26.783  25.176  1.00  0.00     0.135 A 
ATOM     89  F   UNL A   1      49.987  25.815  28.681  1.00  0.00    -0.206 F 
ATOM     90  C   UNL A   1      51.708  25.540  27.110  1.00  0.00     0.059 A 
ATOM     91  C   UNL A   1      51.400  26.326  24.831  1.00  0.00     0.059 A 
ATOM     92  F   UNL A   1      49.393  27.379  24.225  1.00  0.00    -0.206 F 
ATOM     93  C   UNL A   1      52.186  25.716  25.808  1.00  0.00     0.060 A 
BRANCH  93  94
ATOM     94  S   UNL A   1      53.835  25.105  25.398  1.00  0.00     0.124 S 
ATOM     95  O   UNL A   1      54.644  25.721  26.444  1.00  0.00    -0.237 OA
ATOM     96  O   UNL A   1      53.668  23.659  25.494  1.00  0.00    -0.237 OA
ATOM     97  O   UNL A   1      54.058  25.615  24.049  1.00  0.00    -0.744 OA
ENDBRANCH  93  94
ENDBRANCH  61  86
ENDBRANCH  35  36
ENDBRANCH  28  30
ENDBRANCH  27  28
ENDBRANCH  26  27
ENDBRANCH   1  26
TORSDOF 18
ENDMDL
MODEL 2
REMARK VINA RESULT:     -10.9      6.875     11.731
REMARK SMILES COc1cc(C(=O)N[C@H]2CCCC[C@H]2C(=O)OCCOC(=O)c2ccc(-c3c4nc(c(-c5c(F)cc(S(=O)(=O)[O-])cc5F)c5ccc([nH]5)c(-c5c(F)cc(S(=O)(=O)[O-])cc5F)c5nc(c(-c6c(F)cc(S(=O)(=O)[O-])cc6F)c6ccc3[nH]6)C=C5)C=C4)cc2)cc(Cl)c1OC
REMARK SMILES IDX 18 1 17 2 15 3 16 4 14 5 9 6 10 7 11 8 13 9 12 10 8 11 6 12
REMARK SMILES IDX 7 13 5 15 3 16 4 17 92 18 90 19 89 20 91 21 2 22 1 23 93 24
REMARK SMILES IDX 94 25 19 26 20 27 21 28 22 29 23 30 24 31 88 32 25 33 87 34
REMARK SMILES IDX 26 35 27 36 28 37 81 38 29 39 86 40 80 41 82 42 30 43 85 44
REMARK SMILES IDX 79 45 78 46 31 48 65 49 44 50 64 51 45 52 48 53 63 54 83 55
REMARK SMILES IDX 46 56 47 57 62 59 84 60 49 61 32 62 33 63 42 64 34 65 35 66
REMARK SMILES IDX 41 67 43 68 36 69 37 70 38 71 39 72 40 73 66 74 67 75 76 76
REMARK SMILES IDX 68 77 69 78 75 79 77 80 70 81 71 82 72 83 73 84 74 85 50 86
REMARK SMILES IDX 51 87 60 88 52 89 53 90 59 91 61 92 54 93 55 94 56 95 57 96
REMARK SMILES IDX 58 97
REMARK H PARENT 8 14 82 47 48 58
REMARK Flexibility Score: inf
ROOT
ATOM      1  C   UNL A   1      38.044  22.577  25.439  1.00  0.00     0.274 C 
ENDROOT
BRANCH   1   2
ATOM      2  O   UNL A   1      36.758  22.356  26.056  1.00  0.00    -0.462 OA
BRANCH   2   3
ATOM      3  C   UNL A   1      35.709  23.005  25.493  1.00  0.00     0.311 C 
ATOM      4  O   UNL A   1      35.749  24.156  25.076  1.00  0.00    -0.252 OA
BRANCH   3   5
ATOM      5  C   UNL A   1      34.430  22.189  25.479  1.00  0.00     0.121 C 
ATOM      6  C   UNL A   1      33.200  22.827  24.790  1.00  0.00     0.096 C 
ATOM      7  C   UNL A   1      31.977  21.905  24.967  1.00  0.00     0.026 C 
ATOM      8  C   UNL A   1      32.248  20.457  24.562  1.00  0.00     0.002 C 
ATOM      9  C   UNL A   1      34.700  20.754  25.030  1.00  0.00     0.017 C 
ATOM     10  C   UNL A   1      33.469  19.888  25.274  1.00  0.00     0.001 C 
BRANCH   6  11
ATOM     11  N   UNL A   1      33.414  23.180  23.384  1.00  0.00    -0.348 N 
ATOM     12  C   UNL A   1      33.160  24.313  22.648  1.00  0.00     0.251 C 
ATOM     13  O   UNL A   1      33.534  24.324  21.473  1.00  0.00    -0.269 OA
ATOM     14  H   UNL A   1      33.825  22.456  22.858  1.00  0.00     0.164 HD
BRANCH  12  15
ATOM     15  C   UNL A   1      32.392  25.487  23.157  1.00  0.00     0.045 A 
ATOM     16  C   UNL A   1      32.475  27.777  23.982  1.00  0.00     0.163 A 
ATOM     17  C   UNL A   1      33.124  26.618  23.537  1.00  0.00     0.064 A 
ATOM     18  C   UNL A   1      31.063  27.840  24.053  1.00  0.00     0.179 A 
ATOM     19  C   UNL A   1      30.339  26.686  23.722  1.00  0.00     0.087 A 
ATOM     20  C   UNL A   1      31.009  25.517  23.318  1.00  0.00     0.038 A 
ATOM     21  Cl  UNL A   1      28.617  26.531  23.775  1.00  0.00    -0.080 Cl
BRANCH  16  22
ATOM     22  O   UNL A   1      33.161  28.882  24.433  1.00  0.00    -0.493 OA
ATOM     23  C   UNL A   1      33.906  28.707  25.631  1.00  0.00     0.278 C 
ENDBRANCH  16  22
BRANCH  18  24
ATOM     24  O   UNL A   1      30.603  29.060  24.473  1.00  0.00    -0.491 OA
ATOM     25  C   UNL A   1      29.926  29.936  23.590  1.00  0.00     0.278 C 
ENDBRANCH  18  24
ENDBRANCH  12  15
ENDBRANCH   6  11
ENDBRANCH   3   5
ENDBRANCH   2   3
ENDBRANCH   1   2
BRANCH   1  26
ATOM     26  C   UNL A   1      39.076  23.115  26.435  1.00  0.00     0.275 C 
BRANCH  26  27
ATOM     27  O   UNL A   1      39.063  24.554  26.507  1.00  0.00    -0.458 OA
BRANCH  27  28
ATOM     28  C   UNL A   1      40.282  25.138  26.562  1.00  0.00     0.338 C 
ATOM     29  O   UNL A   1      41.153  25.109  25.709  1.00  0.00    -0.246 OA
BRANCH  28  30
ATOM     30  C   UNL A   1      40.392  25.972  27.770  1.00  0.00     0.060 A 
ATOM     31  C   UNL A   1      39.359  25.898  28.710  1.00  0.00     0.016 A 
ATOM     32  C   UNL A   1      41.435  26.883  27.934  1.00  0.00     0.016 A 
ATOM     33  C   UNL A   1      39.358  26.742  29.815  1.00  0.00     0.010 A 
ATOM     34  C   UNL A   1      41.434  27.731  29.048  1.00  0.00     0.010 A 
ATOM     35  C   UNL A   1      40.389  27.673  29.987  1.00  0.00    -0.014 A 
BRANCH  35  36
ATOM     36  C   UNL A   1      40.339  28.615  31.131  1.00  0.00     0.031 A 
ATOM     37  C   UNL A   1      39.360  29.754  31.120  1.00  0.00     0.074 A 
ATOM     38  C   UNL A   1      41.153  28.428  32.186  1.00  0.00     0.049 A 
ATOM     39  N   UNL A   1      39.207  30.719  31.990  1.00  0.00    -0.248 NA
ATOM     40  C   UNL A   1      38.429  29.816  29.982  1.00  0.00     0.031 C 
ATOM     41  C   UNL A   1      42.117  27.334  32.325  1.00  0.00     0.029 A 
ATOM     42  N   UNL A   1      41.303  29.154  33.341  1.00  0.00    -0.354 N 
ATOM     43  C   UNL A   1      38.180  31.516  31.496  1.00  0.00     0.074 A 
ATOM     44  C   UNL A   1      37.753  30.926  30.246  1.00  0.00     0.031 C 
ATOM     45  C   UNL A   1      42.762  27.466  33.497  1.00  0.00     0.029 A 
ATOM     46  C   UNL A   1      42.288  28.673  34.170  1.00  0.00     0.049 A 
ATOM     47  H   UNL A   1      40.757  29.946  33.554  1.00  0.00     0.167 HD
ATOM     48  C   UNL A   1      37.645  32.633  32.041  1.00  0.00     0.037 A 
ATOM     49  C   UNL A   1      42.772  29.164  35.327  1.00  0.00     0.037 A 
ATOM     50  C   UNL A   1      38.063  33.203  33.297  1.00  0.00     0.049 A 
ATOM     51  C   UNL A   1      42.186  30.430  35.890  1.00  0.00     0.074 A 
ATOM     52  C   UNL A   1      37.568  34.326  33.940  1.00  0.00     0.029 A 
ATOM     53  N   UNL A   1      39.072  32.696  34.100  1.00  0.00    -0.354 N 
ATOM     54  N   UNL A   1      41.216  31.173  35.412  1.00  0.00    -0.248 NA
ATOM     55  C   UNL A   1      42.760  30.928  37.148  1.00  0.00     0.031 C 
ATOM     56  C   UNL A   1      38.302  34.515  35.115  1.00  0.00     0.029 A 
ATOM     57  C   UNL A   1      39.227  33.489  35.224  1.00  0.00     0.049 A 
ATOM     58  H   UNL A   1      39.601  31.889  33.901  1.00  0.00     0.167 HD
ATOM     59  C   UNL A   1      41.052  32.214  36.318  1.00  0.00     0.074 A 
ATOM     60  C   UNL A   1      42.014  31.999  37.380  1.00  0.00     0.031 C 
ATOM     61  C   UNL A   1      40.186  33.256  36.275  1.00  0.00     0.037 A 
BRANCH  48  62
ATOM     62  C   UNL A   1      36.559  33.333  31.273  1.00  0.00     0.058 A 
ATOM     63  C   UNL A   1      36.839  34.105  30.135  1.00  0.00     0.135 A 
ATOM     64  C   UNL A   1      35.215  33.188  31.655  1.00  0.00     0.135 A 
ATOM     65  F   UNL A   1      38.108  34.288  29.739  1.00  0.00    -0.206 F 
ATOM     66  C   UNL A   1      35.824  34.722  29.410  1.00  0.00     0.059 A 
ATOM     67  C   UNL A   1      34.183  33.780  30.934  1.00  0.00     0.059 A 
ATOM     68  F   UNL A   1      34.895  32.463  32.738  1.00  0.00    -0.206 F 
ATOM     69  C   UNL A   1      34.500  34.554  29.818  1.00  0.00     0.060 A 
BRANCH  69  70
ATOM     70  S   UNL A   1      33.191  35.348  28.858  1.00  0.00     0.124 S 
ATOM     71  O   UNL A   1      32.387  35.958  29.913  1.00  0.00    -0.237 OA
ATOM     72  O   UNL A   1      33.940  36.276  28.015  1.00  0.00    -0.237 OA
ATOM     73  O   UNL A   1      32.564  34.235  28.153  1.00  0.00    -0.744 OA
ENDBRANCH  69  70
ENDBRANCH  48  62
BRANCH  49  74
ATOM     74  C   UNL A   1      43.892  28.473  36.016  1.00  0.00     0.058 A 
ATOM     75  C   UNL A   1      45.222  28.872  35.821  1.00  0.00     0.135 A 
ATOM     76  C   UNL A   1      43.653  27.396  36.885  1.00  0.00     0.135 A 
ATOM     77  F   UNL A   1      45.501  29.890  34.992  1.00  0.00    -0.206 F 
ATOM     78  C   UNL A   1      46.278  28.220  36.450  1.00  0.00     0.059 A 
ATOM     79  C   UNL A   1      44.690  26.744  37.543  1.00  0.00     0.059 A 
ATOM     80  F   UNL A   1      42.396  26.983  37.114  1.00  0.00    -0.206 F 
ATOM     81  C   UNL A   1      46.001  27.156  37.309  1.00  0.00     0.060 A 
BRANCH  81  82
ATOM     82  S   UNL A   1      47.372  26.339  38.154  1.00  0.00     0.124 S 
ATOM     83  O   UNL A   1      48.455  26.516  37.194  1.00  0.00    -0.237 OA
ATOM     84  O   UNL A   1      47.480  27.111  39.389  1.00  0.00    -0.237 OA
ATOM     85  O   UNL A   1      46.892  24.969  38.322  1.00  0.00    -0.744 OA
ENDBRANCH  81  82
ENDBRANCH  49  74
BRANCH  61  86
ATOM     86  C   UNL A   1      40.216  34.226  37.422  1.00  0.00     0.058 A 
ATOM     87  C   UNL A   1      41.030  35.367  37.398  1.00  0.00     0.135 A 
ATOM     88  C   UNL A   1      39.385  34.034  38.538  1.00  0.00     0.135 A 
ATOM     89  F   UNL A   1      41.847  35.591  36.356  1.00  0.00    -0.206 F 
ATOM     90  C   UNL A   1      41.036  36.278  38.449  1.00  0.00     0.059 A 
ATOM     91  C   UNL A   1      39.357  34.942  39.590  1.00  0.00     0.059 A 
ATOM     92  F   UNL A   1      38.580  32.961  38.605  1.00  0.00    -0.206 F 
ATOM     93  C   UNL A   1      40.196  36.056  39.543  1.00  0.00     0.060 A 
BRANCH  93  94
ATOM     94  S   UNL A   1      40.185  37.260  40.889  1.00  0.00     0.124 S 
ATOM     95  O   UNL A   1      41.341  38.083  40.554  1.00  0.00    -0.237 OA
ATOM     96  O   UNL A   1      38.883  37.899  40.729  1.00  0.00    -0.237 OA
ATOM     97  O   UNL A   1      40.327  36.433  42.083  1.00  0.00    -0.744 OA
ENDBRANCH  93  94
ENDBRANCH  61  86
ENDBRANCH  35  36
ENDBRANCH  28  30
ENDBRANCH  27  28
ENDBRANCH  26  27
ENDBRANCH   1  26
TORSDOF 18
ENDMDL
MODEL 3
REMARK VINA RESULT:     -10.9      6.892     13.601
REMARK SMILES COc1cc(C(=O)N[C@H]2CCCC[C@H]2C(=O)OCCOC(=O)c2ccc(-c3c4nc(c(-c5c(F)cc(S(=O)(=O)[O-])cc5F)c5ccc([nH]5)c(-c5c(F)cc(S(=O)(=O)[O-])cc5F)c5nc(c(-c6c(F)cc(S(=O)(=O)[O-])cc6F)c6ccc3[nH]6)C=C5)C=C4)cc2)cc(Cl)c1OC
REMARK SMILES IDX 18 1 17 2 15 3 16 4 14 5 9 6 10 7 11 8 13 9 12 10 8 11 6 12
REMARK SMILES IDX 7 13 5 15 3 16 4 17 92 18 90 19 89 20 91 21 2 22 1 23 93 24
REMARK SMILES IDX 94 25 19 26 20 27 21 28 22 29 23 30 24 31 88 32 25 33 87 34
REMARK SMILES IDX 26 35 27 36 28 37 81 38 29 39 86 40 80 41 82 42 30 43 85 44
REMARK SMILES IDX 79 45 78 46 31 48 65 49 44 50 64 51 45 52 48 53 63 54 83 55
REMARK SMILES IDX 46 56 47 57 62 59 84 60 49 61 32 62 33 63 42 64 34 65 35 66
REMARK SMILES IDX 41 67 43 68 36 69 37 70 38 71 39 72 40 73 66 74 67 75 76 76
REMARK SMILES IDX 68 77 69 78 75 79 77 80 70 81 71 82 72 83 73 84 74 85 50 86
REMARK SMILES IDX 51 87 60 88 52 89 53 90 59 91 61 92 54 93 55 94 56 95 57 96
REMARK SMILES IDX 58 97
REMARK H PARENT 8 14 82 47 48 58
REMARK Flexibility Score: inf
ROOT
ATOM      1  C   UNL A   1      40.141  21.089  26.515  1.00  0.00     0.274 C 
ENDROOT
BRANCH   1   2
ATOM      2  O   UNL A   1      41.547  21.195  26.209  1.00  0.00    -0.462 OA
BRANCH   2   3
ATOM      3  C   UNL A   1      42.143  20.065  25.754  1.00  0.00     0.311 C 
ATOM      4  O   UNL A   1      41.672  18.940  25.866  1.00  0.00    -0.252 OA
BRANCH   3   5
ATOM      5  C   UNL A   1      43.507  20.307  25.136  1.00  0.00     0.121 C 
ATOM      6  C   UNL A   1      44.184  21.665  25.442  1.00  0.00     0.096 C 
ATOM      7  C   UNL A   1      45.502  21.772  24.648  1.00  0.00     0.026 C 
ATOM      8  C   UNL A   1      46.412  20.558  24.823  1.00  0.00     0.002 C 
ATOM      9  C   UNL A   1      44.429  19.108  25.353  1.00  0.00     0.017 C 
ATOM     10  C   UNL A   1      45.689  19.256  24.507  1.00  0.00     0.001 C 
BRANCH   6  11
ATOM     11  N   UNL A   1      44.387  21.928  26.868  1.00  0.00    -0.348 N 
ATOM     12  C   UNL A   1      44.655  23.069  27.588  1.00  0.00     0.251 C 
ATOM     13  O   UNL A   1      44.698  22.970  28.816  1.00  0.00    -0.269 OA
ATOM     14  H   UNL A   1      44.317  21.121  27.428  1.00  0.00     0.164 HD
BRANCH  12  15
ATOM     15  C   UNL A   1      44.977  24.390  26.973  1.00  0.00     0.045 A 
ATOM     16  C   UNL A   1      46.694  26.043  26.474  1.00  0.00     0.163 A 
ATOM     17  C   UNL A   1      46.301  24.835  27.065  1.00  0.00     0.064 A 
ATOM     18  C   UNL A   1      45.768  26.843  25.762  1.00  0.00     0.179 A 
ATOM     19  C   UNL A   1      44.433  26.417  25.721  1.00  0.00     0.087 A 
ATOM     20  C   UNL A   1      44.046  25.222  26.357  1.00  0.00     0.038 A 
ATOM     21  Cl  UNL A   1      43.134  27.256  24.944  1.00  0.00    -0.080 Cl
BRANCH  16  22
ATOM     22  O   UNL A   1      47.967  26.550  26.604  1.00  0.00    -0.493 OA
ATOM     23  C   UNL A   1      48.996  25.830  25.939  1.00  0.00     0.278 C 
ENDBRANCH  16  22
BRANCH  18  24
ATOM     24  O   UNL A   1      46.335  27.966  25.223  1.00  0.00    -0.491 OA
ATOM     25  C   UNL A   1      46.733  28.010  23.864  1.00  0.00     0.278 C 
ENDBRANCH  18  24
ENDBRANCH  12  15
ENDBRANCH   6  11
ENDBRANCH   3   5
ENDBRANCH   2   3
ENDBRANCH   1   2
BRANCH   1  26
ATOM     26  C   UNL A   1      39.434  22.447  26.453  1.00  0.00     0.275 C 
BRANCH  26  27
ATOM     27  O   UNL A   1      40.004  23.399  27.372  1.00  0.00    -0.458 OA
BRANCH  27  28
ATOM     28  C   UNL A   1      40.132  24.657  26.890  1.00  0.00     0.338 C 
ATOM     29  O   UNL A   1      40.049  25.011  25.725  1.00  0.00    -0.246 OA
BRANCH  28  30
ATOM     30  C   UNL A   1      40.249  25.617  27.999  1.00  0.00     0.060 A 
ATOM     31  C   UNL A   1      39.167  25.734  28.877  1.00  0.00     0.016 A 
ATOM     32  C   UNL A   1      41.354  26.459  28.120  1.00  0.00     0.016 A 
ATOM     33  C   UNL A   1      39.179  26.702  29.875  1.00  0.00     0.010 A 
ATOM     34  C   UNL A   1      41.366  27.430  29.127  1.00  0.00     0.010 A 
ATOM     35  C   UNL A   1      40.273  27.565  30.001  1.00  0.00    -0.014 A 
BRANCH  35  36
ATOM     36  C   UNL A   1      40.242  28.637  31.025  1.00  0.00     0.031 A 
ATOM     37  C   UNL A   1      41.173  28.574  32.203  1.00  0.00     0.074 A 
ATOM     38  C   UNL A   1      39.399  29.676  30.881  1.00  0.00     0.049 A 
ATOM     39  N   UNL A   1      41.254  29.374  33.234  1.00  0.00    -0.248 NA
ATOM     40  C   UNL A   1      42.141  27.466  32.222  1.00  0.00     0.031 C 
ATOM     41  C   UNL A   1      38.477  29.864  29.759  1.00  0.00     0.029 A 
ATOM     42  N   UNL A   1      39.177  30.767  31.682  1.00  0.00    -0.354 N 
ATOM     43  C   UNL A   1      42.265  28.857  34.037  1.00  0.00     0.074 A 
ATOM     44  C   UNL A   1      42.761  27.669  33.377  1.00  0.00     0.031 C 
ATOM     45  C   UNL A   1      37.784  31.000  29.948  1.00  0.00     0.029 A 
ATOM     46  C   UNL A   1      38.184  31.597  31.219  1.00  0.00     0.049 A 
ATOM     47  H   UNL A   1      39.682  30.939  32.510  1.00  0.00     0.167 HD
ATOM     48  C   UNL A   1      42.734  29.334  35.214  1.00  0.00     0.037 A 
ATOM     49  C   UNL A   1      37.638  32.698  31.772  1.00  0.00     0.037 A 
ATOM     50  C   UNL A   1      42.247  30.529  35.855  1.00  0.00     0.049 A 
ATOM     51  C   UNL A   1      38.151  33.184  33.101  1.00  0.00     0.074 A 
ATOM     52  C   UNL A   1      42.671  31.103  37.042  1.00  0.00     0.029 A 
ATOM     53  N   UNL A   1      41.231  31.334  35.364  1.00  0.00    -0.354 N 
ATOM     54  N   UNL A   1      39.106  32.684  33.848  1.00  0.00    -0.248 NA
ATOM     55  C   UNL A   1      37.511  34.381  33.663  1.00  0.00     0.031 C 
ATOM     56  C   UNL A   1      41.888  32.236  37.284  1.00  0.00     0.029 A 
ATOM     57  C   UNL A   1      41.002  32.390  36.230  1.00  0.00     0.049 A 
ATOM     58  H   UNL A   1      40.743  31.178  34.523  1.00  0.00     0.167 HD
ATOM     59  C   UNL A   1      39.194  33.515  34.959  1.00  0.00     0.074 A 
ATOM     60  C   UNL A   1      38.203  34.558  34.780  1.00  0.00     0.031 C 
ATOM     61  C   UNL A   1      40.017  33.423  36.032  1.00  0.00     0.037 A 
BRANCH  48  62
ATOM     62  C   UNL A   1      43.817  28.553  35.902  1.00  0.00     0.058 A 
ATOM     63  C   UNL A   1      43.524  27.472  36.747  1.00  0.00     0.135 A 
ATOM     64  C   UNL A   1      45.168  28.862  35.673  1.00  0.00     0.135 A 
ATOM     65  F   UNL A   1      42.249  27.147  37.012  1.00  0.00    -0.206 F 
ATOM     66  C   UNL A   1      44.534  26.732  37.356  1.00  0.00     0.059 A 
ATOM     67  C   UNL A   1      46.194  28.123  36.255  1.00  0.00     0.059 A 
ATOM     68  F   UNL A   1      45.500  29.889  34.876  1.00  0.00    -0.206 F 
ATOM     69  C   UNL A   1      45.866  27.066  37.103  1.00  0.00     0.060 A 
BRANCH  69  70
ATOM     70  S   UNL A   1      47.167  26.087  37.885  1.00  0.00     0.124 S 
ATOM     71  O   UNL A   1      47.268  24.954  36.971  1.00  0.00    -0.237 OA
ATOM     72  O   UNL A   1      48.299  27.009  37.879  1.00  0.00    -0.237 OA
ATOM     73  O   UNL A   1      46.618  25.785  39.203  1.00  0.00    -0.744 OA
ENDBRANCH  69  70
ENDBRANCH  48  62
BRANCH  49  74
ATOM     74  C   UNL A   1      36.523  33.399  31.085  1.00  0.00     0.058 A 
ATOM     75  C   UNL A   1      35.207  33.312  31.561  1.00  0.00     0.135 A 
ATOM     76  C   UNL A   1      36.753  34.170  29.935  1.00  0.00     0.135 A 
ATOM     77  F   UNL A   1      34.936  32.579  32.652  1.00  0.00    -0.206 F 
ATOM     78  C   UNL A   1      34.155  33.952  30.914  1.00  0.00     0.059 A 
ATOM     79  C   UNL A   1      35.721  34.838  29.284  1.00  0.00     0.059 A 
ATOM     80  F   UNL A   1      37.997  34.294  29.445  1.00  0.00    -0.206 F 
ATOM     81  C   UNL A   1      34.423  34.713  29.775  1.00  0.00     0.060 A 
BRANCH  81  82
ATOM     82  S   UNL A   1      33.060  35.575  28.963  1.00  0.00     0.124 S 
ATOM     83  O   UNL A   1      32.242  35.968  30.104  1.00  0.00    -0.237 OA
ATOM     84  O   UNL A   1      33.748  36.657  28.265  1.00  0.00    -0.237 OA
ATOM     85  O   UNL A   1      32.486  34.548  28.096  1.00  0.00    -0.744 OA
ENDBRANCH  81  82
ENDBRANCH  49  74
BRANCH  61  86
ATOM     86  C   UNL A   1      39.905  34.493  37.081  1.00  0.00     0.058 A 
ATOM     87  C   UNL A   1      40.599  35.707  36.969  1.00  0.00     0.135 A 
ATOM     88  C   UNL A   1      39.057  34.319  38.187  1.00  0.00     0.135 A 
ATOM     89  F   UNL A   1      41.426  35.918  35.934  1.00  0.00    -0.206 F 
ATOM     90  C   UNL A   1      40.472  36.706  37.928  1.00  0.00     0.059 A 
ATOM     91  C   UNL A   1      38.898  35.313  39.146  1.00  0.00     0.059 A 
ATOM     92  F   UNL A   1      38.364  33.178  38.335  1.00  0.00    -0.206 F 
ATOM     93  C   UNL A   1      39.619  36.499  39.015  1.00  0.00     0.060 A 
BRANCH  93  94
ATOM     94  S   UNL A   1      39.436  37.814  40.239  1.00  0.00     0.124 S 
ATOM     95  O   UNL A   1      39.155  37.050  41.449  1.00  0.00    -0.237 OA
ATOM     96  O   UNL A   1      40.737  38.472  40.192  1.00  0.00    -0.237 OA
ATOM     97  O   UNL A   1      38.322  38.604  39.722  1.00  0.00    -0.744 OA
ENDBRANCH  93  94
ENDBRANCH  61  86
ENDBRANCH  35  36
ENDBRANCH  28  30
ENDBRANCH  27  28
ENDBRANCH  26  27
ENDBRANCH   1  26
TORSDOF 18
ENDMDL
