MODEL 1
REMARK VINA RESULT:     -10.7      0.000      0.000
REMARK SMILES CCC(CC)(NC(=O)c1c(C)noc1C)C(=O)OCCOC(=O)c1ccc(-c2c3nc(c(-c4c(F)cc(S(=O)(=O)[O-])cc4F)c4ccc([nH]4)c(-c4c(F)cc(S(=O)(=O)[O-])cc4F)c4nc(c(-c5c(F)cc(S(=O)(=O)[O-])cc5F)c5ccc2[nH]5)C=C4)C=C3)cc1
REMARK SMILES IDX 20 1 19 2 18 3 16 4 17 5 3 6 2 7 1 8 4 9 5 10 6 11 7 12 8 14
REMARK SMILES IDX 9 15 10 16 14 17 11 18 12 19 13 20 15 21 21 22 22 23 23 24
REMARK SMILES IDX 24 25 25 26 89 27 26 28 88 29 27 30 28 31 29 32 82 33 30 34
REMARK SMILES IDX 87 35 81 36 83 37 31 38 86 39 80 40 79 41 32 43 66 44 45 45
REMARK SMILES IDX 65 46 46 47 49 48 64 49 84 50 47 51 48 52 63 54 85 55 50 56
REMARK SMILES IDX 33 57 34 58 43 59 35 60 36 61 42 62 44 63 37 64 38 65 39 66
REMARK SMILES IDX 40 67 41 68 67 69 68 70 77 71 69 72 70 73 76 74 78 75 71 76
REMARK SMILES IDX 72 77 73 78 74 79 75 80 51 81 52 82 61 83 53 84 54 85 60 86
REMARK SMILES IDX 62 87 55 88 56 89 57 90 58 91 59 92
REMARK H PARENT 6 13 83 42 49 53
REMARK Flexibility Score: inf
ROOT
ATOM      1  C   UNL A   1      33.245  29.172  26.708  1.00  0.00     0.275 C 
ENDROOT
BRANCH   1   2
ATOM      2  C   UNL A   1      32.315  27.963  26.733  1.00  0.00     0.274 C 
BRANCH   2   3
ATOM      3  O   UNL A   1      33.060  26.761  26.428  1.00  0.00    -0.460 OA
BRANCH   3   4
ATOM      4  C   UNL A   1      32.330  25.675  26.089  1.00  0.00     0.331 C 
ATOM      5  O   UNL A   1      31.295  25.358  26.668  1.00  0.00    -0.249 OA
BRANCH   4   6
ATOM      6  C   UNL A   1      32.941  24.832  24.923  1.00  0.00     0.137 C 
BRANCH   6   7
ATOM      7  C   UNL A   1      32.708  23.315  25.269  1.00  0.00     0.037 C 
ATOM      8  C   UNL A   1      31.321  22.720  25.054  1.00  0.00     0.007 C 
ENDBRANCH   6   7
BRANCH   6   9
ATOM      9  C   UNL A   1      34.462  25.164  24.893  1.00  0.00     0.037 C 
ATOM     10  C   UNL A   1      35.387  24.174  25.590  1.00  0.00     0.007 C 
ENDBRANCH   6   9
BRANCH   6  11
ATOM     11  N   UNL A   1      32.373  24.948  23.537  1.00  0.00    -0.336 N 
ATOM     12  C   UNL A   1      31.957  25.893  22.644  1.00  0.00     0.257 C 
ATOM     13  H   UNL A   1      32.267  24.051  23.145  1.00  0.00     0.165 HD
ATOM     14  O   UNL A   1      32.017  25.561  21.458  1.00  0.00    -0.269 OA
BRANCH  12  15
ATOM     15  C   UNL A   1      31.309  27.126  23.005  1.00  0.00     0.105 A 
ATOM     16  C   UNL A   1      31.953  28.400  23.111  1.00  0.00     0.093 A 
ATOM     17  C   UNL A   1      30.050  27.367  23.510  1.00  0.00     0.146 A 
ATOM     18  C   UNL A   1      33.360  28.761  22.797  1.00  0.00     0.071 C 
ATOM     19  N   UNL A   1      31.119  29.337  23.579  1.00  0.00    -0.084 NA
ATOM     20  O   UNL A   1      29.931  28.688  23.819  1.00  0.00    -0.361 OA
ATOM     21  C   UNL A   1      28.864  26.560  23.825  1.00  0.00     0.092 C 
ENDBRANCH  12  15
ENDBRANCH   6  11
ENDBRANCH   4   6
ENDBRANCH   3   4
ENDBRANCH   2   3
ENDBRANCH   1   2
BRANCH   1  22
ATOM     22  O   UNL A   1      34.075  29.122  27.877  1.00  0.00    -0.458 OA
BRANCH  22  23
ATOM     23  C   UNL A   1      34.690  30.285  28.175  1.00  0.00     0.338 C 
ATOM     24  O   UNL A   1      34.196  31.386  28.355  1.00  0.00    -0.246 OA
BRANCH  23  25
ATOM     25  C   UNL A   1      36.095  30.011  28.431  1.00  0.00     0.060 A 
ATOM     26  C   UNL A   1      36.986  30.120  27.363  1.00  0.00     0.016 A 
ATOM     27  C   UNL A   1      36.503  29.549  29.675  1.00  0.00     0.016 A 
ATOM     28  C   UNL A   1      38.296  29.697  27.513  1.00  0.00     0.010 A 
ATOM     29  C   UNL A   1      37.840  29.210  29.849  1.00  0.00     0.010 A 
ATOM     30  C   UNL A   1      38.740  29.267  28.768  1.00  0.00    -0.014 A 
BRANCH  30  31
ATOM     31  C   UNL A   1      40.152  28.891  28.995  1.00  0.00     0.031 A 
ATOM     32  C   UNL A   1      41.139  29.955  29.366  1.00  0.00     0.074 A 
ATOM     33  C   UNL A   1      40.545  27.625  28.763  1.00  0.00     0.049 A 
ATOM     34  N   UNL A   1      42.439  29.951  29.254  1.00  0.00    -0.248 NA
ATOM     35  C   UNL A   1      40.579  31.203  29.910  1.00  0.00     0.031 C 
ATOM     36  C   UNL A   1      39.655  26.504  28.453  1.00  0.00     0.029 A 
ATOM     37  N   UNL A   1      41.800  27.078  28.713  1.00  0.00    -0.354 N 
ATOM     38  C   UNL A   1      42.852  31.219  29.640  1.00  0.00     0.074 A 
ATOM     39  C   UNL A   1      41.664  31.958  30.013  1.00  0.00     0.031 C 
ATOM     40  C   UNL A   1      40.392  25.406  28.230  1.00  0.00     0.029 A 
ATOM     41  C   UNL A   1      41.801  25.771  28.287  1.00  0.00     0.049 A 
ATOM     42  H   UNL A   1      42.618  27.571  28.956  1.00  0.00     0.167 HD
ATOM     43  C   UNL A   1      44.111  31.717  29.650  1.00  0.00     0.037 A 
ATOM     44  C   UNL A   1      42.819  24.978  27.907  1.00  0.00     0.037 A 
ATOM     45  C   UNL A   1      45.268  30.937  29.293  1.00  0.00     0.049 A 
ATOM     46  C   UNL A   1      44.207  25.544  27.919  1.00  0.00     0.074 A 
ATOM     47  C   UNL A   1      46.596  31.321  29.257  1.00  0.00     0.029 A 
ATOM     48  N   UNL A   1      45.227  29.599  28.918  1.00  0.00    -0.354 N 
ATOM     49  N   UNL A   1      44.592  26.763  28.219  1.00  0.00    -0.248 NA
ATOM     50  C   UNL A   1      45.297  24.643  27.532  1.00  0.00     0.031 C 
ATOM     51  C   UNL A   1      47.354  30.222  28.837  1.00  0.00     0.029 A 
ATOM     52  C   UNL A   1      46.504  29.141  28.648  1.00  0.00     0.049 A 
ATOM     53  H   UNL A   1      44.409  29.057  28.852  1.00  0.00     0.167 HD
ATOM     54  C   UNL A   1      45.972  26.774  28.068  1.00  0.00     0.074 A 
ATOM     55  C   UNL A   1      46.353  25.437  27.658  1.00  0.00     0.031 C 
ATOM     56  C   UNL A   1      46.844  27.796  28.253  1.00  0.00     0.037 A 
BRANCH  43  57
ATOM     57  C   UNL A   1      44.277  33.172  29.993  1.00  0.00     0.058 A 
ATOM     58  C   UNL A   1      44.442  33.615  31.314  1.00  0.00     0.135 A 
ATOM     59  C   UNL A   1      44.240  34.143  28.978  1.00  0.00     0.135 A 
ATOM     60  F   UNL A   1      44.466  32.732  32.325  1.00  0.00    -0.206 F 
ATOM     61  C   UNL A   1      44.518  34.971  31.623  1.00  0.00     0.059 A 
ATOM     62  C   UNL A   1      44.338  35.502  29.261  1.00  0.00     0.059 A 
ATOM     63  F   UNL A   1      44.083  33.776  27.696  1.00  0.00    -0.206 F 
ATOM     64  C   UNL A   1      44.452  35.908  30.590  1.00  0.00     0.060 A 
BRANCH  64  65
ATOM     65  S   UNL A   1      44.502  37.665  31.003  1.00  0.00     0.124 S 
ATOM     66  O   UNL A   1      45.900  37.985  30.735  1.00  0.00    -0.237 OA
ATOM     67  O   UNL A   1      43.532  38.237  30.074  1.00  0.00    -0.237 OA
ATOM     68  O   UNL A   1      44.109  37.694  32.408  1.00  0.00    -0.744 OA
ENDBRANCH  64  65
ENDBRANCH  43  57
BRANCH  44  69
ATOM     69  C   UNL A   1      42.530  23.595  27.451  1.00  0.00     0.058 A 
ATOM     70  C   UNL A   1      42.455  23.290  26.085  1.00  0.00     0.135 A 
ATOM     71  C   UNL A   1      42.434  22.532  28.366  1.00  0.00     0.135 A 
ATOM     72  F   UNL A   1      42.540  24.272  25.175  1.00  0.00    -0.206 F 
ATOM     73  C   UNL A   1      42.313  21.980  25.639  1.00  0.00     0.059 A 
ATOM     74  C   UNL A   1      42.313  21.213  27.944  1.00  0.00     0.059 A 
ATOM     75  F   UNL A   1      42.520  22.771  29.685  1.00  0.00    -0.206 F 
ATOM     76  C   UNL A   1      42.255  20.946  26.576  1.00  0.00     0.060 A 
BRANCH  76  77
ATOM     77  S   UNL A   1      42.187  19.240  25.984  1.00  0.00     0.124 S 
ATOM     78  O   UNL A   1      40.763  19.083  25.709  1.00  0.00    -0.237 OA
ATOM     79  O   UNL A   1      43.062  19.285  24.816  1.00  0.00    -0.237 OA
ATOM     80  O   UNL A   1      42.702  18.473  27.114  1.00  0.00    -0.744 OA
ENDBRANCH  76  77
ENDBRANCH  44  69
BRANCH  56  81
ATOM     81  C   UNL A   1      48.298  27.490  28.055  1.00  0.00     0.058 A 
ATOM     82  C   UNL A   1      49.096  27.008  29.103  1.00  0.00     0.135 A 
ATOM     83  C   UNL A   1      48.876  27.615  26.782  1.00  0.00     0.135 A 
ATOM     84  F   UNL A   1      48.587  26.883  30.338  1.00  0.00    -0.206 F 
ATOM     85  C   UNL A   1      50.426  26.663  28.895  1.00  0.00     0.059 A 
ATOM     86  C   UNL A   1      50.199  27.259  26.549  1.00  0.00     0.059 A 
ATOM     87  F   UNL A   1      48.147  28.068  25.750  1.00  0.00    -0.206 F 
ATOM     88  C   UNL A   1      50.966  26.788  27.613  1.00  0.00     0.060 A 
BRANCH  88  89
ATOM     89  S   UNL A   1      52.678  26.281  27.339  1.00  0.00     0.124 S 
ATOM     90  O   UNL A   1      52.499  24.994  26.677  1.00  0.00    -0.237 OA
ATOM     91  O   UNL A   1      53.194  27.359  26.501  1.00  0.00    -0.237 OA
ATOM     92  O   UNL A   1      53.233  26.224  28.688  1.00  0.00    -0.744 OA
ENDBRANCH  88  89
ENDBRANCH  56  81
ENDBRANCH  30  31
ENDBRANCH  23  25
ENDBRANCH  22  23
ENDBRANCH   1  22
TORSDOF 18
ENDMDL
MODEL 2
REMARK VINA RESULT:     -10.7      1.034      2.448
REMARK SMILES CCC(CC)(NC(=O)c1c(C)noc1C)C(=O)OCCOC(=O)c1ccc(-c2c3nc(c(-c4c(F)cc(S(=O)(=O)[O-])cc4F)c4ccc([nH]4)c(-c4c(F)cc(S(=O)(=O)[O-])cc4F)c4nc(c(-c5c(F)cc(S(=O)(=O)[O-])cc5F)c5ccc2[nH]5)C=C4)C=C3)cc1
REMARK SMILES IDX 20 1 19 2 18 3 16 4 17 5 3 6 2 7 1 8 4 9 5 10 6 11 7 12 8 14
REMARK SMILES IDX 9 15 10 16 14 17 11 18 12 19 13 20 15 21 21 22 22 23 23 24
REMARK SMILES IDX 24 25 25 26 89 27 26 28 88 29 27 30 28 31 29 32 82 33 30 34
REMARK SMILES IDX 87 35 81 36 83 37 31 38 86 39 80 40 79 41 32 43 66 44 45 45
REMARK SMILES IDX 65 46 46 47 49 48 64 49 84 50 47 51 48 52 63 54 85 55 50 56
REMARK SMILES IDX 33 57 34 58 43 59 35 60 36 61 42 62 44 63 37 64 38 65 39 66
REMARK SMILES IDX 40 67 41 68 67 69 68 70 77 71 69 72 70 73 76 74 78 75 71 76
REMARK SMILES IDX 72 77 73 78 74 79 75 80 51 81 52 82 61 83 53 84 54 85 60 86
REMARK SMILES IDX 62 87 55 88 56 89 57 90 58 91 59 92
REMARK H PARENT 6 13 83 42 49 53
REMARK Flexibility Score: inf
ROOT
ATOM      1  C   UNL A   1      33.154  30.038  26.768  1.00  0.00     0.275 C 
ENDROOT
BRANCH   1   2
ATOM      2  C   UNL A   1      32.966  28.991  25.675  1.00  0.00     0.274 C 
BRANCH   2   3
ATOM      3  O   UNL A   1      33.218  27.670  26.207  1.00  0.00    -0.460 OA
BRANCH   3   4
ATOM      4  C   UNL A   1      32.138  26.875  26.367  1.00  0.00     0.331 C 
ATOM      5  O   UNL A   1      31.274  27.082  27.214  1.00  0.00    -0.249 OA
BRANCH   4   6
ATOM      6  C   UNL A   1      32.104  25.641  25.408  1.00  0.00     0.137 C 
BRANCH   6   7
ATOM      7  C   UNL A   1      30.744  25.696  24.619  1.00  0.00     0.037 C 
ATOM      8  C   UNL A   1      30.157  27.058  24.268  1.00  0.00     0.007 C 
ENDBRANCH   6   7
BRANCH   6   9
ATOM      9  C   UNL A   1      32.163  24.378  26.318  1.00  0.00     0.037 C 
ATOM     10  C   UNL A   1      30.903  23.523  26.375  1.00  0.00     0.007 C 
ENDBRANCH   6   9
BRANCH   6  11
ATOM     11  N   UNL A   1      33.121  25.517  24.310  1.00  0.00    -0.336 N 
ATOM     12  C   UNL A   1      33.773  24.567  23.579  1.00  0.00     0.257 C 
ATOM     13  H   UNL A   1      33.413  26.413  24.024  1.00  0.00     0.165 HD
ATOM     14  O   UNL A   1      34.162  24.930  22.466  1.00  0.00    -0.269 OA
BRANCH  12  15
ATOM     15  C   UNL A   1      34.177  23.282  24.087  1.00  0.00     0.105 A 
ATOM     16  C   UNL A   1      33.461  22.057  23.903  1.00  0.00     0.093 A 
ATOM     17  C   UNL A   1      35.161  22.940  24.990  1.00  0.00     0.146 A 
ATOM     18  C   UNL A   1      32.236  21.806  23.100  1.00  0.00     0.071 C 
ATOM     19  N   UNL A   1      34.019  21.051  24.591  1.00  0.00    -0.084 NA
ATOM     20  O   UNL A   1      35.083  21.608  25.261  1.00  0.00    -0.361 OA
ATOM     21  C   UNL A   1      36.206  23.652  25.737  1.00  0.00     0.092 C 
ENDBRANCH  12  15
ENDBRANCH   6  11
ENDBRANCH   4   6
ENDBRANCH   3   4
ENDBRANCH   2   3
ENDBRANCH   1   2
BRANCH   1  22
ATOM     22  O   UNL A   1      34.116  29.537  27.707  1.00  0.00    -0.458 OA
BRANCH  22  23
ATOM     23  C   UNL A   1      34.834  30.491  28.334  1.00  0.00     0.338 C 
ATOM     24  O   UNL A   1      34.447  31.533  28.835  1.00  0.00    -0.246 OA
BRANCH  23  25
ATOM     25  C   UNL A   1      36.199  30.012  28.491  1.00  0.00     0.060 A 
ATOM     26  C   UNL A   1      36.600  29.591  29.758  1.00  0.00     0.016 A 
ATOM     27  C   UNL A   1      37.092  30.085  27.430  1.00  0.00     0.016 A 
ATOM     28  C   UNL A   1      37.933  29.300  29.997  1.00  0.00     0.010 A 
ATOM     29  C   UNL A   1      38.411  29.706  27.649  1.00  0.00     0.010 A 
ATOM     30  C   UNL A   1      38.843  29.326  28.935  1.00  0.00    -0.014 A 
BRANCH  30  31
ATOM     31  C   UNL A   1      40.257  28.937  29.125  1.00  0.00     0.031 A 
ATOM     32  C   UNL A   1      41.263  29.988  29.479  1.00  0.00     0.074 A 
ATOM     33  C   UNL A   1      40.633  27.669  28.874  1.00  0.00     0.049 A 
ATOM     34  N   UNL A   1      42.559  29.974  29.334  1.00  0.00    -0.248 NA
ATOM     35  C   UNL A   1      40.727  31.238  30.044  1.00  0.00     0.031 C 
ATOM     36  C   UNL A   1      39.726  26.557  28.578  1.00  0.00     0.029 A 
ATOM     37  N   UNL A   1      41.881  27.111  28.789  1.00  0.00    -0.354 N 
ATOM     38  C   UNL A   1      42.993  31.236  29.719  1.00  0.00     0.074 A 
ATOM     39  C   UNL A   1      41.820  31.983  30.126  1.00  0.00     0.031 C 
ATOM     40  C   UNL A   1      40.446  25.455  28.330  1.00  0.00     0.029 A 
ATOM     41  C   UNL A   1      41.860  25.807  28.355  1.00  0.00     0.049 A 
ATOM     42  H   UNL A   1      42.709  27.594  29.016  1.00  0.00     0.167 HD
ATOM     43  C   UNL A   1      44.256  31.722  29.701  1.00  0.00     0.037 A 
ATOM     44  C   UNL A   1      42.861  25.008  27.945  1.00  0.00     0.037 A 
ATOM     45  C   UNL A   1      45.397  30.935  29.311  1.00  0.00     0.049 A 
ATOM     46  C   UNL A   1      44.254  25.561  27.927  1.00  0.00     0.074 A 
ATOM     47  C   UNL A   1      46.726  31.307  29.245  1.00  0.00     0.029 A 
ATOM     48  N   UNL A   1      45.335  29.600  28.927  1.00  0.00    -0.354 N 
ATOM     49  N   UNL A   1      44.657  26.775  28.225  1.00  0.00    -0.248 NA
ATOM     50  C   UNL A   1      45.326  24.653  27.506  1.00  0.00     0.031 C 
ATOM     51  C   UNL A   1      47.465  30.205  28.798  1.00  0.00     0.029 A 
ATOM     52  C   UNL A   1      46.601  29.133  28.623  1.00  0.00     0.049 A 
ATOM     53  H   UNL A   1      44.510  29.065  28.878  1.00  0.00     0.167 HD
ATOM     54  C   UNL A   1      46.033  26.775  28.041  1.00  0.00     0.074 A 
ATOM     55  C   UNL A   1      46.392  25.437  27.611  1.00  0.00     0.031 C 
ATOM     56  C   UNL A   1      46.919  27.787  28.211  1.00  0.00     0.037 A 
BRANCH  43  57
ATOM     57  C   UNL A   1      44.444  33.173  30.050  1.00  0.00     0.058 A 
ATOM     58  C   UNL A   1      44.728  33.598  31.357  1.00  0.00     0.135 A 
ATOM     59  C   UNL A   1      44.306  34.159  29.058  1.00  0.00     0.135 A 
ATOM     60  F   UNL A   1      44.851  32.700  32.347  1.00  0.00    -0.206 F 
ATOM     61  C   UNL A   1      44.823  34.950  31.678  1.00  0.00     0.059 A 
ATOM     62  C   UNL A   1      44.420  35.515  29.352  1.00  0.00     0.059 A 
ATOM     63  F   UNL A   1      44.033  33.810  27.791  1.00  0.00    -0.206 F 
ATOM     64  C   UNL A   1      44.655  35.901  30.670  1.00  0.00     0.060 A 
BRANCH  64  65
ATOM     65  S   UNL A   1      44.731  37.653  31.104  1.00  0.00     0.124 S 
ATOM     66  O   UNL A   1      46.147  37.940  30.898  1.00  0.00    -0.237 OA
ATOM     67  O   UNL A   1      43.816  38.258  30.142  1.00  0.00    -0.237 OA
ATOM     68  O   UNL A   1      44.281  37.677  32.493  1.00  0.00    -0.744 OA
ENDBRANCH  64  65
ENDBRANCH  43  57
BRANCH  44  69
ATOM     69  C   UNL A   1      42.548  23.630  27.486  1.00  0.00     0.058 A 
ATOM     70  C   UNL A   1      42.444  23.335  26.121  1.00  0.00     0.135 A 
ATOM     71  C   UNL A   1      42.459  22.563  28.396  1.00  0.00     0.135 A 
ATOM     72  F   UNL A   1      42.521  24.321  25.215  1.00  0.00    -0.206 F 
ATOM     73  C   UNL A   1      42.279  22.029  25.669  1.00  0.00     0.059 A 
ATOM     74  C   UNL A   1      42.316  21.247  27.969  1.00  0.00     0.059 A 
ATOM     75  F   UNL A   1      42.574  22.793  29.715  1.00  0.00    -0.206 F 
ATOM     76  C   UNL A   1      42.229  20.990  26.601  1.00  0.00     0.060 A 
BRANCH  76  77
ATOM     77  S   UNL A   1      42.130  19.288  26.001  1.00  0.00     0.124 S 
ATOM     78  O   UNL A   1      42.960  19.352  24.803  1.00  0.00    -0.237 OA
ATOM     79  O   UNL A   1      42.683  18.534  27.122  1.00  0.00    -0.237 OA
ATOM     80  O   UNL A   1      40.701  19.097  25.772  1.00  0.00    -0.744 OA
ENDBRANCH  76  77
ENDBRANCH  44  69
BRANCH  56  81
ATOM     81  C   UNL A   1      48.364  27.470  27.975  1.00  0.00     0.058 A 
ATOM     82  C   UNL A   1      49.170  26.925  28.985  1.00  0.00     0.135 A 
ATOM     83  C   UNL A   1      48.925  27.649  26.701  1.00  0.00     0.135 A 
ATOM     84  F   UNL A   1      48.678  26.746  30.220  1.00  0.00    -0.206 F 
ATOM     85  C   UNL A   1      50.492  26.571  28.740  1.00  0.00     0.059 A 
ATOM     86  C   UNL A   1      50.238  27.285  26.430  1.00  0.00     0.059 A 
ATOM     87  F   UNL A   1      48.187  28.163  25.704  1.00  0.00    -0.206 F 
ATOM     88  C   UNL A   1      51.015  26.751  27.457  1.00  0.00     0.060 A 
BRANCH  88  89
ATOM     89  S   UNL A   1      52.713  26.233  27.131  1.00  0.00     0.124 S 
ATOM     90  O   UNL A   1      53.170  27.282  26.226  1.00  0.00    -0.237 OA
ATOM     91  O   UNL A   1      53.306  26.244  28.465  1.00  0.00    -0.237 OA
ATOM     92  O   UNL A   1      52.555  24.911  26.534  1.00  0.00    -0.744 OA
ENDBRANCH  88  89
ENDBRANCH  56  81
ENDBRANCH  30  31
ENDBRANCH  23  25
ENDBRANCH  22  23
ENDBRANCH   1  22
TORSDOF 18
ENDMDL
MODEL 3
REMARK VINA RESULT:     -10.6      1.849      3.163
REMARK SMILES CCC(CC)(NC(=O)c1c(C)noc1C)C(=O)OCCOC(=O)c1ccc(-c2c3nc(c(-c4c(F)cc(S(=O)(=O)[O-])cc4F)c4ccc([nH]4)c(-c4c(F)cc(S(=O)(=O)[O-])cc4F)c4nc(c(-c5c(F)cc(S(=O)(=O)[O-])cc5F)c5ccc2[nH]5)C=C4)C=C3)cc1
REMARK SMILES IDX 20 1 19 2 18 3 16 4 17 5 3 6 2 7 1 8 4 9 5 10 6 11 7 12 8 14
REMARK SMILES IDX 9 15 10 16 14 17 11 18 12 19 13 20 15 21 21 22 22 23 23 24
REMARK SMILES IDX 24 25 25 26 89 27 26 28 88 29 27 30 28 31 29 32 82 33 30 34
REMARK SMILES IDX 87 35 81 36 83 37 31 38 86 39 80 40 79 41 32 43 66 44 45 45
REMARK SMILES IDX 65 46 46 47 49 48 64 49 84 50 47 51 48 52 63 54 85 55 50 56
REMARK SMILES IDX 33 57 34 58 43 59 35 60 36 61 42 62 44 63 37 64 38 65 39 66
REMARK SMILES IDX 40 67 41 68 67 69 68 70 77 71 69 72 70 73 76 74 78 75 71 76
REMARK SMILES IDX 72 77 73 78 74 79 75 80 51 81 52 82 61 83 53 84 54 85 60 86
REMARK SMILES IDX 62 87 55 88 56 89 57 90 58 91 59 92
REMARK H PARENT 6 13 83 42 49 53
REMARK Flexibility Score: inf
ROOT
ATOM      1  C   UNL A   1      34.402  30.369  27.077  1.00  0.00     0.275 C 
ENDROOT
BRANCH   1   2
ATOM      2  C   UNL A   1      32.977  29.836  27.178  1.00  0.00     0.274 C 
BRANCH   2   3
ATOM      3  O   UNL A   1      32.998  28.409  27.417  1.00  0.00    -0.460 OA
BRANCH   3   4
ATOM      4  C   UNL A   1      31.811  27.770  27.328  1.00  0.00     0.331 C 
ATOM      5  O   UNL A   1      30.841  28.063  28.020  1.00  0.00    -0.249 OA
BRANCH   4   6
ATOM      6  C   UNL A   1      31.792  26.596  26.297  1.00  0.00     0.137 C 
BRANCH   6   7
ATOM      7  C   UNL A   1      33.274  26.095  26.129  1.00  0.00     0.037 C 
ATOM      8  C   UNL A   1      33.956  26.270  24.776  1.00  0.00     0.007 C 
ENDBRANCH   6   7
BRANCH   6   9
ATOM      9  C   UNL A   1      31.257  27.193  24.963  1.00  0.00     0.037 C 
ATOM     10  C   UNL A   1      29.894  26.697  24.495  1.00  0.00     0.007 C 
ENDBRANCH   6   9
BRANCH   6  11
ATOM     11  N   UNL A   1      31.047  25.331  26.616  1.00  0.00    -0.336 N 
ATOM     12  C   UNL A   1      31.231  23.979  26.650  1.00  0.00     0.257 C 
ATOM     13  H   UNL A   1      30.126  25.548  26.890  1.00  0.00     0.165 HD
ATOM     14  O   UNL A   1      30.496  23.365  27.426  1.00  0.00    -0.269 OA
BRANCH  12  15
ATOM     15  C   UNL A   1      32.067  23.247  25.735  1.00  0.00     0.105 A 
ATOM     16  C   UNL A   1      33.323  22.645  26.062  1.00  0.00     0.093 A 
ATOM     17  C   UNL A   1      32.001  23.115  24.364  1.00  0.00     0.146 A 
ATOM     18  C   UNL A   1      33.994  22.551  27.384  1.00  0.00     0.071 C 
ATOM     19  N   UNL A   1      33.924  22.137  24.977  1.00  0.00    -0.084 NA
ATOM     20  O   UNL A   1      33.090  22.427  23.923  1.00  0.00    -0.361 OA
ATOM     21  C   UNL A   1      31.093  23.564  23.300  1.00  0.00     0.092 C 
ENDBRANCH  12  15
ENDBRANCH   6  11
ENDBRANCH   4   6
ENDBRANCH   3   4
ENDBRANCH   2   3
ENDBRANCH   1   2
BRANCH   1  22
ATOM     22  O   UNL A   1      35.209  29.675  28.039  1.00  0.00    -0.458 OA
BRANCH  22  23
ATOM     23  C   UNL A   1      36.013  30.471  28.772  1.00  0.00     0.338 C 
ATOM     24  O   UNL A   1      35.710  31.414  29.485  1.00  0.00    -0.246 OA
BRANCH  23  25
ATOM     25  C   UNL A   1      37.362  29.929  28.732  1.00  0.00     0.060 A 
ATOM     26  C   UNL A   1      38.010  29.703  29.946  1.00  0.00     0.016 A 
ATOM     27  C   UNL A   1      38.010  29.753  27.517  1.00  0.00     0.016 A 
ATOM     28  C   UNL A   1      39.352  29.360  29.958  1.00  0.00     0.010 A 
ATOM     29  C   UNL A   1      39.331  29.322  27.528  1.00  0.00     0.010 A 
ATOM     30  C   UNL A   1      40.014  29.137  28.746  1.00  0.00    -0.014 A 
BRANCH  30  31
ATOM     31  C   UNL A   1      41.421  28.684  28.712  1.00  0.00     0.031 A 
ATOM     32  C   UNL A   1      42.518  29.699  28.808  1.00  0.00     0.074 A 
ATOM     33  C   UNL A   1      41.692  27.384  28.490  1.00  0.00     0.049 A 
ATOM     34  N   UNL A   1      43.765  29.605  28.440  1.00  0.00    -0.248 NA
ATOM     35  C   UNL A   1      42.146  31.009  29.369  1.00  0.00     0.031 C 
ATOM     36  C   UNL A   1      40.700  26.308  28.437  1.00  0.00     0.029 A 
ATOM     37  N   UNL A   1      42.880  26.755  28.227  1.00  0.00    -0.354 N 
ATOM     38  C   UNL A   1      44.315  30.863  28.652  1.00  0.00     0.074 A 
ATOM     39  C   UNL A   1      43.267  31.697  29.204  1.00  0.00     0.031 C 
ATOM     40  C   UNL A   1      41.317  25.155  28.145  1.00  0.00     0.029 A 
ATOM     41  C   UNL A   1      42.726  25.430  27.896  1.00  0.00     0.049 A 
ATOM     42  H   UNL A   1      43.755  27.206  28.269  1.00  0.00     0.167 HD
ATOM     43  C   UNL A   1      45.574  31.278  28.379  1.00  0.00     0.037 A 
ATOM     44  C   UNL A   1      43.603  24.554  27.374  1.00  0.00     0.037 A 
ATOM     45  C   UNL A   1      46.592  30.407  27.851  1.00  0.00     0.049 A 
ATOM     46  C   UNL A   1      44.993  25.028  27.073  1.00  0.00     0.074 A 
ATOM     47  C   UNL A   1      47.903  30.702  27.526  1.00  0.00     0.029 A 
ATOM     48  N   UNL A   1      46.405  29.057  27.579  1.00  0.00    -0.354 N 
ATOM     49  N   UNL A   1      45.493  26.234  27.209  1.00  0.00    -0.248 NA
ATOM     50  C   UNL A   1      45.932  24.038  26.536  1.00  0.00     0.031 C 
ATOM     51  C   UNL A   1      48.502  29.535  27.036  1.00  0.00     0.029 A 
ATOM     52  C   UNL A   1      47.576  28.503  27.091  1.00  0.00     0.049 A 
ATOM     53  H   UNL A   1      45.563  28.565  27.714  1.00  0.00     0.167 HD
ATOM     54  C   UNL A   1      46.813  26.148  26.786  1.00  0.00     0.074 A 
ATOM     55  C   UNL A   1      47.032  24.768  26.397  1.00  0.00     0.031 C 
ATOM     56  C   UNL A   1      47.757  27.119  26.726  1.00  0.00     0.037 A 
BRANCH  43  57
ATOM     57  C   UNL A   1      45.882  32.735  28.585  1.00  0.00     0.058 A 
ATOM     58  C   UNL A   1      45.688  33.692  27.577  1.00  0.00     0.135 A 
ATOM     59  C   UNL A   1      46.412  33.176  29.810  1.00  0.00     0.135 A 
ATOM     60  F   UNL A   1      45.201  33.324  26.382  1.00  0.00    -0.206 F 
ATOM     61  C   UNL A   1      46.050  35.025  27.759  1.00  0.00     0.059 A 
ATOM     62  C   UNL A   1      46.759  34.507  30.022  1.00  0.00     0.059 A 
ATOM     63  F   UNL A   1      46.621  32.304  30.810  1.00  0.00    -0.206 F 
ATOM     64  C   UNL A   1      46.597  35.420  28.981  1.00  0.00     0.060 A 
BRANCH  64  65
ATOM     65  S   UNL A   1      47.109  37.139  29.191  1.00  0.00     0.124 S 
ATOM     66  O   UNL A   1      46.268  37.813  28.207  1.00  0.00    -0.237 OA
ATOM     67  O   UNL A   1      46.780  37.399  30.589  1.00  0.00    -0.237 OA
ATOM     68  O   UNL A   1      48.535  37.107  28.882  1.00  0.00    -0.744 OA
ENDBRANCH  64  65
ENDBRANCH  43  57
BRANCH  44  69
ATOM     69  C   UNL A   1      43.154  23.169  27.076  1.00  0.00     0.058 A 
ATOM     70  C   UNL A   1      43.011  22.730  25.754  1.00  0.00     0.135 A 
ATOM     71  C   UNL A   1      42.970  22.228  28.103  1.00  0.00     0.135 A 
ATOM     72  F   UNL A   1      43.176  23.593  24.740  1.00  0.00    -0.206 F 
ATOM     73  C   UNL A   1      42.717  21.403  25.455  1.00  0.00     0.059 A 
ATOM     74  C   UNL A   1      42.698  20.891  27.830  1.00  0.00     0.059 A 
ATOM     75  F   UNL A   1      43.118  22.595  29.387  1.00  0.00    -0.206 F 
ATOM     76  C   UNL A   1      42.575  20.488  26.501  1.00  0.00     0.060 A 
BRANCH  76  77
ATOM     77  S   UNL A   1      42.307  18.746  26.100  1.00  0.00     0.124 S 
ATOM     78  O   UNL A   1      40.901  18.747  25.715  1.00  0.00    -0.237 OA
ATOM     79  O   UNL A   1      43.266  18.529  25.020  1.00  0.00    -0.237 OA
ATOM     80  O   UNL A   1      42.621  18.063  27.351  1.00  0.00    -0.744 OA
ENDBRANCH  76  77
ENDBRANCH  44  69
BRANCH  56  81
ATOM     81  C   UNL A   1      49.122  26.710  26.263  1.00  0.00     0.058 A 
ATOM     82  C   UNL A   1      49.533  26.893  24.935  1.00  0.00     0.135 A 
ATOM     83  C   UNL A   1      50.051  26.195  27.181  1.00  0.00     0.135 A 
ATOM     84  F   UNL A   1      48.675  27.374  24.022  1.00  0.00    -0.206 F 
ATOM     85  C   UNL A   1      50.824  26.574  24.529  1.00  0.00     0.059 A 
ATOM     86  C   UNL A   1      51.351  25.886  26.801  1.00  0.00     0.059 A 
ATOM     87  F   UNL A   1      49.701  26.007  28.463  1.00  0.00    -0.206 F 
ATOM     88  C   UNL A   1      51.726  26.076  25.471  1.00  0.00     0.060 A 
BRANCH  88  89
ATOM     89  S   UNL A   1      53.418  25.720  24.949  1.00  0.00     0.124 S 
ATOM     90  O   UNL A   1      53.392  26.154  23.557  1.00  0.00    -0.237 OA
ATOM     91  O   UNL A   1      54.207  26.547  25.857  1.00  0.00    -0.237 OA
ATOM     92  O   UNL A   1      53.540  24.280  25.159  1.00  0.00    -0.744 OA
ENDBRANCH  88  89
ENDBRANCH  56  81
ENDBRANCH  30  31
ENDBRANCH  23  25
ENDBRANCH  22  23
ENDBRANCH   1  22
TORSDOF 18
ENDMDL
