MODEL 1
REMARK VINA RESULT:     -10.0      0.000      0.000
REMARK SMILES CC[C@@H](C)CNC(=O)N1CCO[C@@H](CC(=O)OCCOC(=O)c2ccc(-c3c4nc(c(-c5c(F)cc(S(=O)(=O)[O-])cc5F)c5ccc([nH]5)c(-c5c(F)cc(S(=O)(=O)[O-])cc5F)c5nc(c(-c6c(F)cc(S(=O)(=O)[O-])cc6F)c6ccc3[nH]6)C=C5)C=C4)cc2)C1
REMARK SMILES IDX 18 1 17 2 15 3 16 4 14 5 13 6 9 7 10 8 89 9 11 10 12 11 7 12
REMARK SMILES IDX 6 13 8 15 5 16 3 17 4 18 2 19 1 20 19 21 20 22 21 23 22 24
REMARK SMILES IDX 23 25 24 26 88 27 25 28 87 29 26 30 27 31 28 32 81 33 29 34
REMARK SMILES IDX 86 35 80 36 82 37 30 38 85 39 79 40 78 41 31 43 65 44 44 45
REMARK SMILES IDX 64 46 45 47 48 48 63 49 83 50 46 51 47 52 62 54 84 55 49 56
REMARK SMILES IDX 32 57 33 58 42 59 34 60 35 61 41 62 43 63 36 64 37 65 38 66
REMARK SMILES IDX 39 67 40 68 66 69 67 70 76 71 68 72 69 73 75 74 77 75 70 76
REMARK SMILES IDX 71 77 72 78 73 79 74 80 50 81 51 82 60 83 52 84 53 85 59 86
REMARK SMILES IDX 61 87 54 88 55 89 56 90 57 91 58 92
REMARK H PARENT 6 14 82 42 48 53
REMARK Flexibility Score: inf
ROOT
ATOM      1  C   UNL A   1      34.410  32.249  28.061  1.00  0.00     0.274 C 
ENDROOT
BRANCH   1   2
ATOM      2  O   UNL A   1      34.292  33.656  27.775  1.00  0.00    -0.462 OA
BRANCH   2   3
ATOM      3  C   UNL A   1      33.088  34.232  28.012  1.00  0.00     0.308 C 
ATOM      4  O   UNL A   1      32.017  33.805  27.602  1.00  0.00    -0.252 OA
BRANCH   3   5
ATOM      5  C   UNL A   1      33.219  35.523  28.778  1.00  0.00     0.156 C 
BRANCH   5   6
ATOM      6  C   UNL A   1      33.210  35.381  30.299  1.00  0.00     0.149 C 
ATOM      7  N   UNL A   1      34.527  34.770  32.305  1.00  0.00    -0.320 N 
ATOM      8  C   UNL A   1      34.403  36.141  32.791  1.00  0.00     0.150 C 
ATOM      9  C   UNL A   1      34.476  34.678  30.846  1.00  0.00     0.154 C 
ATOM     10  C   UNL A   1      33.096  36.734  32.269  1.00  0.00     0.182 C 
ATOM     11  O   UNL A   1      33.103  36.730  30.830  1.00  0.00    -0.374 OA
BRANCH   7  12
ATOM     12  C   UNL A   1      34.881  33.671  33.028  1.00  0.00     0.317 C 
ATOM     13  N   UNL A   1      36.058  33.045  32.802  1.00  0.00    -0.338 N 
ATOM     14  H   UNL A   1      36.075  32.099  33.075  1.00  0.00     0.165 HD
ATOM     15  O   UNL A   1      34.167  33.213  33.924  1.00  0.00    -0.249 OA
BRANCH  13  16
ATOM     16  C   UNL A   1      37.304  33.524  32.225  1.00  0.00     0.121 C 
BRANCH  16  17
ATOM     17  C   UNL A   1      38.534  32.715  32.680  1.00  0.00     0.005 C 
ATOM     18  C   UNL A   1      38.155  31.917  33.934  1.00  0.00     0.009 C 
BRANCH  17  19
ATOM     19  C   UNL A   1      39.743  33.639  32.927  1.00  0.00     0.002 C 
ATOM     20  C   UNL A   1      40.847  33.504  31.886  1.00  0.00     0.004 C 
ENDBRANCH  17  19
ENDBRANCH  16  17
ENDBRANCH  13  16
ENDBRANCH   7  12
ENDBRANCH   5   6
ENDBRANCH   3   5
ENDBRANCH   2   3
ENDBRANCH   1   2
BRANCH   1  21
ATOM     21  C   UNL A   1      35.594  31.961  28.988  1.00  0.00     0.275 C 
BRANCH  21  22
ATOM     22  O   UNL A   1      35.694  30.557  29.292  1.00  0.00    -0.458 OA
BRANCH  22  23
ATOM     23  C   UNL A   1      36.406  30.250  30.402  1.00  0.00     0.338 C 
ATOM     24  O   UNL A   1      35.991  30.150  31.542  1.00  0.00    -0.246 OA
BRANCH  23  25
ATOM     25  C   UNL A   1      37.781  29.902  30.010  1.00  0.00     0.060 A 
ATOM     26  C   UNL A   1      38.712  29.636  31.020  1.00  0.00     0.016 A 
ATOM     27  C   UNL A   1      38.159  29.869  28.667  1.00  0.00     0.016 A 
ATOM     28  C   UNL A   1      40.024  29.311  30.686  1.00  0.00     0.010 A 
ATOM     29  C   UNL A   1      39.476  29.542  28.335  1.00  0.00     0.010 A 
ATOM     30  C   UNL A   1      40.415  29.255  29.342  1.00  0.00    -0.014 A 
BRANCH  30  31
ATOM     31  C   UNL A   1      41.800  28.869  28.985  1.00  0.00     0.031 A 
ATOM     32  C   UNL A   1      42.895  29.894  28.975  1.00  0.00     0.074 A 
ATOM     33  C   UNL A   1      42.061  27.592  28.646  1.00  0.00     0.049 A 
ATOM     34  N   UNL A   1      44.140  29.767  28.599  1.00  0.00    -0.248 NA
ATOM     35  C   UNL A   1      42.540  31.242  29.446  1.00  0.00     0.031 C 
ATOM     36  C   UNL A   1      41.078  26.507  28.640  1.00  0.00     0.029 A 
ATOM     37  N   UNL A   1      43.222  26.997  28.224  1.00  0.00    -0.354 N 
ATOM     38  C   UNL A   1      44.719  31.019  28.771  1.00  0.00     0.074 A 
ATOM     39  C   UNL A   1      43.681  31.895  29.273  1.00  0.00     0.031 C 
ATOM     40  C   UNL A   1      41.675  25.380  28.219  1.00  0.00     0.029 A 
ATOM     41  C   UNL A   1      43.065  25.674  27.886  1.00  0.00     0.049 A 
ATOM     42  H   UNL A   1      44.083  27.469  28.170  1.00  0.00     0.167 HD
ATOM     43  C   UNL A   1      45.997  31.396  28.530  1.00  0.00     0.037 A 
ATOM     44  C   UNL A   1      43.934  24.805  27.333  1.00  0.00     0.037 A 
ATOM     45  C   UNL A   1      47.021  30.511  28.035  1.00  0.00     0.049 A 
ATOM     46  C   UNL A   1      45.331  25.262  27.020  1.00  0.00     0.074 A 
ATOM     47  C   UNL A   1      48.359  30.786  27.807  1.00  0.00     0.029 A 
ATOM     48  N   UNL A   1      46.820  29.186  27.677  1.00  0.00    -0.354 N 
ATOM     49  N   UNL A   1      45.875  26.439  27.218  1.00  0.00    -0.248 NA
ATOM     50  C   UNL A   1      46.230  24.278  26.401  1.00  0.00     0.031 C 
ATOM     51  C   UNL A   1      48.954  29.641  27.264  1.00  0.00     0.029 A 
ATOM     52  C   UNL A   1      47.999  28.640  27.194  1.00  0.00     0.049 A 
ATOM     53  H   UNL A   1      45.965  28.704  27.754  1.00  0.00     0.167 HD
ATOM     54  C   UNL A   1      47.179  26.339  26.750  1.00  0.00     0.074 A 
ATOM     55  C   UNL A   1      47.350  24.979  26.280  1.00  0.00     0.031 C 
ATOM     56  C   UNL A   1      48.147  27.288  26.711  1.00  0.00     0.037 A 
BRANCH  43  57
ATOM     57  C   UNL A   1      46.352  32.836  28.768  1.00  0.00     0.058 A 
ATOM     58  C   UNL A   1      46.832  33.287  30.007  1.00  0.00     0.135 A 
ATOM     59  C   UNL A   1      46.236  33.776  27.730  1.00  0.00     0.135 A 
ATOM     60  F   UNL A   1      46.951  32.435  31.038  1.00  0.00    -0.206 F 
ATOM     61  C   UNL A   1      47.156  34.625  30.218  1.00  0.00     0.059 A 
ATOM     62  C   UNL A   1      46.574  35.113  27.912  1.00  0.00     0.059 A 
ATOM     63  F   UNL A   1      45.781  33.397  26.525  1.00  0.00    -0.206 F 
ATOM     64  C   UNL A   1      47.019  35.532  29.165  1.00  0.00     0.060 A 
BRANCH  64  65
ATOM     65  S   UNL A   1      47.430  37.265  29.458  1.00  0.00     0.124 S 
ATOM     66  O   UNL A   1      46.956  37.448  30.826  1.00  0.00    -0.237 OA
ATOM     67  O   UNL A   1      48.879  37.278  29.283  1.00  0.00    -0.237 OA
ATOM     68  O   UNL A   1      46.672  37.972  28.431  1.00  0.00    -0.744 OA
ENDBRANCH  64  65
ENDBRANCH  43  57
BRANCH  44  69
ATOM     69  C   UNL A   1      43.483  23.427  27.007  1.00  0.00     0.058 A 
ATOM     70  C   UNL A   1      43.284  23.023  25.680  1.00  0.00     0.135 A 
ATOM     71  C   UNL A   1      43.283  22.474  28.019  1.00  0.00     0.135 A 
ATOM     72  F   UNL A   1      43.451  23.902  24.679  1.00  0.00    -0.206 F 
ATOM     73  C   UNL A   1      42.905  21.722  25.364  1.00  0.00     0.059 A 
ATOM     74  C   UNL A   1      42.926  21.162  27.727  1.00  0.00     0.059 A 
ATOM     75  F   UNL A   1      43.470  22.809  29.305  1.00  0.00    -0.206 F 
ATOM     76  C   UNL A   1      42.735  20.796  26.396  1.00  0.00     0.060 A 
BRANCH  76  77
ATOM     77  S   UNL A   1      42.318  19.091  25.973  1.00  0.00     0.124 S 
ATOM     78  O   UNL A   1      40.878  19.184  25.766  1.00  0.00    -0.237 OA
ATOM     79  O   UNL A   1      43.121  18.864  24.777  1.00  0.00    -0.237 OA
ATOM     80  O   UNL A   1      42.739  18.341  27.153  1.00  0.00    -0.744 OA
ENDBRANCH  76  77
ENDBRANCH  44  69
BRANCH  56  81
ATOM     81  C   UNL A   1      49.477  26.891  26.133  1.00  0.00     0.058 A 
ATOM     82  C   UNL A   1      50.433  26.212  26.904  1.00  0.00     0.135 A 
ATOM     83  C   UNL A   1      49.780  27.149  24.787  1.00  0.00     0.135 A 
ATOM     84  F   UNL A   1      50.195  25.950  28.199  1.00  0.00    -0.206 F 
ATOM     85  C   UNL A   1      51.652  25.815  26.364  1.00  0.00     0.059 A 
ATOM     86  C   UNL A   1      50.984  26.740  24.220  1.00  0.00     0.059 A 
ATOM     87  F   UNL A   1      48.896  27.788  24.005  1.00  0.00    -0.206 F 
ATOM     88  C   UNL A   1      51.918  26.083  25.020  1.00  0.00     0.060 A 
BRANCH  88  89
ATOM     89  S   UNL A   1      53.488  25.530  24.320  1.00  0.00     0.124 S 
ATOM     90  O   UNL A   1      53.274  25.767  22.896  1.00  0.00    -0.237 OA
ATOM     91  O   UNL A   1      54.450  26.413  24.972  1.00  0.00    -0.237 OA
ATOM     92  O   UNL A   1      53.563  24.129  24.720  1.00  0.00    -0.744 OA
ENDBRANCH  88  89
ENDBRANCH  56  81
ENDBRANCH  30  31
ENDBRANCH  23  25
ENDBRANCH  22  23
ENDBRANCH  21  22
ENDBRANCH   1  21
TORSDOF 19
ENDMDL
MODEL 2
REMARK VINA RESULT:      -9.9      4.565      6.773
REMARK SMILES CC[C@@H](C)CNC(=O)N1CCO[C@@H](CC(=O)OCCOC(=O)c2ccc(-c3c4nc(c(-c5c(F)cc(S(=O)(=O)[O-])cc5F)c5ccc([nH]5)c(-c5c(F)cc(S(=O)(=O)[O-])cc5F)c5nc(c(-c6c(F)cc(S(=O)(=O)[O-])cc6F)c6ccc3[nH]6)C=C5)C=C4)cc2)C1
REMARK SMILES IDX 18 1 17 2 15 3 16 4 14 5 13 6 9 7 10 8 89 9 11 10 12 11 7 12
REMARK SMILES IDX 6 13 8 15 5 16 3 17 4 18 2 19 1 20 19 21 20 22 21 23 22 24
REMARK SMILES IDX 23 25 24 26 88 27 25 28 87 29 26 30 27 31 28 32 81 33 29 34
REMARK SMILES IDX 86 35 80 36 82 37 30 38 85 39 79 40 78 41 31 43 65 44 44 45
REMARK SMILES IDX 64 46 45 47 48 48 63 49 83 50 46 51 47 52 62 54 84 55 49 56
REMARK SMILES IDX 32 57 33 58 42 59 34 60 35 61 41 62 43 63 36 64 37 65 38 66
REMARK SMILES IDX 39 67 40 68 66 69 67 70 76 71 68 72 69 73 75 74 77 75 70 76
REMARK SMILES IDX 71 77 72 78 73 79 74 80 50 81 51 82 60 83 52 84 53 85 59 86
REMARK SMILES IDX 61 87 54 88 55 89 56 90 57 91 58 92
REMARK H PARENT 6 14 82 42 48 53
REMARK Flexibility Score: inf
ROOT
ATOM      1  C   UNL A   1      31.735  28.906  26.303  1.00  0.00     0.274 C 
ENDROOT
BRANCH   1   2
ATOM      2  O   UNL A   1      31.314  28.463  24.998  1.00  0.00    -0.462 OA
BRANCH   2   3
ATOM      3  C   UNL A   1      30.885  27.181  24.893  1.00  0.00     0.308 C 
ATOM      4  O   UNL A   1      30.350  26.703  23.901  1.00  0.00    -0.252 OA
BRANCH   3   5
ATOM      5  C   UNL A   1      31.065  26.417  26.178  1.00  0.00     0.156 C 
BRANCH   5   6
ATOM      6  C   UNL A   1      31.741  25.053  26.036  1.00  0.00     0.149 C 
ATOM      7  N   UNL A   1      33.892  23.826  26.034  1.00  0.00    -0.320 N 
ATOM      8  C   UNL A   1      33.459  23.088  27.217  1.00  0.00     0.150 C 
ATOM      9  C   UNL A   1      33.283  25.153  25.940  1.00  0.00     0.154 C 
ATOM     10  C   UNL A   1      31.936  22.971  27.196  1.00  0.00     0.182 C 
ATOM     11  O   UNL A   1      31.350  24.284  27.206  1.00  0.00    -0.374 OA
BRANCH   7  12
ATOM     12  C   UNL A   1      34.908  23.500  25.188  1.00  0.00     0.317 C 
ATOM     13  N   UNL A   1      34.748  22.532  24.257  1.00  0.00    -0.338 N 
ATOM     14  H   UNL A   1      35.587  22.113  23.958  1.00  0.00     0.165 HD
ATOM     15  O   UNL A   1      35.999  24.076  25.214  1.00  0.00    -0.249 OA
BRANCH  13  16
ATOM     16  C   UNL A   1      33.553  22.001  23.620  1.00  0.00     0.121 C 
BRANCH  16  17
ATOM     17  C   UNL A   1      33.079  20.670  24.234  1.00  0.00     0.005 C 
ATOM     18  C   UNL A   1      34.300  19.929  24.794  1.00  0.00     0.009 C 
BRANCH  17  19
ATOM     19  C   UNL A   1      32.318  19.823  23.195  1.00  0.00     0.002 C 
ATOM     20  C   UNL A   1      32.545  18.323  23.334  1.00  0.00     0.004 C 
ENDBRANCH  17  19
ENDBRANCH  16  17
ENDBRANCH  13  16
ENDBRANCH   7  12
ENDBRANCH   5   6
ENDBRANCH   3   5
ENDBRANCH   2   3
ENDBRANCH   1   2
BRANCH   1  21
ATOM     21  C   UNL A   1      33.121  29.554  26.257  1.00  0.00     0.275 C 
BRANCH  21  22
ATOM     22  O   UNL A   1      33.858  29.304  27.468  1.00  0.00    -0.458 OA
BRANCH  22  23
ATOM     23  C   UNL A   1      34.491  30.378  27.998  1.00  0.00     0.338 C 
ATOM     24  O   UNL A   1      33.998  31.449  28.301  1.00  0.00    -0.246 OA
BRANCH  23  25
ATOM     25  C   UNL A   1      35.884  30.015  28.301  1.00  0.00     0.060 A 
ATOM     26  C   UNL A   1      36.824  30.073  27.268  1.00  0.00     0.016 A 
ATOM     27  C   UNL A   1      36.255  29.594  29.579  1.00  0.00     0.016 A 
ATOM     28  C   UNL A   1      38.151  29.729  27.516  1.00  0.00     0.010 A 
ATOM     29  C   UNL A   1      37.587  29.250  29.826  1.00  0.00     0.010 A 
ATOM     30  C   UNL A   1      38.544  29.321  28.798  1.00  0.00    -0.014 A 
BRANCH  30  31
ATOM     31  C   UNL A   1      39.962  28.996  29.073  1.00  0.00     0.031 A 
ATOM     32  C   UNL A   1      40.889  30.043  29.617  1.00  0.00     0.074 A 
ATOM     33  C   UNL A   1      40.417  27.757  28.807  1.00  0.00     0.049 A 
ATOM     34  N   UNL A   1      42.177  29.974  29.829  1.00  0.00    -0.248 NA
ATOM     35  C   UNL A   1      40.287  31.340  29.963  1.00  0.00     0.031 C 
ATOM     36  C   UNL A   1      39.601  26.654  28.296  1.00  0.00     0.029 A 
ATOM     37  N   UNL A   1      41.676  27.224  28.912  1.00  0.00    -0.354 N 
ATOM     38  C   UNL A   1      42.548  31.221  30.319  1.00  0.00     0.074 A 
ATOM     39  C   UNL A   1      41.348  32.031  30.359  1.00  0.00     0.031 C 
ATOM     40  C   UNL A   1      40.385  25.579  28.117  1.00  0.00     0.029 A 
ATOM     41  C   UNL A   1      41.761  25.929  28.457  1.00  0.00     0.049 A 
ATOM     42  H   UNL A   1      42.444  27.718  29.277  1.00  0.00     0.167 HD
ATOM     43  C   UNL A   1      43.777  31.645  30.698  1.00  0.00     0.037 A 
ATOM     44  C   UNL A   1      42.831  25.127  28.297  1.00  0.00     0.037 A 
ATOM     45  C   UNL A   1      44.962  30.826  30.658  1.00  0.00     0.049 A 
ATOM     46  C   UNL A   1      44.194  25.639  28.670  1.00  0.00     0.074 A 
ATOM     47  C   UNL A   1      46.245  31.148  31.069  1.00  0.00     0.029 A 
ATOM     48  N   UNL A   1      45.016  29.530  30.166  1.00  0.00    -0.354 N 
ATOM     49  N   UNL A   1      44.527  26.809  29.163  1.00  0.00    -0.248 NA
ATOM     50  C   UNL A   1      45.328  24.729  28.459  1.00  0.00     0.031 C 
ATOM     51  C   UNL A   1      47.082  30.065  30.778  1.00  0.00     0.029 A 
ATOM     52  C   UNL A   1      46.314  29.051  30.227  1.00  0.00     0.049 A 
ATOM     53  H   UNL A   1      44.243  29.024  29.823  1.00  0.00     0.167 HD
ATOM     54  C   UNL A   1      45.907  26.776  29.321  1.00  0.00     0.074 A 
ATOM     55  C   UNL A   1      46.344  25.462  28.894  1.00  0.00     0.031 C 
ATOM     56  C   UNL A   1      46.737  27.746  29.778  1.00  0.00     0.037 A 
BRANCH  43  57
ATOM     57  C   UNL A   1      43.909  33.069  31.158  1.00  0.00     0.058 A 
ATOM     58  C   UNL A   1      43.676  33.442  32.491  1.00  0.00     0.135 A 
ATOM     59  C   UNL A   1      44.301  34.072  30.257  1.00  0.00     0.135 A 
ATOM     60  F   UNL A   1      43.286  32.526  33.392  1.00  0.00    -0.206 F 
ATOM     61  C   UNL A   1      43.798  34.765  32.908  1.00  0.00     0.059 A 
ATOM     62  C   UNL A   1      44.450  35.397  30.656  1.00  0.00     0.059 A 
ATOM     63  F   UNL A   1      44.536  33.769  28.970  1.00  0.00    -0.206 F 
ATOM     64  C   UNL A   1      44.181  35.737  31.981  1.00  0.00     0.060 A 
BRANCH  64  65
ATOM     65  S   UNL A   1      44.323  37.450  32.532  1.00  0.00     0.124 S 
ATOM     66  O   UNL A   1      43.434  37.456  33.690  1.00  0.00    -0.237 OA
ATOM     67  O   UNL A   1      45.747  37.569  32.826  1.00  0.00    -0.237 OA
ATOM     68  O   UNL A   1      43.858  38.216  31.381  1.00  0.00    -0.744 OA
ENDBRANCH  64  65
ENDBRANCH  43  57
BRANCH  44  69
ATOM     69  C   UNL A   1      42.650  23.770  27.719  1.00  0.00     0.058 A 
ATOM     70  C   UNL A   1      42.673  23.563  26.334  1.00  0.00     0.135 A 
ATOM     71  C   UNL A   1      42.491  22.648  28.548  1.00  0.00     0.135 A 
ATOM     72  F   UNL A   1      42.810  24.607  25.502  1.00  0.00    -0.206 F 
ATOM     73  C   UNL A   1      42.547  22.289  25.787  1.00  0.00     0.059 A 
ATOM     74  C   UNL A   1      42.387  21.363  28.026  1.00  0.00     0.059 A 
ATOM     75  F   UNL A   1      42.472  22.794  29.882  1.00  0.00    -0.206 F 
ATOM     76  C   UNL A   1      42.412  21.194  26.643  1.00  0.00     0.060 A 
BRANCH  76  77
ATOM     77  S   UNL A   1      42.327  19.538  25.927  1.00  0.00     0.124 S 
ATOM     78  O   UNL A   1      42.774  18.713  27.043  1.00  0.00    -0.237 OA
ATOM     79  O   UNL A   1      40.916  19.426  25.576  1.00  0.00    -0.237 OA
ATOM     80  O   UNL A   1      43.243  19.616  24.793  1.00  0.00    -0.744 OA
ENDBRANCH  76  77
ENDBRANCH  44  69
BRANCH  56  81
ATOM     81  C   UNL A   1      48.205  27.427  29.831  1.00  0.00     0.058 A 
ATOM     82  C   UNL A   1      49.054  27.719  28.753  1.00  0.00     0.135 A 
ATOM     83  C   UNL A   1      48.776  26.869  30.985  1.00  0.00     0.135 A 
ATOM     84  F   UNL A   1      48.555  28.244  27.622  1.00  0.00    -0.206 F 
ATOM     85  C   UNL A   1      50.419  27.453  28.810  1.00  0.00     0.059 A 
ATOM     86  C   UNL A   1      50.142  26.617  31.074  1.00  0.00     0.059 A 
ATOM     87  F   UNL A   1      48.009  26.579  32.048  1.00  0.00    -0.206 F 
ATOM     88  C   UNL A   1      50.954  26.903  29.976  1.00  0.00     0.060 A 
BRANCH  88  89
ATOM     89  S   UNL A   1      52.732  26.597  30.053  1.00  0.00     0.124 S 
ATOM     90  O   UNL A   1      53.241  27.915  30.421  1.00  0.00    -0.237 OA
ATOM     91  O   UNL A   1      52.829  25.569  31.084  1.00  0.00    -0.237 OA
ATOM     92  O   UNL A   1      53.058  26.153  28.702  1.00  0.00    -0.744 OA
ENDBRANCH  88  89
ENDBRANCH  56  81
ENDBRANCH  30  31
ENDBRANCH  23  25
ENDBRANCH  22  23
ENDBRANCH  21  22
ENDBRANCH   1  21
TORSDOF 19
ENDMDL
MODEL 3
REMARK VINA RESULT:      -9.9      4.457      6.425
REMARK SMILES CC[C@@H](C)CNC(=O)N1CCO[C@@H](CC(=O)OCCOC(=O)c2ccc(-c3c4nc(c(-c5c(F)cc(S(=O)(=O)[O-])cc5F)c5ccc([nH]5)c(-c5c(F)cc(S(=O)(=O)[O-])cc5F)c5nc(c(-c6c(F)cc(S(=O)(=O)[O-])cc6F)c6ccc3[nH]6)C=C5)C=C4)cc2)C1
REMARK SMILES IDX 18 1 17 2 15 3 16 4 14 5 13 6 9 7 10 8 89 9 11 10 12 11 7 12
REMARK SMILES IDX 6 13 8 15 5 16 3 17 4 18 2 19 1 20 19 21 20 22 21 23 22 24
REMARK SMILES IDX 23 25 24 26 88 27 25 28 87 29 26 30 27 31 28 32 81 33 29 34
REMARK SMILES IDX 86 35 80 36 82 37 30 38 85 39 79 40 78 41 31 43 65 44 44 45
REMARK SMILES IDX 64 46 45 47 48 48 63 49 83 50 46 51 47 52 62 54 84 55 49 56
REMARK SMILES IDX 32 57 33 58 42 59 34 60 35 61 41 62 43 63 36 64 37 65 38 66
REMARK SMILES IDX 39 67 40 68 66 69 67 70 76 71 68 72 69 73 75 74 77 75 70 76
REMARK SMILES IDX 71 77 72 78 73 79 74 80 50 81 51 82 60 83 52 84 53 85 59 86
REMARK SMILES IDX 61 87 54 88 55 89 56 90 57 91 58 92
REMARK H PARENT 6 14 82 42 48 53
REMARK Flexibility Score: inf
ROOT
ATOM      1  C   UNL A   1      32.295  29.170  25.612  1.00  0.00     0.274 C 
ENDROOT
BRANCH   1   2
ATOM      2  O   UNL A   1      31.423  28.048  25.852  1.00  0.00    -0.462 OA
BRANCH   2   3
ATOM      3  C   UNL A   1      30.706  27.591  24.798  1.00  0.00     0.308 C 
ATOM      4  O   UNL A   1      30.435  28.247  23.800  1.00  0.00    -0.252 OA
BRANCH   3   5
ATOM      5  C   UNL A   1      30.196  26.191  25.023  1.00  0.00     0.156 C 
BRANCH   5   6
ATOM      6  C   UNL A   1      31.262  25.097  24.984  1.00  0.00     0.149 C 
ATOM      7  N   UNL A   1      32.248  23.159  26.170  1.00  0.00    -0.320 N 
ATOM      8  C   UNL A   1      31.827  22.290  25.075  1.00  0.00     0.150 C 
ATOM      9  C   UNL A   1      31.388  24.332  26.324  1.00  0.00     0.154 C 
ATOM     10  C   UNL A   1      31.801  23.101  23.781  1.00  0.00     0.182 C 
ATOM     11  O   UNL A   1      30.874  24.193  23.914  1.00  0.00    -0.374 OA
BRANCH   7  12
ATOM     12  C   UNL A   1      33.173  22.882  27.130  1.00  0.00     0.317 C 
ATOM     13  N   UNL A   1      34.493  23.050  26.887  1.00  0.00    -0.338 N 
ATOM     14  H   UNL A   1      35.084  22.504  27.454  1.00  0.00     0.165 HD
ATOM     15  O   UNL A   1      32.858  22.491  28.256  1.00  0.00    -0.249 OA
BRANCH  13  16
ATOM     16  C   UNL A   1      35.193  23.898  25.934  1.00  0.00     0.121 C 
BRANCH  16  17
ATOM     17  C   UNL A   1      36.458  23.240  25.352  1.00  0.00     0.005 C 
ATOM     18  C   UNL A   1      36.326  21.718  25.495  1.00  0.00     0.009 C 
BRANCH  17  19
ATOM     19  C   UNL A   1      37.727  23.776  26.043  1.00  0.00     0.002 C 
ATOM     20  C   UNL A   1      38.795  22.716  26.283  1.00  0.00     0.004 C 
ENDBRANCH  17  19
ENDBRANCH  16  17
ENDBRANCH  13  16
ENDBRANCH   7  12
ENDBRANCH   5   6
ENDBRANCH   3   5
ENDBRANCH   2   3
ENDBRANCH   1   2
BRANCH   1  21
ATOM     21  C   UNL A   1      33.723  28.885  26.086  1.00  0.00     0.275 C 
BRANCH  21  22
ATOM     22  O   UNL A   1      33.859  29.096  27.503  1.00  0.00    -0.458 OA
BRANCH  22  23
ATOM     23  C   UNL A   1      34.504  30.230  27.865  1.00  0.00     0.338 C 
ATOM     24  O   UNL A   1      34.022  31.339  28.010  1.00  0.00    -0.246 OA
BRANCH  23  25
ATOM     25  C   UNL A   1      35.897  29.903  28.209  1.00  0.00     0.060 A 
ATOM     26  C   UNL A   1      36.863  29.974  27.201  1.00  0.00     0.016 A 
ATOM     27  C   UNL A   1      36.242  29.501  29.500  1.00  0.00     0.016 A 
ATOM     28  C   UNL A   1      38.190  29.665  27.488  1.00  0.00     0.010 A 
ATOM     29  C   UNL A   1      37.575  29.191  29.786  1.00  0.00     0.010 A 
ATOM     30  C   UNL A   1      38.557  29.276  28.783  1.00  0.00    -0.014 A 
BRANCH  30  31
ATOM     31  C   UNL A   1      39.975  28.987  29.100  1.00  0.00     0.031 A 
ATOM     32  C   UNL A   1      40.858  30.057  29.670  1.00  0.00     0.074 A 
ATOM     33  C   UNL A   1      40.469  27.760  28.848  1.00  0.00     0.049 A 
ATOM     34  N   UNL A   1      42.141  30.021  29.920  1.00  0.00    -0.248 NA
ATOM     35  C   UNL A   1      40.215  31.338  29.999  1.00  0.00     0.031 C 
ATOM     36  C   UNL A   1      39.696  26.637  28.314  1.00  0.00     0.029 A 
ATOM     37  N   UNL A   1      41.737  27.259  28.990  1.00  0.00    -0.354 N 
ATOM     38  C   UNL A   1      42.466  31.276  30.419  1.00  0.00     0.074 A 
ATOM     39  C   UNL A   1      41.246  32.055  30.425  1.00  0.00     0.031 C 
ATOM     40  C   UNL A   1      40.512  25.582  28.157  1.00  0.00     0.029 A 
ATOM     41  C   UNL A   1      41.867  25.967  28.538  1.00  0.00     0.049 A 
ATOM     42  H   UNL A   1      42.481  27.772  29.377  1.00  0.00     0.167 HD
ATOM     43  C   UNL A   1      43.673  31.731  30.834  1.00  0.00     0.037 A 
ATOM     44  C   UNL A   1      42.962  25.192  28.410  1.00  0.00     0.037 A 
ATOM     45  C   UNL A   1      44.879  30.942  30.829  1.00  0.00     0.049 A 
ATOM     46  C   UNL A   1      44.300  25.739  28.822  1.00  0.00     0.074 A 
ATOM     47  C   UNL A   1      46.141  31.297  31.276  1.00  0.00     0.029 A 
ATOM     48  N   UNL A   1      44.979  29.649  30.339  1.00  0.00    -0.354 N 
ATOM     49  N   UNL A   1      44.589  26.916  29.323  1.00  0.00    -0.248 NA
ATOM     50  C   UNL A   1      45.463  24.858  28.643  1.00  0.00     0.031 C 
ATOM     51  C   UNL A   1      47.013  30.235  31.011  1.00  0.00     0.029 A 
ATOM     52  C   UNL A   1      46.288  29.202  30.438  1.00  0.00     0.049 A 
ATOM     53  H   UNL A   1      44.230  29.123  29.974  1.00  0.00     0.167 HD
ATOM     54  C   UNL A   1      45.965  26.918  29.522  1.00  0.00     0.074 A 
ATOM     55  C   UNL A   1      46.447  25.615  29.108  1.00  0.00     0.031 C 
ATOM     56  C   UNL A   1      46.756  27.909  30.002  1.00  0.00     0.037 A 
BRANCH  43  57
ATOM     57  C   UNL A   1      43.755  33.158  31.298  1.00  0.00     0.058 A 
ATOM     58  C   UNL A   1      43.894  34.224  30.395  1.00  0.00     0.135 A 
ATOM     59  C   UNL A   1      43.667  33.465  32.665  1.00  0.00     0.135 A 
ATOM     60  F   UNL A   1      43.995  33.987  29.078  1.00  0.00    -0.206 F 
ATOM     61  C   UNL A   1      43.971  35.543  30.835  1.00  0.00     0.059 A 
ATOM     62  C   UNL A   1      43.721  34.778  33.126  1.00  0.00     0.059 A 
ATOM     63  F   UNL A   1      43.535  32.483  33.571  1.00  0.00    -0.206 F 
ATOM     64  C   UNL A   1      43.889  35.809  32.203  1.00  0.00     0.060 A 
BRANCH  64  65
ATOM     65  S   UNL A   1      44.004  37.523  32.759  1.00  0.00     0.124 S 
ATOM     66  O   UNL A   1      43.823  38.247  31.505  1.00  0.00    -0.237 OA
ATOM     67  O   UNL A   1      42.903  37.619  33.711  1.00  0.00    -0.237 OA
ATOM     68  O   UNL A   1      45.340  37.601  33.341  1.00  0.00    -0.744 OA
ENDBRANCH  64  65
ENDBRANCH  43  57
BRANCH  44  69
ATOM     69  C   UNL A   1      42.832  23.832  27.827  1.00  0.00     0.058 A 
ATOM     70  C   UNL A   1      42.631  22.709  28.642  1.00  0.00     0.135 A 
ATOM     71  C   UNL A   1      42.863  23.635  26.437  1.00  0.00     0.135 A 
ATOM     72  F   UNL A   1      42.606  22.846  29.977  1.00  0.00    -0.206 F 
ATOM     73  C   UNL A   1      42.464  21.438  28.101  1.00  0.00     0.059 A 
ATOM     74  C   UNL A   1      42.676  22.378  25.872  1.00  0.00     0.059 A 
ATOM     75  F   UNL A   1      43.044  24.680  25.613  1.00  0.00    -0.206 F 
ATOM     76  C   UNL A   1      42.481  21.284  26.713  1.00  0.00     0.060 A 
BRANCH  76  77
ATOM     77  S   UNL A   1      42.186  19.644  26.018  1.00  0.00     0.124 S 
ATOM     78  O   UNL A   1      40.758  19.697  25.734  1.00  0.00    -0.237 OA
ATOM     79  O   UNL A   1      43.068  19.639  24.856  1.00  0.00    -0.237 OA
ATOM     80  O   UNL A   1      42.583  18.746  27.098  1.00  0.00    -0.744 OA
ENDBRANCH  76  77
ENDBRANCH  44  69
BRANCH  56  81
ATOM     81  C   UNL A   1      48.229  27.627  30.098  1.00  0.00     0.058 A 
ATOM     82  C   UNL A   1      48.783  27.024  31.237  1.00  0.00     0.135 A 
ATOM     83  C   UNL A   1      49.087  27.917  29.025  1.00  0.00     0.135 A 
ATOM     84  F   UNL A   1      48.007  26.735  32.295  1.00  0.00    -0.206 F 
ATOM     85  C   UNL A   1      50.142  26.733  31.317  1.00  0.00     0.059 A 
ATOM     86  C   UNL A   1      50.444  27.613  29.074  1.00  0.00     0.059 A 
ATOM     87  F   UNL A   1      48.605  28.486  27.909  1.00  0.00    -0.206 F 
ATOM     88  C   UNL A   1      50.964  27.030  30.229  1.00  0.00     0.060 A 
BRANCH  88  89
ATOM     89  S   UNL A   1      52.718  26.614  30.330  1.00  0.00     0.124 S 
ATOM     90  O   UNL A   1      52.998  26.191  28.961  1.00  0.00    -0.237 OA
ATOM     91  O   UNL A   1      53.319  27.879  30.738  1.00  0.00    -0.237 OA
ATOM     92  O   UNL A   1      52.759  25.556  31.334  1.00  0.00    -0.744 OA
ENDBRANCH  88  89
ENDBRANCH  56  81
ENDBRANCH  30  31
ENDBRANCH  23  25
ENDBRANCH  22  23
ENDBRANCH  21  22
ENDBRANCH   1  21
TORSDOF 19
ENDMDL
