MODEL 1
REMARK VINA RESULT:     -11.8      0.000      0.000
REMARK SMILES O=C(C[C@@H]1C[N@@H+]([C@H]2CCO[C@]3(CCOC3)C2)CCO1)OCCOC(=O)c1ccc(-c2c3nc(c(-c4c(F)cc(S(=O)(=O)[O-])cc4F)c4ccc([nH]4)c(-c4c(F)cc(S(=O)(=O)[O-])cc4F)c4nc(c(-c5c(F)cc(S(=O)(=O)[O-])cc5F)c5ccc2[nH]5)C=C4)C=C3)cc1
REMARK SMILES IDX 22 1 21 2 20 3 2 4 1 5 3 6 4 7 5 8 19 9 6 10 18 11 17 12
REMARK SMILES IDX 7 14 8 15 16 16 9 17 11 18 10 19 12 20 15 21 13 22 14 23
REMARK SMILES IDX 23 24 24 25 25 26 26 27 27 28 91 29 28 30 90 31 29 32 30 33
REMARK SMILES IDX 31 34 84 35 32 36 89 37 83 38 85 39 33 40 88 41 82 42 81 43
REMARK SMILES IDX 34 45 68 46 47 47 67 48 48 49 51 50 66 51 86 52 49 53 50 54
REMARK SMILES IDX 65 56 87 57 52 58 35 59 36 60 45 61 37 62 38 63 44 64 46 65
REMARK SMILES IDX 39 66 40 67 41 68 42 69 43 70 69 71 70 72 79 73 71 74 72 75
REMARK SMILES IDX 78 76 80 77 73 78 74 79 75 80 76 81 77 82 53 83 54 84 63 85
REMARK SMILES IDX 55 86 56 87 62 88 64 89 57 90 58 91 59 92 60 93 61 94
REMARK H PARENT 6 13 85 44 51 55
REMARK Flexibility Score: inf
ROOT
ATOM      1  C   UNL A   1      40.750  23.077  26.605  1.00  0.00     0.275 C 
ENDROOT
BRANCH   1   2
ATOM      2  C   UNL A   1      39.940  21.865  26.137  1.00  0.00     0.274 C 
BRANCH   2   3
ATOM      3  O   UNL A   1      38.579  22.216  25.808  1.00  0.00    -0.462 OA
BRANCH   3   4
ATOM      4  C   UNL A   1      37.783  21.503  24.978  1.00  0.00     0.308 C 
ATOM      5  O   UNL A   1      37.880  20.278  24.927  1.00  0.00    -0.252 OA
BRANCH   4   6
ATOM      6  C   UNL A   1      36.741  22.223  24.164  1.00  0.00     0.160 C 
BRANCH   6   7
ATOM      7  C   UNL A   1      35.485  22.389  24.983  1.00  0.00     0.184 C 
ATOM      8  C   UNL A   1      35.484  23.736  25.724  1.00  0.00     0.295 C 
ATOM      9  O   UNL A   1      35.368  21.318  25.938  1.00  0.00    -0.366 OA
ATOM     10  N   UNL A   1      34.213  23.967  26.430  1.00  0.00    -0.328 N 
ATOM     11  C   UNL A   1      34.090  21.414  26.589  1.00  0.00     0.222 C 
ATOM     12  C   UNL A   1      33.875  22.791  27.248  1.00  0.00     0.291 C 
ATOM     13  H   UNL A   1      34.297  24.701  27.134  1.00  0.00     0.348 HD
BRANCH  10  14
ATOM     14  C   UNL A   1      33.191  24.614  25.585  1.00  0.00     0.189 C 
ATOM     15  C   UNL A   1      32.062  25.373  26.302  1.00  0.00     0.093 C 
ATOM     16  C   UNL A   1      33.785  25.491  24.471  1.00  0.00     0.103 C 
ATOM     17  C   UNL A   1      31.075  25.993  25.332  1.00  0.00     0.167 C 
ATOM     18  C   UNL A   1      32.678  26.075  23.572  1.00  0.00     0.099 C 
ATOM     19  O   UNL A   1      31.741  26.802  24.374  1.00  0.00    -0.372 OA
ATOM     20  C   UNL A   1      32.001  25.053  22.669  1.00  0.00     0.066 C 
ATOM     21  C   UNL A   1      33.268  27.020  22.530  1.00  0.00     0.195 C 
ATOM     22  C   UNL A   1      32.884  25.007  21.441  1.00  0.00     0.163 C 
ATOM     23  O   UNL A   1      33.634  26.228  21.394  1.00  0.00    -0.378 OA
ENDBRANCH  10  14
ENDBRANCH   6   7
ENDBRANCH   4   6
ENDBRANCH   3   4
ENDBRANCH   2   3
ENDBRANCH   1   2
BRANCH   1  24
ATOM     24  O   UNL A   1      39.985  24.288  26.465  1.00  0.00    -0.458 OA
BRANCH  24  25
ATOM     25  C   UNL A   1      40.707  25.424  26.286  1.00  0.00     0.338 C 
ATOM     26  O   UNL A   1      41.137  25.838  25.222  1.00  0.00    -0.246 OA
BRANCH  25  27
ATOM     27  C   UNL A   1      40.706  26.225  27.542  1.00  0.00     0.060 A 
ATOM     28  C   UNL A   1      39.689  25.972  28.472  1.00  0.00     0.016 A 
ATOM     29  C   UNL A   1      41.721  27.138  27.858  1.00  0.00     0.016 A 
ATOM     30  C   UNL A   1      39.645  26.673  29.679  1.00  0.00     0.010 A 
ATOM     31  C   UNL A   1      41.680  27.839  29.070  1.00  0.00     0.010 A 
ATOM     32  C   UNL A   1      40.612  27.646  29.965  1.00  0.00    -0.014 A 
BRANCH  32  33
ATOM     33  C   UNL A   1      40.344  28.632  31.044  1.00  0.00     0.031 A 
ATOM     34  C   UNL A   1      41.179  28.537  32.295  1.00  0.00     0.074 A 
ATOM     35  C   UNL A   1      39.436  29.617  30.918  1.00  0.00     0.049 A 
ATOM     36  N   UNL A   1      41.219  29.332  33.332  1.00  0.00    -0.248 NA
ATOM     37  C   UNL A   1      42.094  27.387  32.383  1.00  0.00     0.031 C 
ATOM     38  C   UNL A   1      38.561  29.832  29.766  1.00  0.00     0.029 A 
ATOM     39  N   UNL A   1      39.105  30.634  31.783  1.00  0.00    -0.354 N 
ATOM     40  C   UNL A   1      42.171  28.786  34.186  1.00  0.00     0.074 A 
ATOM     41  C   UNL A   1      42.646  27.567  33.572  1.00  0.00     0.031 C 
ATOM     42  C   UNL A   1      37.796  30.916  29.996  1.00  0.00     0.029 A 
ATOM     43  C   UNL A   1      38.124  31.472  31.310  1.00  0.00     0.049 A 
ATOM     44  H   UNL A   1      39.534  30.751  32.662  1.00  0.00     0.167 HD
ATOM     45  C   UNL A   1      42.629  29.263  35.366  1.00  0.00     0.037 A 
ATOM     46  C   UNL A   1      37.566  32.566  31.869  1.00  0.00     0.037 A 
ATOM     47  C   UNL A   1      42.158  30.468  35.990  1.00  0.00     0.049 A 
ATOM     48  C   UNL A   1      38.057  33.053  33.212  1.00  0.00     0.074 A 
ATOM     49  C   UNL A   1      42.579  31.045  37.175  1.00  0.00     0.029 A 
ATOM     50  N   UNL A   1      41.149  31.273  35.487  1.00  0.00    -0.354 N 
ATOM     51  N   UNL A   1      39.010  32.568  33.973  1.00  0.00    -0.248 NA
ATOM     52  C   UNL A   1      37.407  34.252  33.764  1.00  0.00     0.031 C 
ATOM     53  C   UNL A   1      41.794  32.178  37.411  1.00  0.00     0.029 A 
ATOM     54  C   UNL A   1      40.917  32.332  36.349  1.00  0.00     0.049 A 
ATOM     55  H   UNL A   1      40.668  31.117  34.642  1.00  0.00     0.167 HD
ATOM     56  C   UNL A   1      39.101  33.426  35.066  1.00  0.00     0.074 A 
ATOM     57  C   UNL A   1      38.107  34.459  34.871  1.00  0.00     0.031 C 
ATOM     58  C   UNL A   1      39.938  33.368  36.133  1.00  0.00     0.037 A 
BRANCH  45  59
ATOM     59  C   UNL A   1      43.691  28.460  36.061  1.00  0.00     0.058 A 
ATOM     60  C   UNL A   1      45.056  28.744  35.891  1.00  0.00     0.135 A 
ATOM     61  C   UNL A   1      43.339  27.390  36.898  1.00  0.00     0.135 A 
ATOM     62  F   UNL A   1      45.443  29.741  35.081  1.00  0.00    -0.206 F 
ATOM     63  C   UNL A   1      46.037  27.974  36.505  1.00  0.00     0.059 A 
ATOM     64  C   UNL A   1      44.305  26.623  37.542  1.00  0.00     0.059 A 
ATOM     65  F   UNL A   1      42.049  27.074  37.085  1.00  0.00    -0.206 F 
ATOM     66  C   UNL A   1      45.652  26.912  37.325  1.00  0.00     0.060 A 
BRANCH  66  67
ATOM     67  S   UNL A   1      46.936  25.911  38.103  1.00  0.00     0.124 S 
ATOM     68  O   UNL A   1      47.358  25.065  36.992  1.00  0.00    -0.237 OA
ATOM     69  O   UNL A   1      47.900  26.920  38.534  1.00  0.00    -0.237 OA
ATOM     70  O   UNL A   1      46.226  25.228  39.180  1.00  0.00    -0.744 OA
ENDBRANCH  66  67
ENDBRANCH  45  59
BRANCH  46  71
ATOM     71  C   UNL A   1      36.491  33.309  31.157  1.00  0.00     0.058 A 
ATOM     72  C   UNL A   1      35.158  33.242  31.589  1.00  0.00     0.135 A 
ATOM     73  C   UNL A   1      36.767  34.066  30.009  1.00  0.00     0.135 A 
ATOM     74  F   UNL A   1      34.840  32.516  32.673  1.00  0.00    -0.206 F 
ATOM     75  C   UNL A   1      34.133  33.882  30.899  1.00  0.00     0.059 A 
ATOM     76  C   UNL A   1      35.762  34.735  29.314  1.00  0.00     0.059 A 
ATOM     77  F   UNL A   1      38.026  34.166  29.556  1.00  0.00    -0.206 F 
ATOM     78  C   UNL A   1      34.446  34.626  29.761  1.00  0.00     0.060 A 
BRANCH  78  79
ATOM     79  S   UNL A   1      33.114  35.481  28.890  1.00  0.00     0.124 S 
ATOM     80  O   UNL A   1      33.853  36.482  28.131  1.00  0.00    -0.237 OA
ATOM     81  O   UNL A   1      32.515  34.402  28.111  1.00  0.00    -0.237 OA
ATOM     82  O   UNL A   1      32.283  35.998  29.973  1.00  0.00    -0.744 OA
ENDBRANCH  78  79
ENDBRANCH  46  71
BRANCH  58  83
ATOM     83  C   UNL A   1      39.861  34.477  37.147  1.00  0.00     0.058 A 
ATOM     84  C   UNL A   1      40.580  35.673  36.997  1.00  0.00     0.135 A 
ATOM     85  C   UNL A   1      39.011  34.359  38.260  1.00  0.00     0.135 A 
ATOM     86  F   UNL A   1      41.408  35.838  35.954  1.00  0.00    -0.206 F 
ATOM     87  C   UNL A   1      40.481  36.701  37.930  1.00  0.00     0.059 A 
ATOM     88  C   UNL A   1      38.876  35.385  39.189  1.00  0.00     0.059 A 
ATOM     89  F   UNL A   1      38.287  33.244  38.442  1.00  0.00    -0.206 F 
ATOM     90  C   UNL A   1      39.628  36.548  39.024  1.00  0.00     0.060 A 
BRANCH  90  91
ATOM     91  S   UNL A   1      39.487  37.897  40.216  1.00  0.00     0.124 S 
ATOM     92  O   UNL A   1      39.222  37.169  41.453  1.00  0.00    -0.237 OA
ATOM     93  O   UNL A   1      40.795  38.537  40.124  1.00  0.00    -0.237 OA
ATOM     94  O   UNL A   1      38.372  38.689  39.702  1.00  0.00    -0.744 OA
ENDBRANCH  90  91
ENDBRANCH  58  83
ENDBRANCH  32  33
ENDBRANCH  25  27
ENDBRANCH  24  25
ENDBRANCH   1  24
TORSDOF 16
ENDMDL
MODEL 2
REMARK VINA RESULT:     -11.6      5.389     11.885
REMARK SMILES O=C(C[C@@H]1C[N@@H+]([C@H]2CCO[C@]3(CCOC3)C2)CCO1)OCCOC(=O)c1ccc(-c2c3nc(c(-c4c(F)cc(S(=O)(=O)[O-])cc4F)c4ccc([nH]4)c(-c4c(F)cc(S(=O)(=O)[O-])cc4F)c4nc(c(-c5c(F)cc(S(=O)(=O)[O-])cc5F)c5ccc2[nH]5)C=C4)C=C3)cc1
REMARK SMILES IDX 22 1 21 2 20 3 2 4 1 5 3 6 4 7 5 8 19 9 6 10 18 11 17 12
REMARK SMILES IDX 7 14 8 15 16 16 9 17 11 18 10 19 12 20 15 21 13 22 14 23
REMARK SMILES IDX 23 24 24 25 25 26 26 27 27 28 91 29 28 30 90 31 29 32 30 33
REMARK SMILES IDX 31 34 84 35 32 36 89 37 83 38 85 39 33 40 88 41 82 42 81 43
REMARK SMILES IDX 34 45 68 46 47 47 67 48 48 49 51 50 66 51 86 52 49 53 50 54
REMARK SMILES IDX 65 56 87 57 52 58 35 59 36 60 45 61 37 62 38 63 44 64 46 65
REMARK SMILES IDX 39 66 40 67 41 68 42 69 43 70 69 71 70 72 79 73 71 74 72 75
REMARK SMILES IDX 78 76 80 77 73 78 74 79 75 80 76 81 77 82 53 83 54 84 63 85
REMARK SMILES IDX 55 86 56 87 62 88 64 89 57 90 58 91 59 92 60 93 61 94
REMARK H PARENT 6 13 85 44 51 55
REMARK Flexibility Score: inf
ROOT
ATOM      1  C   UNL A   1      34.234  32.524  28.681  1.00  0.00     0.275 C 
ENDROOT
BRANCH   1   2
ATOM      2  C   UNL A   1      33.472  33.691  28.048  1.00  0.00     0.274 C 
BRANCH   2   3
ATOM      3  O   UNL A   1      34.258  34.901  28.019  1.00  0.00    -0.462 OA
BRANCH   3   4
ATOM      4  C   UNL A   1      33.851  36.091  28.516  1.00  0.00     0.308 C 
ATOM      5  O   UNL A   1      34.276  37.141  28.038  1.00  0.00    -0.252 OA
BRANCH   4   6
ATOM      6  C   UNL A   1      32.829  36.113  29.622  1.00  0.00     0.160 C 
BRANCH   6   7
ATOM      7  C   UNL A   1      33.508  36.425  30.933  1.00  0.00     0.184 C 
ATOM      8  C   UNL A   1      33.245  35.318  31.967  1.00  0.00     0.295 C 
ATOM      9  O   UNL A   1      33.041  37.684  31.450  1.00  0.00    -0.366 OA
ATOM     10  N   UNL A   1      34.000  35.545  33.210  1.00  0.00    -0.328 N 
ATOM     11  C   UNL A   1      33.819  38.027  32.608  1.00  0.00     0.222 C 
ATOM     12  C   UNL A   1      33.783  36.921  33.682  1.00  0.00     0.291 C 
ATOM     13  H   UNL A   1      33.632  34.992  33.984  1.00  0.00     0.348 HD
BRANCH  10  14
ATOM     14  C   UNL A   1      35.356  34.966  33.176  1.00  0.00     0.189 C 
ATOM     15  C   UNL A   1      35.910  34.393  34.491  1.00  0.00     0.093 C 
ATOM     16  C   UNL A   1      35.561  33.954  32.038  1.00  0.00     0.103 C 
ATOM     17  C   UNL A   1      37.310  33.828  34.333  1.00  0.00     0.167 C 
ATOM     18  C   UNL A   1      37.015  33.444  32.001  1.00  0.00     0.099 C 
ATOM     19  O   UNL A   1      37.362  32.886  33.272  1.00  0.00    -0.372 OA
ATOM     20  C   UNL A   1      38.028  34.476  31.522  1.00  0.00     0.066 C 
ATOM     21  C   UNL A   1      37.186  32.370  30.930  1.00  0.00     0.195 C 
ATOM     22  C   UNL A   1      38.009  34.337  30.016  1.00  0.00     0.163 C 
ATOM     23  O   UNL A   1      37.494  33.037  29.701  1.00  0.00    -0.378 OA
ENDBRANCH  10  14
ENDBRANCH   6   7
ENDBRANCH   4   6
ENDBRANCH   3   4
ENDBRANCH   2   3
ENDBRANCH   1   2
BRANCH   1  24
ATOM     24  O   UNL A   1      34.919  31.755  27.675  1.00  0.00    -0.458 OA
BRANCH  24  25
ATOM     25  C   UNL A   1      34.891  30.408  27.844  1.00  0.00     0.338 C 
ATOM     26  O   UNL A   1      33.927  29.683  27.661  1.00  0.00    -0.246 OA
BRANCH  25  27
ATOM     27  C   UNL A   1      36.274  29.899  28.060  1.00  0.00     0.060 A 
ATOM     28  C   UNL A   1      36.565  29.316  29.301  1.00  0.00     0.016 A 
ATOM     29  C   UNL A   1      37.248  29.901  27.052  1.00  0.00     0.016 A 
ATOM     30  C   UNL A   1      37.837  28.800  29.559  1.00  0.00     0.010 A 
ATOM     31  C   UNL A   1      38.523  29.380  27.309  1.00  0.00     0.010 A 
ATOM     32  C   UNL A   1      38.838  28.873  28.582  1.00  0.00    -0.014 A 
BRANCH  32  33
ATOM     33  C   UNL A   1      40.255  28.681  28.988  1.00  0.00     0.031 A 
ATOM     34  C   UNL A   1      40.899  27.357  28.660  1.00  0.00     0.074 A 
ATOM     35  C   UNL A   1      40.979  29.650  29.577  1.00  0.00     0.049 A 
ATOM     36  N   UNL A   1      42.140  26.976  28.808  1.00  0.00    -0.248 NA
ATOM     37  C   UNL A   1      40.017  26.327  28.085  1.00  0.00     0.031 C 
ATOM     38  C   UNL A   1      40.490  30.976  29.950  1.00  0.00     0.029 A 
ATOM     39  N   UNL A   1      42.300  29.660  29.962  1.00  0.00    -0.354 N 
ATOM     40  C   UNL A   1      42.190  25.670  28.333  1.00  0.00     0.074 A 
ATOM     41  C   UNL A   1      40.846  25.307  27.941  1.00  0.00     0.031 C 
ATOM     42  C   UNL A   1      41.499  31.672  30.508  1.00  0.00     0.029 A 
ATOM     43  C   UNL A   1      42.705  30.843  30.533  1.00  0.00     0.049 A 
ATOM     44  H   UNL A   1      42.900  28.889  29.840  1.00  0.00     0.167 HD
ATOM     45  C   UNL A   1      43.258  24.849  28.209  1.00  0.00     0.037 A 
ATOM     46  C   UNL A   1      43.912  31.213  31.009  1.00  0.00     0.037 A 
ATOM     47  C   UNL A   1      44.595  25.195  28.604  1.00  0.00     0.049 A 
ATOM     48  C   UNL A   1      45.081  30.262  30.908  1.00  0.00     0.074 A 
ATOM     49  C   UNL A   1      45.747  24.438  28.496  1.00  0.00     0.029 A 
ATOM     50  N   UNL A   1      44.956  26.394  29.197  1.00  0.00    -0.354 N 
ATOM     51  N   UNL A   1      45.128  29.058  30.388  1.00  0.00    -0.248 NA
ATOM     52  C   UNL A   1      46.369  30.731  31.445  1.00  0.00     0.031 C 
ATOM     53  C   UNL A   1      46.800  25.163  29.064  1.00  0.00     0.029 A 
ATOM     54  C   UNL A   1      46.311  26.391  29.482  1.00  0.00     0.049 A 
ATOM     55  H   UNL A   1      44.341  27.139  29.387  1.00  0.00     0.167 HD
ATOM     56  C   UNL A   1      46.455  28.647  30.495  1.00  0.00     0.074 A 
ATOM     57  C   UNL A   1      47.177  29.727  31.131  1.00  0.00     0.031 C 
ATOM     58  C   UNL A   1      47.025  27.481  30.096  1.00  0.00     0.037 A 
BRANCH  45  59
ATOM     59  C   UNL A   1      43.007  23.486  27.632  1.00  0.00     0.058 A 
ATOM     60  C   UNL A   1      42.524  22.431  28.423  1.00  0.00     0.135 A 
ATOM     61  C   UNL A   1      43.261  23.230  26.276  1.00  0.00     0.135 A 
ATOM     62  F   UNL A   1      42.290  22.619  29.731  1.00  0.00    -0.206 F 
ATOM     63  C   UNL A   1      42.329  21.160  27.895  1.00  0.00     0.059 A 
ATOM     64  C   UNL A   1      43.049  21.972  25.721  1.00  0.00     0.059 A 
ATOM     65  F   UNL A   1      43.731  24.202  25.481  1.00  0.00    -0.206 F 
ATOM     66  C   UNL A   1      42.599  20.939  26.544  1.00  0.00     0.060 A 
BRANCH  66  67
ATOM     67  S   UNL A   1      42.356  19.280  25.874  1.00  0.00     0.124 S 
ATOM     68  O   UNL A   1      40.911  19.256  25.676  1.00  0.00    -0.237 OA
ATOM     69  O   UNL A   1      43.163  19.313  24.658  1.00  0.00    -0.237 OA
ATOM     70  O   UNL A   1      42.860  18.411  26.934  1.00  0.00    -0.744 OA
ENDBRANCH  66  67
ENDBRANCH  45  59
BRANCH  46  71
ATOM     71  C   UNL A   1      44.102  32.564  31.605  1.00  0.00     0.058 A 
ATOM     72  C   UNL A   1      44.498  33.654  30.813  1.00  0.00     0.135 A 
ATOM     73  C   UNL A   1      43.932  32.784  32.979  1.00  0.00     0.135 A 
ATOM     74  F   UNL A   1      44.691  33.490  29.495  1.00  0.00    -0.206 F 
ATOM     75  C   UNL A   1      44.738  34.908  31.365  1.00  0.00     0.059 A 
ATOM     76  C   UNL A   1      44.143  34.036  33.552  1.00  0.00     0.059 A 
ATOM     77  F   UNL A   1      43.550  31.776  33.779  1.00  0.00    -0.206 F 
ATOM     78  C   UNL A   1      44.558  35.089  32.738  1.00  0.00     0.060 A 
BRANCH  78  79
ATOM     79  S   UNL A   1      44.840  36.730  33.441  1.00  0.00     0.124 S 
ATOM     80  O   UNL A   1      45.051  37.531  32.242  1.00  0.00    -0.237 OA
ATOM     81  O   UNL A   1      43.593  36.972  34.160  1.00  0.00    -0.237 OA
ATOM     82  O   UNL A   1      46.014  36.535  34.286  1.00  0.00    -0.744 OA
ENDBRANCH  78  79
ENDBRANCH  46  71
BRANCH  58  83
ATOM     83  C   UNL A   1      48.510  27.328  30.279  1.00  0.00     0.058 A 
ATOM     84  C   UNL A   1      49.062  26.748  31.432  1.00  0.00     0.135 A 
ATOM     85  C   UNL A   1      49.392  27.720  29.257  1.00  0.00     0.135 A 
ATOM     86  F   UNL A   1      48.265  26.357  32.438  1.00  0.00    -0.206 F 
ATOM     87  C   UNL A   1      50.437  26.589  31.578  1.00  0.00     0.059 A 
ATOM     88  C   UNL A   1      50.768  27.546  29.371  1.00  0.00     0.059 A 
ATOM     89  F   UNL A   1      48.917  28.264  28.126  1.00  0.00    -0.206 F 
ATOM     90  C   UNL A   1      51.282  26.993  30.543  1.00  0.00     0.060 A 
BRANCH  90  91
ATOM     91  S   UNL A   1      53.063  26.760  30.732  1.00  0.00     0.124 S 
ATOM     92  O   UNL A   1      53.464  26.443  29.364  1.00  0.00    -0.237 OA
ATOM     93  O   UNL A   1      53.500  28.058  31.235  1.00  0.00    -0.237 OA
ATOM     94  O   UNL A   1      53.162  25.660  31.686  1.00  0.00    -0.744 OA
ENDBRANCH  90  91
ENDBRANCH  58  83
ENDBRANCH  32  33
ENDBRANCH  25  27
ENDBRANCH  24  25
ENDBRANCH   1  24
TORSDOF 16
ENDMDL
MODEL 3
REMARK VINA RESULT:     -11.5      4.798     10.537
REMARK SMILES O=C(C[C@@H]1C[N@@H+]([C@H]2CCO[C@]3(CCOC3)C2)CCO1)OCCOC(=O)c1ccc(-c2c3nc(c(-c4c(F)cc(S(=O)(=O)[O-])cc4F)c4ccc([nH]4)c(-c4c(F)cc(S(=O)(=O)[O-])cc4F)c4nc(c(-c5c(F)cc(S(=O)(=O)[O-])cc5F)c5ccc2[nH]5)C=C4)C=C3)cc1
REMARK SMILES IDX 22 1 21 2 20 3 2 4 1 5 3 6 4 7 5 8 19 9 6 10 18 11 17 12
REMARK SMILES IDX 7 14 8 15 16 16 9 17 11 18 10 19 12 20 15 21 13 22 14 23
REMARK SMILES IDX 23 24 24 25 25 26 26 27 27 28 91 29 28 30 90 31 29 32 30 33
REMARK SMILES IDX 31 34 84 35 32 36 89 37 83 38 85 39 33 40 88 41 82 42 81 43
REMARK SMILES IDX 34 45 68 46 47 47 67 48 48 49 51 50 66 51 86 52 49 53 50 54
REMARK SMILES IDX 65 56 87 57 52 58 35 59 36 60 45 61 37 62 38 63 44 64 46 65
REMARK SMILES IDX 39 66 40 67 41 68 42 69 43 70 69 71 70 72 79 73 71 74 72 75
REMARK SMILES IDX 78 76 80 77 73 78 74 79 75 80 76 81 77 82 53 83 54 84 63 85
REMARK SMILES IDX 55 86 56 87 62 88 64 89 57 90 58 91 59 92 60 93 61 94
REMARK H PARENT 6 13 85 44 51 55
REMARK Flexibility Score: inf
ROOT
ATOM      1  C   UNL A   1      32.860  28.480  26.452  1.00  0.00     0.275 C 
ENDROOT
BRANCH   1   2
ATOM      2  C   UNL A   1      32.348  27.052  26.248  1.00  0.00     0.274 C 
BRANCH   2   3
ATOM      3  O   UNL A   1      32.802  26.486  25.000  1.00  0.00    -0.462 OA
BRANCH   3   4
ATOM      4  C   UNL A   1      33.283  25.230  24.859  1.00  0.00     0.308 C 
ATOM      5  O   UNL A   1      32.871  24.505  23.955  1.00  0.00    -0.252 OA
BRANCH   4   6
ATOM      6  C   UNL A   1      34.370  24.753  25.786  1.00  0.00     0.160 C 
BRANCH   6   7
ATOM      7  C   UNL A   1      34.928  23.446  25.280  1.00  0.00     0.184 C 
ATOM      8  C   UNL A   1      34.848  22.356  26.363  1.00  0.00     0.295 C 
ATOM      9  O   UNL A   1      36.298  23.613  24.871  1.00  0.00    -0.366 OA
ATOM     10  N   UNL A   1      35.274  21.046  25.847  1.00  0.00    -0.328 N 
ATOM     11  C   UNL A   1      36.748  22.398  24.249  1.00  0.00     0.222 C 
ATOM     12  C   UNL A   1      36.574  21.174  25.170  1.00  0.00     0.291 C 
ATOM     13  H   UNL A   1      35.488  20.392  26.601  1.00  0.00     0.348 HD
BRANCH  10  14
ATOM     14  C   UNL A   1      34.174  20.283  25.226  1.00  0.00     0.189 C 
ATOM     15  C   UNL A   1      33.289  21.024  24.211  1.00  0.00     0.093 C 
ATOM     16  C   UNL A   1      34.619  18.932  24.643  1.00  0.00     0.103 C 
ATOM     17  C   UNL A   1      32.194  20.140  23.643  1.00  0.00     0.167 C 
ATOM     18  C   UNL A   1      33.419  18.145  24.083  1.00  0.00     0.099 C 
ATOM     19  O   UNL A   1      32.735  18.940  23.109  1.00  0.00    -0.372 OA
ATOM     20  C   UNL A   1      32.480  17.593  25.148  1.00  0.00     0.066 C 
ATOM     21  C   UNL A   1      33.881  16.850  23.421  1.00  0.00     0.195 C 
ATOM     22  C   UNL A   1      33.095  16.262  25.523  1.00  0.00     0.163 C 
ATOM     23  O   UNL A   1      33.936  15.846  24.440  1.00  0.00    -0.378 OA
ENDBRANCH  10  14
ENDBRANCH   6   7
ENDBRANCH   4   6
ENDBRANCH   3   4
ENDBRANCH   2   3
ENDBRANCH   1   2
BRANCH   1  24
ATOM     24  O   UNL A   1      33.887  28.514  27.461  1.00  0.00    -0.458 OA
BRANCH  24  25
ATOM     25  C   UNL A   1      34.399  29.742  27.739  1.00  0.00     0.338 C 
ATOM     26  O   UNL A   1      33.761  30.776  27.844  1.00  0.00    -0.246 OA
BRANCH  25  27
ATOM     27  C   UNL A   1      35.830  29.613  28.129  1.00  0.00     0.060 A 
ATOM     28  C   UNL A   1      36.797  29.855  27.143  1.00  0.00     0.016 A 
ATOM     29  C   UNL A   1      36.235  29.354  29.446  1.00  0.00     0.016 A 
ATOM     30  C   UNL A   1      38.156  29.773  27.451  1.00  0.00     0.010 A 
ATOM     31  C   UNL A   1      37.600  29.276  29.756  1.00  0.00     0.010 A 
ATOM     32  C   UNL A   1      38.566  29.435  28.748  1.00  0.00    -0.014 A 
BRANCH  32  33
ATOM     33  C   UNL A   1      39.964  28.981  28.965  1.00  0.00     0.031 A 
ATOM     34  C   UNL A   1      40.906  29.937  29.652  1.00  0.00     0.074 A 
ATOM     35  C   UNL A   1      40.390  27.751  28.622  1.00  0.00     0.049 A 
ATOM     36  N   UNL A   1      42.137  29.749  30.053  1.00  0.00    -0.248 NA
ATOM     37  C   UNL A   1      40.384  31.286  29.924  1.00  0.00     0.031 C 
ATOM     38  C   UNL A   1      39.591  26.725  27.956  1.00  0.00     0.029 A 
ATOM     39  N   UNL A   1      41.618  27.156  28.800  1.00  0.00    -0.354 N 
ATOM     40  C   UNL A   1      42.527  30.950  30.634  1.00  0.00     0.074 A 
ATOM     41  C   UNL A   1      41.425  31.874  30.489  1.00  0.00     0.031 C 
ATOM     42  C   UNL A   1      40.350  25.625  27.784  1.00  0.00     0.029 A 
ATOM     43  C   UNL A   1      41.687  25.868  28.326  1.00  0.00     0.049 A 
ATOM     44  H   UNL A   1      42.378  27.613  29.228  1.00  0.00     0.167 HD
ATOM     45  C   UNL A   1      43.690  31.257  31.256  1.00  0.00     0.037 A 
ATOM     46  C   UNL A   1      42.709  24.987  28.340  1.00  0.00     0.037 A 
ATOM     47  C   UNL A   1      44.795  30.350  31.398  1.00  0.00     0.049 A 
ATOM     48  C   UNL A   1      44.016  25.367  28.994  1.00  0.00     0.074 A 
ATOM     49  C   UNL A   1      46.005  30.563  32.033  1.00  0.00     0.029 A 
ATOM     50  N   UNL A   1      44.830  29.064  30.884  1.00  0.00    -0.354 N 
ATOM     51  N   UNL A   1      44.345  26.481  29.606  1.00  0.00    -0.248 NA
ATOM     52  C   UNL A   1      45.088  24.359  28.975  1.00  0.00     0.031 C 
ATOM     53  C   UNL A   1      46.792  29.418  31.866  1.00  0.00     0.029 A 
ATOM     54  C   UNL A   1      46.051  28.476  31.169  1.00  0.00     0.049 A 
ATOM     55  H   UNL A   1      44.096  28.631  30.391  1.00  0.00     0.167 HD
ATOM     56  C   UNL A   1      45.640  26.289  30.081  1.00  0.00     0.074 A 
ATOM     57  C   UNL A   1      46.037  24.955  29.684  1.00  0.00     0.031 C 
ATOM     58  C   UNL A   1      46.428  27.138  30.788  1.00  0.00     0.037 A 
BRANCH  45  59
ATOM     59  C   UNL A   1      43.819  32.644  31.816  1.00  0.00     0.058 A 
ATOM     60  C   UNL A   1      43.490  32.931  33.151  1.00  0.00     0.135 A 
ATOM     61  C   UNL A   1      44.268  33.698  31.007  1.00  0.00     0.135 A 
ATOM     62  F   UNL A   1      43.032  31.962  33.957  1.00  0.00    -0.206 F 
ATOM     63  C   UNL A   1      43.574  34.223  33.655  1.00  0.00     0.059 A 
ATOM     64  C   UNL A   1      44.383  34.994  31.498  1.00  0.00     0.059 A 
ATOM     65  F   UNL A   1      44.586  33.477  29.722  1.00  0.00    -0.206 F 
ATOM     66  C   UNL A   1      44.017  35.250  32.820  1.00  0.00     0.060 A 
BRANCH  66  67
ATOM     67  S   UNL A   1      44.107  36.926  33.483  1.00  0.00     0.124 S 
ATOM     68  O   UNL A   1      44.520  37.682  32.305  1.00  0.00    -0.237 OA
ATOM     69  O   UNL A   1      42.739  37.156  33.937  1.00  0.00    -0.237 OA
ATOM     70  O   UNL A   1      45.106  36.817  34.542  1.00  0.00    -0.744 OA
ENDBRANCH  66  67
ENDBRANCH  45  59
BRANCH  46  71
ATOM     71  C   UNL A   1      42.544  23.635  27.740  1.00  0.00     0.058 A 
ATOM     72  C   UNL A   1      42.328  22.508  28.548  1.00  0.00     0.135 A 
ATOM     73  C   UNL A   1      42.637  23.437  26.355  1.00  0.00     0.135 A 
ATOM     74  F   UNL A   1      42.248  22.643  29.880  1.00  0.00    -0.206 F 
ATOM     75  C   UNL A   1      42.231  21.229  28.007  1.00  0.00     0.059 A 
ATOM     76  C   UNL A   1      42.520  22.170  25.787  1.00  0.00     0.059 A 
ATOM     77  F   UNL A   1      42.838  24.482  25.538  1.00  0.00    -0.206 F 
ATOM     78  C   UNL A   1      42.330  21.071  26.623  1.00  0.00     0.060 A 
BRANCH  78  79
ATOM     79  S   UNL A   1      42.169  19.412  25.926  1.00  0.00     0.124 S 
ATOM     80  O   UNL A   1      43.020  19.504  24.746  1.00  0.00    -0.237 OA
ATOM     81  O   UNL A   1      42.671  18.574  27.011  1.00  0.00    -0.237 OA
ATOM     82  O   UNL A   1      40.738  19.295  25.665  1.00  0.00    -0.744 OA
ENDBRANCH  78  79
ENDBRANCH  46  71
BRANCH  58  83
ATOM     83  C   UNL A   1      47.776  26.640  31.232  1.00  0.00     0.058 A 
ATOM     84  C   UNL A   1      47.965  26.009  32.471  1.00  0.00     0.135 A 
ATOM     85  C   UNL A   1      48.887  26.750  30.377  1.00  0.00     0.135 A 
ATOM     86  F   UNL A   1      46.940  25.878  33.325  1.00  0.00    -0.206 F 
ATOM     87  C   UNL A   1      49.213  25.529  32.859  1.00  0.00     0.059 A 
ATOM     88  C   UNL A   1      50.137  26.255  30.734  1.00  0.00     0.059 A 
ATOM     89  F   UNL A   1      48.758  27.330  29.173  1.00  0.00    -0.206 F 
ATOM     90  C   UNL A   1      50.294  25.659  31.984  1.00  0.00     0.060 A 
BRANCH  90  91
ATOM     91  S   UNL A   1      51.904  25.013  32.487  1.00  0.00     0.124 S 
ATOM     92  O   UNL A   1      51.741  23.586  32.225  1.00  0.00    -0.237 OA
ATOM     93  O   UNL A   1      52.820  25.721  31.599  1.00  0.00    -0.237 OA
ATOM     94  O   UNL A   1      51.994  25.386  33.896  1.00  0.00    -0.744 OA
ENDBRANCH  90  91
ENDBRANCH  58  83
ENDBRANCH  32  33
ENDBRANCH  25  27
ENDBRANCH  24  25
ENDBRANCH   1  24
TORSDOF 16
ENDMDL
