MODEL 1
REMARK VINA RESULT:     -11.5      0.000      0.000
REMARK SMILES Cc1cc(C(=O)N2[C@@H](C(=O)OCCOC(=O)c3ccc(-c4c5nc(c(-c6c(F)cc(S(=O)(=O)[O-])cc6F)c6ccc([nH]6)c(-c6c(F)cc(S(=O)(=O)[O-])cc6F)c6nc(c(-c7c(F)cc(S(=O)(=O)[O-])cc7F)c7ccc4[nH]7)C=C6)C=C5)cc3)C[C@H]3CCCC[C@H]32)c(C)s1
REMARK SMILES IDX 13 1 12 2 11 3 9 4 10 5 8 6 7 7 89 8 83 9 84 10 88 11 85 12
REMARK SMILES IDX 87 13 86 14 5 15 6 16 4 17 1 18 2 19 3 20 92 21 90 22 91 23
REMARK SMILES IDX 14 24 15 25 16 26 17 27 18 28 82 29 19 30 81 31 20 32 21 33
REMARK SMILES IDX 22 34 75 35 23 36 80 37 74 38 76 39 24 40 79 41 73 42 72 43
REMARK SMILES IDX 25 45 59 46 38 47 58 48 39 49 42 50 57 51 77 52 40 53 41 54
REMARK SMILES IDX 56 56 78 57 43 58 26 59 27 60 36 61 28 62 29 63 35 64 37 65
REMARK SMILES IDX 30 66 31 67 32 68 33 69 34 70 60 71 61 72 70 73 62 74 63 75
REMARK SMILES IDX 69 76 71 77 64 78 65 79 66 80 67 81 68 82 44 83 45 84 54 85
REMARK SMILES IDX 46 86 47 87 53 88 55 89 48 90 49 91 50 92 51 93 52 94
REMARK H PARENT 76 44 42 55
REMARK Flexibility Score: inf
ROOT
ATOM      1  C   UNL A   1      33.936  28.033  26.339  1.00  0.00     0.275 C 
ENDROOT
BRANCH   1   2
ATOM      2  C   UNL A   1      32.946  26.874  26.200  1.00  0.00     0.274 C 
BRANCH   2   3
ATOM      3  O   UNL A   1      33.179  26.124  24.989  1.00  0.00    -0.461 OA
BRANCH   3   4
ATOM      4  C   UNL A   1      32.343  25.071  24.774  1.00  0.00     0.329 C 
ATOM      5  O   UNL A   1      31.149  25.069  25.052  1.00  0.00    -0.250 OA
BRANCH   4   6
ATOM      6  C   UNL A   1      33.004  23.925  23.995  1.00  0.00     0.196 C 
ATOM      7  N   UNL A   1      33.202  22.683  24.759  1.00  0.00    -0.322 N 
ATOM      8  C   UNL A   1      34.619  22.343  24.863  1.00  0.00     0.089 C 
ATOM      9  C   UNL A   1      34.418  24.302  23.523  1.00  0.00     0.043 C 
ATOM     10  C   UNL A   1      35.180  22.975  23.585  1.00  0.00     0.014 C 
ATOM     11  C   UNL A   1      35.271  22.891  26.139  1.00  0.00     0.025 C 
ATOM     12  C   UNL A   1      36.697  23.102  23.541  1.00  0.00     0.006 C 
ATOM     13  C   UNL A   1      36.796  22.864  26.048  1.00  0.00     0.002 C 
ATOM     14  C   UNL A   1      37.299  23.639  24.832  1.00  0.00     0.000 C 
BRANCH   7  15
ATOM     15  C   UNL A   1      32.221  21.767  25.113  1.00  0.00     0.255 C 
ATOM     16  O   UNL A   1      31.271  22.077  25.829  1.00  0.00    -0.269 OA
BRANCH  15  17
ATOM     17  C   UNL A   1      32.400  20.386  24.647  1.00  0.00     0.053 A 
ATOM     18  C   UNL A   1      33.179  16.731  25.344  1.00  0.00     0.056 C 
ATOM     19  C   UNL A   1      32.820  18.073  24.801  1.00  0.00     0.003 A 
ATOM     20  C   UNL A   1      32.620  19.243  25.496  1.00  0.00     0.029 A 
ATOM     21  S   UNL A   1      32.571  18.302  23.131  1.00  0.00    -0.145 S 
ATOM     22  C   UNL A   1      32.264  19.979  23.327  1.00  0.00     0.014 A 
ATOM     23  C   UNL A   1      31.898  20.788  22.127  1.00  0.00     0.057 C 
ENDBRANCH  15  17
ENDBRANCH   7  15
ENDBRANCH   4   6
ENDBRANCH   3   4
ENDBRANCH   2   3
ENDBRANCH   1   2
BRANCH   1  24
ATOM     24  O   UNL A   1      33.744  28.694  27.601  1.00  0.00    -0.458 OA
BRANCH  24  25
ATOM     25  C   UNL A   1      34.288  29.927  27.718  1.00  0.00     0.338 C 
ATOM     26  O   UNL A   1      33.726  30.999  27.577  1.00  0.00    -0.246 OA
BRANCH  25  27
ATOM     27  C   UNL A   1      35.711  29.806  28.083  1.00  0.00     0.060 A 
ATOM     28  C   UNL A   1      36.694  30.045  27.124  1.00  0.00     0.016 A 
ATOM     29  C   UNL A   1      36.066  29.337  29.346  1.00  0.00     0.016 A 
ATOM     30  C   UNL A   1      38.025  29.742  27.388  1.00  0.00     0.010 A 
ATOM     31  C   UNL A   1      37.415  29.116  29.642  1.00  0.00     0.010 A 
ATOM     32  C   UNL A   1      38.404  29.286  28.656  1.00  0.00    -0.014 A 
BRANCH  32  33
ATOM     33  C   UNL A   1      39.825  28.956  28.934  1.00  0.00     0.031 A 
ATOM     34  C   UNL A   1      40.731  29.992  29.541  1.00  0.00     0.074 A 
ATOM     35  C   UNL A   1      40.300  27.728  28.651  1.00  0.00     0.049 A 
ATOM     36  N   UNL A   1      42.028  29.957  29.711  1.00  0.00    -0.248 NA
ATOM     37  C   UNL A   1      40.096  31.234  30.011  1.00  0.00     0.031 C 
ATOM     38  C   UNL A   1      39.513  26.621  28.101  1.00  0.00     0.029 A 
ATOM     39  N   UNL A   1      41.561  27.204  28.783  1.00  0.00    -0.354 N 
ATOM     40  C   UNL A   1      42.371  31.189  30.256  1.00  0.00     0.074 A 
ATOM     41  C   UNL A   1      41.147  31.947  30.395  1.00  0.00     0.031 C 
ATOM     42  C   UNL A   1      40.305  25.548  27.958  1.00  0.00     0.029 A 
ATOM     43  C   UNL A   1      41.668  25.909  28.336  1.00  0.00     0.049 A 
ATOM     44  H   UNL A   1      42.317  27.708  29.162  1.00  0.00     0.167 HD
ATOM     45  C   UNL A   1      43.598  31.644  30.605  1.00  0.00     0.037 A 
ATOM     46  C   UNL A   1      42.745  25.113  28.203  1.00  0.00     0.037 A 
ATOM     47  C   UNL A   1      44.806  30.866  30.507  1.00  0.00     0.049 A 
ATOM     48  C   UNL A   1      44.099  25.644  28.580  1.00  0.00     0.074 A 
ATOM     49  C   UNL A   1      46.096  31.231  30.851  1.00  0.00     0.029 A 
ATOM     50  N   UNL A   1      44.870  29.562  30.039  1.00  0.00    -0.354 N 
ATOM     51  N   UNL A   1      44.415  26.825  29.054  1.00  0.00    -0.248 NA
ATOM     52  C   UNL A   1      45.243  24.742  28.391  1.00  0.00     0.031 C 
ATOM     53  C   UNL A   1      46.944  30.154  30.568  1.00  0.00     0.029 A 
ATOM     54  C   UNL A   1      46.179  29.109  30.076  1.00  0.00     0.049 A 
ATOM     55  H   UNL A   1      44.099  29.035  29.727  1.00  0.00     0.167 HD
ATOM     56  C   UNL A   1      45.794  26.809  29.223  1.00  0.00     0.074 A 
ATOM     57  C   UNL A   1      46.249  25.495  28.817  1.00  0.00     0.031 C 
ATOM     58  C   UNL A   1      46.609  27.796  29.667  1.00  0.00     0.037 A 
BRANCH  45  59
ATOM     59  C   UNL A   1      43.699  33.063  31.087  1.00  0.00     0.058 A 
ATOM     60  C   UNL A   1      43.912  34.134  30.208  1.00  0.00     0.135 A 
ATOM     61  C   UNL A   1      43.565  33.352  32.455  1.00  0.00     0.135 A 
ATOM     62  F   UNL A   1      44.066  33.908  28.893  1.00  0.00    -0.206 F 
ATOM     63  C   UNL A   1      44.016  35.442  30.669  1.00  0.00     0.059 A 
ATOM     64  C   UNL A   1      43.646  34.656  32.936  1.00  0.00     0.059 A 
ATOM     65  F   UNL A   1      43.363  32.363  33.339  1.00  0.00    -0.206 F 
ATOM     66  C   UNL A   1      43.887  35.692  32.037  1.00  0.00     0.060 A 
BRANCH  66  67
ATOM     67  S   UNL A   1      44.034  37.392  32.628  1.00  0.00     0.124 S 
ATOM     68  O   UNL A   1      45.410  37.412  33.114  1.00  0.00    -0.237 OA
ATOM     69  O   UNL A   1      43.778  38.170  31.421  1.00  0.00    -0.237 OA
ATOM     70  O   UNL A   1      43.003  37.482  33.657  1.00  0.00    -0.744 OA
ENDBRANCH  66  67
ENDBRANCH  45  59
BRANCH  46  71
ATOM     71  C   UNL A   1      42.584  23.746  27.646  1.00  0.00     0.058 A 
ATOM     72  C   UNL A   1      42.682  23.510  26.267  1.00  0.00     0.135 A 
ATOM     73  C   UNL A   1      42.368  22.643  28.487  1.00  0.00     0.135 A 
ATOM     74  F   UNL A   1      42.879  24.535  25.424  1.00  0.00    -0.206 F 
ATOM     75  C   UNL A   1      42.576  22.226  25.741  1.00  0.00     0.059 A 
ATOM     76  C   UNL A   1      42.282  21.348  27.987  1.00  0.00     0.059 A 
ATOM     77  F   UNL A   1      42.280  22.818  29.815  1.00  0.00    -0.206 F 
ATOM     78  C   UNL A   1      42.381  21.150  26.610  1.00  0.00     0.060 A 
BRANCH  78  79
ATOM     79  S   UNL A   1      42.324  19.478  25.930  1.00  0.00     0.124 S 
ATOM     80  O   UNL A   1      40.896  19.308  25.692  1.00  0.00    -0.237 OA
ATOM     81  O   UNL A   1      43.161  19.598  24.740  1.00  0.00    -0.237 OA
ATOM     82  O   UNL A   1      42.889  18.664  27.002  1.00  0.00    -0.744 OA
ENDBRANCH  78  79
ENDBRANCH  46  71
BRANCH  58  83
ATOM     83  C   UNL A   1      48.074  27.484  29.752  1.00  0.00     0.058 A 
ATOM     84  C   UNL A   1      48.937  27.723  28.673  1.00  0.00     0.135 A 
ATOM     85  C   UNL A   1      48.627  26.979  30.940  1.00  0.00     0.135 A 
ATOM     86  F   UNL A   1      48.453  28.199  27.514  1.00  0.00    -0.206 F 
ATOM     87  C   UNL A   1      50.299  27.457  28.760  1.00  0.00     0.059 A 
ATOM     88  C   UNL A   1      49.989  26.723  31.056  1.00  0.00     0.059 A 
ATOM     89  F   UNL A   1      47.842  26.740  32.003  1.00  0.00    -0.206 F 
ATOM     90  C   UNL A   1      50.816  26.956  29.957  1.00  0.00     0.060 A 
BRANCH  90  91
ATOM     91  S   UNL A   1      52.589  26.641  30.075  1.00  0.00     0.124 S 
ATOM     92  O   UNL A   1      52.631  25.562  31.056  1.00  0.00    -0.237 OA
ATOM     93  O   UNL A   1      52.937  26.269  28.707  1.00  0.00    -0.237 OA
ATOM     94  O   UNL A   1      53.129  27.922  30.524  1.00  0.00    -0.744 OA
ENDBRANCH  90  91
ENDBRANCH  58  83
ENDBRANCH  32  33
ENDBRANCH  25  27
ENDBRANCH  24  25
ENDBRANCH   1  24
TORSDOF 16
ENDMDL
MODEL 2
REMARK VINA RESULT:     -11.4      2.548      4.015
REMARK SMILES Cc1cc(C(=O)N2[C@@H](C(=O)OCCOC(=O)c3ccc(-c4c5nc(c(-c6c(F)cc(S(=O)(=O)[O-])cc6F)c6ccc([nH]6)c(-c6c(F)cc(S(=O)(=O)[O-])cc6F)c6nc(c(-c7c(F)cc(S(=O)(=O)[O-])cc7F)c7ccc4[nH]7)C=C6)C=C5)cc3)C[C@H]3CCCC[C@H]32)c(C)s1
REMARK SMILES IDX 13 1 12 2 11 3 9 4 10 5 8 6 7 7 89 8 83 9 84 10 88 11 85 12
REMARK SMILES IDX 87 13 86 14 5 15 6 16 4 17 1 18 2 19 3 20 92 21 90 22 91 23
REMARK SMILES IDX 14 24 15 25 16 26 17 27 18 28 82 29 19 30 81 31 20 32 21 33
REMARK SMILES IDX 22 34 75 35 23 36 80 37 74 38 76 39 24 40 79 41 73 42 72 43
REMARK SMILES IDX 25 45 59 46 38 47 58 48 39 49 42 50 57 51 77 52 40 53 41 54
REMARK SMILES IDX 56 56 78 57 43 58 26 59 27 60 36 61 28 62 29 63 35 64 37 65
REMARK SMILES IDX 30 66 31 67 32 68 33 69 34 70 60 71 61 72 70 73 62 74 63 75
REMARK SMILES IDX 69 76 71 77 64 78 65 79 66 80 67 81 68 82 44 83 45 84 54 85
REMARK SMILES IDX 46 86 47 87 53 88 55 89 48 90 49 91 50 92 51 93 52 94
REMARK H PARENT 76 44 42 55
REMARK Flexibility Score: inf
ROOT
ATOM      1  C   UNL A   1      34.057  31.122  28.032  1.00  0.00     0.275 C 
ENDROOT
BRANCH   1   2
ATOM      2  C   UNL A   1      33.100  30.253  27.213  1.00  0.00     0.274 C 
BRANCH   2   3
ATOM      3  O   UNL A   1      33.191  28.864  27.594  1.00  0.00    -0.461 OA
BRANCH   3   4
ATOM      4  C   UNL A   1      33.218  27.968  26.569  1.00  0.00     0.329 C 
ATOM      5  O   UNL A   1      34.239  27.605  25.996  1.00  0.00    -0.250 OA
BRANCH   4   6
ATOM      6  C   UNL A   1      31.852  27.323  26.297  1.00  0.00     0.196 C 
ATOM      7  N   UNL A   1      31.904  25.985  25.686  1.00  0.00    -0.322 N 
ATOM      8  C   UNL A   1      31.260  25.974  24.376  1.00  0.00     0.089 C 
ATOM      9  C   UNL A   1      31.020  28.153  25.305  1.00  0.00     0.043 C 
ATOM     10  C   UNL A   1      30.228  27.095  24.531  1.00  0.00     0.014 C 
ATOM     11  C   UNL A   1      32.244  26.220  23.225  1.00  0.00     0.025 C 
ATOM     12  C   UNL A   1      29.604  27.583  23.231  1.00  0.00     0.006 C 
ATOM     13  C   UNL A   1      31.518  26.584  21.931  1.00  0.00     0.002 C 
ATOM     14  C   UNL A   1      30.618  27.803  22.116  1.00  0.00     0.000 C 
BRANCH   7  15
ATOM     15  C   UNL A   1      32.245  24.800  26.323  1.00  0.00     0.255 C 
ATOM     16  O   UNL A   1      31.642  24.401  27.318  1.00  0.00    -0.269 OA
BRANCH  15  17
ATOM     17  C   UNL A   1      33.404  24.069  25.795  1.00  0.00     0.053 A 
ATOM     18  C   UNL A   1      37.164  23.649  25.424  1.00  0.00     0.056 C 
ATOM     19  C   UNL A   1      35.675  23.561  25.428  1.00  0.00     0.003 A 
ATOM     20  C   UNL A   1      34.781  24.355  26.108  1.00  0.00     0.029 A 
ATOM     21  S   UNL A   1      34.869  22.349  24.544  1.00  0.00    -0.145 S 
ATOM     22  C   UNL A   1      33.322  22.927  25.012  1.00  0.00     0.014 A 
ATOM     23  C   UNL A   1      32.109  22.183  24.560  1.00  0.00     0.057 C 
ENDBRANCH  15  17
ENDBRANCH   7  15
ENDBRANCH   4   6
ENDBRANCH   3   4
ENDBRANCH   2   3
ENDBRANCH   1   2
BRANCH   1  24
ATOM     24  O   UNL A   1      35.383  30.569  27.988  1.00  0.00    -0.458 OA
BRANCH  24  25
ATOM     25  C   UNL A   1      36.119  30.689  29.116  1.00  0.00     0.338 C 
ATOM     26  O   UNL A   1      35.783  31.209  30.165  1.00  0.00    -0.246 OA
BRANCH  25  27
ATOM     27  C   UNL A   1      37.435  30.057  28.916  1.00  0.00     0.060 A 
ATOM     28  C   UNL A   1      38.233  29.755  30.019  1.00  0.00     0.016 A 
ATOM     29  C   UNL A   1      37.929  29.874  27.626  1.00  0.00     0.016 A 
ATOM     30  C   UNL A   1      39.551  29.349  29.845  1.00  0.00     0.010 A 
ATOM     31  C   UNL A   1      39.226  29.381  27.450  1.00  0.00     0.010 A 
ATOM     32  C   UNL A   1      40.059  29.143  28.558  1.00  0.00    -0.014 A 
BRANCH  32  33
ATOM     33  C   UNL A   1      41.470  28.716  28.374  1.00  0.00     0.031 A 
ATOM     34  C   UNL A   1      42.581  29.725  28.484  1.00  0.00     0.074 A 
ATOM     35  C   UNL A   1      41.756  27.424  28.119  1.00  0.00     0.049 A 
ATOM     36  N   UNL A   1      43.850  29.588  28.202  1.00  0.00    -0.248 NA
ATOM     37  C   UNL A   1      42.212  31.065  28.965  1.00  0.00     0.031 C 
ATOM     38  C   UNL A   1      40.774  26.340  28.032  1.00  0.00     0.029 A 
ATOM     39  N   UNL A   1      42.956  26.803  27.883  1.00  0.00    -0.354 N 
ATOM     40  C   UNL A   1      44.422  30.836  28.419  1.00  0.00     0.074 A 
ATOM     41  C   UNL A   1      43.362  31.716  28.863  1.00  0.00     0.031 C 
ATOM     42  C   UNL A   1      41.413  25.188  27.776  1.00  0.00     0.029 A 
ATOM     43  C   UNL A   1      42.837  25.461  27.610  1.00  0.00     0.049 A 
ATOM     44  H   UNL A   1      43.821  27.274  27.905  1.00  0.00     0.167 HD
ATOM     45  C   UNL A   1      45.714  31.212  28.259  1.00  0.00     0.037 A 
ATOM     46  C   UNL A   1      43.759  24.559  27.227  1.00  0.00     0.037 A 
ATOM     47  C   UNL A   1      46.771  30.319  27.862  1.00  0.00     0.049 A 
ATOM     48  C   UNL A   1      45.182  25.001  27.040  1.00  0.00     0.074 A 
ATOM     49  C   UNL A   1      48.116  30.598  27.689  1.00  0.00     0.029 A 
ATOM     50  N   UNL A   1      46.604  28.970  27.587  1.00  0.00    -0.354 N 
ATOM     51  N   UNL A   1      45.701  26.193  27.208  1.00  0.00    -0.248 NA
ATOM     52  C   UNL A   1      46.142  23.980  26.597  1.00  0.00     0.031 C 
ATOM     53  C   UNL A   1      48.757  29.422  27.284  1.00  0.00     0.029 A 
ATOM     54  C   UNL A   1      47.819  28.404  27.235  1.00  0.00     0.049 A 
ATOM     55  H   UNL A   1      45.748  28.486  27.635  1.00  0.00     0.167 HD
ATOM     56  C   UNL A   1      47.048  26.068  26.894  1.00  0.00     0.074 A 
ATOM     57  C   UNL A   1      47.268  24.680  26.544  1.00  0.00     0.031 C 
ATOM     58  C   UNL A   1      48.014  27.019  26.890  1.00  0.00     0.037 A 
BRANCH  45  59
ATOM     59  C   UNL A   1      46.045  32.661  28.476  1.00  0.00     0.058 A 
ATOM     60  C   UNL A   1      46.477  33.147  29.718  1.00  0.00     0.135 A 
ATOM     61  C   UNL A   1      45.938  33.574  27.413  1.00  0.00     0.135 A 
ATOM     62  F   UNL A   1      46.577  32.319  30.770  1.00  0.00    -0.206 F 
ATOM     63  C   UNL A   1      46.769  34.494  29.908  1.00  0.00     0.059 A 
ATOM     64  C   UNL A   1      46.243  34.922  27.576  1.00  0.00     0.059 A 
ATOM     65  F   UNL A   1      45.525  33.160  26.205  1.00  0.00    -0.206 F 
ATOM     66  C   UNL A   1      46.643  35.376  28.832  1.00  0.00     0.060 A 
BRANCH  66  67
ATOM     67  S   UNL A   1      47.013  37.124  29.091  1.00  0.00     0.124 S 
ATOM     68  O   UNL A   1      48.242  37.277  28.319  1.00  0.00    -0.237 OA
ATOM     69  O   UNL A   1      45.833  37.782  28.540  1.00  0.00    -0.237 OA
ATOM     70  O   UNL A   1      47.164  37.226  30.539  1.00  0.00    -0.744 OA
ENDBRANCH  66  67
ENDBRANCH  45  59
BRANCH  46  71
ATOM     71  C   UNL A   1      43.347  23.158  26.955  1.00  0.00     0.058 A 
ATOM     72  C   UNL A   1      43.235  22.679  25.642  1.00  0.00     0.135 A 
ATOM     73  C   UNL A   1      43.097  22.261  28.005  1.00  0.00     0.135 A 
ATOM     74  F   UNL A   1      43.456  23.503  24.606  1.00  0.00    -0.206 F 
ATOM     75  C   UNL A   1      42.892  21.356  25.379  1.00  0.00     0.059 A 
ATOM     76  C   UNL A   1      42.775  20.929  27.767  1.00  0.00     0.059 A 
ATOM     77  F   UNL A   1      43.203  22.671  29.279  1.00  0.00    -0.206 F 
ATOM     78  C   UNL A   1      42.669  20.487  26.449  1.00  0.00     0.060 A 
BRANCH  78  79
ATOM     79  S   UNL A   1      42.303  18.753  26.103  1.00  0.00     0.124 S 
ATOM     80  O   UNL A   1      42.596  18.130  27.388  1.00  0.00    -0.237 OA
ATOM     81  O   UNL A   1      40.894  18.803  25.723  1.00  0.00    -0.237 OA
ATOM     82  O   UNL A   1      43.224  18.429  25.017  1.00  0.00    -0.744 OA
ENDBRANCH  78  79
ENDBRANCH  46  71
BRANCH  58  83
ATOM     83  C   UNL A   1      49.399  26.583  26.510  1.00  0.00     0.058 A 
ATOM     84  C   UNL A   1      50.264  25.997  27.446  1.00  0.00     0.135 A 
ATOM     85  C   UNL A   1      49.849  26.716  25.187  1.00  0.00     0.135 A 
ATOM     86  F   UNL A   1      49.880  25.855  28.725  1.00  0.00    -0.206 F 
ATOM     87  C   UNL A   1      51.537  25.570  27.087  1.00  0.00     0.059 A 
ATOM     88  C   UNL A   1      51.113  26.279  24.802  1.00  0.00     0.059 A 
ATOM     89  F   UNL A   1      49.055  27.265  24.255  1.00  0.00    -0.206 F 
ATOM     90  C   UNL A   1      51.953  25.717  25.762  1.00  0.00     0.060 A 
BRANCH  90  91
ATOM     91  S   UNL A   1      53.597  25.133  25.296  1.00  0.00     0.124 S 
ATOM     92  O   UNL A   1      53.739  25.697  23.958  1.00  0.00    -0.237 OA
ATOM     93  O   UNL A   1      54.446  25.722  26.326  1.00  0.00    -0.237 OA
ATOM     94  O   UNL A   1      53.467  23.679  25.356  1.00  0.00    -0.744 OA
ENDBRANCH  90  91
ENDBRANCH  58  83
ENDBRANCH  32  33
ENDBRANCH  25  27
ENDBRANCH  24  25
ENDBRANCH   1  24
TORSDOF 16
ENDMDL
MODEL 3
REMARK VINA RESULT:     -11.4      1.458      2.854
REMARK SMILES Cc1cc(C(=O)N2[C@@H](C(=O)OCCOC(=O)c3ccc(-c4c5nc(c(-c6c(F)cc(S(=O)(=O)[O-])cc6F)c6ccc([nH]6)c(-c6c(F)cc(S(=O)(=O)[O-])cc6F)c6nc(c(-c7c(F)cc(S(=O)(=O)[O-])cc7F)c7ccc4[nH]7)C=C6)C=C5)cc3)C[C@H]3CCCC[C@H]32)c(C)s1
REMARK SMILES IDX 13 1 12 2 11 3 9 4 10 5 8 6 7 7 89 8 83 9 84 10 88 11 85 12
REMARK SMILES IDX 87 13 86 14 5 15 6 16 4 17 1 18 2 19 3 20 92 21 90 22 91 23
REMARK SMILES IDX 14 24 15 25 16 26 17 27 18 28 82 29 19 30 81 31 20 32 21 33
REMARK SMILES IDX 22 34 75 35 23 36 80 37 74 38 76 39 24 40 79 41 73 42 72 43
REMARK SMILES IDX 25 45 59 46 38 47 58 48 39 49 42 50 57 51 77 52 40 53 41 54
REMARK SMILES IDX 56 56 78 57 43 58 26 59 27 60 36 61 28 62 29 63 35 64 37 65
REMARK SMILES IDX 30 66 31 67 32 68 33 69 34 70 60 71 61 72 70 73 62 74 63 75
REMARK SMILES IDX 69 76 71 77 64 78 65 79 66 80 67 81 68 82 44 83 45 84 54 85
REMARK SMILES IDX 46 86 47 87 53 88 55 89 48 90 49 91 50 92 51 93 52 94
REMARK H PARENT 76 44 42 55
REMARK Flexibility Score: inf
ROOT
ATOM      1  C   UNL A   1      32.599  28.635  27.479  1.00  0.00     0.275 C 
ENDROOT
BRANCH   1   2
ATOM      2  C   UNL A   1      32.240  27.392  26.661  1.00  0.00     0.274 C 
BRANCH   2   3
ATOM      3  O   UNL A   1      33.381  26.893  25.931  1.00  0.00    -0.461 OA
BRANCH   3   4
ATOM      4  C   UNL A   1      33.457  25.540  25.802  1.00  0.00     0.329 C 
ATOM      5  O   UNL A   1      32.719  24.748  26.379  1.00  0.00    -0.250 OA
BRANCH   4   6
ATOM      6  C   UNL A   1      34.460  25.091  24.731  1.00  0.00     0.196 C 
ATOM      7  N   UNL A   1      33.866  24.442  23.551  1.00  0.00    -0.322 N 
ATOM      8  C   UNL A   1      34.337  23.067  23.407  1.00  0.00     0.089 C 
ATOM      9  C   UNL A   1      35.443  24.042  25.277  1.00  0.00     0.043 C 
ATOM     10  C   UNL A   1      35.718  23.146  24.067  1.00  0.00     0.014 C 
ATOM     11  C   UNL A   1      33.410  22.045  24.077  1.00  0.00     0.025 C 
ATOM     12  C   UNL A   1      36.354  21.801  24.394  1.00  0.00     0.006 C 
ATOM     13  C   UNL A   1      34.095  20.692  24.252  1.00  0.00     0.002 C 
ATOM     14  C   UNL A   1      35.393  20.817  25.047  1.00  0.00     0.000 C 
BRANCH   7  15
ATOM     15  C   UNL A   1      33.175  25.070  22.524  1.00  0.00     0.255 C 
ATOM     16  O   UNL A   1      33.568  25.034  21.360  1.00  0.00    -0.269 OA
BRANCH  15  17
ATOM     17  C   UNL A   1      31.981  25.840  22.899  1.00  0.00     0.053 A 
ATOM     18  C   UNL A   1      30.211  29.166  23.401  1.00  0.00     0.056 C 
ATOM     19  C   UNL A   1      30.646  27.746  23.264  1.00  0.00     0.003 A 
ATOM     20  C   UNL A   1      31.844  27.270  22.783  1.00  0.00     0.029 A 
ATOM     21  S   UNL A   1      29.606  26.468  23.695  1.00  0.00    -0.145 S 
ATOM     22  C   UNL A   1      30.780  25.278  23.305  1.00  0.00     0.014 A 
ATOM     23  C   UNL A   1      30.412  23.836  23.431  1.00  0.00     0.057 C 
ENDBRANCH  15  17
ENDBRANCH   7  15
ENDBRANCH   4   6
ENDBRANCH   3   4
ENDBRANCH   2   3
ENDBRANCH   1   2
BRANCH   1  24
ATOM     24  O   UNL A   1      34.021  28.846  27.451  1.00  0.00    -0.458 OA
BRANCH  24  25
ATOM     25  C   UNL A   1      34.462  30.011  27.977  1.00  0.00     0.338 C 
ATOM     26  O   UNL A   1      33.809  31.014  28.204  1.00  0.00    -0.246 OA
BRANCH  25  27
ATOM     27  C   UNL A   1      35.900  29.902  28.281  1.00  0.00     0.060 A 
ATOM     28  C   UNL A   1      36.839  30.094  27.268  1.00  0.00     0.016 A 
ATOM     29  C   UNL A   1      36.313  29.491  29.546  1.00  0.00     0.016 A 
ATOM     30  C   UNL A   1      38.180  29.799  27.484  1.00  0.00     0.010 A 
ATOM     31  C   UNL A   1      37.674  29.279  29.790  1.00  0.00     0.010 A 
ATOM     32  C   UNL A   1      38.616  29.401  28.753  1.00  0.00    -0.014 A 
BRANCH  32  33
ATOM     33  C   UNL A   1      40.048  29.080  28.980  1.00  0.00     0.031 A 
ATOM     34  C   UNL A   1      40.976  30.130  29.528  1.00  0.00     0.074 A 
ATOM     35  C   UNL A   1      40.515  27.846  28.704  1.00  0.00     0.049 A 
ATOM     36  N   UNL A   1      42.278  30.101  29.646  1.00  0.00    -0.248 NA
ATOM     37  C   UNL A   1      40.357  31.380  29.996  1.00  0.00     0.031 C 
ATOM     38  C   UNL A   1      39.710  26.727  28.210  1.00  0.00     0.029 A 
ATOM     39  N   UNL A   1      41.782  27.328  28.797  1.00  0.00    -0.354 N 
ATOM     40  C   UNL A   1      42.640  31.345  30.150  1.00  0.00     0.074 A 
ATOM     41  C   UNL A   1      41.420  32.103  30.322  1.00  0.00     0.031 C 
ATOM     42  C   UNL A   1      40.498  25.652  28.058  1.00  0.00     0.029 A 
ATOM     43  C   UNL A   1      41.874  26.024  28.373  1.00  0.00     0.049 A 
ATOM     44  H   UNL A   1      42.552  27.841  29.134  1.00  0.00     0.167 HD
ATOM     45  C   UNL A   1      43.879  31.810  30.439  1.00  0.00     0.037 A 
ATOM     46  C   UNL A   1      42.948  25.228  28.213  1.00  0.00     0.037 A 
ATOM     47  C   UNL A   1      45.084  31.032  30.309  1.00  0.00     0.049 A 
ATOM     48  C   UNL A   1      44.314  25.769  28.524  1.00  0.00     0.074 A 
ATOM     49  C   UNL A   1      46.386  31.406  30.593  1.00  0.00     0.029 A 
ATOM     50  N   UNL A   1      45.133  29.718  29.867  1.00  0.00    -0.354 N 
ATOM     51  N   UNL A   1      44.645  26.960  28.960  1.00  0.00    -0.248 NA
ATOM     52  C   UNL A   1      45.451  24.865  28.308  1.00  0.00     0.031 C 
ATOM     53  C   UNL A   1      47.225  30.325  30.298  1.00  0.00     0.029 A 
ATOM     54  C   UNL A   1      46.443  29.268  29.861  1.00  0.00     0.049 A 
ATOM     55  H   UNL A   1      44.351  29.184  29.598  1.00  0.00     0.167 HD
ATOM     56  C   UNL A   1      46.030  26.950  29.073  1.00  0.00     0.074 A 
ATOM     57  C   UNL A   1      46.472  25.629  28.677  1.00  0.00     0.031 C 
ATOM     58  C   UNL A   1      46.860  27.948  29.463  1.00  0.00     0.037 A 
BRANCH  45  59
ATOM     59  C   UNL A   1      43.995  33.238  30.887  1.00  0.00     0.058 A 
ATOM     60  C   UNL A   1      44.045  34.302  29.974  1.00  0.00     0.135 A 
ATOM     61  C   UNL A   1      44.044  33.545  32.257  1.00  0.00     0.135 A 
ATOM     62  F   UNL A   1      44.022  34.060  28.653  1.00  0.00    -0.206 F 
ATOM     63  C   UNL A   1      44.165  35.621  30.401  1.00  0.00     0.059 A 
ATOM     64  C   UNL A   1      44.144  34.858  32.707  1.00  0.00     0.059 A 
ATOM     65  F   UNL A   1      44.003  32.564  33.171  1.00  0.00    -0.206 F 
ATOM     66  C   UNL A   1      44.220  35.888  31.771  1.00  0.00     0.060 A 
BRANCH  66  67
ATOM     67  S   UNL A   1      44.387  37.601  32.317  1.00  0.00     0.124 S 
ATOM     68  O   UNL A   1      43.341  37.685  33.331  1.00  0.00    -0.237 OA
ATOM     69  O   UNL A   1      45.757  37.643  32.817  1.00  0.00    -0.237 OA
ATOM     70  O   UNL A   1      44.144  38.369  31.099  1.00  0.00    -0.744 OA
ENDBRANCH  66  67
ENDBRANCH  45  59
BRANCH  46  71
ATOM     71  C   UNL A   1      42.767  23.848  27.693  1.00  0.00     0.058 A 
ATOM     72  C   UNL A   1      42.629  22.759  28.565  1.00  0.00     0.135 A 
ATOM     73  C   UNL A   1      42.688  23.599  26.314  1.00  0.00     0.135 A 
ATOM     74  F   UNL A   1      42.706  22.947  29.891  1.00  0.00    -0.206 F 
ATOM     75  C   UNL A   1      42.415  21.469  28.087  1.00  0.00     0.059 A 
ATOM     76  C   UNL A   1      42.452  22.323  25.813  1.00  0.00     0.059 A 
ATOM     77  F   UNL A   1      42.802  24.613  25.441  1.00  0.00    -0.206 F 
ATOM     78  C   UNL A   1      42.323  21.263  26.709  1.00  0.00     0.060 A 
BRANCH  78  79
ATOM     79  S   UNL A   1      41.966  19.601  26.097  1.00  0.00     0.124 S 
ATOM     80  O   UNL A   1      42.821  19.533  24.919  1.00  0.00    -0.237 OA
ATOM     81  O   UNL A   1      42.363  18.763  27.225  1.00  0.00    -0.237 OA
ATOM     82  O   UNL A   1      40.530  19.645  25.837  1.00  0.00    -0.744 OA
ENDBRANCH  78  79
ENDBRANCH  46  71
BRANCH  58  83
ATOM     83  C   UNL A   1      48.328  27.640  29.495  1.00  0.00     0.058 A 
ATOM     84  C   UNL A   1      49.178  28.020  28.446  1.00  0.00     0.135 A 
ATOM     85  C   UNL A   1      48.896  26.996  30.606  1.00  0.00     0.135 A 
ATOM     86  F   UNL A   1      48.679  28.632  27.360  1.00  0.00    -0.206 F 
ATOM     87  C   UNL A   1      50.543  27.757  28.488  1.00  0.00     0.059 A 
ATOM     88  C   UNL A   1      50.262  26.740  30.677  1.00  0.00     0.059 A 
ATOM     89  F   UNL A   1      48.124  26.620  31.637  1.00  0.00    -0.206 F 
ATOM     90  C   UNL A   1      51.075  27.115  29.608  1.00  0.00     0.060 A 
BRANCH  90  91
ATOM     91  S   UNL A   1      52.852  26.803  29.670  1.00  0.00     0.124 S 
ATOM     92  O   UNL A   1      53.386  28.160  29.716  1.00  0.00    -0.237 OA
ATOM     93  O   UNL A   1      52.995  26.024  30.896  1.00  0.00    -0.237 OA
ATOM     94  O   UNL A   1      53.109  26.067  28.435  1.00  0.00    -0.744 OA
ENDBRANCH  90  91
ENDBRANCH  58  83
ENDBRANCH  32  33
ENDBRANCH  25  27
ENDBRANCH  24  25
ENDBRANCH   1  24
TORSDOF 16
ENDMDL
