MODEL 1
REMARK VINA RESULT:     -11.2      0.000      0.000
REMARK SMILES C[C@H]1[C@@H](C(=O)OCCOC(=O)c2ccc(-c3c4nc(c(-c5c(F)cc(S(=O)(=O)[O-])cc5F)c5ccc([nH]5)c(-c5c(F)cc(S(=O)(=O)[O-])cc5F)c5nc(c(-c6c(F)cc(S(=O)(=O)[O-])cc6F)c6ccc3[nH]6)C=C5)C=C4)cc2)CCN1C(=O)N(C)CC(=O)N1CCCC1
REMARK SMILES IDX 7 1 6 2 4 3 5 4 3 5 1 6 2 7 80 8 78 9 79 10 81 11 82 12
REMARK SMILES IDX 83 13 84 14 85 15 86 16 87 17 88 18 89 19 92 20 90 21 91 22
REMARK SMILES IDX 8 23 9 24 10 25 11 26 12 27 13 28 77 29 14 30 76 31 15 32
REMARK SMILES IDX 16 33 17 34 70 35 18 36 75 37 69 38 71 39 19 40 74 41 68 42
REMARK SMILES IDX 67 43 20 45 54 46 33 47 53 48 34 49 37 50 52 51 72 52 35 53
REMARK SMILES IDX 36 54 51 56 73 57 38 58 21 59 22 60 31 61 23 62 24 63 30 64
REMARK SMILES IDX 32 65 25 66 26 67 27 68 28 69 29 70 55 71 56 72 65 73 57 74
REMARK SMILES IDX 58 75 64 76 66 77 59 78 60 79 61 80 62 81 63 82 39 83 40 84
REMARK SMILES IDX 49 85 41 86 42 87 48 88 50 89 43 90 44 91 45 92 46 93 47 94
REMARK H PARENT 71 44 37 55
REMARK Flexibility Score: inf
ROOT
ATOM      1  C   UNL A   1      32.395  29.687  25.833  1.00  0.00     0.274 C 
ENDROOT
BRANCH   1   2
ATOM      2  O   UNL A   1      32.754  28.711  24.834  1.00  0.00    -0.462 OA
BRANCH   2   3
ATOM      3  C   UNL A   1      31.766  28.030  24.222  1.00  0.00     0.311 C 
ATOM      4  O   UNL A   1      30.661  28.503  23.974  1.00  0.00    -0.252 OA
BRANCH   3   5
ATOM      5  C   UNL A   1      32.122  26.607  23.827  1.00  0.00     0.123 C 
ATOM      6  C   UNL A   1      31.363  25.608  26.140  1.00  0.00     0.032 C 
ATOM      7  C   UNL A   1      31.789  25.371  24.696  1.00  0.00     0.098 C 
ATOM      8  N   UNL A   1      32.998  24.537  24.651  1.00  0.00    -0.321 N 
ATOM      9  C   UNL A   1      33.602  26.467  23.465  1.00  0.00     0.039 C 
ATOM     10  C   UNL A   1      34.140  25.392  24.375  1.00  0.00     0.122 C 
BRANCH   8  11
ATOM     11  C   UNL A   1      33.264  23.227  24.940  1.00  0.00     0.320 C 
ATOM     12  O   UNL A   1      33.633  22.934  26.084  1.00  0.00    -0.248 OA
BRANCH  11  13
ATOM     13  N   UNL A   1      33.159  22.221  24.009  1.00  0.00    -0.318 N 
ATOM     14  C   UNL A   1      32.517  22.179  22.704  1.00  0.00     0.149 C 
BRANCH  13  15
ATOM     15  C   UNL A   1      33.828  20.977  24.379  1.00  0.00     0.221 C 
BRANCH  15  16
ATOM     16  C   UNL A   1      33.033  19.761  24.903  1.00  0.00     0.242 C 
ATOM     17  O   UNL A   1      31.919  19.986  25.403  1.00  0.00    -0.273 OA
ATOM     18  N   UNL A   1      33.436  18.457  24.713  1.00  0.00    -0.341 N 
ATOM     19  C   UNL A   1      34.722  17.893  24.347  1.00  0.00     0.119 C 
ATOM     20  C   UNL A   1      32.513  17.382  25.037  1.00  0.00     0.119 C 
ATOM     21  C   UNL A   1      34.343  16.578  23.690  1.00  0.00     0.023 C 
ATOM     22  C   UNL A   1      33.164  16.100  24.524  1.00  0.00     0.023 C 
ENDBRANCH  15  16
ENDBRANCH  13  15
ENDBRANCH  11  13
ENDBRANCH   8  11
ENDBRANCH   3   5
ENDBRANCH   2   3
ENDBRANCH   1   2
BRANCH   1  23
ATOM     23  C   UNL A   1      32.595  29.108  27.232  1.00  0.00     0.275 C 
BRANCH  23  24
ATOM     24  O   UNL A   1      33.995  29.054  27.547  1.00  0.00    -0.458 OA
BRANCH  24  25
ATOM     25  C   UNL A   1      34.497  30.176  28.108  1.00  0.00     0.338 C 
ATOM     26  O   UNL A   1      33.894  31.180  28.441  1.00  0.00    -0.246 OA
BRANCH  25  27
ATOM     27  C   UNL A   1      35.925  29.974  28.369  1.00  0.00     0.060 A 
ATOM     28  C   UNL A   1      36.816  30.097  27.304  1.00  0.00     0.016 A 
ATOM     29  C   UNL A   1      36.361  29.550  29.621  1.00  0.00     0.016 A 
ATOM     30  C   UNL A   1      38.137  29.695  27.458  1.00  0.00     0.010 A 
ATOM     31  C   UNL A   1      37.713  29.255  29.800  1.00  0.00     0.010 A 
ATOM     32  C   UNL A   1      38.609  29.301  28.715  1.00  0.00    -0.014 A 
BRANCH  32  33
ATOM     33  C   UNL A   1      40.039  28.953  28.913  1.00  0.00     0.031 A 
ATOM     34  C   UNL A   1      41.011  30.011  29.354  1.00  0.00     0.074 A 
ATOM     35  C   UNL A   1      40.468  27.701  28.654  1.00  0.00     0.049 A 
ATOM     36  N   UNL A   1      42.316  30.004  29.302  1.00  0.00    -0.248 NA
ATOM     37  C   UNL A   1      40.435  31.245  29.912  1.00  0.00     0.031 C 
ATOM     38  C   UNL A   1      39.615  26.571  28.278  1.00  0.00     0.029 A 
ATOM     39  N   UNL A   1      41.735  27.174  28.650  1.00  0.00    -0.354 N 
ATOM     40  C   UNL A   1      42.719  31.255  29.756  1.00  0.00     0.074 A 
ATOM     41  C   UNL A   1      41.519  31.989  30.097  1.00  0.00     0.031 C 
ATOM     42  C   UNL A   1      40.377  25.484  28.091  1.00  0.00     0.029 A 
ATOM     43  C   UNL A   1      41.777  25.863  28.234  1.00  0.00     0.049 A 
ATOM     44  H   UNL A   1      42.534  27.682  28.917  1.00  0.00     0.167 HD
ATOM     45  C   UNL A   1      43.978  31.741  29.861  1.00  0.00     0.037 A 
ATOM     46  C   UNL A   1      42.824  25.072  27.932  1.00  0.00     0.037 A 
ATOM     47  C   UNL A   1      45.159  30.973  29.560  1.00  0.00     0.049 A 
ATOM     48  C   UNL A   1      44.210  25.638  28.026  1.00  0.00     0.074 A 
ATOM     49  C   UNL A   1      46.484  31.365  29.627  1.00  0.00     0.029 A 
ATOM     50  N   UNL A   1      45.153  29.647  29.150  1.00  0.00    -0.354 N 
ATOM     51  N   UNL A   1      44.578  26.846  28.380  1.00  0.00    -0.248 NA
ATOM     52  C   UNL A   1      45.319  24.749  27.660  1.00  0.00     0.031 C 
ATOM     53  C   UNL A   1      47.279  30.282  29.236  1.00  0.00     0.029 A 
ATOM     54  C   UNL A   1      46.450  29.206  28.958  1.00  0.00     0.049 A 
ATOM     55  H   UNL A   1      44.345  29.101  29.015  1.00  0.00     0.167 HD
ATOM     56  C   UNL A   1      45.964  26.860  28.293  1.00  0.00     0.074 A 
ATOM     57  C   UNL A   1      46.369  25.537  27.859  1.00  0.00     0.031 C 
ATOM     58  C   UNL A   1      46.823  27.876  28.544  1.00  0.00     0.037 A 
BRANCH  45  59
ATOM     59  C   UNL A   1      44.144  33.177  30.271  1.00  0.00     0.058 A 
ATOM     60  C   UNL A   1      44.021  34.234  29.357  1.00  0.00     0.135 A 
ATOM     61  C   UNL A   1      44.398  33.499  31.615  1.00  0.00     0.135 A 
ATOM     62  F   UNL A   1      43.797  33.981  28.059  1.00  0.00    -0.206 F 
ATOM     63  C   UNL A   1      44.165  35.560  29.757  1.00  0.00     0.059 A 
ATOM     64  C   UNL A   1      44.524  34.819  32.041  1.00  0.00     0.059 A 
ATOM     65  F   UNL A   1      44.528  32.526  32.530  1.00  0.00    -0.206 F 
ATOM     66  C   UNL A   1      44.419  35.842  31.101  1.00  0.00     0.060 A 
BRANCH  66  67
ATOM     67  S   UNL A   1      44.598  37.565  31.612  1.00  0.00     0.124 S 
ATOM     68  O   UNL A   1      43.651  37.640  32.720  1.00  0.00    -0.237 OA
ATOM     69  O   UNL A   1      46.008  37.642  31.978  1.00  0.00    -0.237 OA
ATOM     70  O   UNL A   1      44.225  38.314  30.416  1.00  0.00    -0.744 OA
ENDBRANCH  66  67
ENDBRANCH  45  59
BRANCH  46  71
ATOM     71  C   UNL A   1      42.581  23.685  27.455  1.00  0.00     0.058 A 
ATOM     72  C   UNL A   1      42.529  23.391  26.086  1.00  0.00     0.135 A 
ATOM     73  C   UNL A   1      42.459  22.617  28.360  1.00  0.00     0.135 A 
ATOM     74  F   UNL A   1      42.634  24.380  25.184  1.00  0.00    -0.206 F 
ATOM     75  C   UNL A   1      42.366  22.088  25.628  1.00  0.00     0.059 A 
ATOM     76  C   UNL A   1      42.321  21.303  27.925  1.00  0.00     0.059 A 
ATOM     77  F   UNL A   1      42.520  22.844  29.681  1.00  0.00    -0.206 F 
ATOM     78  C   UNL A   1      42.270  21.049  26.556  1.00  0.00     0.060 A 
BRANCH  78  79
ATOM     79  S   UNL A   1      42.142  19.351  25.954  1.00  0.00     0.124 S 
ATOM     80  O   UNL A   1      43.033  19.381  24.801  1.00  0.00    -0.237 OA
ATOM     81  O   UNL A   1      42.607  18.579  27.101  1.00  0.00    -0.237 OA
ATOM     82  O   UNL A   1      40.720  19.211  25.652  1.00  0.00    -0.744 OA
ENDBRANCH  78  79
ENDBRANCH  46  71
BRANCH  58  83
ATOM     83  C   UNL A   1      48.288  27.588  28.404  1.00  0.00     0.058 A 
ATOM     84  C   UNL A   1      49.031  27.041  29.459  1.00  0.00     0.135 A 
ATOM     85  C   UNL A   1      48.929  27.783  27.172  1.00  0.00     0.135 A 
ATOM     86  F   UNL A   1      48.460  26.847  30.659  1.00  0.00    -0.206 F 
ATOM     87  C   UNL A   1      50.367  26.695  29.298  1.00  0.00     0.059 A 
ATOM     88  C   UNL A   1      50.260  27.428  26.982  1.00  0.00     0.059 A 
ATOM     89  F   UNL A   1      48.255  28.300  26.132  1.00  0.00    -0.206 F 
ATOM     90  C   UNL A   1      50.971  26.887  28.052  1.00  0.00     0.060 A 
BRANCH  90  91
ATOM     91  S   UNL A   1      52.687  26.368  27.832  1.00  0.00     0.124 S 
ATOM     92  O   UNL A   1      53.115  26.179  29.213  1.00  0.00    -0.237 OA
ATOM     93  O   UNL A   1      52.548  25.150  27.038  1.00  0.00    -0.237 OA
ATOM     94  O   UNL A   1      53.293  27.497  27.134  1.00  0.00    -0.744 OA
ENDBRANCH  90  91
ENDBRANCH  58  83
ENDBRANCH  32  33
ENDBRANCH  25  27
ENDBRANCH  24  25
ENDBRANCH  23  24
ENDBRANCH   1  23
TORSDOF 18
ENDMDL
MODEL 2
REMARK VINA RESULT:     -11.2      1.221      2.253
REMARK SMILES C[C@H]1[C@@H](C(=O)OCCOC(=O)c2ccc(-c3c4nc(c(-c5c(F)cc(S(=O)(=O)[O-])cc5F)c5ccc([nH]5)c(-c5c(F)cc(S(=O)(=O)[O-])cc5F)c5nc(c(-c6c(F)cc(S(=O)(=O)[O-])cc6F)c6ccc3[nH]6)C=C5)C=C4)cc2)CCN1C(=O)N(C)CC(=O)N1CCCC1
REMARK SMILES IDX 7 1 6 2 4 3 5 4 3 5 1 6 2 7 80 8 78 9 79 10 81 11 82 12
REMARK SMILES IDX 83 13 84 14 85 15 86 16 87 17 88 18 89 19 92 20 90 21 91 22
REMARK SMILES IDX 8 23 9 24 10 25 11 26 12 27 13 28 77 29 14 30 76 31 15 32
REMARK SMILES IDX 16 33 17 34 70 35 18 36 75 37 69 38 71 39 19 40 74 41 68 42
REMARK SMILES IDX 67 43 20 45 54 46 33 47 53 48 34 49 37 50 52 51 72 52 35 53
REMARK SMILES IDX 36 54 51 56 73 57 38 58 21 59 22 60 31 61 23 62 24 63 30 64
REMARK SMILES IDX 32 65 25 66 26 67 27 68 28 69 29 70 55 71 56 72 65 73 57 74
REMARK SMILES IDX 58 75 64 76 66 77 59 78 60 79 61 80 62 81 63 82 39 83 40 84
REMARK SMILES IDX 49 85 41 86 42 87 48 88 50 89 43 90 44 91 45 92 46 93 47 94
REMARK H PARENT 71 44 37 55
REMARK Flexibility Score: inf
ROOT
ATOM      1  C   UNL A   1      32.441  28.739  25.845  1.00  0.00     0.274 C 
ENDROOT
BRANCH   1   2
ATOM      2  O   UNL A   1      32.614  28.702  24.413  1.00  0.00    -0.462 OA
BRANCH   2   3
ATOM      3  C   UNL A   1      31.835  27.867  23.698  1.00  0.00     0.311 C 
ATOM      4  O   UNL A   1      31.584  28.019  22.506  1.00  0.00    -0.252 OA
BRANCH   3   5
ATOM      5  C   UNL A   1      31.291  26.680  24.474  1.00  0.00     0.123 C 
ATOM      6  C   UNL A   1      33.499  25.278  24.185  1.00  0.00     0.032 C 
ATOM      7  C   UNL A   1      32.146  25.451  24.864  1.00  0.00     0.098 C 
ATOM      8  N   UNL A   1      31.287  24.290  24.594  1.00  0.00    -0.321 N 
ATOM      9  C   UNL A   1      30.022  26.112  23.837  1.00  0.00     0.039 C 
ATOM     10  C   UNL A   1      30.318  24.657  23.575  1.00  0.00     0.122 C 
BRANCH   8  11
ATOM     11  C   UNL A   1      31.308  22.978  24.979  1.00  0.00     0.320 C 
ATOM     12  O   UNL A   1      30.541  22.609  25.877  1.00  0.00    -0.248 OA
BRANCH  11  13
ATOM     13  N   UNL A   1      32.159  22.051  24.424  1.00  0.00    -0.318 N 
ATOM     14  C   UNL A   1      32.571  21.824  23.048  1.00  0.00     0.149 C 
BRANCH  13  15
ATOM     15  C   UNL A   1      32.781  21.144  25.386  1.00  0.00     0.221 C 
BRANCH  15  16
ATOM     16  C   UNL A   1      34.255  20.708  25.242  1.00  0.00     0.242 C 
ATOM     17  O   UNL A   1      34.468  19.580  24.768  1.00  0.00    -0.273 OA
ATOM     18  N   UNL A   1      35.318  21.553  25.476  1.00  0.00    -0.341 N 
ATOM     19  C   UNL A   1      35.403  22.816  26.186  1.00  0.00     0.119 C 
ATOM     20  C   UNL A   1      36.654  21.124  25.093  1.00  0.00     0.119 C 
ATOM     21  C   UNL A   1      36.595  23.494  25.534  1.00  0.00     0.023 C 
ATOM     22  C   UNL A   1      37.556  22.341  25.285  1.00  0.00     0.023 C 
ENDBRANCH  15  16
ENDBRANCH  13  15
ENDBRANCH  11  13
ENDBRANCH   8  11
ENDBRANCH   3   5
ENDBRANCH   2   3
ENDBRANCH   1   2
BRANCH   1  23
ATOM     23  C   UNL A   1      33.764  28.431  26.544  1.00  0.00     0.275 C 
BRANCH  23  24
ATOM     24  O   UNL A   1      33.783  29.031  27.848  1.00  0.00    -0.458 OA
BRANCH  24  25
ATOM     25  C   UNL A   1      34.404  30.229  27.918  1.00  0.00     0.338 C 
ATOM     26  O   UNL A   1      33.907  31.335  27.809  1.00  0.00    -0.246 OA
BRANCH  25  27
ATOM     27  C   UNL A   1      35.812  30.010  28.259  1.00  0.00     0.060 A 
ATOM     28  C   UNL A   1      36.768  30.167  27.258  1.00  0.00     0.016 A 
ATOM     29  C   UNL A   1      36.168  29.540  29.520  1.00  0.00     0.016 A 
ATOM     30  C   UNL A   1      38.076  29.754  27.478  1.00  0.00     0.010 A 
ATOM     31  C   UNL A   1      37.506  29.231  29.772  1.00  0.00     0.010 A 
ATOM     32  C   UNL A   1      38.468  29.312  28.748  1.00  0.00    -0.014 A 
BRANCH  32  33
ATOM     33  C   UNL A   1      39.881  28.951  29.021  1.00  0.00     0.031 A 
ATOM     34  C   UNL A   1      40.833  29.994  29.534  1.00  0.00     0.074 A 
ATOM     35  C   UNL A   1      40.317  27.700  28.767  1.00  0.00     0.049 A 
ATOM     36  N   UNL A   1      42.140  29.979  29.557  1.00  0.00    -0.248 NA
ATOM     37  C   UNL A   1      40.235  31.224  30.078  1.00  0.00     0.031 C 
ATOM     38  C   UNL A   1      39.479  26.582  28.325  1.00  0.00     0.029 A 
ATOM     39  N   UNL A   1      41.577  27.163  28.828  1.00  0.00    -0.354 N 
ATOM     40  C   UNL A   1      42.524  31.219  30.053  1.00  0.00     0.074 A 
ATOM     41  C   UNL A   1      41.311  31.957  30.337  1.00  0.00     0.031 C 
ATOM     42  C   UNL A   1      40.243  25.492  28.166  1.00  0.00     0.029 A 
ATOM     43  C   UNL A   1      41.635  25.859  28.394  1.00  0.00     0.049 A 
ATOM     44  H   UNL A   1      42.363  27.661  29.149  1.00  0.00     0.167 HD
ATOM     45  C   UNL A   1      43.778  31.694  30.238  1.00  0.00     0.037 A 
ATOM     46  C   UNL A   1      42.692  25.064  28.140  1.00  0.00     0.037 A 
ATOM     47  C   UNL A   1      44.969  30.921  29.993  1.00  0.00     0.049 A 
ATOM     48  C   UNL A   1      44.074  25.618  28.323  1.00  0.00     0.074 A 
ATOM     49  C   UNL A   1      46.291  31.303  30.142  1.00  0.00     0.029 A 
ATOM     50  N   UNL A   1      44.977  29.602  29.562  1.00  0.00    -0.354 N 
ATOM     51  N   UNL A   1      44.429  26.818  28.716  1.00  0.00    -0.248 NA
ATOM     52  C   UNL A   1      45.196  24.726  28.007  1.00  0.00     0.031 C 
ATOM     53  C   UNL A   1      47.099  30.219  29.780  1.00  0.00     0.029 A 
ATOM     54  C   UNL A   1      46.281  29.154  29.438  1.00  0.00     0.049 A 
ATOM     55  H   UNL A   1      44.176  29.064  29.373  1.00  0.00     0.167 HD
ATOM     56  C   UNL A   1      45.818  26.823  28.709  1.00  0.00     0.074 A 
ATOM     57  C   UNL A   1      46.238  25.504  28.278  1.00  0.00     0.031 C 
ATOM     58  C   UNL A   1      46.668  27.828  29.025  1.00  0.00     0.037 A 
BRANCH  45  59
ATOM     59  C   UNL A   1      43.930  33.122  30.680  1.00  0.00     0.058 A 
ATOM     60  C   UNL A   1      44.071  33.473  32.031  1.00  0.00     0.135 A 
ATOM     61  C   UNL A   1      43.970  34.153  29.727  1.00  0.00     0.135 A 
ATOM     62  F   UNL A   1      44.022  32.530  32.984  1.00  0.00    -0.206 F 
ATOM     63  C   UNL A   1      44.224  34.801  32.424  1.00  0.00     0.059 A 
ATOM     64  C   UNL A   1      44.145  35.484  30.095  1.00  0.00     0.059 A 
ATOM     65  F   UNL A   1      43.838  33.872  28.422  1.00  0.00    -0.206 F 
ATOM     66  C   UNL A   1      44.257  35.800  31.447  1.00  0.00     0.060 A 
BRANCH  66  67
ATOM     67  S   UNL A   1      44.463  37.518  31.965  1.00  0.00     0.124 S 
ATOM     68  O   UNL A   1      45.892  37.564  32.257  1.00  0.00    -0.237 OA
ATOM     69  O   UNL A   1      44.034  38.258  30.783  1.00  0.00    -0.237 OA
ATOM     70  O   UNL A   1      43.581  37.631  33.122  1.00  0.00    -0.744 OA
ENDBRANCH  66  67
ENDBRANCH  45  59
BRANCH  46  71
ATOM     71  C   UNL A   1      42.468  23.686  27.629  1.00  0.00     0.058 A 
ATOM     72  C   UNL A   1      42.370  23.435  26.254  1.00  0.00     0.135 A 
ATOM     73  C   UNL A   1      42.410  22.588  28.502  1.00  0.00     0.135 A 
ATOM     74  F   UNL A   1      42.414  24.454  25.381  1.00  0.00    -0.206 F 
ATOM     75  C   UNL A   1      42.224  22.143  25.760  1.00  0.00     0.059 A 
ATOM     76  C   UNL A   1      42.290  21.285  28.031  1.00  0.00     0.059 A 
ATOM     77  F   UNL A   1      42.516  22.775  29.827  1.00  0.00    -0.206 F 
ATOM     78  C   UNL A   1      42.192  21.073  26.656  1.00  0.00     0.060 A 
BRANCH  78  79
ATOM     79  S   UNL A   1      42.086  19.392  26.005  1.00  0.00     0.124 S 
ATOM     80  O   UNL A   1      42.561  18.608  27.139  1.00  0.00    -0.237 OA
ATOM     81  O   UNL A   1      40.666  19.268  25.693  1.00  0.00    -0.237 OA
ATOM     82  O   UNL A   1      42.971  19.428  24.845  1.00  0.00    -0.744 OA
ENDBRANCH  78  79
ENDBRANCH  46  71
BRANCH  58  83
ATOM     83  C   UNL A   1      48.137  27.531  28.965  1.00  0.00     0.058 A 
ATOM     84  C   UNL A   1      48.875  27.726  27.789  1.00  0.00     0.135 A 
ATOM     85  C   UNL A   1      48.823  27.131  30.121  1.00  0.00     0.135 A 
ATOM     86  F   UNL A   1      48.257  28.099  26.657  1.00  0.00    -0.206 F 
ATOM     87  C   UNL A   1      50.251  27.533  27.760  1.00  0.00     0.059 A 
ATOM     88  C   UNL A   1      50.202  26.950  30.120  1.00  0.00     0.059 A 
ATOM     89  F   UNL A   1      48.156  26.938  31.271  1.00  0.00    -0.206 F 
ATOM     90  C   UNL A   1      50.906  27.151  28.934  1.00  0.00     0.060 A 
BRANCH  90  91
ATOM     91  S   UNL A   1      52.703  26.972  28.905  1.00  0.00     0.124 S 
ATOM     92  O   UNL A   1      53.136  28.365  28.929  1.00  0.00    -0.237 OA
ATOM     93  O   UNL A   1      52.963  26.205  30.120  1.00  0.00    -0.237 OA
ATOM     94  O   UNL A   1      52.951  26.258  27.656  1.00  0.00    -0.744 OA
ENDBRANCH  90  91
ENDBRANCH  58  83
ENDBRANCH  32  33
ENDBRANCH  25  27
ENDBRANCH  24  25
ENDBRANCH  23  24
ENDBRANCH   1  23
TORSDOF 18
ENDMDL
MODEL 3
REMARK VINA RESULT:     -11.1      3.992     10.157
REMARK SMILES C[C@H]1[C@@H](C(=O)OCCOC(=O)c2ccc(-c3c4nc(c(-c5c(F)cc(S(=O)(=O)[O-])cc5F)c5ccc([nH]5)c(-c5c(F)cc(S(=O)(=O)[O-])cc5F)c5nc(c(-c6c(F)cc(S(=O)(=O)[O-])cc6F)c6ccc3[nH]6)C=C5)C=C4)cc2)CCN1C(=O)N(C)CC(=O)N1CCCC1
REMARK SMILES IDX 7 1 6 2 4 3 5 4 3 5 1 6 2 7 80 8 78 9 79 10 81 11 82 12
REMARK SMILES IDX 83 13 84 14 85 15 86 16 87 17 88 18 89 19 92 20 90 21 91 22
REMARK SMILES IDX 8 23 9 24 10 25 11 26 12 27 13 28 77 29 14 30 76 31 15 32
REMARK SMILES IDX 16 33 17 34 70 35 18 36 75 37 69 38 71 39 19 40 74 41 68 42
REMARK SMILES IDX 67 43 20 45 54 46 33 47 53 48 34 49 37 50 52 51 72 52 35 53
REMARK SMILES IDX 36 54 51 56 73 57 38 58 21 59 22 60 31 61 23 62 24 63 30 64
REMARK SMILES IDX 32 65 25 66 26 67 27 68 28 69 29 70 55 71 56 72 65 73 57 74
REMARK SMILES IDX 58 75 64 76 66 77 59 78 60 79 61 80 62 81 63 82 39 83 40 84
REMARK SMILES IDX 49 85 41 86 42 87 48 88 50 89 43 90 44 91 45 92 46 93 47 94
REMARK H PARENT 71 44 37 55
REMARK Flexibility Score: inf
ROOT
ATOM      1  C   UNL A   1      35.845  22.099  24.613  1.00  0.00     0.274 C 
ENDROOT
BRANCH   1   2
ATOM      2  O   UNL A   1      34.747  21.273  25.052  1.00  0.00    -0.462 OA
BRANCH   2   3
ATOM      3  C   UNL A   1      33.582  21.349  24.380  1.00  0.00     0.311 C 
ATOM      4  O   UNL A   1      32.875  20.379  24.124  1.00  0.00    -0.252 OA
BRANCH   3   5
ATOM      5  C   UNL A   1      33.175  22.753  23.966  1.00  0.00     0.123 C 
ATOM      6  C   UNL A   1      32.288  23.372  26.366  1.00  0.00     0.032 C 
ATOM      7  C   UNL A   1      32.678  23.826  24.964  1.00  0.00     0.098 C 
ATOM      8  N   UNL A   1      31.534  24.463  24.298  1.00  0.00    -0.321 N 
ATOM      9  C   UNL A   1      32.150  22.742  22.831  1.00  0.00     0.039 C 
ATOM     10  C   UNL A   1      30.968  23.522  23.348  1.00  0.00     0.122 C 
BRANCH   8  11
ATOM     11  C   UNL A   1      30.853  25.635  24.484  1.00  0.00     0.320 C 
ATOM     12  O   UNL A   1      29.898  25.649  25.271  1.00  0.00    -0.248 OA
BRANCH  11  13
ATOM     13  N   UNL A   1      31.171  26.797  23.821  1.00  0.00    -0.318 N 
ATOM     14  C   UNL A   1      31.204  27.118  22.403  1.00  0.00     0.149 C 
BRANCH  13  15
ATOM     15  C   UNL A   1      31.516  27.919  24.690  1.00  0.00     0.221 C 
BRANCH  15  16
ATOM     16  C   UNL A   1      32.896  28.009  25.377  1.00  0.00     0.242 C 
ATOM     17  O   UNL A   1      33.792  27.263  24.949  1.00  0.00    -0.273 OA
ATOM     18  N   UNL A   1      33.207  28.961  26.324  1.00  0.00    -0.341 N 
ATOM     19  C   UNL A   1      32.363  29.819  27.135  1.00  0.00     0.119 C 
ATOM     20  C   UNL A   1      34.591  29.111  26.741  1.00  0.00     0.119 C 
ATOM     21  C   UNL A   1      33.267  31.004  27.430  1.00  0.00     0.023 C 
ATOM     22  C   UNL A   1      34.632  30.361  27.617  1.00  0.00     0.023 C 
ENDBRANCH  15  16
ENDBRANCH  13  15
ENDBRANCH  11  13
ENDBRANCH   8  11
ENDBRANCH   3   5
ENDBRANCH   2   3
ENDBRANCH   1   2
BRANCH   1  23
ATOM     23  C   UNL A   1      36.448  22.849  25.800  1.00  0.00     0.275 C 
BRANCH  23  24
ATOM     24  O   UNL A   1      37.620  23.567  25.384  1.00  0.00    -0.458 OA
BRANCH  24  25
ATOM     25  C   UNL A   1      38.773  23.162  25.962  1.00  0.00     0.338 C 
ATOM     26  O   UNL A   1      39.357  22.105  25.804  1.00  0.00    -0.246 OA
BRANCH  25  27
ATOM     27  C   UNL A   1      39.307  24.262  26.768  1.00  0.00     0.060 A 
ATOM     28  C   UNL A   1      38.908  24.362  28.100  1.00  0.00     0.016 A 
ATOM     29  C   UNL A   1      40.095  25.249  26.182  1.00  0.00     0.016 A 
ATOM     30  C   UNL A   1      39.208  25.505  28.829  1.00  0.00     0.010 A 
ATOM     31  C   UNL A   1      40.489  26.344  26.954  1.00  0.00     0.010 A 
ATOM     32  C   UNL A   1      40.030  26.495  28.276  1.00  0.00    -0.014 A 
BRANCH  32  33
ATOM     33  C   UNL A   1      40.431  27.680  29.075  1.00  0.00     0.031 A 
ATOM     34  C   UNL A   1      41.702  27.646  29.876  1.00  0.00     0.074 A 
ATOM     35  C   UNL A   1      39.632  28.766  29.114  1.00  0.00     0.049 A 
ATOM     36  N   UNL A   1      42.083  28.428  30.850  1.00  0.00    -0.248 NA
ATOM     37  C   UNL A   1      42.662  26.580  29.546  1.00  0.00     0.031 C 
ATOM     38  C   UNL A   1      38.404  28.946  28.335  1.00  0.00     0.029 A 
ATOM     39  N   UNL A   1      39.725  29.918  29.853  1.00  0.00    -0.354 N 
ATOM     40  C   UNL A   1      43.294  27.912  31.297  1.00  0.00     0.074 A 
ATOM     41  C   UNL A   1      43.593  26.759  30.474  1.00  0.00     0.031 C 
ATOM     42  C   UNL A   1      37.865  30.138  28.627  1.00  0.00     0.029 A 
ATOM     43  C   UNL A   1      38.650  30.760  29.686  1.00  0.00     0.049 A 
ATOM     44  H   UNL A   1      40.484  30.121  30.445  1.00  0.00     0.167 HD
ATOM     45  C   UNL A   1      44.070  28.359  32.313  1.00  0.00     0.037 A 
ATOM     46  C   UNL A   1      38.295  31.874  30.354  1.00  0.00     0.037 A 
ATOM     47  C   UNL A   1      43.773  29.537  33.086  1.00  0.00     0.049 A 
ATOM     48  C   UNL A   1      39.153  32.336  31.495  1.00  0.00     0.074 A 
ATOM     49  C   UNL A   1      44.487  30.081  34.139  1.00  0.00     0.029 A 
ATOM     50  N   UNL A   1      42.678  30.363  32.874  1.00  0.00    -0.354 N 
ATOM     51  N   UNL A   1      40.253  31.798  31.962  1.00  0.00    -0.248 NA
ATOM     52  C   UNL A   1      38.713  33.538  32.214  1.00  0.00     0.031 C 
ATOM     53  C   UNL A   1      43.811  31.224  34.579  1.00  0.00     0.029 A 
ATOM     54  C   UNL A   1      42.695  31.411  33.778  1.00  0.00     0.049 A 
ATOM     55  H   UNL A   1      41.991  30.225  32.183  1.00  0.00     0.167 HD
ATOM     56  C   UNL A   1      40.648  32.603  33.023  1.00  0.00     0.074 A 
ATOM     57  C   UNL A   1      39.670  33.669  33.125  1.00  0.00     0.031 C 
ATOM     58  C   UNL A   1      41.718  32.469  33.842  1.00  0.00     0.037 A 
BRANCH  45  59
ATOM     59  C   UNL A   1      45.283  27.551  32.677  1.00  0.00     0.058 A 
ATOM     60  C   UNL A   1      46.549  27.819  32.136  1.00  0.00     0.135 A 
ATOM     61  C   UNL A   1      45.179  26.509  33.615  1.00  0.00     0.135 A 
ATOM     62  F   UNL A   1      46.701  28.791  31.223  1.00  0.00    -0.206 F 
ATOM     63  C   UNL A   1      47.666  27.070  32.494  1.00  0.00     0.059 A 
ATOM     64  C   UNL A   1      46.287  25.761  34.004  1.00  0.00     0.059 A 
ATOM     65  F   UNL A   1      43.991  26.209  34.161  1.00  0.00    -0.206 F 
ATOM     66  C   UNL A   1      47.524  26.040  33.428  1.00  0.00     0.060 A 
BRANCH  66  67
ATOM     67  S   UNL A   1      48.980  25.077  33.892  1.00  0.00     0.124 S 
ATOM     68  O   UNL A   1      49.582  25.932  34.909  1.00  0.00    -0.237 OA
ATOM     69  O   UNL A   1      48.393  23.832  34.378  1.00  0.00    -0.237 OA
ATOM     70  O   UNL A   1      49.725  24.966  32.643  1.00  0.00    -0.744 OA
ENDBRANCH  66  67
ENDBRANCH  45  59
BRANCH  46  71
ATOM     71  C   UNL A   1      37.039  32.579  29.990  1.00  0.00     0.058 A 
ATOM     72  C   UNL A   1      35.829  32.270  30.626  1.00  0.00     0.135 A 
ATOM     73  C   UNL A   1      37.036  33.618  29.044  1.00  0.00     0.135 A 
ATOM     74  F   UNL A   1      35.781  31.282  31.532  1.00  0.00    -0.206 F 
ATOM     75  C   UNL A   1      34.659  32.966  30.340  1.00  0.00     0.059 A 
ATOM     76  C   UNL A   1      35.885  34.344  28.760  1.00  0.00     0.059 A 
ATOM     77  F   UNL A   1      38.173  33.962  28.420  1.00  0.00    -0.206 F 
ATOM     78  C   UNL A   1      34.699  34.007  29.409  1.00  0.00     0.060 A 
BRANCH  78  79
ATOM     79  S   UNL A   1      33.196  34.961  29.103  1.00  0.00     0.124 S 
ATOM     80  O   UNL A   1      32.558  34.931  30.413  1.00  0.00    -0.237 OA
ATOM     81  O   UNL A   1      33.728  36.253  28.682  1.00  0.00    -0.237 OA
ATOM     82  O   UNL A   1      32.526  34.199  28.053  1.00  0.00    -0.744 OA
ENDBRANCH  78  79
ENDBRANCH  46  71
BRANCH  58  83
ATOM     83  C   UNL A   1      41.919  33.524  34.889  1.00  0.00     0.058 A 
ATOM     84  C   UNL A   1      41.467  33.345  36.204  1.00  0.00     0.135 A 
ATOM     85  C   UNL A   1      42.646  34.685  34.589  1.00  0.00     0.135 A 
ATOM     86  F   UNL A   1      40.759  32.253  36.533  1.00  0.00    -0.206 F 
ATOM     87  C   UNL A   1      41.731  34.286  37.191  1.00  0.00     0.059 A 
ATOM     88  C   UNL A   1      42.937  35.632  35.565  1.00  0.00     0.059 A 
ATOM     89  F   UNL A   1      43.102  34.895  33.343  1.00  0.00    -0.206 F 
ATOM     90  C   UNL A   1      42.473  35.424  36.863  1.00  0.00     0.060 A 
BRANCH  90  91
ATOM     91  S   UNL A   1      42.872  36.606  38.169  1.00  0.00     0.124 S 
ATOM     92  O   UNL A   1      43.795  37.502  37.480  1.00  0.00    -0.237 OA
ATOM     93  O   UNL A   1      41.565  37.170  38.493  1.00  0.00    -0.237 OA
ATOM     94  O   UNL A   1      43.464  35.772  39.210  1.00  0.00    -0.744 OA
ENDBRANCH  90  91
ENDBRANCH  58  83
ENDBRANCH  32  33
ENDBRANCH  25  27
ENDBRANCH  24  25
ENDBRANCH  23  24
ENDBRANCH   1  23
TORSDOF 18
ENDMDL
