MODEL 1
REMARK VINA RESULT:     -12.8      0.000      0.000
REMARK SMILES O=C(OCCOC(=O)c1cc2c(Cl)c(C(F)(F)F)cnc2n1S(=O)(=O)c1ccccc1)c1ccc(-c2c3nc(c(-c4c(F)cc(S(=O)(=O)[O-])cc4F)c4ccc([nH]4)c(-c4c(F)cc(S(=O)(=O)[O-])cc4F)c4nc(c(-c5c(F)cc(S(=O)(=O)[O-])cc5F)c5ccc2[nH]5)C=C4)C=C3)cc1
REMARK SMILES IDX 4 1 3 2 2 3 1 4 32 5 33 6 97 7 34 8 96 9 35 10 36 11 37 12
REMARK SMILES IDX 90 13 38 14 95 15 89 16 91 17 39 18 94 19 88 20 87 21 40 23
REMARK SMILES IDX 74 24 53 25 73 26 54 27 57 28 72 29 92 30 55 31 56 32 71 34
REMARK SMILES IDX 93 35 58 36 41 37 42 38 51 39 43 40 44 41 50 42 52 43 45 44
REMARK SMILES IDX 46 45 47 46 48 47 49 48 75 49 76 50 85 51 77 52 78 53 84 54
REMARK SMILES IDX 86 55 79 56 80 57 81 58 82 59 83 60 59 61 60 62 69 63 61 64
REMARK SMILES IDX 62 65 68 66 70 67 63 68 64 69 65 70 66 71 67 72 5 73 6 74
REMARK SMILES IDX 7 75 8 76 9 77 10 78 22 79 11 80 21 81 12 82 20 83 13 84
REMARK SMILES IDX 14 85 19 86 23 87 24 88 25 89 26 90 27 91 31 92 28 93 30 94
REMARK SMILES IDX 29 95 15 96 16 97 17 98 18 99
REMARK H PARENT 91 22 57 33
REMARK Flexibility Score: inf
ROOT
ATOM      1  C   UNL A   1      37.408  21.075  24.993  1.00  0.00     0.275 C 
ENDROOT
BRANCH   1   2
ATOM      2  O   UNL A   1      38.236  22.193  25.379  1.00  0.00    -0.458 OA
BRANCH   2   3
ATOM      3  C   UNL A   1      39.188  22.027  26.324  1.00  0.00     0.338 C 
ATOM      4  O   UNL A   1      39.746  20.962  26.549  1.00  0.00    -0.246 OA
BRANCH   3   5
ATOM      5  C   UNL A   1      39.658  23.306  26.904  1.00  0.00     0.060 A 
ATOM      6  C   UNL A   1      40.831  23.391  27.657  1.00  0.00     0.016 A 
ATOM      7  C   UNL A   1      38.897  24.460  26.665  1.00  0.00     0.016 A 
ATOM      8  C   UNL A   1      41.213  24.600  28.215  1.00  0.00     0.010 A 
ATOM      9  C   UNL A   1      39.283  25.677  27.219  1.00  0.00     0.010 A 
ATOM     10  C   UNL A   1      40.429  25.736  28.015  1.00  0.00    -0.014 A 
BRANCH  10  11
ATOM     11  C   UNL A   1      40.903  26.970  28.631  1.00  0.00     0.031 A 
ATOM     12  C   UNL A   1      42.125  27.580  28.036  1.00  0.00     0.074 A 
ATOM     13  C   UNL A   1      40.247  27.600  29.622  1.00  0.00     0.049 A 
ATOM     14  N   UNL A   1      43.267  27.819  28.597  1.00  0.00    -0.248 NA
ATOM     15  C   UNL A   1      42.075  27.924  26.607  1.00  0.00     0.031 C 
ATOM     16  C   UNL A   1      38.896  27.325  30.111  1.00  0.00     0.029 A 
ATOM     17  N   UNL A   1      40.624  28.702  30.330  1.00  0.00    -0.354 N 
ATOM     18  C   UNL A   1      44.010  28.534  27.659  1.00  0.00     0.074 A 
ATOM     19  C   UNL A   1      43.281  28.460  26.417  1.00  0.00     0.031 C 
ATOM     20  C   UNL A   1      38.487  28.361  30.875  1.00  0.00     0.029 A 
ATOM     21  C   UNL A   1      39.586  29.302  31.026  1.00  0.00     0.049 A 
ATOM     22  H   UNL A   1      41.548  29.041  30.346  1.00  0.00     0.167 HD
ATOM     23  C   UNL A   1      45.064  29.323  28.009  1.00  0.00     0.037 A 
ATOM     24  C   UNL A   1      39.605  30.525  31.608  1.00  0.00     0.037 A 
ATOM     25  C   UNL A   1      45.604  28.979  29.296  1.00  0.00     0.049 A 
ATOM     26  C   UNL A   1      41.023  30.896  31.847  1.00  0.00     0.074 A 
ATOM     27  C   UNL A   1      46.123  27.831  29.864  1.00  0.00     0.029 A 
ATOM     28  N   UNL A   1      45.404  29.846  30.341  1.00  0.00    -0.354 N 
ATOM     29  N   UNL A   1      41.815  30.305  32.700  1.00  0.00    -0.248 NA
ATOM     30  C   UNL A   1      41.688  31.748  30.871  1.00  0.00     0.031 C 
ATOM     31  C   UNL A   1      45.762  27.895  31.241  1.00  0.00     0.029 A 
ATOM     32  C   UNL A   1      45.057  29.085  31.428  1.00  0.00     0.049 A 
ATOM     33  H   UNL A   1      45.493  30.826  30.316  1.00  0.00     0.167 HD
ATOM     34  C   UNL A   1      43.078  30.394  32.136  1.00  0.00     0.074 A 
ATOM     35  C   UNL A   1      42.955  31.396  31.086  1.00  0.00     0.031 C 
ATOM     36  C   UNL A   1      44.038  29.455  32.387  1.00  0.00     0.037 A 
BRANCH  23  37
ATOM     37  C   UNL A   1      45.388  30.628  27.320  1.00  0.00     0.058 A 
ATOM     38  C   UNL A   1      46.691  30.868  26.840  1.00  0.00     0.135 A 
ATOM     39  C   UNL A   1      44.539  31.757  27.376  1.00  0.00     0.135 A 
ATOM     40  F   UNL A   1      47.587  29.871  26.768  1.00  0.00    -0.206 F 
ATOM     41  C   UNL A   1      47.137  32.147  26.500  1.00  0.00     0.059 A 
ATOM     42  C   UNL A   1      44.946  33.028  26.989  1.00  0.00     0.059 A 
ATOM     43  F   UNL A   1      43.310  31.693  27.903  1.00  0.00    -0.206 F 
ATOM     44  C   UNL A   1      46.259  33.224  26.596  1.00  0.00     0.060 A 
BRANCH  44  45
ATOM     45  S   UNL A   1      46.861  34.892  26.281  1.00  0.00     0.124 S 
ATOM     46  O   UNL A   1      47.574  34.705  25.022  1.00  0.00    -0.237 OA
ATOM     47  O   UNL A   1      45.620  35.656  26.207  1.00  0.00    -0.237 OA
ATOM     48  O   UNL A   1      47.692  35.172  27.447  1.00  0.00    -0.744 OA
ENDBRANCH  44  45
ENDBRANCH  23  37
BRANCH  24  49
ATOM     49  C   UNL A   1      38.492  31.509  31.680  1.00  0.00     0.058 A 
ATOM     50  C   UNL A   1      38.085  32.225  30.540  1.00  0.00     0.135 A 
ATOM     51  C   UNL A   1      37.631  31.575  32.795  1.00  0.00     0.135 A 
ATOM     52  F   UNL A   1      38.830  32.197  29.424  1.00  0.00    -0.206 F 
ATOM     53  C   UNL A   1      36.876  32.924  30.493  1.00  0.00     0.059 A 
ATOM     54  C   UNL A   1      36.431  32.284  32.778  1.00  0.00     0.059 A 
ATOM     55  F   UNL A   1      37.878  30.876  33.912  1.00  0.00    -0.206 F 
ATOM     56  C   UNL A   1      36.046  32.932  31.613  1.00  0.00     0.060 A 
BRANCH  56  57
ATOM     57  S   UNL A   1      34.410  33.689  31.502  1.00  0.00     0.124 S 
ATOM     58  O   UNL A   1      33.661  32.940  32.505  1.00  0.00    -0.237 OA
ATOM     59  O   UNL A   1      34.695  35.083  31.828  1.00  0.00    -0.237 OA
ATOM     60  O   UNL A   1      34.016  33.444  30.118  1.00  0.00    -0.744 OA
ENDBRANCH  56  57
ENDBRANCH  24  49
BRANCH  36  61
ATOM     61  C   UNL A   1      43.866  28.540  33.568  1.00  0.00     0.058 A 
ATOM     62  C   UNL A   1      44.281  28.856  34.872  1.00  0.00     0.135 A 
ATOM     63  C   UNL A   1      43.085  27.385  33.403  1.00  0.00     0.135 A 
ATOM     64  F   UNL A   1      44.943  29.993  35.129  1.00  0.00    -0.206 F 
ATOM     65  C   UNL A   1      43.951  28.046  35.961  1.00  0.00     0.059 A 
ATOM     66  C   UNL A   1      42.721  26.578  34.478  1.00  0.00     0.059 A 
ATOM     67  F   UNL A   1      42.609  27.062  32.187  1.00  0.00    -0.206 F 
ATOM     68  C   UNL A   1      43.161  26.915  35.756  1.00  0.00     0.060 A 
BRANCH  68  69
ATOM     69  S   UNL A   1      42.627  25.949  37.186  1.00  0.00     0.124 S 
ATOM     70  O   UNL A   1      41.196  26.228  37.231  1.00  0.00    -0.237 OA
ATOM     71  O   UNL A   1      42.997  24.588  36.805  1.00  0.00    -0.237 OA
ATOM     72  O   UNL A   1      43.408  26.508  38.287  1.00  0.00    -0.744 OA
ENDBRANCH  68  69
ENDBRANCH  36  61
ENDBRANCH  10  11
ENDBRANCH   3   5
ENDBRANCH   2   3
ENDBRANCH   1   2
BRANCH   1  73
ATOM     73  C   UNL A   1      35.916  21.172  25.302  1.00  0.00     0.275 C 
BRANCH  73  74
ATOM     74  O   UNL A   1      35.369  22.422  24.851  1.00  0.00    -0.457 OA
BRANCH  74  75
ATOM     75  C   UNL A   1      35.024  23.295  25.831  1.00  0.00     0.356 C 
ATOM     76  O   UNL A   1      35.514  23.361  26.956  1.00  0.00    -0.244 OA
BRANCH  75  77
ATOM     77  C   UNL A   1      33.986  24.157  25.354  1.00  0.00     0.145 A 
ATOM     78  C   UNL A   1      34.105  25.345  24.652  1.00  0.00     0.048 A 
ATOM     79  N   UNL A   1      32.643  23.961  25.580  1.00  0.00    -0.209 N 
ATOM     80  C   UNL A   1      32.801  25.877  24.449  1.00  0.00     0.040 A 
ATOM     81  C   UNL A   1      31.906  24.990  25.052  1.00  0.00     0.156 A 
ATOM     82  C   UNL A   1      32.240  27.016  23.842  1.00  0.00     0.065 A 
ATOM     83  N   UNL A   1      30.572  25.155  25.120  1.00  0.00    -0.237 NA
ATOM     84  Cl  UNL A   1      33.357  28.052  23.065  1.00  0.00    -0.083 Cl
ATOM     85  C   UNL A   1      30.872  27.250  23.905  1.00  0.00     0.093 A 
ATOM     86  C   UNL A   1      30.108  26.288  24.547  1.00  0.00     0.128 A 
BRANCH  79  87
ATOM     87  S   UNL A   1      32.021  22.497  26.162  1.00  0.00     0.270 S 
ATOM     88  O   UNL A   1      32.822  22.191  27.331  1.00  0.00    -0.201 OA
ATOM     89  O   UNL A   1      30.590  22.719  26.281  1.00  0.00    -0.201 OA
BRANCH  87  90
ATOM     90  C   UNL A   1      32.254  21.227  24.955  1.00  0.00     0.088 A 
ATOM     91  C   UNL A   1      32.036  21.505  23.601  1.00  0.00     0.022 A 
ATOM     92  C   UNL A   1      32.553  19.926  25.374  1.00  0.00     0.022 A 
ATOM     93  C   UNL A   1      32.157  20.480  22.663  1.00  0.00     0.001 A 
ATOM     94  C   UNL A   1      32.690  18.912  24.428  1.00  0.00     0.001 A 
ATOM     95  C   UNL A   1      32.493  19.189  23.074  1.00  0.00     0.000 A 
ENDBRANCH  87  90
ENDBRANCH  79  87
BRANCH  85  96
ATOM     96  C   UNL A   1      30.224  28.463  23.328  1.00  0.00     0.419 C 
ATOM     97  F   UNL A   1      30.494  28.630  22.003  1.00  0.00    -0.166 F 
ATOM     98  F   UNL A   1      28.873  28.455  23.453  1.00  0.00    -0.166 F 
ATOM     99  F   UNL A   1      30.646  29.618  23.922  1.00  0.00    -0.166 F 
ENDBRANCH  85  96
ENDBRANCH  75  77
ENDBRANCH  74  75
ENDBRANCH  73  74
ENDBRANCH   1  73
TORSDOF 17
ENDMDL
MODEL 2
REMARK VINA RESULT:     -12.8      3.509      9.130
REMARK SMILES O=C(OCCOC(=O)c1cc2c(Cl)c(C(F)(F)F)cnc2n1S(=O)(=O)c1ccccc1)c1ccc(-c2c3nc(c(-c4c(F)cc(S(=O)(=O)[O-])cc4F)c4ccc([nH]4)c(-c4c(F)cc(S(=O)(=O)[O-])cc4F)c4nc(c(-c5c(F)cc(S(=O)(=O)[O-])cc5F)c5ccc2[nH]5)C=C4)C=C3)cc1
REMARK SMILES IDX 4 1 3 2 2 3 1 4 32 5 33 6 97 7 34 8 96 9 35 10 36 11 37 12
REMARK SMILES IDX 90 13 38 14 95 15 89 16 91 17 39 18 94 19 88 20 87 21 40 23
REMARK SMILES IDX 74 24 53 25 73 26 54 27 57 28 72 29 92 30 55 31 56 32 71 34
REMARK SMILES IDX 93 35 58 36 41 37 42 38 51 39 43 40 44 41 50 42 52 43 45 44
REMARK SMILES IDX 46 45 47 46 48 47 49 48 75 49 76 50 85 51 77 52 78 53 84 54
REMARK SMILES IDX 86 55 79 56 80 57 81 58 82 59 83 60 59 61 60 62 69 63 61 64
REMARK SMILES IDX 62 65 68 66 70 67 63 68 64 69 65 70 66 71 67 72 5 73 6 74
REMARK SMILES IDX 7 75 8 76 9 77 10 78 22 79 11 80 21 81 12 82 20 83 13 84
REMARK SMILES IDX 14 85 19 86 23 87 24 88 25 89 26 90 27 91 31 92 28 93 30 94
REMARK SMILES IDX 29 95 15 96 16 97 17 98 18 99
REMARK H PARENT 91 22 57 33
REMARK Flexibility Score: inf
ROOT
ATOM      1  C   UNL A   1      32.196  30.550  26.805  1.00  0.00     0.275 C 
ENDROOT
BRANCH   1   2
ATOM      2  O   UNL A   1      33.341  30.357  27.664  1.00  0.00    -0.458 OA
BRANCH   2   3
ATOM      3  C   UNL A   1      34.217  31.371  27.848  1.00  0.00     0.338 C 
ATOM      4  O   UNL A   1      33.890  32.544  27.959  1.00  0.00    -0.246 OA
BRANCH   3   5
ATOM      5  C   UNL A   1      35.593  30.901  28.134  1.00  0.00     0.060 A 
ATOM      6  C   UNL A   1      35.976  29.571  27.945  1.00  0.00     0.016 A 
ATOM      7  C   UNL A   1      36.530  31.839  28.593  1.00  0.00     0.016 A 
ATOM      8  C   UNL A   1      37.261  29.166  28.264  1.00  0.00     0.010 A 
ATOM      9  C   UNL A   1      37.824  31.434  28.907  1.00  0.00     0.010 A 
ATOM     10  C   UNL A   1      38.178  30.091  28.765  1.00  0.00    -0.014 A 
BRANCH  10  11
ATOM     11  C   UNL A   1      39.511  29.585  29.069  1.00  0.00     0.031 A 
ATOM     12  C   UNL A   1      39.853  29.442  30.512  1.00  0.00     0.074 A 
ATOM     13  C   UNL A   1      40.376  29.173  28.125  1.00  0.00     0.049 A 
ATOM     14  N   UNL A   1      40.804  30.014  31.180  1.00  0.00    -0.248 NA
ATOM     15  C   UNL A   1      38.982  28.582  31.326  1.00  0.00     0.031 C 
ATOM     16  C   UNL A   1      40.105  28.948  26.705  1.00  0.00     0.029 A 
ATOM     17  N   UNL A   1      41.668  28.762  28.272  1.00  0.00    -0.354 N 
ATOM     18  C   UNL A   1      40.786  29.427  32.444  1.00  0.00     0.074 A 
ATOM     19  C   UNL A   1      39.574  28.651  32.518  1.00  0.00     0.031 C 
ATOM     20  C   UNL A   1      41.125  28.242  26.171  1.00  0.00     0.029 A 
ATOM     21  C   UNL A   1      42.165  28.077  27.174  1.00  0.00     0.049 A 
ATOM     22  H   UNL A   1      42.199  28.936  29.083  1.00  0.00     0.167 HD
ATOM     23  C   UNL A   1      41.869  29.440  33.270  1.00  0.00     0.037 A 
ATOM     24  C   UNL A   1      43.309  27.353  27.124  1.00  0.00     0.037 A 
ATOM     25  C   UNL A   1      42.807  30.476  32.932  1.00  0.00     0.049 A 
ATOM     26  C   UNL A   1      44.195  27.821  28.221  1.00  0.00     0.074 A 
ATOM     27  C   UNL A   1      42.742  31.849  32.802  1.00  0.00     0.029 A 
ATOM     28  N   UNL A   1      44.009  30.112  32.377  1.00  0.00    -0.354 N 
ATOM     29  N   UNL A   1      44.758  28.997  28.271  1.00  0.00    -0.248 NA
ATOM     30  C   UNL A   1      44.201  27.075  29.470  1.00  0.00     0.031 C 
ATOM     31  C   UNL A   1      43.668  32.175  31.769  1.00  0.00     0.029 A 
ATOM     32  C   UNL A   1      44.248  30.980  31.342  1.00  0.00     0.049 A 
ATOM     33  H   UNL A   1      44.589  29.372  32.667  1.00  0.00     0.167 HD
ATOM     34  C   UNL A   1      44.836  29.298  29.623  1.00  0.00     0.074 A 
ATOM     35  C   UNL A   1      44.599  28.034  30.307  1.00  0.00     0.031 C 
ATOM     36  C   UNL A   1      44.813  30.589  30.068  1.00  0.00     0.037 A 
BRANCH  23  37
ATOM     37  C   UNL A   1      42.230  28.290  34.182  1.00  0.00     0.058 A 
ATOM     38  C   UNL A   1      42.309  28.492  35.575  1.00  0.00     0.135 A 
ATOM     39  C   UNL A   1      42.781  27.078  33.707  1.00  0.00     0.135 A 
ATOM     40  F   UNL A   1      41.839  29.619  36.129  1.00  0.00    -0.206 F 
ATOM     41  C   UNL A   1      42.945  27.584  36.425  1.00  0.00     0.059 A 
ATOM     42  C   UNL A   1      43.367  26.135  34.543  1.00  0.00     0.059 A 
ATOM     43  F   UNL A   1      42.863  26.802  32.399  1.00  0.00    -0.206 F 
ATOM     44  C   UNL A   1      43.486  26.416  35.893  1.00  0.00     0.060 A 
BRANCH  44  45
ATOM     45  S   UNL A   1      44.415  25.301  36.961  1.00  0.00     0.124 S 
ATOM     46  O   UNL A   1      45.751  25.882  36.887  1.00  0.00    -0.237 OA
ATOM     47  O   UNL A   1      43.722  25.450  38.236  1.00  0.00    -0.237 OA
ATOM     48  O   UNL A   1      44.249  24.004  36.313  1.00  0.00    -0.744 OA
ENDBRANCH  44  45
ENDBRANCH  23  37
BRANCH  24  49
ATOM     49  C   UNL A   1      43.542  26.082  26.388  1.00  0.00     0.058 A 
ATOM     50  C   UNL A   1      44.630  25.945  25.508  1.00  0.00     0.135 A 
ATOM     51  C   UNL A   1      42.867  24.891  26.730  1.00  0.00     0.135 A 
ATOM     52  F   UNL A   1      45.348  27.020  25.149  1.00  0.00    -0.206 F 
ATOM     53  C   UNL A   1      45.052  24.700  25.034  1.00  0.00     0.059 A 
ATOM     54  C   UNL A   1      43.255  23.642  26.252  1.00  0.00     0.059 A 
ATOM     55  F   UNL A   1      41.860  24.888  27.616  1.00  0.00    -0.206 F 
ATOM     56  C   UNL A   1      44.367  23.550  25.427  1.00  0.00     0.060 A 
BRANCH  56  57
ATOM     57  S   UNL A   1      45.009  21.929  24.956  1.00  0.00     0.124 S 
ATOM     58  O   UNL A   1      44.741  21.903  23.522  1.00  0.00    -0.237 OA
ATOM     59  O   UNL A   1      46.413  22.031  25.340  1.00  0.00    -0.237 OA
ATOM     60  O   UNL A   1      44.213  21.002  25.756  1.00  0.00    -0.744 OA
ENDBRANCH  56  57
ENDBRANCH  24  49
BRANCH  36  61
ATOM     61  C   UNL A   1      45.093  31.698  29.092  1.00  0.00     0.058 A 
ATOM     62  C   UNL A   1      46.382  32.160  28.778  1.00  0.00     0.135 A 
ATOM     63  C   UNL A   1      44.029  32.176  28.310  1.00  0.00     0.135 A 
ATOM     64  F   UNL A   1      47.461  31.676  29.410  1.00  0.00    -0.206 F 
ATOM     65  C   UNL A   1      46.599  33.075  27.747  1.00  0.00     0.059 A 
ATOM     66  C   UNL A   1      44.227  33.068  27.258  1.00  0.00     0.059 A 
ATOM     67  F   UNL A   1      42.781  31.726  28.524  1.00  0.00    -0.206 F 
ATOM     68  C   UNL A   1      45.517  33.515  26.984  1.00  0.00     0.060 A 
BRANCH  68  69
ATOM     69  S   UNL A   1      45.824  34.593  25.567  1.00  0.00     0.124 S 
ATOM     70  O   UNL A   1      44.917  34.050  24.563  1.00  0.00    -0.237 OA
ATOM     71  O   UNL A   1      45.477  35.912  26.090  1.00  0.00    -0.237 OA
ATOM     72  O   UNL A   1      47.247  34.401  25.293  1.00  0.00    -0.744 OA
ENDBRANCH  68  69
ENDBRANCH  36  61
ENDBRANCH  10  11
ENDBRANCH   3   5
ENDBRANCH   2   3
ENDBRANCH   1   2
BRANCH   1  73
ATOM     73  C   UNL A   1      32.229  29.873  25.437  1.00  0.00     0.275 C 
BRANCH  73  74
ATOM     74  O   UNL A   1      32.586  28.487  25.547  1.00  0.00    -0.457 OA
BRANCH  74  75
ATOM     75  C   UNL A   1      33.657  28.099  24.810  1.00  0.00     0.356 C 
ATOM     76  O   UNL A   1      34.488  28.838  24.286  1.00  0.00    -0.244 OA
BRANCH  75  77
ATOM     77  C   UNL A   1      33.688  26.672  24.731  1.00  0.00     0.145 A 
ATOM     78  C   UNL A   1      33.936  25.756  25.742  1.00  0.00     0.048 A 
ATOM     79  N   UNL A   1      33.526  25.949  23.571  1.00  0.00    -0.209 N 
ATOM     80  C   UNL A   1      33.921  24.451  25.175  1.00  0.00     0.040 A 
ATOM     81  C   UNL A   1      33.671  24.606  23.810  1.00  0.00     0.156 A 
ATOM     82  C   UNL A   1      34.105  23.132  25.632  1.00  0.00     0.065 A 
ATOM     83  N   UNL A   1      33.622  23.609  22.908  1.00  0.00    -0.237 NA
ATOM     84  Cl  UNL A   1      34.352  22.972  27.316  1.00  0.00    -0.083 Cl
ATOM     85  C   UNL A   1      34.090  22.066  24.740  1.00  0.00     0.093 A 
ATOM     86  C   UNL A   1      33.841  22.373  23.412  1.00  0.00     0.128 A 
BRANCH  79  87
ATOM     87  S   UNL A   1      32.934  26.640  22.143  1.00  0.00     0.270 S 
ATOM     88  O   UNL A   1      33.935  27.617  21.759  1.00  0.00    -0.201 OA
ATOM     89  O   UNL A   1      32.630  25.512  21.279  1.00  0.00    -0.201 OA
BRANCH  87  90
ATOM     90  C   UNL A   1      31.410  27.474  22.469  1.00  0.00     0.088 A 
ATOM     91  C   UNL A   1      31.265  28.821  22.117  1.00  0.00     0.022 A 
ATOM     92  C   UNL A   1      30.399  26.811  23.173  1.00  0.00     0.022 A 
ATOM     93  C   UNL A   1      30.084  29.490  22.438  1.00  0.00     0.001 A 
ATOM     94  C   UNL A   1      29.215  27.482  23.474  1.00  0.00     0.001 A 
ATOM     95  C   UNL A   1      29.058  28.819  23.106  1.00  0.00     0.000 A 
ENDBRANCH  87  90
ENDBRANCH  79  87
BRANCH  85  96
ATOM     96  C   UNL A   1      34.330  20.653  25.154  1.00  0.00     0.419 C 
ATOM     97  F   UNL A   1      33.990  19.753  24.190  1.00  0.00    -0.166 F 
ATOM     98  F   UNL A   1      35.624  20.407  25.479  1.00  0.00    -0.166 F 
ATOM     99  F   UNL A   1      33.596  20.293  26.247  1.00  0.00    -0.166 F 
ENDBRANCH  85  96
ENDBRANCH  75  77
ENDBRANCH  74  75
ENDBRANCH  73  74
ENDBRANCH   1  73
TORSDOF 17
ENDMDL
MODEL 3
REMARK VINA RESULT:     -12.3      0.717      1.356
REMARK SMILES O=C(OCCOC(=O)c1cc2c(Cl)c(C(F)(F)F)cnc2n1S(=O)(=O)c1ccccc1)c1ccc(-c2c3nc(c(-c4c(F)cc(S(=O)(=O)[O-])cc4F)c4ccc([nH]4)c(-c4c(F)cc(S(=O)(=O)[O-])cc4F)c4nc(c(-c5c(F)cc(S(=O)(=O)[O-])cc5F)c5ccc2[nH]5)C=C4)C=C3)cc1
REMARK SMILES IDX 4 1 3 2 2 3 1 4 32 5 33 6 97 7 34 8 96 9 35 10 36 11 37 12
REMARK SMILES IDX 90 13 38 14 95 15 89 16 91 17 39 18 94 19 88 20 87 21 40 23
REMARK SMILES IDX 74 24 53 25 73 26 54 27 57 28 72 29 92 30 55 31 56 32 71 34
REMARK SMILES IDX 93 35 58 36 41 37 42 38 51 39 43 40 44 41 50 42 52 43 45 44
REMARK SMILES IDX 46 45 47 46 48 47 49 48 75 49 76 50 85 51 77 52 78 53 84 54
REMARK SMILES IDX 86 55 79 56 80 57 81 58 82 59 83 60 59 61 60 62 69 63 61 64
REMARK SMILES IDX 62 65 68 66 70 67 63 68 64 69 65 70 66 71 67 72 5 73 6 74
REMARK SMILES IDX 7 75 8 76 9 77 10 78 22 79 11 80 21 81 12 82 20 83 13 84
REMARK SMILES IDX 14 85 19 86 23 87 24 88 25 89 26 90 27 91 31 92 28 93 30 94
REMARK SMILES IDX 29 95 15 96 16 97 17 98 18 99
REMARK H PARENT 91 22 57 33
REMARK Flexibility Score: inf
ROOT
ATOM      1  C   UNL A   1      37.567  21.077  24.993  1.00  0.00     0.275 C 
ENDROOT
BRANCH   1   2
ATOM      2  O   UNL A   1      38.286  22.256  25.413  1.00  0.00    -0.458 OA
BRANCH   2   3
ATOM      3  C   UNL A   1      39.353  22.131  26.234  1.00  0.00     0.338 C 
ATOM      4  O   UNL A   1      40.054  21.130  26.294  1.00  0.00    -0.246 OA
BRANCH   3   5
ATOM      5  C   UNL A   1      39.734  23.405  26.887  1.00  0.00     0.060 A 
ATOM      6  C   UNL A   1      40.911  23.536  27.628  1.00  0.00     0.016 A 
ATOM      7  C   UNL A   1      38.881  24.508  26.731  1.00  0.00     0.016 A 
ATOM      8  C   UNL A   1      41.208  24.733  28.255  1.00  0.00     0.010 A 
ATOM      9  C   UNL A   1      39.182  25.715  27.355  1.00  0.00     0.010 A 
ATOM     10  C   UNL A   1      40.334  25.815  28.138  1.00  0.00    -0.014 A 
BRANCH  10  11
ATOM     11  C   UNL A   1      40.724  27.042  28.823  1.00  0.00     0.031 A 
ATOM     12  C   UNL A   1      41.833  27.822  28.207  1.00  0.00     0.074 A 
ATOM     13  C   UNL A   1      40.076  27.522  29.900  1.00  0.00     0.049 A 
ATOM     14  N   UNL A   1      42.982  28.137  28.716  1.00  0.00    -0.248 NA
ATOM     15  C   UNL A   1      41.651  28.265  26.817  1.00  0.00     0.031 C 
ATOM     16  C   UNL A   1      38.797  27.069  30.446  1.00  0.00     0.029 A 
ATOM     17  N   UNL A   1      40.389  28.602  30.672  1.00  0.00    -0.354 N 
ATOM     18  C   UNL A   1      43.582  28.996  27.797  1.00  0.00     0.074 A 
ATOM     19  C   UNL A   1      42.781  28.938  26.600  1.00  0.00     0.031 C 
ATOM     20  C   UNL A   1      38.339  27.996  31.315  1.00  0.00     0.029 A 
ATOM     21  C   UNL A   1      39.346  29.034  31.477  1.00  0.00     0.049 A 
ATOM     22  H   UNL A   1      41.273  29.034  30.660  1.00  0.00     0.167 HD
ATOM     23  C   UNL A   1      44.574  29.862  28.146  1.00  0.00     0.037 A 
ATOM     24  C   UNL A   1      39.281  30.204  32.156  1.00  0.00     0.037 A 
ATOM     25  C   UNL A   1      45.233  29.481  29.366  1.00  0.00     0.049 A 
ATOM     26  C   UNL A   1      40.668  30.705  32.338  1.00  0.00     0.074 A 
ATOM     27  C   UNL A   1      45.902  28.355  29.804  1.00  0.00     0.029 A 
ATOM     28  N   UNL A   1      45.018  30.240  30.489  1.00  0.00    -0.354 N 
ATOM     29  N   UNL A   1      41.572  30.138  33.090  1.00  0.00    -0.248 NA
ATOM     30  C   UNL A   1      41.175  31.693  31.397  1.00  0.00     0.031 C 
ATOM     31  C   UNL A   1      45.632  28.277  31.201  1.00  0.00     0.029 A 
ATOM     32  C   UNL A   1      44.825  29.367  31.528  1.00  0.00     0.049 A 
ATOM     33  H   UNL A   1      45.007  31.223  30.539  1.00  0.00     0.167 HD
ATOM     34  C   UNL A   1      42.778  30.402  32.460  1.00  0.00     0.074 A 
ATOM     35  C   UNL A   1      42.483  31.462  31.505  1.00  0.00     0.031 C 
ATOM     36  C   UNL A   1      43.842  29.554  32.574  1.00  0.00     0.037 A 
BRANCH  23  37
ATOM     37  C   UNL A   1      44.716  31.243  27.549  1.00  0.00     0.058 A 
ATOM     38  C   UNL A   1      45.867  31.574  26.805  1.00  0.00     0.135 A 
ATOM     39  C   UNL A   1      43.898  32.332  27.927  1.00  0.00     0.135 A 
ATOM     40  F   UNL A   1      46.726  30.620  26.415  1.00  0.00    -0.206 F 
ATOM     41  C   UNL A   1      46.211  32.896  26.513  1.00  0.00     0.059 A 
ATOM     42  C   UNL A   1      44.193  33.649  27.598  1.00  0.00     0.059 A 
ATOM     43  F   UNL A   1      42.829  32.173  28.718  1.00  0.00    -0.206 F 
ATOM     44  C   UNL A   1      45.374  33.927  26.931  1.00  0.00     0.060 A 
BRANCH  44  45
ATOM     45  S   UNL A   1      45.873  35.638  26.669  1.00  0.00     0.124 S 
ATOM     46  O   UNL A   1      46.512  35.552  25.361  1.00  0.00    -0.237 OA
ATOM     47  O   UNL A   1      44.594  36.340  26.712  1.00  0.00    -0.237 OA
ATOM     48  O   UNL A   1      46.762  35.902  27.796  1.00  0.00    -0.744 OA
ENDBRANCH  44  45
ENDBRANCH  23  37
BRANCH  24  49
ATOM     49  C   UNL A   1      38.083  31.057  32.375  1.00  0.00     0.058 A 
ATOM     50  C   UNL A   1      37.575  31.273  33.669  1.00  0.00     0.135 A 
ATOM     51  C   UNL A   1      37.570  31.891  31.361  1.00  0.00     0.135 A 
ATOM     52  F   UNL A   1      38.025  30.543  34.701  1.00  0.00    -0.206 F 
ATOM     53  C   UNL A   1      36.653  32.285  33.947  1.00  0.00     0.059 A 
ATOM     54  C   UNL A   1      36.633  32.892  31.610  1.00  0.00     0.059 A 
ATOM     55  F   UNL A   1      38.031  31.826  30.103  1.00  0.00    -0.206 F 
ATOM     56  C   UNL A   1      36.201  33.102  32.912  1.00  0.00     0.060 A 
BRANCH  56  57
ATOM     57  S   UNL A   1      35.142  34.515  33.292  1.00  0.00     0.124 S 
ATOM     58  O   UNL A   1      35.253  34.593  34.745  1.00  0.00    -0.237 OA
ATOM     59  O   UNL A   1      35.786  35.591  32.545  1.00  0.00    -0.237 OA
ATOM     60  O   UNL A   1      33.834  34.106  32.788  1.00  0.00    -0.744 OA
ENDBRANCH  56  57
ENDBRANCH  24  49
BRANCH  36  61
ATOM     61  C   UNL A   1      43.845  28.539  33.685  1.00  0.00     0.058 A 
ATOM     62  C   UNL A   1      44.320  28.796  34.981  1.00  0.00     0.135 A 
ATOM     63  C   UNL A   1      43.169  27.327  33.474  1.00  0.00     0.135 A 
ATOM     64  F   UNL A   1      44.886  29.972  35.288  1.00  0.00    -0.206 F 
ATOM     65  C   UNL A   1      44.149  27.876  36.017  1.00  0.00     0.059 A 
ATOM     66  C   UNL A   1      42.963  26.408  34.501  1.00  0.00     0.059 A 
ATOM     67  F   UNL A   1      42.640  27.050  32.269  1.00  0.00    -0.206 F 
ATOM     68  C   UNL A   1      43.459  26.689  35.771  1.00  0.00     0.060 A 
BRANCH  68  69
ATOM     69  S   UNL A   1      43.125  25.568  37.147  1.00  0.00     0.124 S 
ATOM     70  O   UNL A   1      43.324  26.432  38.305  1.00  0.00    -0.237 OA
ATOM     71  O   UNL A   1      41.747  25.155  36.893  1.00  0.00    -0.237 OA
ATOM     72  O   UNL A   1      44.120  24.511  36.977  1.00  0.00    -0.744 OA
ENDBRANCH  68  69
ENDBRANCH  36  61
ENDBRANCH  10  11
ENDBRANCH   3   5
ENDBRANCH   2   3
ENDBRANCH   1   2
BRANCH   1  73
ATOM     73  C   UNL A   1      36.047  21.094  25.147  1.00  0.00     0.275 C 
BRANCH  73  74
ATOM     74  O   UNL A   1      35.495  22.357  24.745  1.00  0.00    -0.457 OA
BRANCH  74  75
ATOM     75  C   UNL A   1      35.112  23.175  25.757  1.00  0.00     0.356 C 
ATOM     76  O   UNL A   1      35.582  23.201  26.893  1.00  0.00    -0.244 OA
BRANCH  75  77
ATOM     77  C   UNL A   1      34.061  24.032  25.303  1.00  0.00     0.145 A 
ATOM     78  C   UNL A   1      34.158  25.207  24.574  1.00  0.00     0.048 A 
ATOM     79  N   UNL A   1      32.726  23.847  25.582  1.00  0.00    -0.209 N 
ATOM     80  C   UNL A   1      32.849  25.740  24.410  1.00  0.00     0.040 A 
ATOM     81  C   UNL A   1      31.974  24.869  25.061  1.00  0.00     0.156 A 
ATOM     82  C   UNL A   1      32.271  26.871  23.802  1.00  0.00     0.065 A 
ATOM     83  N   UNL A   1      30.644  25.041  25.175  1.00  0.00    -0.237 NA
ATOM     84  Cl  UNL A   1      33.362  27.886  22.964  1.00  0.00    -0.083 Cl
ATOM     85  C   UNL A   1      30.906  27.111  23.910  1.00  0.00     0.093 A 
ATOM     86  C   UNL A   1      30.163  26.165  24.597  1.00  0.00     0.128 A 
BRANCH  79  87
ATOM     87  S   UNL A   1      32.120  22.397  26.213  1.00  0.00     0.270 S 
ATOM     88  O   UNL A   1      33.012  22.067  27.308  1.00  0.00    -0.201 OA
ATOM     89  O   UNL A   1      30.711  22.654  26.457  1.00  0.00    -0.201 OA
BRANCH  87  90
ATOM     90  C   UNL A   1      32.216  21.125  24.989  1.00  0.00     0.088 A 
ATOM     91  C   UNL A   1      32.561  19.823  25.365  1.00  0.00     0.022 A 
ATOM     92  C   UNL A   1      32.048  21.455  23.640  1.00  0.00     0.022 A 
ATOM     93  C   UNL A   1      32.699  18.840  24.384  1.00  0.00     0.001 A 
ATOM     94  C   UNL A   1      32.170  20.463  22.669  1.00  0.00     0.001 A 
ATOM     95  C   UNL A   1      32.495  19.158  23.041  1.00  0.00     0.000 A 
ENDBRANCH  87  90
ENDBRANCH  79  87
BRANCH  85  96
ATOM     96  C   UNL A   1      30.242  28.316  23.334  1.00  0.00     0.419 C 
ATOM     97  F   UNL A   1      28.889  28.300  23.486  1.00  0.00    -0.166 F 
ATOM     98  F   UNL A   1      30.683  29.477  23.880  1.00  0.00    -0.166 F 
ATOM     99  F   UNL A   1      30.445  28.437  21.990  1.00  0.00    -0.166 F 
ENDBRANCH  85  96
ENDBRANCH  75  77
ENDBRANCH  74  75
ENDBRANCH  73  74
ENDBRANCH   1  73
TORSDOF 17
ENDMDL
