MODEL 1
REMARK VINA RESULT:     -12.6      0.000      0.000
REMARK SMILES Cc1ccccc1O[C@H](C)C(=O)Oc1cccc(C(=O)OCCOC(=O)c2ccc(-c3c4nc(c(-c5c(F)cc(S(=O)(=O)[O-])cc5F)c5ccc([nH]5)c(-c5c(F)cc(S(=O)(=O)[O-])cc5F)c5nc(c(-c6c(F)cc(S(=O)(=O)[O-])cc6F)c6ccc3[nH]6)C=C5)C=C4)cc2)c1
REMARK SMILES IDX 22 1 21 2 19 3 20 4 18 5 14 6 15 7 93 8 16 9 17 10 13 11
REMARK SMILES IDX 11 12 12 13 9 14 10 15 8 16 7 17 1 18 2 19 3 20 4 21 6 22
REMARK SMILES IDX 5 23 23 24 24 25 25 26 26 27 27 28 28 29 92 30 29 31 91 32
REMARK SMILES IDX 30 33 31 34 32 35 85 36 33 37 90 38 84 39 86 40 34 41 89 42
REMARK SMILES IDX 83 43 82 44 35 46 69 47 48 48 68 49 49 50 52 51 67 52 87 53
REMARK SMILES IDX 50 54 51 55 66 57 88 58 53 59 36 60 37 61 46 62 38 63 39 64
REMARK SMILES IDX 45 65 47 66 40 67 41 68 42 69 43 70 44 71 70 72 71 73 80 74
REMARK SMILES IDX 72 75 73 76 79 77 81 78 74 79 75 80 76 81 77 82 78 83 54 84
REMARK SMILES IDX 55 85 64 86 56 87 57 88 63 89 65 90 58 91 59 92 60 93 61 94
REMARK SMILES IDX 62 95
REMARK H PARENT 86 45 52 56
REMARK Flexibility Score: inf
ROOT
ATOM      1  C   UNL A   1      32.820  31.084  27.375  1.00  0.00     0.275 C 
ENDROOT
BRANCH   1   2
ATOM      2  O   UNL A   1      32.582  29.671  27.218  1.00  0.00    -0.458 OA
BRANCH   2   3
ATOM      3  C   UNL A   1      32.609  29.202  25.949  1.00  0.00     0.338 C 
ATOM      4  O   UNL A   1      32.789  29.856  24.938  1.00  0.00    -0.246 OA
BRANCH   3   5
ATOM      5  C   UNL A   1      32.635  27.725  25.984  1.00  0.00     0.063 A 
ATOM      6  C   UNL A   1      33.743  25.584  25.933  1.00  0.00     0.131 A 
ATOM      7  C   UNL A   1      32.541  24.953  26.263  1.00  0.00     0.047 A 
ATOM      8  C   UNL A   1      33.811  26.979  25.826  1.00  0.00     0.063 A 
ATOM      9  C   UNL A   1      31.377  25.705  26.419  1.00  0.00     0.005 A 
ATOM     10  C   UNL A   1      31.422  27.090  26.273  1.00  0.00     0.016 A 
BRANCH   6  11
ATOM     11  O   UNL A   1      34.937  24.837  25.800  1.00  0.00    -0.424 OA
BRANCH  11  12
ATOM     12  C   UNL A   1      34.893  23.625  25.114  1.00  0.00     0.352 C 
ATOM     13  O   UNL A   1      34.599  22.540  25.612  1.00  0.00    -0.247 OA
BRANCH  12  14
ATOM     14  C   UNL A   1      35.271  23.759  23.620  1.00  0.00     0.280 C 
ATOM     15  C   UNL A   1      36.393  22.793  23.236  1.00  0.00     0.066 C 
BRANCH  14  16
ATOM     16  O   UNL A   1      34.340  23.947  22.569  1.00  0.00    -0.479 OA
BRANCH  16  17
ATOM     17  C   UNL A   1      33.383  24.914  22.570  1.00  0.00     0.123 A 
ATOM     18  C   UNL A   1      31.743  23.037  23.138  1.00  0.00     0.048 C 
ATOM     19  C   UNL A   1      32.066  24.467  22.793  1.00  0.00    -0.009 A 
ATOM     20  C   UNL A   1      30.999  25.377  22.701  1.00  0.00     0.007 A 
ATOM     21  C   UNL A   1      31.238  26.721  22.430  1.00  0.00     0.001 A 
ATOM     22  C   UNL A   1      33.611  26.274  22.356  1.00  0.00     0.047 A 
ATOM     23  C   UNL A   1      32.544  27.172  22.279  1.00  0.00     0.004 A 
ENDBRANCH  16  17
ENDBRANCH  14  16
ENDBRANCH  12  14
ENDBRANCH  11  12
ENDBRANCH   6  11
ENDBRANCH   3   5
ENDBRANCH   2   3
ENDBRANCH   1   2
BRANCH   1  24
ATOM     24  C   UNL A   1      34.227  31.454  27.896  1.00  0.00     0.275 C 
BRANCH  24  25
ATOM     25  O   UNL A   1      35.053  30.333  28.262  1.00  0.00    -0.458 OA
BRANCH  25  26
ATOM     26  C   UNL A   1      36.178  30.651  28.971  1.00  0.00     0.338 C 
ATOM     27  O   UNL A   1      36.194  31.381  29.946  1.00  0.00    -0.246 OA
BRANCH  26  28
ATOM     28  C   UNL A   1      37.198  29.610  28.647  1.00  0.00     0.060 A 
ATOM     29  C   UNL A   1      38.068  29.828  27.568  1.00  0.00     0.016 A 
ATOM     30  C   UNL A   1      37.532  28.698  29.651  1.00  0.00     0.016 A 
ATOM     31  C   UNL A   1      39.346  29.269  27.587  1.00  0.00     0.010 A 
ATOM     32  C   UNL A   1      38.827  28.251  29.735  1.00  0.00     0.010 A 
ATOM     33  C   UNL A   1      39.736  28.527  28.706  1.00  0.00    -0.014 A 
BRANCH  33  34
ATOM     34  C   UNL A   1      40.960  27.745  28.789  1.00  0.00     0.031 A 
ATOM     35  C   UNL A   1      41.088  26.330  28.371  1.00  0.00     0.074 A 
ATOM     36  C   UNL A   1      42.016  28.451  29.253  1.00  0.00     0.049 A 
ATOM     37  N   UNL A   1      41.936  25.516  28.902  1.00  0.00    -0.248 NA
ATOM     38  C   UNL A   1      40.303  25.712  27.302  1.00  0.00     0.031 C 
ATOM     39  C   UNL A   1      43.414  28.075  29.347  1.00  0.00     0.029 A 
ATOM     40  N   UNL A   1      42.007  29.703  29.866  1.00  0.00    -0.354 N 
ATOM     41  C   UNL A   1      42.023  24.404  28.091  1.00  0.00     0.074 A 
ATOM     42  C   UNL A   1      40.925  24.530  27.159  1.00  0.00     0.031 C 
ATOM     43  C   UNL A   1      43.998  28.868  30.268  1.00  0.00     0.029 A 
ATOM     44  C   UNL A   1      42.944  29.670  30.882  1.00  0.00     0.049 A 
ATOM     45  H   UNL A   1      41.439  30.468  29.621  1.00  0.00     0.167 HD
ATOM     46  C   UNL A   1      43.114  23.588  28.188  1.00  0.00     0.037 A 
ATOM     47  C   UNL A   1      42.585  29.651  32.203  1.00  0.00     0.037 A 
ATOM     48  C   UNL A   1      44.044  24.087  29.198  1.00  0.00     0.049 A 
ATOM     49  C   UNL A   1      43.090  28.391  32.876  1.00  0.00     0.074 A 
ATOM     50  C   UNL A   1      45.150  24.915  29.084  1.00  0.00     0.029 A 
ATOM     51  N   UNL A   1      43.697  24.075  30.546  1.00  0.00    -0.354 N 
ATOM     52  N   UNL A   1      43.289  27.263  32.250  1.00  0.00    -0.248 NA
ATOM     53  C   UNL A   1      43.460  28.318  34.287  1.00  0.00     0.031 C 
ATOM     54  C   UNL A   1      45.410  25.479  30.353  1.00  0.00     0.029 A 
ATOM     55  C   UNL A   1      44.484  24.971  31.248  1.00  0.00     0.049 A 
ATOM     56  H   UNL A   1      42.994  23.511  30.942  1.00  0.00     0.167 HD
ATOM     57  C   UNL A   1      43.887  26.369  33.097  1.00  0.00     0.074 A 
ATOM     58  C   UNL A   1      43.946  27.066  34.370  1.00  0.00     0.031 C 
ATOM     59  C   UNL A   1      44.342  25.148  32.683  1.00  0.00     0.037 A 
BRANCH  46  60
ATOM     60  C   UNL A   1      43.482  22.551  27.147  1.00  0.00     0.058 A 
ATOM     61  C   UNL A   1      42.717  21.374  26.985  1.00  0.00     0.135 A 
ATOM     62  C   UNL A   1      44.596  22.658  26.290  1.00  0.00     0.135 A 
ATOM     63  F   UNL A   1      41.609  21.149  27.701  1.00  0.00    -0.206 F 
ATOM     64  C   UNL A   1      43.065  20.351  26.102  1.00  0.00     0.059 A 
ATOM     65  C   UNL A   1      44.980  21.632  25.412  1.00  0.00     0.059 A 
ATOM     66  F   UNL A   1      45.344  23.773  26.280  1.00  0.00    -0.206 F 
ATOM     67  C   UNL A   1      44.211  20.474  25.333  1.00  0.00     0.060 A 
BRANCH  67  68
ATOM     68  S   UNL A   1      44.677  19.092  24.270  1.00  0.00     0.124 S 
ATOM     69  O   UNL A   1      44.431  19.634  22.936  1.00  0.00    -0.237 OA
ATOM     70  O   UNL A   1      46.077  18.891  24.622  1.00  0.00    -0.237 OA
ATOM     71  O   UNL A   1      43.767  18.025  24.679  1.00  0.00    -0.744 OA
ENDBRANCH  67  68
ENDBRANCH  46  60
BRANCH  47  72
ATOM     72  C   UNL A   1      41.306  30.360  32.536  1.00  0.00     0.058 A 
ATOM     73  C   UNL A   1      40.180  29.585  32.889  1.00  0.00     0.135 A 
ATOM     74  C   UNL A   1      41.228  31.736  32.798  1.00  0.00     0.135 A 
ATOM     75  F   UNL A   1      40.176  28.262  32.653  1.00  0.00    -0.206 F 
ATOM     76  C   UNL A   1      39.097  30.113  33.589  1.00  0.00     0.059 A 
ATOM     77  C   UNL A   1      40.139  32.294  33.481  1.00  0.00     0.059 A 
ATOM     78  F   UNL A   1      42.242  32.549  32.470  1.00  0.00    -0.206 F 
ATOM     79  C   UNL A   1      39.101  31.467  33.913  1.00  0.00     0.060 A 
BRANCH  79  80
ATOM     80  S   UNL A   1      37.820  32.081  35.038  1.00  0.00     0.124 S 
ATOM     81  O   UNL A   1      37.798  31.043  36.062  1.00  0.00    -0.237 OA
ATOM     82  O   UNL A   1      38.373  33.368  35.450  1.00  0.00    -0.237 OA
ATOM     83  O   UNL A   1      36.639  32.156  34.184  1.00  0.00    -0.744 OA
ENDBRANCH  79  80
ENDBRANCH  47  72
BRANCH  59  84
ATOM     84  C   UNL A   1      44.855  24.057  33.584  1.00  0.00     0.058 A 
ATOM     85  C   UNL A   1      44.062  22.990  34.032  1.00  0.00     0.135 A 
ATOM     86  C   UNL A   1      46.234  23.979  33.902  1.00  0.00     0.135 A 
ATOM     87  F   UNL A   1      42.763  22.905  33.708  1.00  0.00    -0.206 F 
ATOM     88  C   UNL A   1      44.586  21.946  34.795  1.00  0.00     0.059 A 
ATOM     89  C   UNL A   1      46.785  22.920  34.611  1.00  0.00     0.059 A 
ATOM     90  F   UNL A   1      47.101  24.930  33.520  1.00  0.00    -0.206 F 
ATOM     91  C   UNL A   1      45.948  21.918  35.077  1.00  0.00     0.060 A 
BRANCH  91  92
ATOM     92  S   UNL A   1      46.649  20.540  35.998  1.00  0.00     0.124 S 
ATOM     93  O   UNL A   1      45.797  20.522  37.183  1.00  0.00    -0.237 OA
ATOM     94  O   UNL A   1      46.478  19.416  35.082  1.00  0.00    -0.237 OA
ATOM     95  O   UNL A   1      48.031  20.956  36.215  1.00  0.00    -0.744 OA
ENDBRANCH  91  92
ENDBRANCH  59  84
ENDBRANCH  33  34
ENDBRANCH  26  28
ENDBRANCH  25  26
ENDBRANCH  24  25
ENDBRANCH   1  24
TORSDOF 19
ENDMDL
MODEL 2
REMARK VINA RESULT:     -12.3      0.998      2.066
REMARK SMILES Cc1ccccc1O[C@H](C)C(=O)Oc1cccc(C(=O)OCCOC(=O)c2ccc(-c3c4nc(c(-c5c(F)cc(S(=O)(=O)[O-])cc5F)c5ccc([nH]5)c(-c5c(F)cc(S(=O)(=O)[O-])cc5F)c5nc(c(-c6c(F)cc(S(=O)(=O)[O-])cc6F)c6ccc3[nH]6)C=C5)C=C4)cc2)c1
REMARK SMILES IDX 22 1 21 2 19 3 20 4 18 5 14 6 15 7 93 8 16 9 17 10 13 11
REMARK SMILES IDX 11 12 12 13 9 14 10 15 8 16 7 17 1 18 2 19 3 20 4 21 6 22
REMARK SMILES IDX 5 23 23 24 24 25 25 26 26 27 27 28 28 29 92 30 29 31 91 32
REMARK SMILES IDX 30 33 31 34 32 35 85 36 33 37 90 38 84 39 86 40 34 41 89 42
REMARK SMILES IDX 83 43 82 44 35 46 69 47 48 48 68 49 49 50 52 51 67 52 87 53
REMARK SMILES IDX 50 54 51 55 66 57 88 58 53 59 36 60 37 61 46 62 38 63 39 64
REMARK SMILES IDX 45 65 47 66 40 67 41 68 42 69 43 70 44 71 70 72 71 73 80 74
REMARK SMILES IDX 72 75 73 76 79 77 81 78 74 79 75 80 76 81 77 82 78 83 54 84
REMARK SMILES IDX 55 85 64 86 56 87 57 88 63 89 65 90 58 91 59 92 60 93 61 94
REMARK SMILES IDX 62 95
REMARK H PARENT 86 45 52 56
REMARK Flexibility Score: inf
ROOT
ATOM      1  C   UNL A   1      33.710  30.378  26.973  1.00  0.00     0.275 C 
ENDROOT
BRANCH   1   2
ATOM      2  O   UNL A   1      32.324  30.073  27.222  1.00  0.00    -0.458 OA
BRANCH   2   3
ATOM      3  C   UNL A   1      31.929  28.815  26.914  1.00  0.00     0.338 C 
ATOM      4  O   UNL A   1      31.439  28.003  27.677  1.00  0.00    -0.246 OA
BRANCH   3   5
ATOM      5  C   UNL A   1      31.949  28.653  25.446  1.00  0.00     0.063 A 
ATOM      6  C   UNL A   1      32.775  27.699  23.391  1.00  0.00     0.131 A 
ATOM      7  C   UNL A   1      31.734  28.309  22.688  1.00  0.00     0.047 A 
ATOM      8  C   UNL A   1      32.873  27.834  24.782  1.00  0.00     0.063 A 
ATOM      9  C   UNL A   1      30.819  29.120  23.358  1.00  0.00     0.005 A 
ATOM     10  C   UNL A   1      30.930  29.298  24.736  1.00  0.00     0.016 A 
BRANCH   6  11
ATOM     11  O   UNL A   1      33.693  26.850  22.729  1.00  0.00    -0.424 OA
BRANCH  11  12
ATOM     12  C   UNL A   1      33.196  25.789  21.975  1.00  0.00     0.352 C 
ATOM     13  O   UNL A   1      33.058  25.792  20.754  1.00  0.00    -0.247 OA
BRANCH  12  14
ATOM     14  C   UNL A   1      32.804  24.564  22.835  1.00  0.00     0.280 C 
ATOM     15  C   UNL A   1      31.328  24.608  23.233  1.00  0.00     0.066 C 
BRANCH  14  16
ATOM     16  O   UNL A   1      33.262  23.243  22.608  1.00  0.00    -0.479 OA
BRANCH  16  17
ATOM     17  C   UNL A   1      34.205  22.627  23.372  1.00  0.00     0.123 A 
ATOM     18  C   UNL A   1      32.383  20.921  23.922  1.00  0.00     0.048 C 
ATOM     19  C   UNL A   1      33.764  21.495  24.086  1.00  0.00    -0.009 A 
ATOM     20  C   UNL A   1      34.637  20.861  24.987  1.00  0.00     0.007 A 
ATOM     21  C   UNL A   1      35.942  21.319  25.148  1.00  0.00     0.001 A 
ATOM     22  C   UNL A   1      35.532  23.038  23.501  1.00  0.00     0.047 A 
ATOM     23  C   UNL A   1      36.394  22.392  24.390  1.00  0.00     0.004 A 
ENDBRANCH  16  17
ENDBRANCH  14  16
ENDBRANCH  12  14
ENDBRANCH  11  12
ENDBRANCH   6  11
ENDBRANCH   3   5
ENDBRANCH   2   3
ENDBRANCH   1   2
BRANCH   1  24
ATOM     24  C   UNL A   1      34.377  31.289  28.029  1.00  0.00     0.275 C 
BRANCH  24  25
ATOM     25  O   UNL A   1      35.813  31.210  28.080  1.00  0.00    -0.458 OA
BRANCH  25  26
ATOM     26  C   UNL A   1      36.327  30.793  29.277  1.00  0.00     0.338 C 
ATOM     27  O   UNL A   1      35.803  30.991  30.358  1.00  0.00    -0.246 OA
BRANCH  26  28
ATOM     28  C   UNL A   1      37.303  29.706  28.968  1.00  0.00     0.060 A 
ATOM     29  C   UNL A   1      38.088  29.810  27.811  1.00  0.00     0.016 A 
ATOM     30  C   UNL A   1      37.700  28.877  30.020  1.00  0.00     0.016 A 
ATOM     31  C   UNL A   1      39.356  29.226  27.782  1.00  0.00     0.010 A 
ATOM     32  C   UNL A   1      38.991  28.410  30.044  1.00  0.00     0.010 A 
ATOM     33  C   UNL A   1      39.821  28.576  28.928  1.00  0.00    -0.014 A 
BRANCH  33  34
ATOM     34  C   UNL A   1      41.035  27.777  28.986  1.00  0.00     0.031 A 
ATOM     35  C   UNL A   1      41.144  26.372  28.532  1.00  0.00     0.074 A 
ATOM     36  C   UNL A   1      42.102  28.458  29.463  1.00  0.00     0.049 A 
ATOM     37  N   UNL A   1      41.984  25.534  29.038  1.00  0.00    -0.248 NA
ATOM     38  C   UNL A   1      40.347  25.790  27.451  1.00  0.00     0.031 C 
ATOM     39  C   UNL A   1      43.495  28.063  29.542  1.00  0.00     0.029 A 
ATOM     40  N   UNL A   1      42.111  29.694  30.107  1.00  0.00    -0.354 N 
ATOM     41  C   UNL A   1      42.054  24.442  28.200  1.00  0.00     0.074 A 
ATOM     42  C   UNL A   1      40.954  24.605  27.275  1.00  0.00     0.031 C 
ATOM     43  C   UNL A   1      44.093  28.825  30.480  1.00  0.00     0.029 A 
ATOM     44  C   UNL A   1      43.051  29.624  31.118  1.00  0.00     0.049 A 
ATOM     45  H   UNL A   1      41.551  30.472  29.885  1.00  0.00     0.167 HD
ATOM     46  C   UNL A   1      43.135  23.610  28.271  1.00  0.00     0.037 A 
ATOM     47  C   UNL A   1      42.697  29.576  32.440  1.00  0.00     0.037 A 
ATOM     48  C   UNL A   1      44.076  24.072  29.289  1.00  0.00     0.049 A 
ATOM     49  C   UNL A   1      43.189  28.293  33.079  1.00  0.00     0.074 A 
ATOM     50  C   UNL A   1      45.191  24.889  29.191  1.00  0.00     0.029 A 
ATOM     51  N   UNL A   1      43.733  24.031  30.638  1.00  0.00    -0.354 N 
ATOM     52  N   UNL A   1      43.372  27.179  32.423  1.00  0.00    -0.248 NA
ATOM     53  C   UNL A   1      43.564  28.180  34.485  1.00  0.00     0.031 C 
ATOM     54  C   UNL A   1      45.463  25.418  30.473  1.00  0.00     0.029 A 
ATOM     55  C   UNL A   1      44.535  24.899  31.359  1.00  0.00     0.049 A 
ATOM     56  H   UNL A   1      43.025  23.466  31.023  1.00  0.00     0.167 HD
ATOM     57  C   UNL A   1      43.963  26.256  33.245  1.00  0.00     0.074 A 
ATOM     58  C   UNL A   1      44.035  26.920  34.535  1.00  0.00     0.031 C 
ATOM     59  C   UNL A   1      44.401  25.041  32.799  1.00  0.00     0.037 A 
BRANCH  46  60
ATOM     60  C   UNL A   1      43.486  22.596  27.203  1.00  0.00     0.058 A 
ATOM     61  C   UNL A   1      42.757  21.393  27.069  1.00  0.00     0.135 A 
ATOM     62  C   UNL A   1      44.550  22.750  26.291  1.00  0.00     0.135 A 
ATOM     63  F   UNL A   1      41.695  21.122  27.838  1.00  0.00    -0.206 F 
ATOM     64  C   UNL A   1      43.095  20.390  26.159  1.00  0.00     0.059 A 
ATOM     65  C   UNL A   1      44.925  21.745  25.384  1.00  0.00     0.059 A 
ATOM     66  F   UNL A   1      45.256  23.891  26.254  1.00  0.00    -0.206 F 
ATOM     67  C   UNL A   1      44.195  20.561  25.334  1.00  0.00     0.060 A 
BRANCH  67  68
ATOM     68  S   UNL A   1      44.655  19.205  24.235  1.00  0.00     0.124 S 
ATOM     69  O   UNL A   1      44.419  19.785  22.915  1.00  0.00    -0.237 OA
ATOM     70  O   UNL A   1      46.052  18.983  24.587  1.00  0.00    -0.237 OA
ATOM     71  O   UNL A   1      43.735  18.135  24.611  1.00  0.00    -0.744 OA
ENDBRANCH  67  68
ENDBRANCH  46  60
BRANCH  47  72
ATOM     72  C   UNL A   1      41.429  30.292  32.796  1.00  0.00     0.058 A 
ATOM     73  C   UNL A   1      40.303  29.523  33.165  1.00  0.00     0.135 A 
ATOM     74  C   UNL A   1      41.364  31.668  33.065  1.00  0.00     0.135 A 
ATOM     75  F   UNL A   1      40.287  28.201  32.924  1.00  0.00    -0.206 F 
ATOM     76  C   UNL A   1      39.235  30.056  33.884  1.00  0.00     0.059 A 
ATOM     77  C   UNL A   1      40.289  32.230  33.768  1.00  0.00     0.059 A 
ATOM     78  F   UNL A   1      42.377  32.475  32.723  1.00  0.00    -0.206 F 
ATOM     79  C   UNL A   1      39.253  31.408  34.213  1.00  0.00     0.060 A 
BRANCH  79  80
ATOM     80  S   UNL A   1      37.994  32.026  35.361  1.00  0.00     0.124 S 
ATOM     81  O   UNL A   1      38.647  33.206  35.914  1.00  0.00    -0.237 OA
ATOM     82  O   UNL A   1      36.870  32.282  34.465  1.00  0.00    -0.237 OA
ATOM     83  O   UNL A   1      37.813  30.909  36.284  1.00  0.00    -0.744 OA
ENDBRANCH  79  80
ENDBRANCH  47  72
BRANCH  59  84
ATOM     84  C   UNL A   1      44.903  23.922  33.670  1.00  0.00     0.058 A 
ATOM     85  C   UNL A   1      44.114  22.827  34.051  1.00  0.00     0.135 A 
ATOM     86  C   UNL A   1      46.274  23.849  34.024  1.00  0.00     0.135 A 
ATOM     87  F   UNL A   1      42.827  22.737  33.686  1.00  0.00    -0.206 F 
ATOM     88  C   UNL A   1      44.631  21.760  34.786  1.00  0.00     0.059 A 
ATOM     89  C   UNL A   1      46.820  22.770  34.706  1.00  0.00     0.059 A 
ATOM     90  F   UNL A   1      47.137  24.827  33.707  1.00  0.00    -0.206 F 
ATOM     91  C   UNL A   1      45.985  21.739  35.106  1.00  0.00     0.060 A 
BRANCH  91  92
ATOM     92  S   UNL A   1      46.680  20.334  35.992  1.00  0.00     0.124 S 
ATOM     93  O   UNL A   1      46.379  20.688  37.375  1.00  0.00    -0.237 OA
ATOM     94  O   UNL A   1      45.927  19.205  35.452  1.00  0.00    -0.237 OA
ATOM     95  O   UNL A   1      48.090  20.373  35.618  1.00  0.00    -0.744 OA
ENDBRANCH  91  92
ENDBRANCH  59  84
ENDBRANCH  33  34
ENDBRANCH  26  28
ENDBRANCH  25  26
ENDBRANCH  24  25
ENDBRANCH   1  24
TORSDOF 19
ENDMDL
MODEL 3
REMARK VINA RESULT:     -12.3      1.116      2.199
REMARK SMILES Cc1ccccc1O[C@H](C)C(=O)Oc1cccc(C(=O)OCCOC(=O)c2ccc(-c3c4nc(c(-c5c(F)cc(S(=O)(=O)[O-])cc5F)c5ccc([nH]5)c(-c5c(F)cc(S(=O)(=O)[O-])cc5F)c5nc(c(-c6c(F)cc(S(=O)(=O)[O-])cc6F)c6ccc3[nH]6)C=C5)C=C4)cc2)c1
REMARK SMILES IDX 22 1 21 2 19 3 20 4 18 5 14 6 15 7 93 8 16 9 17 10 13 11
REMARK SMILES IDX 11 12 12 13 9 14 10 15 8 16 7 17 1 18 2 19 3 20 4 21 6 22
REMARK SMILES IDX 5 23 23 24 24 25 25 26 26 27 27 28 28 29 92 30 29 31 91 32
REMARK SMILES IDX 30 33 31 34 32 35 85 36 33 37 90 38 84 39 86 40 34 41 89 42
REMARK SMILES IDX 83 43 82 44 35 46 69 47 48 48 68 49 49 50 52 51 67 52 87 53
REMARK SMILES IDX 50 54 51 55 66 57 88 58 53 59 36 60 37 61 46 62 38 63 39 64
REMARK SMILES IDX 45 65 47 66 40 67 41 68 42 69 43 70 44 71 70 72 71 73 80 74
REMARK SMILES IDX 72 75 73 76 79 77 81 78 74 79 75 80 76 81 77 82 78 83 54 84
REMARK SMILES IDX 55 85 64 86 56 87 57 88 63 89 65 90 58 91 59 92 60 93 61 94
REMARK SMILES IDX 62 95
REMARK H PARENT 86 45 52 56
REMARK Flexibility Score: inf
ROOT
ATOM      1  C   UNL A   1      33.229  29.607  26.105  1.00  0.00     0.275 C 
ENDROOT
BRANCH   1   2
ATOM      2  O   UNL A   1      32.467  28.625  25.376  1.00  0.00    -0.458 OA
BRANCH   2   3
ATOM      3  C   UNL A   1      32.351  27.410  25.961  1.00  0.00     0.338 C 
ATOM      4  O   UNL A   1      31.548  27.094  26.820  1.00  0.00    -0.246 OA
BRANCH   3   5
ATOM      5  C   UNL A   1      33.187  26.441  25.224  1.00  0.00     0.063 A 
ATOM      6  C   UNL A   1      34.630  24.514  25.067  1.00  0.00     0.131 A 
ATOM      7  C   UNL A   1      34.567  24.580  23.673  1.00  0.00     0.047 A 
ATOM      8  C   UNL A   1      33.911  25.421  25.857  1.00  0.00     0.063 A 
ATOM      9  C   UNL A   1      33.842  25.598  23.053  1.00  0.00     0.005 A 
ATOM     10  C   UNL A   1      33.158  26.532  23.827  1.00  0.00     0.016 A 
BRANCH   6  11
ATOM     11  O   UNL A   1      35.336  23.471  25.709  1.00  0.00    -0.424 OA
BRANCH  11  12
ATOM     12  C   UNL A   1      35.142  22.164  25.268  1.00  0.00     0.352 C 
ATOM     13  O   UNL A   1      35.771  21.622  24.361  1.00  0.00    -0.247 OA
BRANCH  12  14
ATOM     14  C   UNL A   1      34.018  21.425  26.033  1.00  0.00     0.280 C 
ATOM     15  C   UNL A   1      34.037  21.765  27.524  1.00  0.00     0.066 C 
BRANCH  14  16
ATOM     16  O   UNL A   1      32.704  21.233  25.541  1.00  0.00    -0.479 OA
BRANCH  16  17
ATOM     17  C   UNL A   1      31.855  22.252  25.232  1.00  0.00     0.123 A 
ATOM     18  C   UNL A   1      32.289  21.631  22.791  1.00  0.00     0.048 C 
ATOM     19  C   UNL A   1      31.684  22.504  23.857  1.00  0.00    -0.009 A 
ATOM     20  C   UNL A   1      30.916  23.606  23.445  1.00  0.00     0.007 A 
ATOM     21  C   UNL A   1      30.292  24.424  24.383  1.00  0.00     0.001 A 
ATOM     22  C   UNL A   1      31.178  23.045  26.158  1.00  0.00     0.047 A 
ATOM     23  C   UNL A   1      30.407  24.131  25.736  1.00  0.00     0.004 A 
ENDBRANCH  16  17
ENDBRANCH  14  16
ENDBRANCH  12  14
ENDBRANCH  11  12
ENDBRANCH   6  11
ENDBRANCH   3   5
ENDBRANCH   2   3
ENDBRANCH   1   2
BRANCH   1  24
ATOM     24  C   UNL A   1      34.082  29.041  27.263  1.00  0.00     0.275 C 
BRANCH  24  25
ATOM     25  O   UNL A   1      35.477  29.394  27.219  1.00  0.00    -0.458 OA
BRANCH  25  26
ATOM     26  C   UNL A   1      35.863  30.342  28.126  1.00  0.00     0.338 C 
ATOM     27  O   UNL A   1      35.099  31.095  28.702  1.00  0.00    -0.246 OA
BRANCH  26  28
ATOM     28  C   UNL A   1      37.224  29.953  28.601  1.00  0.00     0.060 A 
ATOM     29  C   UNL A   1      37.335  29.046  29.666  1.00  0.00     0.016 A 
ATOM     30  C   UNL A   1      38.294  30.150  27.726  1.00  0.00     0.016 A 
ATOM     31  C   UNL A   1      38.449  28.209  29.747  1.00  0.00     0.010 A 
ATOM     32  C   UNL A   1      39.327  29.246  27.729  1.00  0.00     0.010 A 
ATOM     33  C   UNL A   1      39.414  28.278  28.737  1.00  0.00    -0.014 A 
BRANCH  33  34
ATOM     34  C   UNL A   1      40.701  27.601  28.781  1.00  0.00     0.031 A 
ATOM     35  C   UNL A   1      40.936  26.207  28.341  1.00  0.00     0.074 A 
ATOM     36  C   UNL A   1      41.705  28.389  29.228  1.00  0.00     0.049 A 
ATOM     37  N   UNL A   1      41.862  25.461  28.841  1.00  0.00    -0.248 NA
ATOM     38  C   UNL A   1      40.179  25.536  27.283  1.00  0.00     0.031 C 
ATOM     39  C   UNL A   1      43.131  28.131  29.284  1.00  0.00     0.029 A 
ATOM     40  N   UNL A   1      41.606  29.628  29.857  1.00  0.00    -0.354 N 
ATOM     41  C   UNL A   1      42.022  24.370  28.014  1.00  0.00     0.074 A 
ATOM     42  C   UNL A   1      40.894  24.412  27.110  1.00  0.00     0.031 C 
ATOM     43  C   UNL A   1      43.670  28.960  30.201  1.00  0.00     0.029 A 
ATOM     44  C   UNL A   1      42.568  29.664  30.850  1.00  0.00     0.049 A 
ATOM     45  H   UNL A   1      40.970  30.346  29.636  1.00  0.00     0.167 HD
ATOM     46  C   UNL A   1      43.180  23.647  28.074  1.00  0.00     0.037 A 
ATOM     47  C   UNL A   1      42.245  29.600  32.179  1.00  0.00     0.037 A 
ATOM     48  C   UNL A   1      44.090  24.211  29.067  1.00  0.00     0.049 A 
ATOM     49  C   UNL A   1      42.871  28.379  32.824  1.00  0.00     0.074 A 
ATOM     50  C   UNL A   1      45.119  25.130  28.938  1.00  0.00     0.029 A 
ATOM     51  N   UNL A   1      43.779  24.156  30.423  1.00  0.00    -0.354 N 
ATOM     52  N   UNL A   1      43.148  27.279  32.178  1.00  0.00    -0.248 NA
ATOM     53  C   UNL A   1      43.281  28.323  34.223  1.00  0.00     0.031 C 
ATOM     54  C   UNL A   1      45.363  25.701  30.208  1.00  0.00     0.029 A 
ATOM     55  C   UNL A   1      44.506  25.107  31.117  1.00  0.00     0.049 A 
ATOM     56  H   UNL A   1      43.136  23.530  30.829  1.00  0.00     0.167 HD
ATOM     57  C   UNL A   1      43.840  26.429  32.998  1.00  0.00     0.074 A 
ATOM     58  C   UNL A   1      43.872  27.115  34.279  1.00  0.00     0.031 C 
ATOM     59  C   UNL A   1      44.385  25.256  32.558  1.00  0.00     0.037 A 
BRANCH  46  60
ATOM     60  C   UNL A   1      43.607  22.657  27.011  1.00  0.00     0.058 A 
ATOM     61  C   UNL A   1      42.929  21.428  26.841  1.00  0.00     0.135 A 
ATOM     62  C   UNL A   1      44.696  22.859  26.140  1.00  0.00     0.135 A 
ATOM     63  F   UNL A   1      41.851  21.111  27.569  1.00  0.00    -0.206 F 
ATOM     64  C   UNL A   1      43.338  20.447  25.936  1.00  0.00     0.059 A 
ATOM     65  C   UNL A   1      45.142  21.877  25.240  1.00  0.00     0.059 A 
ATOM     66  F   UNL A   1      45.360  24.026  26.137  1.00  0.00    -0.206 F 
ATOM     67  C   UNL A   1      44.460  20.667  25.153  1.00  0.00     0.060 A 
BRANCH  67  68
ATOM     68  S   UNL A   1      45.010  19.339  24.061  1.00  0.00     0.124 S 
ATOM     69  O   UNL A   1      44.414  18.161  24.686  1.00  0.00    -0.237 OA
ATOM     70  O   UNL A   1      44.434  19.735  22.781  1.00  0.00    -0.237 OA
ATOM     71  O   UNL A   1      46.466  19.410  24.144  1.00  0.00    -0.744 OA
ENDBRANCH  67  68
ENDBRANCH  46  60
BRANCH  47  72
ATOM     72  C   UNL A   1      40.920  30.195  32.552  1.00  0.00     0.058 A 
ATOM     73  C   UNL A   1      40.721  31.578  32.341  1.00  0.00     0.135 A 
ATOM     74  C   UNL A   1      39.776  29.431  32.826  1.00  0.00     0.135 A 
ATOM     75  F   UNL A   1      41.772  32.375  32.090  1.00  0.00    -0.206 F 
ATOM     76  C   UNL A   1      39.451  32.148  32.265  1.00  0.00     0.059 A 
ATOM     77  C   UNL A   1      38.490  29.987  32.777  1.00  0.00     0.059 A 
ATOM     78  F   UNL A   1      39.878  28.116  33.065  1.00  0.00    -0.206 F 
ATOM     79  C   UNL A   1      38.337  31.335  32.451  1.00  0.00     0.060 A 
BRANCH  79  80
ATOM     80  S   UNL A   1      36.702  32.032  32.096  1.00  0.00     0.124 S 
ATOM     81  O   UNL A   1      36.956  32.785  30.873  1.00  0.00    -0.237 OA
ATOM     82  O   UNL A   1      35.888  30.829  31.944  1.00  0.00    -0.237 OA
ATOM     83  O   UNL A   1      36.417  32.829  33.285  1.00  0.00    -0.744 OA
ENDBRANCH  79  80
ENDBRANCH  47  72
BRANCH  59  84
ATOM     84  C   UNL A   1      45.010  24.202  33.432  1.00  0.00     0.058 A 
ATOM     85  C   UNL A   1      44.362  23.009  33.786  1.00  0.00     0.135 A 
ATOM     86  C   UNL A   1      46.370  24.306  33.819  1.00  0.00     0.135 A 
ATOM     87  F   UNL A   1      43.106  22.756  33.389  1.00  0.00    -0.206 F 
ATOM     88  C   UNL A   1      44.997  22.011  34.525  1.00  0.00     0.059 A 
ATOM     89  C   UNL A   1      47.037  23.299  34.506  1.00  0.00     0.059 A 
ATOM     90  F   UNL A   1      47.105  25.391  33.530  1.00  0.00    -0.206 F 
ATOM     91  C   UNL A   1      46.335  22.164  34.878  1.00  0.00     0.060 A 
BRANCH  91  92
ATOM     92  S   UNL A   1      47.187  20.852  35.768  1.00  0.00     0.124 S 
ATOM     93  O   UNL A   1      48.422  21.524  36.158  1.00  0.00    -0.237 OA
ATOM     94  O   UNL A   1      46.264  20.548  36.859  1.00  0.00    -0.237 OA
ATOM     95  O   UNL A   1      47.323  19.804  34.762  1.00  0.00    -0.744 OA
ENDBRANCH  91  92
ENDBRANCH  59  84
ENDBRANCH  33  34
ENDBRANCH  26  28
ENDBRANCH  25  26
ENDBRANCH  24  25
ENDBRANCH   1  24
TORSDOF 19
ENDMDL
