MODEL 1
REMARK VINA RESULT:     -11.5      0.000      0.000
REMARK SMILES C[NH+]1CCC(NC(=O)N[C@@H]2C=C[C@H](C(=O)OCCOC(=O)c3ccc(-c4c5nc(c(-c6c(F)cc(S(=O)(=O)[O-])cc6F)c6ccc([nH]6)c(-c6c(F)cc(S(=O)(=O)[O-])cc6F)c6nc(c(-c7c(F)cc(S(=O)(=O)[O-])cc7F)c7ccc4[nH]7)C=C6)C=C5)cc3)C2)CC1
REMARK SMILES IDX 18 1 17 2 16 3 14 4 15 5 13 6 10 7 11 8 88 9 12 10 9 11 6 12
REMARK SMILES IDX 7 13 8 15 5 17 1 18 2 19 3 20 90 21 4 23 89 24 19 25 20 26
REMARK SMILES IDX 21 27 22 28 23 29 87 30 24 31 86 32 25 33 26 34 27 35 80 36
REMARK SMILES IDX 28 37 85 38 79 39 81 40 29 41 84 42 78 43 77 44 30 46 64 47
REMARK SMILES IDX 43 48 63 49 44 50 47 51 62 52 82 53 45 54 46 55 61 57 83 58
REMARK SMILES IDX 48 59 31 60 32 61 41 62 33 63 34 64 40 65 42 66 35 67 36 68
REMARK SMILES IDX 37 69 38 70 39 71 65 72 66 73 75 74 67 75 68 76 74 77 76 78
REMARK SMILES IDX 69 79 70 80 71 81 72 82 73 83 49 84 50 85 59 86 51 87 52 88
REMARK SMILES IDX 58 89 60 90 53 91 54 92 55 93 56 94 57 95
REMARK H PARENT 6 14 9 16 2 22 81 45 47 56
REMARK Flexibility Score: inf
ROOT
ATOM      1  C   UNL A   1      41.214  22.881  26.494  1.00  0.00     0.275 C 
ENDROOT
BRANCH   1   2
ATOM      2  C   UNL A   1      40.265  21.703  26.295  1.00  0.00     0.274 C 
BRANCH   2   3
ATOM      3  O   UNL A   1      38.896  22.135  26.411  1.00  0.00    -0.462 OA
BRANCH   3   4
ATOM      4  C   UNL A   1      38.032  21.754  25.424  1.00  0.00     0.312 C 
ATOM      5  O   UNL A   1      37.924  20.624  24.975  1.00  0.00    -0.252 OA
BRANCH   4   6
ATOM      6  C   UNL A   1      37.188  22.951  25.002  1.00  0.00     0.124 C 
ATOM      7  C   UNL A   1      34.753  22.568  24.917  1.00  0.00     0.107 C 
ATOM      8  C   UNL A   1      35.348  22.708  23.553  1.00  0.00    -0.006 C 
ATOM      9  C   UNL A   1      35.902  23.037  25.826  1.00  0.00     0.048 C 
ATOM     10  C   UNL A   1      36.677  22.864  23.595  1.00  0.00    -0.014 C 
BRANCH   7  11
ATOM     11  N   UNL A   1      34.384  21.173  25.033  1.00  0.00    -0.332 N 
ATOM     12  N   UNL A   1      32.089  21.096  25.648  1.00  0.00    -0.335 N 
ATOM     13  C   UNL A   1      33.244  20.510  25.299  1.00  0.00     0.315 C 
ATOM     14  H   UNL A   1      31.433  20.492  26.066  1.00  0.00     0.165 HD
ATOM     15  O   UNL A   1      33.277  19.280  25.237  1.00  0.00    -0.249 OA
ATOM     16  H   UNL A   1      35.146  20.568  24.882  1.00  0.00     0.165 HD
BRANCH  12  17
ATOM     17  C   UNL A   1      31.645  22.461  25.513  1.00  0.00     0.095 C 
ATOM     18  C   UNL A   1      30.389  26.380  25.167  1.00  0.00     0.332 C 
ATOM     19  N   UNL A   1      30.230  24.926  25.058  1.00  0.00    -0.337 N 
ATOM     20  C   UNL A   1      30.298  24.328  26.404  1.00  0.00     0.264 C 
ATOM     21  C   UNL A   1      31.197  24.393  24.085  1.00  0.00     0.264 C 
ATOM     22  H   UNL A   1      29.311  24.675  24.692  1.00  0.00     0.347 HD
ATOM     23  C   UNL A   1      30.463  22.809  26.408  1.00  0.00     0.086 C 
ATOM     24  C   UNL A   1      31.292  22.864  24.089  1.00  0.00     0.086 C 
ENDBRANCH  12  17
ENDBRANCH   7  11
ENDBRANCH   4   6
ENDBRANCH   3   4
ENDBRANCH   2   3
ENDBRANCH   1   2
BRANCH   1  25
ATOM     25  O   UNL A   1      40.457  24.104  26.502  1.00  0.00    -0.458 OA
BRANCH  25  26
ATOM     26  C   UNL A   1      41.164  25.244  26.346  1.00  0.00     0.338 C 
ATOM     27  O   UNL A   1      41.910  25.539  25.424  1.00  0.00    -0.246 OA
BRANCH  26  28
ATOM     28  C   UNL A   1      40.826  26.167  27.437  1.00  0.00     0.060 A 
ATOM     29  C   UNL A   1      41.568  27.335  27.545  1.00  0.00     0.016 A 
ATOM     30  C   UNL A   1      39.885  25.841  28.416  1.00  0.00     0.016 A 
ATOM     31  C   UNL A   1      41.444  28.126  28.677  1.00  0.00     0.010 A 
ATOM     32  C   UNL A   1      39.694  26.703  29.508  1.00  0.00     0.010 A 
ATOM     33  C   UNL A   1      40.496  27.846  29.663  1.00  0.00    -0.014 A 
BRANCH  33  34
ATOM     34  C   UNL A   1      40.417  28.749  30.846  1.00  0.00     0.031 A 
ATOM     35  C   UNL A   1      39.342  29.797  30.927  1.00  0.00     0.074 A 
ATOM     36  C   UNL A   1      41.229  28.556  31.908  1.00  0.00     0.049 A 
ATOM     37  N   UNL A   1      39.165  30.731  31.826  1.00  0.00    -0.248 NA
ATOM     38  C   UNL A   1      38.323  29.789  29.864  1.00  0.00     0.031 C 
ATOM     39  C   UNL A   1      42.233  27.494  32.023  1.00  0.00     0.029 A 
ATOM     40  N   UNL A   1      41.314  29.217  33.111  1.00  0.00    -0.354 N 
ATOM     41  C   UNL A   1      38.058  31.459  31.407  1.00  0.00     0.074 A 
ATOM     42  C   UNL A   1      37.583  30.839  30.188  1.00  0.00     0.031 C 
ATOM     43  C   UNL A   1      42.789  27.541  33.243  1.00  0.00     0.029 A 
ATOM     44  C   UNL A   1      42.258  28.692  33.964  1.00  0.00     0.049 A 
ATOM     45  H   UNL A   1      40.753  29.993  33.339  1.00  0.00     0.167 HD
ATOM     46  C   UNL A   1      37.508  32.556  31.977  1.00  0.00     0.037 A 
ATOM     47  C   UNL A   1      42.680  29.107  35.175  1.00  0.00     0.037 A 
ATOM     48  C   UNL A   1      37.958  33.141  33.213  1.00  0.00     0.049 A 
ATOM     49  C   UNL A   1      42.088  30.358  35.762  1.00  0.00     0.074 A 
ATOM     50  C   UNL A   1      37.488  34.278  33.848  1.00  0.00     0.029 A 
ATOM     51  N   UNL A   1      38.971  32.630  34.011  1.00  0.00    -0.354 N 
ATOM     52  N   UNL A   1      41.106  31.098  35.305  1.00  0.00    -0.248 NA
ATOM     53  C   UNL A   1      42.682  30.853  37.013  1.00  0.00     0.031 C 
ATOM     54  C   UNL A   1      38.243  34.477  35.009  1.00  0.00     0.029 A 
ATOM     55  C   UNL A   1      39.156  33.440  35.119  1.00  0.00     0.049 A 
ATOM     56  H   UNL A   1      39.483  31.812  33.817  1.00  0.00     0.167 HD
ATOM     57  C   UNL A   1      40.974  32.150  36.204  1.00  0.00     0.074 A 
ATOM     58  C   UNL A   1      41.949  31.932  37.252  1.00  0.00     0.031 C 
ATOM     59  C   UNL A   1      40.133  33.211  36.154  1.00  0.00     0.037 A 
BRANCH  46  60
ATOM     60  C   UNL A   1      36.411  33.251  31.225  1.00  0.00     0.058 A 
ATOM     61  C   UNL A   1      35.077  33.234  31.653  1.00  0.00     0.135 A 
ATOM     62  C   UNL A   1      36.722  33.980  30.065  1.00  0.00     0.135 A 
ATOM     63  F   UNL A   1      34.724  32.533  32.742  1.00  0.00    -0.206 F 
ATOM     64  C   UNL A   1      34.082  33.907  30.947  1.00  0.00     0.059 A 
ATOM     65  C   UNL A   1      35.749  34.675  29.355  1.00  0.00     0.059 A 
ATOM     66  F   UNL A   1      37.985  34.022  29.613  1.00  0.00    -0.206 F 
ATOM     67  C   UNL A   1      34.429  34.622  29.798  1.00  0.00     0.060 A 
BRANCH  67  68
ATOM     68  S   UNL A   1      33.134  35.495  28.892  1.00  0.00     0.124 S 
ATOM     69  O   UNL A   1      33.914  36.464  28.130  1.00  0.00    -0.237 OA
ATOM     70  O   UNL A   1      32.519  34.425  28.113  1.00  0.00    -0.237 OA
ATOM     71  O   UNL A   1      32.297  36.055  29.948  1.00  0.00    -0.744 OA
ENDBRANCH  67  68
ENDBRANCH  46  60
BRANCH  47  72
ATOM     72  C   UNL A   1      43.778  28.385  35.876  1.00  0.00     0.058 A 
ATOM     73  C   UNL A   1      45.125  28.715  35.662  1.00  0.00     0.135 A 
ATOM     74  C   UNL A   1      43.500  27.329  36.761  1.00  0.00     0.135 A 
ATOM     75  F   UNL A   1      45.447  29.701  34.810  1.00  0.00    -0.206 F 
ATOM     76  C   UNL A   1      46.155  28.017  36.286  1.00  0.00     0.059 A 
ATOM     77  C   UNL A   1      44.510  26.637  37.419  1.00  0.00     0.059 A 
ATOM     78  F   UNL A   1      42.230  26.971  37.003  1.00  0.00    -0.206 F 
ATOM     79  C   UNL A   1      45.837  26.977  37.162  1.00  0.00     0.060 A 
BRANCH  79  80
ATOM     80  S   UNL A   1      47.171  26.082  37.990  1.00  0.00     0.124 S 
ATOM     81  O   UNL A   1      46.522  24.813  38.300  1.00  0.00    -0.237 OA
ATOM     82  O   UNL A   1      48.206  26.035  36.961  1.00  0.00    -0.237 OA
ATOM     83  O   UNL A   1      47.479  26.931  39.137  1.00  0.00    -0.744 OA
ENDBRANCH  79  80
ENDBRANCH  47  72
BRANCH  59  84
ATOM     84  C   UNL A   1      40.230  34.221  37.261  1.00  0.00     0.058 A 
ATOM     85  C   UNL A   1      41.060  35.347  37.148  1.00  0.00     0.135 A 
ATOM     86  C   UNL A   1      39.444  34.095  38.417  1.00  0.00     0.135 A 
ATOM     87  F   UNL A   1      41.836  35.509  36.065  1.00  0.00    -0.206 F 
ATOM     88  C   UNL A   1      41.118  36.309  38.151  1.00  0.00     0.059 A 
ATOM     89  C   UNL A   1      39.471  35.055  39.423  1.00  0.00     0.059 A 
ATOM     90  F   UNL A   1      38.627  33.040  38.569  1.00  0.00    -0.206 F 
ATOM     91  C   UNL A   1      40.318  36.155  39.284  1.00  0.00     0.060 A 
BRANCH  91  92
ATOM     92  S   UNL A   1      40.364  37.434  40.559  1.00  0.00     0.124 S 
ATOM     93  O   UNL A   1      41.041  38.521  39.860  1.00  0.00    -0.237 OA
ATOM     94  O   UNL A   1      38.948  37.648  40.842  1.00  0.00    -0.237 OA
ATOM     95  O   UNL A   1      41.124  36.810  41.637  1.00  0.00    -0.744 OA
ENDBRANCH  91  92
ENDBRANCH  59  84
ENDBRANCH  33  34
ENDBRANCH  26  28
ENDBRANCH  25  26
ENDBRANCH   1  25
TORSDOF 16
ENDMDL
MODEL 2
REMARK VINA RESULT:     -11.5      6.795     11.823
REMARK SMILES C[NH+]1CCC(NC(=O)N[C@@H]2C=C[C@H](C(=O)OCCOC(=O)c3ccc(-c4c5nc(c(-c6c(F)cc(S(=O)(=O)[O-])cc6F)c6ccc([nH]6)c(-c6c(F)cc(S(=O)(=O)[O-])cc6F)c6nc(c(-c7c(F)cc(S(=O)(=O)[O-])cc7F)c7ccc4[nH]7)C=C6)C=C5)cc3)C2)CC1
REMARK SMILES IDX 18 1 17 2 16 3 14 4 15 5 13 6 10 7 11 8 88 9 12 10 9 11 6 12
REMARK SMILES IDX 7 13 8 15 5 17 1 18 2 19 3 20 90 21 4 23 89 24 19 25 20 26
REMARK SMILES IDX 21 27 22 28 23 29 87 30 24 31 86 32 25 33 26 34 27 35 80 36
REMARK SMILES IDX 28 37 85 38 79 39 81 40 29 41 84 42 78 43 77 44 30 46 64 47
REMARK SMILES IDX 43 48 63 49 44 50 47 51 62 52 82 53 45 54 46 55 61 57 83 58
REMARK SMILES IDX 48 59 31 60 32 61 41 62 33 63 34 64 40 65 42 66 35 67 36 68
REMARK SMILES IDX 37 69 38 70 39 71 65 72 66 73 75 74 67 75 68 76 74 77 76 78
REMARK SMILES IDX 69 79 70 80 71 81 72 82 73 83 49 84 50 85 59 86 51 87 52 88
REMARK SMILES IDX 58 89 60 90 53 91 54 92 55 93 56 94 57 95
REMARK H PARENT 6 14 9 16 2 22 81 45 47 56
REMARK Flexibility Score: inf
ROOT
ATOM      1  C   UNL A   1      34.737  31.889  29.075  1.00  0.00     0.275 C 
ENDROOT
BRANCH   1   2
ATOM      2  C   UNL A   1      33.776  31.866  27.889  1.00  0.00     0.274 C 
BRANCH   2   3
ATOM      3  O   UNL A   1      34.044  30.727  27.048  1.00  0.00    -0.462 OA
BRANCH   3   4
ATOM      4  C   UNL A   1      32.970  30.079  26.509  1.00  0.00     0.312 C 
ATOM      5  O   UNL A   1      32.134  30.583  25.774  1.00  0.00    -0.252 OA
BRANCH   4   6
ATOM      6  C   UNL A   1      32.999  28.614  26.930  1.00  0.00     0.124 C 
ATOM      7  C   UNL A   1      32.125  27.007  25.276  1.00  0.00     0.107 C 
ATOM      8  C   UNL A   1      31.211  27.160  26.450  1.00  0.00    -0.006 C 
ATOM      9  C   UNL A   1      33.402  27.713  25.761  1.00  0.00     0.048 C 
ATOM     10  C   UNL A   1      31.658  28.070  27.323  1.00  0.00    -0.014 C 
BRANCH   7  11
ATOM     11  N   UNL A   1      31.435  27.635  24.169  1.00  0.00    -0.332 N 
ATOM     12  N   UNL A   1      31.502  26.118  22.340  1.00  0.00    -0.335 N 
ATOM     13  C   UNL A   1      31.113  27.266  22.917  1.00  0.00     0.315 C 
ATOM     14  H   UNL A   1      31.423  26.106  21.359  1.00  0.00     0.165 HD
ATOM     15  O   UNL A   1      30.431  28.048  22.253  1.00  0.00    -0.249 OA
ATOM     16  H   UNL A   1      31.132  28.547  24.383  1.00  0.00     0.165 HD
BRANCH  12  17
ATOM     17  C   UNL A   1      32.015  24.901  22.915  1.00  0.00     0.095 C 
ATOM     18  C   UNL A   1      33.524  21.427  24.565  1.00  0.00     0.332 C 
ATOM     19  N   UNL A   1      32.748  22.199  23.588  1.00  0.00    -0.337 N 
ATOM     20  C   UNL A   1      33.660  23.062  22.815  1.00  0.00     0.264 C 
ATOM     21  C   UNL A   1      31.649  22.900  24.271  1.00  0.00     0.264 C 
ATOM     22  H   UNL A   1      32.297  21.592  22.903  1.00  0.00     0.347 HD
ATOM     23  C   UNL A   1      32.956  24.139  21.991  1.00  0.00     0.086 C 
ATOM     24  C   UNL A   1      30.940  23.934  23.391  1.00  0.00     0.086 C 
ENDBRANCH  12  17
ENDBRANCH   7  11
ENDBRANCH   4   6
ENDBRANCH   3   4
ENDBRANCH   2   3
ENDBRANCH   1   2
BRANCH   1  25
ATOM     25  O   UNL A   1      35.523  30.685  29.073  1.00  0.00    -0.458 OA
BRANCH  25  26
ATOM     26  C   UNL A   1      36.380  30.531  30.104  1.00  0.00     0.338 C 
ATOM     27  O   UNL A   1      36.166  30.735  31.290  1.00  0.00    -0.246 OA
BRANCH  26  28
ATOM     28  C   UNL A   1      37.638  29.965  29.597  1.00  0.00     0.060 A 
ATOM     29  C   UNL A   1      38.550  29.486  30.528  1.00  0.00     0.016 A 
ATOM     30  C   UNL A   1      37.978  30.015  28.244  1.00  0.00     0.016 A 
ATOM     31  C   UNL A   1      39.833  29.153  30.124  1.00  0.00     0.010 A 
ATOM     32  C   UNL A   1      39.247  29.578  27.832  1.00  0.00     0.010 A 
ATOM     33  C   UNL A   1      40.201  29.166  28.777  1.00  0.00    -0.014 A 
BRANCH  33  34
ATOM     34  C   UNL A   1      41.597  28.785  28.420  1.00  0.00     0.031 A 
ATOM     35  C   UNL A   1      42.710  29.787  28.547  1.00  0.00     0.074 A 
ATOM     36  C   UNL A   1      41.895  27.507  28.098  1.00  0.00     0.049 A 
ATOM     37  N   UNL A   1      43.968  29.674  28.201  1.00  0.00    -0.248 NA
ATOM     38  C   UNL A   1      42.372  31.085  29.154  1.00  0.00     0.031 C 
ATOM     39  C   UNL A   1      40.937  26.399  28.061  1.00  0.00     0.029 A 
ATOM     40  N   UNL A   1      43.093  26.913  27.780  1.00  0.00    -0.354 N 
ATOM     41  C   UNL A   1      44.554  30.901  28.488  1.00  0.00     0.074 A 
ATOM     42  C   UNL A   1      43.523  31.736  29.067  1.00  0.00     0.031 C 
ATOM     43  C   UNL A   1      41.590  25.258  27.796  1.00  0.00     0.029 A 
ATOM     44  C   UNL A   1      42.995  25.560  27.545  1.00  0.00     0.049 A 
ATOM     45  H   UNL A   1      43.942  27.409  27.724  1.00  0.00     0.167 HD
ATOM     46  C   UNL A   1      45.828  31.295  28.264  1.00  0.00     0.037 A 
ATOM     47  C   UNL A   1      43.917  24.666  27.138  1.00  0.00     0.037 A 
ATOM     48  C   UNL A   1      46.861  30.446  27.729  1.00  0.00     0.049 A 
ATOM     49  C   UNL A   1      45.314  25.142  26.849  1.00  0.00     0.074 A 
ATOM     50  C   UNL A   1      48.173  30.771  27.430  1.00  0.00     0.029 A 
ATOM     51  N   UNL A   1      46.704  29.102  27.427  1.00  0.00    -0.354 N 
ATOM     52  N   UNL A   1      45.832  26.334  27.029  1.00  0.00    -0.248 NA
ATOM     53  C   UNL A   1      46.244  24.163  26.267  1.00  0.00     0.031 C 
ATOM     54  C   UNL A   1      48.799  29.633  26.909  1.00  0.00     0.029 A 
ATOM     55  C   UNL A   1      47.888  28.589  26.923  1.00  0.00     0.049 A 
ATOM     56  H   UNL A   1      45.873  28.588  27.551  1.00  0.00     0.167 HD
ATOM     57  C   UNL A   1      47.142  26.251  26.572  1.00  0.00     0.074 A 
ATOM     58  C   UNL A   1      47.351  24.883  26.143  1.00  0.00     0.031 C 
ATOM     59  C   UNL A   1      48.080  27.225  26.498  1.00  0.00     0.037 A 
BRANCH  46  60
ATOM     60  C   UNL A   1      46.161  32.738  28.516  1.00  0.00     0.058 A 
ATOM     61  C   UNL A   1      46.684  33.188  29.736  1.00  0.00     0.135 A 
ATOM     62  C   UNL A   1      45.980  33.679  27.489  1.00  0.00     0.135 A 
ATOM     63  F   UNL A   1      46.854  32.332  30.756  1.00  0.00    -0.206 F 
ATOM     64  C   UNL A   1      47.004  34.529  29.935  1.00  0.00     0.059 A 
ATOM     65  C   UNL A   1      46.310  35.019  27.659  1.00  0.00     0.059 A 
ATOM     66  F   UNL A   1      45.477  33.297  26.304  1.00  0.00    -0.206 F 
ATOM     67  C   UNL A   1      46.811  35.436  28.890  1.00  0.00     0.060 A 
BRANCH  67  68
ATOM     68  S   UNL A   1      47.233  37.172  29.155  1.00  0.00     0.124 S 
ATOM     69  O   UNL A   1      48.545  37.253  28.520  1.00  0.00    -0.237 OA
ATOM     70  O   UNL A   1      46.152  37.867  28.465  1.00  0.00    -0.237 OA
ATOM     71  O   UNL A   1      47.231  37.304  30.608  1.00  0.00    -0.744 OA
ENDBRANCH  67  68
ENDBRANCH  46  60
BRANCH  47  72
ATOM     72  C   UNL A   1      43.533  23.248  26.896  1.00  0.00     0.058 A 
ATOM     73  C   UNL A   1      43.383  22.742  25.596  1.00  0.00     0.135 A 
ATOM     74  C   UNL A   1      43.284  22.373  27.967  1.00  0.00     0.135 A 
ATOM     75  F   UNL A   1      43.587  23.541  24.538  1.00  0.00    -0.206 F 
ATOM     76  C   UNL A   1      42.986  21.427  25.366  1.00  0.00     0.059 A 
ATOM     77  C   UNL A   1      42.916  21.048  27.763  1.00  0.00     0.059 A 
ATOM     78  F   UNL A   1      43.412  22.803  29.232  1.00  0.00    -0.206 F 
ATOM     79  C   UNL A   1      42.753  20.588  26.457  1.00  0.00     0.060 A 
BRANCH  79  80
ATOM     80  S   UNL A   1      42.259  18.875  26.163  1.00  0.00     0.124 S 
ATOM     81  O   UNL A   1      43.237  18.455  25.167  1.00  0.00    -0.237 OA
ATOM     82  O   UNL A   1      42.398  18.274  27.487  1.00  0.00    -0.237 OA
ATOM     83  O   UNL A   1      40.885  19.003  25.685  1.00  0.00    -0.744 OA
ENDBRANCH  79  80
ENDBRANCH  47  72
BRANCH  59  84
ATOM     84  C   UNL A   1      49.419  26.851  25.929  1.00  0.00     0.058 A 
ATOM     85  C   UNL A   1      49.717  27.057  24.573  1.00  0.00     0.135 A 
ATOM     86  C   UNL A   1      50.431  26.340  26.755  1.00  0.00     0.135 A 
ATOM     87  F   UNL A   1      48.780  27.537  23.741  1.00  0.00    -0.206 F 
ATOM     88  C   UNL A   1      50.970  26.755  24.051  1.00  0.00     0.059 A 
ATOM     89  C   UNL A   1      51.699  26.051  26.260  1.00  0.00     0.059 A 
ATOM     90  F   UNL A   1      50.199  26.133  28.061  1.00  0.00    -0.206 F 
ATOM     91  C   UNL A   1      51.956  26.254  24.904  1.00  0.00     0.060 A 
BRANCH  91  92
ATOM     92  S   UNL A   1      53.595  25.911  24.228  1.00  0.00     0.124 S 
ATOM     93  O   UNL A   1      53.851  24.570  24.742  1.00  0.00    -0.237 OA
ATOM     94  O   UNL A   1      53.368  26.005  22.788  1.00  0.00    -0.237 OA
ATOM     95  O   UNL A   1      54.424  26.970  24.795  1.00  0.00    -0.744 OA
ENDBRANCH  91  92
ENDBRANCH  59  84
ENDBRANCH  33  34
ENDBRANCH  26  28
ENDBRANCH  25  26
ENDBRANCH   1  25
TORSDOF 16
ENDMDL
MODEL 3
REMARK VINA RESULT:     -11.4      5.283     10.129
REMARK SMILES C[NH+]1CCC(NC(=O)N[C@@H]2C=C[C@H](C(=O)OCCOC(=O)c3ccc(-c4c5nc(c(-c6c(F)cc(S(=O)(=O)[O-])cc6F)c6ccc([nH]6)c(-c6c(F)cc(S(=O)(=O)[O-])cc6F)c6nc(c(-c7c(F)cc(S(=O)(=O)[O-])cc7F)c7ccc4[nH]7)C=C6)C=C5)cc3)C2)CC1
REMARK SMILES IDX 18 1 17 2 16 3 14 4 15 5 13 6 10 7 11 8 88 9 12 10 9 11 6 12
REMARK SMILES IDX 7 13 8 15 5 17 1 18 2 19 3 20 90 21 4 23 89 24 19 25 20 26
REMARK SMILES IDX 21 27 22 28 23 29 87 30 24 31 86 32 25 33 26 34 27 35 80 36
REMARK SMILES IDX 28 37 85 38 79 39 81 40 29 41 84 42 78 43 77 44 30 46 64 47
REMARK SMILES IDX 43 48 63 49 44 50 47 51 62 52 82 53 45 54 46 55 61 57 83 58
REMARK SMILES IDX 48 59 31 60 32 61 41 62 33 63 34 64 40 65 42 66 35 67 36 68
REMARK SMILES IDX 37 69 38 70 39 71 65 72 66 73 75 74 67 75 68 76 74 77 76 78
REMARK SMILES IDX 69 79 70 80 71 81 72 82 73 83 49 84 50 85 59 86 51 87 52 88
REMARK SMILES IDX 58 89 60 90 53 91 54 92 55 93 56 94 57 95
REMARK H PARENT 6 14 9 16 2 22 81 45 47 56
REMARK Flexibility Score: inf
ROOT
ATOM      1  C   UNL A   1      32.334  30.133  27.247  1.00  0.00     0.275 C 
ENDROOT
BRANCH   1   2
ATOM      2  C   UNL A   1      32.064  29.761  25.792  1.00  0.00     0.274 C 
BRANCH   2   3
ATOM      3  O   UNL A   1      31.384  28.494  25.715  1.00  0.00    -0.462 OA
BRANCH   3   4
ATOM      4  C   UNL A   1      31.290  27.905  24.486  1.00  0.00     0.312 C 
ATOM      5  O   UNL A   1      30.363  28.044  23.703  1.00  0.00    -0.252 OA
BRANCH   4   6
ATOM      6  C   UNL A   1      32.546  27.083  24.222  1.00  0.00     0.124 C 
ATOM      7  C   UNL A   1      32.470  24.737  24.981  1.00  0.00     0.107 C 
ATOM      8  C   UNL A   1      33.384  25.571  25.820  1.00  0.00    -0.006 C 
ATOM      9  C   UNL A   1      32.192  25.661  23.783  1.00  0.00     0.048 C 
ATOM     10  C   UNL A   1      33.387  26.854  25.443  1.00  0.00    -0.014 C 
BRANCH   7  11
ATOM     11  N   UNL A   1      31.334  24.442  25.829  1.00  0.00    -0.332 N 
ATOM     12  N   UNL A   1      31.560  22.190  26.556  1.00  0.00    -0.335 N 
ATOM     13  C   UNL A   1      30.939  23.380  26.553  1.00  0.00     0.315 C 
ATOM     14  H   UNL A   1      31.019  21.447  26.909  1.00  0.00     0.165 HD
ATOM     15  O   UNL A   1      29.924  23.508  27.241  1.00  0.00    -0.249 OA
ATOM     16  H   UNL A   1      30.703  25.195  25.890  1.00  0.00     0.165 HD
BRANCH  12  17
ATOM     17  C   UNL A   1      32.885  21.817  26.131  1.00  0.00     0.095 C 
ATOM     18  C   UNL A   1      36.671  20.747  24.871  1.00  0.00     0.332 C 
ATOM     19  N   UNL A   1      35.482  20.642  25.724  1.00  0.00    -0.337 N 
ATOM     20  C   UNL A   1      34.328  20.235  24.902  1.00  0.00     0.264 C 
ATOM     21  C   UNL A   1      35.303  21.892  26.481  1.00  0.00     0.264 C 
ATOM     22  H   UNL A   1      35.588  19.912  26.430  1.00  0.00     0.347 HD
ATOM     23  C   UNL A   1      32.976  20.394  25.596  1.00  0.00     0.086 C 
ATOM     24  C   UNL A   1      33.954  21.985  27.201  1.00  0.00     0.086 C 
ENDBRANCH  12  17
ENDBRANCH   7  11
ENDBRANCH   4   6
ENDBRANCH   3   4
ENDBRANCH   2   3
ENDBRANCH   1   2
BRANCH   1  25
ATOM     25  O   UNL A   1      33.641  29.665  27.622  1.00  0.00    -0.458 OA
BRANCH  25  26
ATOM     26  C   UNL A   1      34.434  30.556  28.255  1.00  0.00     0.338 C 
ATOM     27  O   UNL A   1      34.098  31.591  28.811  1.00  0.00    -0.246 OA
BRANCH  26  28
ATOM     28  C   UNL A   1      35.810  30.042  28.270  1.00  0.00     0.060 A 
ATOM     29  C   UNL A   1      36.317  29.596  29.483  1.00  0.00     0.016 A 
ATOM     30  C   UNL A   1      36.636  30.110  27.147  1.00  0.00     0.016 A 
ATOM     31  C   UNL A   1      37.669  29.314  29.600  1.00  0.00     0.010 A 
ATOM     32  C   UNL A   1      37.983  29.723  27.253  1.00  0.00     0.010 A 
ATOM     33  C   UNL A   1      38.521  29.346  28.494  1.00  0.00    -0.014 A 
BRANCH  33  34
ATOM     34  C   UNL A   1      39.961  29.020  28.698  1.00  0.00     0.031 A 
ATOM     35  C   UNL A   1      40.874  30.016  29.357  1.00  0.00     0.074 A 
ATOM     36  C   UNL A   1      40.430  27.788  28.406  1.00  0.00     0.049 A 
ATOM     37  N   UNL A   1      42.169  29.955  29.540  1.00  0.00    -0.248 NA
ATOM     38  C   UNL A   1      40.252  31.238  29.893  1.00  0.00     0.031 C 
ATOM     39  C   UNL A   1      39.628  26.679  27.883  1.00  0.00     0.029 A 
ATOM     40  N   UNL A   1      41.686  27.245  28.546  1.00  0.00    -0.354 N 
ATOM     41  C   UNL A   1      42.525  31.150  30.152  1.00  0.00     0.074 A 
ATOM     42  C   UNL A   1      41.305  31.907  30.340  1.00  0.00     0.031 C 
ATOM     43  C   UNL A   1      40.393  25.581  27.799  1.00  0.00     0.029 A 
ATOM     44  C   UNL A   1      41.762  25.924  28.167  1.00  0.00     0.049 A 
ATOM     45  H   UNL A   1      42.458  27.753  28.885  1.00  0.00     0.167 HD
ATOM     46  C   UNL A   1      43.759  31.580  30.501  1.00  0.00     0.037 A 
ATOM     47  C   UNL A   1      42.816  25.088  28.086  1.00  0.00     0.037 A 
ATOM     48  C   UNL A   1      44.963  30.805  30.353  1.00  0.00     0.049 A 
ATOM     49  C   UNL A   1      44.184  25.608  28.432  1.00  0.00     0.074 A 
ATOM     50  C   UNL A   1      46.266  31.174  30.641  1.00  0.00     0.029 A 
ATOM     51  N   UNL A   1      45.012  29.499  29.889  1.00  0.00    -0.354 N 
ATOM     52  N   UNL A   1      44.522  26.780  28.916  1.00  0.00    -0.248 NA
ATOM     53  C   UNL A   1      45.320  24.707  28.188  1.00  0.00     0.031 C 
ATOM     54  C   UNL A   1      47.107  30.105  30.315  1.00  0.00     0.029 A 
ATOM     55  C   UNL A   1      46.324  29.055  29.861  1.00  0.00     0.049 A 
ATOM     56  H   UNL A   1      44.230  28.966  29.618  1.00  0.00     0.167 HD
ATOM     57  C   UNL A   1      45.907  26.760  29.023  1.00  0.00     0.074 A 
ATOM     58  C   UNL A   1      46.344  25.449  28.590  1.00  0.00     0.031 C 
ATOM     59  C   UNL A   1      46.744  27.747  29.426  1.00  0.00     0.037 A 
BRANCH  46  60
ATOM     60  C   UNL A   1      43.885  32.991  30.999  1.00  0.00     0.058 A 
ATOM     61  C   UNL A   1      43.936  33.306  32.364  1.00  0.00     0.135 A 
ATOM     62  C   UNL A   1      43.992  34.044  30.075  1.00  0.00     0.135 A 
ATOM     63  F   UNL A   1      43.815  32.339  33.287  1.00  0.00    -0.206 F 
ATOM     64  C   UNL A   1      44.076  34.622  32.797  1.00  0.00     0.059 A 
ATOM     65  C   UNL A   1      44.151  35.363  30.485  1.00  0.00     0.059 A 
ATOM     66  F   UNL A   1      43.943  33.793  28.757  1.00  0.00    -0.206 F 
ATOM     67  C   UNL A   1      44.180  35.643  31.849  1.00  0.00     0.060 A 
BRANCH  67  68
ATOM     68  S   UNL A   1      44.365  37.346  32.420  1.00  0.00     0.124 S 
ATOM     69  O   UNL A   1      45.698  37.311  33.013  1.00  0.00    -0.237 OA
ATOM     70  O   UNL A   1      44.243  38.108  31.182  1.00  0.00    -0.237 OA
ATOM     71  O   UNL A   1      43.264  37.510  33.364  1.00  0.00    -0.744 OA
ENDBRANCH  67  68
ENDBRANCH  46  60
BRANCH  47  72
ATOM     72  C   UNL A   1      42.637  23.700  27.578  1.00  0.00     0.058 A 
ATOM     73  C   UNL A   1      42.438  22.621  28.453  1.00  0.00     0.135 A 
ATOM     74  C   UNL A   1      42.685  23.421  26.201  1.00  0.00     0.135 A 
ATOM     75  F   UNL A   1      42.405  22.829  29.778  1.00  0.00    -0.206 F 
ATOM     76  C   UNL A   1      42.310  21.316  27.984  1.00  0.00     0.059 A 
ATOM     77  C   UNL A   1      42.529  22.131  25.708  1.00  0.00     0.059 A 
ATOM     78  F   UNL A   1      42.873  24.415  25.320  1.00  0.00    -0.206 F 
ATOM     79  C   UNL A   1      42.358  21.081  26.609  1.00  0.00     0.060 A 
BRANCH  79  80
ATOM     80  S   UNL A   1      42.171  19.392  25.995  1.00  0.00     0.124 S 
ATOM     81  O   UNL A   1      43.048  19.405  24.830  1.00  0.00    -0.237 OA
ATOM     82  O   UNL A   1      42.627  18.592  27.128  1.00  0.00    -0.237 OA
ATOM     83  O   UNL A   1      40.742  19.299  25.709  1.00  0.00    -0.744 OA
ENDBRANCH  79  80
ENDBRANCH  47  72
BRANCH  59  84
ATOM     84  C   UNL A   1      48.216  27.451  29.414  1.00  0.00     0.058 A 
ATOM     85  C   UNL A   1      49.021  27.806  28.321  1.00  0.00     0.135 A 
ATOM     86  C   UNL A   1      48.837  26.863  30.527  1.00  0.00     0.135 A 
ATOM     87  F   UNL A   1      48.473  28.364  27.231  1.00  0.00    -0.206 F 
ATOM     88  C   UNL A   1      50.393  27.576  28.325  1.00  0.00     0.059 A 
ATOM     89  C   UNL A   1      50.210  26.643  30.562  1.00  0.00     0.059 A 
ATOM     90  F   UNL A   1      48.112  26.514  31.601  1.00  0.00    -0.206 F 
ATOM     91  C   UNL A   1      50.979  26.996  29.452  1.00  0.00     0.060 A 
BRANCH  91  92
ATOM     92  S   UNL A   1      52.767  26.745  29.468  1.00  0.00     0.124 S 
ATOM     93  O   UNL A   1      52.946  25.979  30.697  1.00  0.00    -0.237 OA
ATOM     94  O   UNL A   1      52.994  26.011  28.226  1.00  0.00    -0.237 OA
ATOM     95  O   UNL A   1      53.300  28.104  29.491  1.00  0.00    -0.744 OA
ENDBRANCH  91  92
ENDBRANCH  59  84
ENDBRANCH  33  34
ENDBRANCH  26  28
ENDBRANCH  25  26
ENDBRANCH   1  25
TORSDOF 16
ENDMDL
