MODEL 1
REMARK VINA RESULT:     -11.7      0.000      0.000
REMARK SMILES CC1=C(C)C[C@@H](C(=O)OCCOC(=O)c2ccc(-c3c4nc(c(-c5c(F)cc(S(=O)(=O)[O-])cc5F)c5ccc([nH]5)c(-c5c(F)cc(S(=O)(=O)[O-])cc5F)c5nc(c(-c6c(F)cc(S(=O)(=O)[O-])cc6F)c6ccc3[nH]6)C=C5)C=C4)cc2)[C@@H](C(=O)NCC[NH+]2CCOCC2)C1
REMARK SMILES IDX 10 1 9 2 7 3 8 4 6 5 1 6 2 7 3 8 93 9 4 10 5 11 81 12 82 13
REMARK SMILES IDX 83 14 84 15 85 17 86 18 87 19 88 20 92 21 89 23 91 24 90 25
REMARK SMILES IDX 11 26 12 27 13 28 14 29 15 30 16 31 80 32 17 33 79 34 18 35
REMARK SMILES IDX 19 36 20 37 73 38 21 39 78 40 72 41 74 42 22 43 77 44 71 45
REMARK SMILES IDX 70 46 23 48 57 49 36 50 56 51 37 52 40 53 55 54 75 55 38 56
REMARK SMILES IDX 39 57 54 59 76 60 41 61 24 62 25 63 34 64 26 65 27 66 33 67
REMARK SMILES IDX 35 68 28 69 29 70 30 71 31 72 32 73 58 74 59 75 68 76 60 77
REMARK SMILES IDX 61 78 67 79 69 80 62 81 63 82 64 83 65 84 66 85 42 86 43 87
REMARK SMILES IDX 52 88 44 89 45 90 51 91 53 92 46 93 47 94 48 95 49 96 50 97
REMARK H PARENT 84 16 87 22 74 47 40 58
REMARK Flexibility Score: inf
ROOT
ATOM      1  C   UNL A   1      34.275  28.865  26.627  1.00  0.00     0.274 C 
ENDROOT
BRANCH   1   2
ATOM      2  O   UNL A   1      33.256  27.840  26.655  1.00  0.00    -0.462 OA
BRANCH   2   3
ATOM      3  C   UNL A   1      32.150  28.092  25.931  1.00  0.00     0.310 C 
ATOM      4  O   UNL A   1      31.442  29.082  26.114  1.00  0.00    -0.252 OA
BRANCH   3   5
ATOM      5  C   UNL A   1      31.785  27.078  24.848  1.00  0.00     0.116 C 
ATOM      6  C   UNL A   1      34.987  24.199  23.824  1.00  0.00     0.039 C 
ATOM      7  C   UNL A   1      33.771  25.016  24.176  1.00  0.00    -0.074 C 
ATOM      8  C   UNL A   1      33.043  24.883  25.302  1.00  0.00    -0.073 C 
ATOM      9  C   UNL A   1      33.400  26.002  23.095  1.00  0.00     0.045 C 
ATOM     10  C   UNL A   1      33.327  23.915  26.421  1.00  0.00     0.039 C 
ATOM     11  C   UNL A   1      31.783  25.687  25.499  1.00  0.00     0.046 C 
ATOM     12  C   UNL A   1      32.349  27.083  23.414  1.00  0.00     0.097 C 
BRANCH  12  13
ATOM     13  C   UNL A   1      32.861  28.432  22.931  1.00  0.00     0.224 C 
ATOM     14  O   UNL A   1      34.047  28.754  23.023  1.00  0.00    -0.275 OA
ATOM     15  N   UNL A   1      32.006  29.311  22.356  1.00  0.00    -0.350 N 
ATOM     16  H   UNL A   1      32.394  30.209  22.238  1.00  0.00     0.163 HD
BRANCH  15  17
ATOM     17  C   UNL A   1      30.631  29.212  21.872  1.00  0.00     0.177 C 
BRANCH  17  18
ATOM     18  C   UNL A   1      29.597  29.596  22.964  1.00  0.00     0.283 C 
BRANCH  18  19
ATOM     19  N   UNL A   1      28.898  30.822  22.649  1.00  0.00    -0.330 N 
ATOM     20  C   UNL A   1      27.873  30.903  21.624  1.00  0.00     0.291 C 
ATOM     21  C   UNL A   1      28.811  31.888  23.633  1.00  0.00     0.291 C 
ATOM     22  H   UNL A   1      29.731  30.997  22.088  1.00  0.00     0.348 HD
ATOM     23  C   UNL A   1      28.006  32.277  20.931  1.00  0.00     0.221 C 
ATOM     24  C   UNL A   1      29.002  33.207  22.868  1.00  0.00     0.221 C 
ATOM     25  O   UNL A   1      27.978  33.371  21.869  1.00  0.00    -0.370 OA
ENDBRANCH  18  19
ENDBRANCH  17  18
ENDBRANCH  15  17
ENDBRANCH  12  13
ENDBRANCH   3   5
ENDBRANCH   2   3
ENDBRANCH   1   2
BRANCH   1  26
ATOM     26  C   UNL A   1      34.711  29.348  28.019  1.00  0.00     0.275 C 
BRANCH  26  27
ATOM     27  O   UNL A   1      35.586  30.496  27.979  1.00  0.00    -0.458 OA
BRANCH  27  28
ATOM     28  C   UNL A   1      36.323  30.637  29.100  1.00  0.00     0.338 C 
ATOM     29  O   UNL A   1      35.893  30.892  30.210  1.00  0.00    -0.246 OA
BRANCH  28  30
ATOM     30  C   UNL A   1      37.759  30.416  28.909  1.00  0.00     0.060 A 
ATOM     31  C   UNL A   1      38.186  29.945  27.665  1.00  0.00     0.016 A 
ATOM     32  C   UNL A   1      38.619  30.400  30.007  1.00  0.00     0.016 A 
ATOM     33  C   UNL A   1      39.473  29.438  27.513  1.00  0.00     0.010 A 
ATOM     34  C   UNL A   1      39.920  29.911  29.850  1.00  0.00     0.010 A 
ATOM     35  C   UNL A   1      40.349  29.423  28.605  1.00  0.00    -0.014 A 
BRANCH  35  36
ATOM     36  C   UNL A   1      41.756  29.020  28.393  1.00  0.00     0.031 A 
ATOM     37  C   UNL A   1      42.877  30.012  28.433  1.00  0.00     0.074 A 
ATOM     38  C   UNL A   1      41.995  27.715  28.170  1.00  0.00     0.049 A 
ATOM     39  N   UNL A   1      44.151  29.814  28.212  1.00  0.00    -0.248 NA
ATOM     40  C   UNL A   1      42.533  31.401  28.775  1.00  0.00     0.031 C 
ATOM     41  C   UNL A   1      40.969  26.668  28.143  1.00  0.00     0.029 A 
ATOM     42  N   UNL A   1      43.162  27.047  27.918  1.00  0.00    -0.354 N 
ATOM     43  C   UNL A   1      44.765  31.048  28.378  1.00  0.00     0.074 A 
ATOM     44  C   UNL A   1      43.721  31.994  28.718  1.00  0.00     0.031 C 
ATOM     45  C   UNL A   1      41.551  25.492  27.871  1.00  0.00     0.029 A 
ATOM     46  C   UNL A   1      42.979  25.710  27.669  1.00  0.00     0.049 A 
ATOM     47  H   UNL A   1      44.046  27.482  27.916  1.00  0.00     0.167 HD
ATOM     48  C   UNL A   1      46.080  31.354  28.254  1.00  0.00     0.037 A 
ATOM     49  C   UNL A   1      43.856  24.767  27.281  1.00  0.00     0.037 A 
ATOM     50  C   UNL A   1      47.105  30.399  27.912  1.00  0.00     0.049 A 
ATOM     51  C   UNL A   1      45.292  25.145  27.096  1.00  0.00     0.074 A 
ATOM     52  C   UNL A   1      48.468  30.605  27.785  1.00  0.00     0.029 A 
ATOM     53  N   UNL A   1      46.878  29.059  27.631  1.00  0.00    -0.354 N 
ATOM     54  N   UNL A   1      45.858  26.317  27.259  1.00  0.00    -0.248 NA
ATOM     55  C   UNL A   1      46.207  24.081  26.668  1.00  0.00     0.031 C 
ATOM     56  C   UNL A   1      49.062  29.396  27.399  1.00  0.00     0.029 A 
ATOM     57  C   UNL A   1      48.071  28.432  27.310  1.00  0.00     0.049 A 
ATOM     58  H   UNL A   1      45.999  28.619  27.656  1.00  0.00     0.167 HD
ATOM     59  C   UNL A   1      47.198  26.134  26.952  1.00  0.00     0.074 A 
ATOM     60  C   UNL A   1      47.361  24.733  26.610  1.00  0.00     0.031 C 
ATOM     61  C   UNL A   1      48.203  27.043  26.950  1.00  0.00     0.037 A 
BRANCH  48  62
ATOM     62  C   UNL A   1      46.493  32.781  28.472  1.00  0.00     0.058 A 
ATOM     63  C   UNL A   1      46.913  33.239  29.729  1.00  0.00     0.135 A 
ATOM     64  C   UNL A   1      46.541  33.680  27.394  1.00  0.00     0.135 A 
ATOM     65  F   UNL A   1      46.874  32.422  30.794  1.00  0.00    -0.206 F 
ATOM     66  C   UNL A   1      47.363  34.544  29.913  1.00  0.00     0.059 A 
ATOM     67  C   UNL A   1      46.998  34.986  27.553  1.00  0.00     0.059 A 
ATOM     68  F   UNL A   1      46.147  33.290  26.172  1.00  0.00    -0.206 F 
ATOM     69  C   UNL A   1      47.401  35.411  28.819  1.00  0.00     0.060 A 
BRANCH  69  70
ATOM     70  S   UNL A   1      48.010  37.094  29.063  1.00  0.00     0.124 S 
ATOM     71  O   UNL A   1      47.420  37.430  30.355  1.00  0.00    -0.237 OA
ATOM     72  O   UNL A   1      49.458  36.910  29.056  1.00  0.00    -0.237 OA
ATOM     73  O   UNL A   1      47.470  37.819  27.918  1.00  0.00    -0.744 OA
ENDBRANCH  69  70
ENDBRANCH  48  62
BRANCH  49  74
ATOM     74  C   UNL A   1      43.365  23.397  27.006  1.00  0.00     0.058 A 
ATOM     75  C   UNL A   1      43.233  22.925  25.695  1.00  0.00     0.135 A 
ATOM     76  C   UNL A   1      43.099  22.509  28.060  1.00  0.00     0.135 A 
ATOM     77  F   UNL A   1      43.479  23.742  24.659  1.00  0.00    -0.206 F 
ATOM     78  C   UNL A   1      42.863  21.610  25.433  1.00  0.00     0.059 A 
ATOM     79  C   UNL A   1      42.744  21.187  27.824  1.00  0.00     0.059 A 
ATOM     80  F   UNL A   1      43.232  22.915  29.332  1.00  0.00    -0.206 F 
ATOM     81  C   UNL A   1      42.626  20.746  26.505  1.00  0.00     0.060 A 
BRANCH  81  82
ATOM     82  S   UNL A   1      42.242  19.013  26.172  1.00  0.00     0.124 S 
ATOM     83  O   UNL A   1      42.596  18.388  27.440  1.00  0.00    -0.237 OA
ATOM     84  O   UNL A   1      40.817  19.060  25.859  1.00  0.00    -0.237 OA
ATOM     85  O   UNL A   1      43.111  18.697  25.042  1.00  0.00    -0.744 OA
ENDBRANCH  81  82
ENDBRANCH  49  74
BRANCH  61  86
ATOM     86  C   UNL A   1      49.558  26.540  26.554  1.00  0.00     0.058 A 
ATOM     87  C   UNL A   1      50.008  26.638  25.230  1.00  0.00     0.135 A 
ATOM     88  C   UNL A   1      50.410  25.955  27.503  1.00  0.00     0.135 A 
ATOM     89  F   UNL A   1      49.221  27.180  24.287  1.00  0.00    -0.206 F 
ATOM     90  C   UNL A   1      51.253  26.149  24.851  1.00  0.00     0.059 A 
ATOM     91  C   UNL A   1      51.665  25.473  27.149  1.00  0.00     0.059 A 
ATOM     92  F   UNL A   1      50.021  25.843  28.783  1.00  0.00    -0.206 F 
ATOM     93  C   UNL A   1      52.072  25.561  25.817  1.00  0.00     0.060 A 
BRANCH  93  94
ATOM     94  S   UNL A   1      53.689  24.928  25.325  1.00  0.00     0.124 S 
ATOM     95  O   UNL A   1      53.387  23.524  25.068  1.00  0.00    -0.237 OA
ATOM     96  O   UNL A   1      54.005  25.735  24.151  1.00  0.00    -0.237 OA
ATOM     97  O   UNL A   1      54.521  25.189  26.497  1.00  0.00    -0.744 OA
ENDBRANCH  93  94
ENDBRANCH  61  86
ENDBRANCH  35  36
ENDBRANCH  28  30
ENDBRANCH  27  28
ENDBRANCH  26  27
ENDBRANCH   1  26
TORSDOF 18
ENDMDL
MODEL 2
REMARK VINA RESULT:     -11.2      6.704     11.840
REMARK SMILES CC1=C(C)C[C@@H](C(=O)OCCOC(=O)c2ccc(-c3c4nc(c(-c5c(F)cc(S(=O)(=O)[O-])cc5F)c5ccc([nH]5)c(-c5c(F)cc(S(=O)(=O)[O-])cc5F)c5nc(c(-c6c(F)cc(S(=O)(=O)[O-])cc6F)c6ccc3[nH]6)C=C5)C=C4)cc2)[C@@H](C(=O)NCC[NH+]2CCOCC2)C1
REMARK SMILES IDX 10 1 9 2 7 3 8 4 6 5 1 6 2 7 3 8 93 9 4 10 5 11 81 12 82 13
REMARK SMILES IDX 83 14 84 15 85 17 86 18 87 19 88 20 92 21 89 23 91 24 90 25
REMARK SMILES IDX 11 26 12 27 13 28 14 29 15 30 16 31 80 32 17 33 79 34 18 35
REMARK SMILES IDX 19 36 20 37 73 38 21 39 78 40 72 41 74 42 22 43 77 44 71 45
REMARK SMILES IDX 70 46 23 48 57 49 36 50 56 51 37 52 40 53 55 54 75 55 38 56
REMARK SMILES IDX 39 57 54 59 76 60 41 61 24 62 25 63 34 64 26 65 27 66 33 67
REMARK SMILES IDX 35 68 28 69 29 70 30 71 31 72 32 73 58 74 59 75 68 76 60 77
REMARK SMILES IDX 61 78 67 79 69 80 62 81 63 82 64 83 65 84 66 85 42 86 43 87
REMARK SMILES IDX 52 88 44 89 45 90 51 91 53 92 46 93 47 94 48 95 49 96 50 97
REMARK H PARENT 84 16 87 22 74 47 40 58
REMARK Flexibility Score: inf
ROOT
ATOM      1  C   UNL A   1      38.190  22.214  25.883  1.00  0.00     0.274 C 
ENDROOT
BRANCH   1   2
ATOM      2  O   UNL A   1      37.438  23.248  25.207  1.00  0.00    -0.462 OA
BRANCH   2   3
ATOM      3  C   UNL A   1      36.420  22.824  24.436  1.00  0.00     0.310 C 
ATOM      4  O   UNL A   1      36.556  22.536  23.247  1.00  0.00    -0.252 OA
BRANCH   3   5
ATOM      5  C   UNL A   1      35.048  22.715  25.098  1.00  0.00     0.116 C 
ATOM      6  C   UNL A   1      32.149  20.125  22.980  1.00  0.00     0.039 C 
ATOM      7  C   UNL A   1      33.075  20.910  23.873  1.00  0.00    -0.074 C 
ATOM      8  C   UNL A   1      34.071  20.387  24.614  1.00  0.00    -0.073 C 
ATOM      9  C   UNL A   1      32.747  22.383  23.899  1.00  0.00     0.045 C 
ATOM     10  C   UNL A   1      34.454  18.931  24.665  1.00  0.00     0.039 C 
ATOM     11  C   UNL A   1      34.868  21.258  25.551  1.00  0.00     0.046 C 
ATOM     12  C   UNL A   1      33.755  23.350  24.551  1.00  0.00     0.097 C 
BRANCH  12  13
ATOM     13  C   UNL A   1      33.967  24.542  23.629  1.00  0.00     0.224 C 
ATOM     14  O   UNL A   1      34.103  24.413  22.411  1.00  0.00    -0.275 OA
ATOM     15  N   UNL A   1      33.986  25.796  24.142  1.00  0.00    -0.350 N 
ATOM     16  H   UNL A   1      34.299  26.473  23.498  1.00  0.00     0.163 HD
BRANCH  15  17
ATOM     17  C   UNL A   1      33.640  26.358  25.445  1.00  0.00     0.177 C 
BRANCH  17  18
ATOM     18  C   UNL A   1      32.522  27.430  25.342  1.00  0.00     0.283 C 
BRANCH  18  19
ATOM     19  N   UNL A   1      32.942  28.710  25.869  1.00  0.00    -0.330 N 
ATOM     20  C   UNL A   1      34.301  28.976  26.303  1.00  0.00     0.291 C 
ATOM     21  C   UNL A   1      32.197  29.915  25.543  1.00  0.00     0.291 C 
ATOM     22  H   UNL A   1      32.545  28.336  26.731  1.00  0.00     0.348 HD
ATOM     23  C   UNL A   1      34.231  29.906  27.533  1.00  0.00     0.221 C 
ATOM     24  C   UNL A   1      32.134  30.753  26.829  1.00  0.00     0.221 C 
ATOM     25  O   UNL A   1      33.458  31.096  27.279  1.00  0.00    -0.370 OA
ENDBRANCH  18  19
ENDBRANCH  17  18
ENDBRANCH  15  17
ENDBRANCH  12  13
ENDBRANCH   3   5
ENDBRANCH   2   3
ENDBRANCH   1   2
BRANCH   1  26
ATOM     26  C   UNL A   1      39.530  22.694  26.460  1.00  0.00     0.275 C 
BRANCH  26  27
ATOM     27  O   UNL A   1      39.661  24.132  26.484  1.00  0.00    -0.458 OA
BRANCH  27  28
ATOM     28  C   UNL A   1      40.913  24.543  26.773  1.00  0.00     0.338 C 
ATOM     29  O   UNL A   1      41.922  24.240  26.163  1.00  0.00    -0.246 OA
BRANCH  28  30
ATOM     30  C   UNL A   1      40.998  25.463  27.910  1.00  0.00     0.060 A 
ATOM     31  C   UNL A   1      39.845  25.666  28.673  1.00  0.00     0.016 A 
ATOM     32  C   UNL A   1      42.095  26.315  28.044  1.00  0.00     0.016 A 
ATOM     33  C   UNL A   1      39.774  26.731  29.564  1.00  0.00     0.010 A 
ATOM     34  C   UNL A   1      42.033  27.373  28.955  1.00  0.00     0.010 A 
ATOM     35  C   UNL A   1      40.870  27.589  29.714  1.00  0.00    -0.014 A 
BRANCH  35  36
ATOM     36  C   UNL A   1      40.835  28.624  30.769  1.00  0.00     0.031 A 
ATOM     37  C   UNL A   1      41.773  28.596  31.936  1.00  0.00     0.074 A 
ATOM     38  C   UNL A   1      39.927  29.608  30.635  1.00  0.00     0.049 A 
ATOM     39  N   UNL A   1      41.822  29.404  32.963  1.00  0.00    -0.248 NA
ATOM     40  C   UNL A   1      42.793  27.536  31.953  1.00  0.00     0.031 C 
ATOM     41  C   UNL A   1      38.990  29.736  29.514  1.00  0.00     0.029 A 
ATOM     42  N   UNL A   1      39.635  30.675  31.440  1.00  0.00    -0.354 N 
ATOM     43  C   UNL A   1      42.869  28.953  33.756  1.00  0.00     0.074 A 
ATOM     44  C   UNL A   1      43.430  27.794  33.090  1.00  0.00     0.031 C 
ATOM     45  C   UNL A   1      38.215  30.812  29.713  1.00  0.00     0.029 A 
ATOM     46  C   UNL A   1      38.576  31.422  30.987  1.00  0.00     0.049 A 
ATOM     47  H   UNL A   1      40.135  30.887  32.261  1.00  0.00     0.167 HD
ATOM     48  C   UNL A   1      43.313  29.464  34.930  1.00  0.00     0.037 A 
ATOM     49  C   UNL A   1      37.938  32.462  31.553  1.00  0.00     0.037 A 
ATOM     50  C   UNL A   1      42.739  30.617  35.580  1.00  0.00     0.049 A 
ATOM     51  C   UNL A   1      38.413  32.970  32.879  1.00  0.00     0.074 A 
ATOM     52  C   UNL A   1      43.132  31.227  36.760  1.00  0.00     0.029 A 
ATOM     53  N   UNL A   1      41.644  31.328  35.111  1.00  0.00    -0.354 N 
ATOM     54  N   UNL A   1      39.406  32.533  33.614  1.00  0.00    -0.248 NA
ATOM     55  C   UNL A   1      37.679  34.103  33.454  1.00  0.00     0.031 C 
ATOM     56  C   UNL A   1      42.255  32.289  37.019  1.00  0.00     0.029 A 
ATOM     57  C   UNL A   1      41.333  32.356  35.988  1.00  0.00     0.049 A 
ATOM     58  H   UNL A   1      41.159  31.132  34.278  1.00  0.00     0.167 HD
ATOM     59  C   UNL A   1      39.419  33.336  34.745  1.00  0.00     0.074 A 
ATOM     60  C   UNL A   1      38.343  34.298  34.586  1.00  0.00     0.031 C 
ATOM     61  C   UNL A   1      40.243  33.283  35.819  1.00  0.00     0.037 A 
BRANCH  48  62
ATOM     62  C   UNL A   1      44.464  28.777  35.606  1.00  0.00     0.058 A 
ATOM     63  C   UNL A   1      44.260  27.736  36.523  1.00  0.00     0.135 A 
ATOM     64  C   UNL A   1      45.787  29.112  35.275  1.00  0.00     0.135 A 
ATOM     65  F   UNL A   1      43.015  27.385  36.882  1.00  0.00    -0.206 F 
ATOM     66  C   UNL A   1      45.330  27.051  37.094  1.00  0.00     0.059 A 
ATOM     67  C   UNL A   1      46.872  28.435  35.826  1.00  0.00     0.059 A 
ATOM     68  F   UNL A   1      46.033  30.103  34.405  1.00  0.00    -0.206 F 
ATOM     69  C   UNL A   1      46.632  27.409  36.741  1.00  0.00     0.060 A 
BRANCH  69  70
ATOM     70  S   UNL A   1      48.013  26.499  37.469  1.00  0.00     0.124 S 
ATOM     71  O   UNL A   1      49.129  26.967  36.654  1.00  0.00    -0.237 OA
ATOM     72  O   UNL A   1      48.001  26.962  38.853  1.00  0.00    -0.237 OA
ATOM     73  O   UNL A   1      47.636  25.102  37.277  1.00  0.00    -0.744 OA
ENDBRANCH  69  70
ENDBRANCH  48  62
BRANCH  49  74
ATOM     74  C   UNL A   1      36.759  33.040  30.869  1.00  0.00     0.058 A 
ATOM     75  C   UNL A   1      35.464  32.838  31.361  1.00  0.00     0.135 A 
ATOM     76  C   UNL A   1      36.920  33.878  29.754  1.00  0.00     0.135 A 
ATOM     77  F   UNL A   1      35.268  32.046  32.426  1.00  0.00    -0.206 F 
ATOM     78  C   UNL A   1      34.363  33.456  30.778  1.00  0.00     0.059 A 
ATOM     79  C   UNL A   1      35.838  34.519  29.164  1.00  0.00     0.059 A 
ATOM     80  F   UNL A   1      38.146  34.114  29.261  1.00  0.00    -0.206 F 
ATOM     81  C   UNL A   1      34.561  34.301  29.683  1.00  0.00     0.060 A 
BRANCH  81  82
ATOM     82  S   UNL A   1      33.149  35.183  28.984  1.00  0.00     0.124 S 
ATOM     83  O   UNL A   1      32.623  34.197  28.050  1.00  0.00    -0.237 OA
ATOM     84  O   UNL A   1      32.327  35.448  30.163  1.00  0.00    -0.237 OA
ATOM     85  O   UNL A   1      33.764  36.364  28.385  1.00  0.00    -0.744 OA
ENDBRANCH  81  82
ENDBRANCH  49  74
BRANCH  61  86
ATOM     86  C   UNL A   1      39.996  34.289  36.902  1.00  0.00     0.058 A 
ATOM     87  C   UNL A   1      39.166  33.990  37.992  1.00  0.00     0.135 A 
ATOM     88  C   UNL A   1      40.590  35.559  36.848  1.00  0.00     0.135 A 
ATOM     89  F   UNL A   1      38.568  32.791  38.077  1.00  0.00    -0.206 F 
ATOM     90  C   UNL A   1      38.912  34.928  38.986  1.00  0.00     0.059 A 
ATOM     91  C   UNL A   1      40.362  36.507  37.840  1.00  0.00     0.059 A 
ATOM     92  F   UNL A   1      41.394  35.887  35.826  1.00  0.00    -0.206 F 
ATOM     93  C   UNL A   1      39.509  36.187  38.896  1.00  0.00     0.060 A 
BRANCH  93  94
ATOM     94  S   UNL A   1      39.180  37.405  40.189  1.00  0.00     0.124 S 
ATOM     95  O   UNL A   1      40.519  37.917  40.454  1.00  0.00    -0.237 OA
ATOM     96  O   UNL A   1      38.265  38.332  39.529  1.00  0.00    -0.237 OA
ATOM     97  O   UNL A   1      38.587  36.605  41.257  1.00  0.00    -0.744 OA
ENDBRANCH  93  94
ENDBRANCH  61  86
ENDBRANCH  35  36
ENDBRANCH  28  30
ENDBRANCH  27  28
ENDBRANCH  26  27
ENDBRANCH   1  26
TORSDOF 18
ENDMDL
MODEL 3
REMARK VINA RESULT:     -11.1      1.531      4.043
REMARK SMILES CC1=C(C)C[C@@H](C(=O)OCCOC(=O)c2ccc(-c3c4nc(c(-c5c(F)cc(S(=O)(=O)[O-])cc5F)c5ccc([nH]5)c(-c5c(F)cc(S(=O)(=O)[O-])cc5F)c5nc(c(-c6c(F)cc(S(=O)(=O)[O-])cc6F)c6ccc3[nH]6)C=C5)C=C4)cc2)[C@@H](C(=O)NCC[NH+]2CCOCC2)C1
REMARK SMILES IDX 10 1 9 2 7 3 8 4 6 5 1 6 2 7 3 8 93 9 4 10 5 11 81 12 82 13
REMARK SMILES IDX 83 14 84 15 85 17 86 18 87 19 88 20 92 21 89 23 91 24 90 25
REMARK SMILES IDX 11 26 12 27 13 28 14 29 15 30 16 31 80 32 17 33 79 34 18 35
REMARK SMILES IDX 19 36 20 37 73 38 21 39 78 40 72 41 74 42 22 43 77 44 71 45
REMARK SMILES IDX 70 46 23 48 57 49 36 50 56 51 37 52 40 53 55 54 75 55 38 56
REMARK SMILES IDX 39 57 54 59 76 60 41 61 24 62 25 63 34 64 26 65 27 66 33 67
REMARK SMILES IDX 35 68 28 69 29 70 30 71 31 72 32 73 58 74 59 75 68 76 60 77
REMARK SMILES IDX 61 78 67 79 69 80 62 81 63 82 64 83 65 84 66 85 42 86 43 87
REMARK SMILES IDX 52 88 44 89 45 90 51 91 53 92 46 93 47 94 48 95 49 96 50 97
REMARK H PARENT 84 16 87 22 74 47 40 58
REMARK Flexibility Score: inf
ROOT
ATOM      1  C   UNL A   1      32.985  30.147  27.082  1.00  0.00     0.274 C 
ENDROOT
BRANCH   1   2
ATOM      2  O   UNL A   1      33.093  28.929  26.310  1.00  0.00    -0.462 OA
BRANCH   2   3
ATOM      3  C   UNL A   1      31.929  28.366  25.937  1.00  0.00     0.310 C 
ATOM      4  O   UNL A   1      31.078  27.991  26.744  1.00  0.00    -0.252 OA
BRANCH   3   5
ATOM      5  C   UNL A   1      31.691  28.194  24.438  1.00  0.00     0.116 C 
ATOM      6  C   UNL A   1      27.505  28.790  23.127  1.00  0.00     0.039 C 
ATOM      7  C   UNL A   1      28.982  28.705  23.413  1.00  0.00    -0.074 C 
ATOM      8  C   UNL A   1      29.778  29.750  23.713  1.00  0.00    -0.073 C 
ATOM      9  C   UNL A   1      29.521  27.301  23.284  1.00  0.00     0.045 C 
ATOM     10  C   UNL A   1      29.332  31.184  23.842  1.00  0.00     0.039 C 
ATOM     11  C   UNL A   1      31.264  29.560  23.878  1.00  0.00     0.046 C 
ATOM     12  C   UNL A   1      30.944  27.009  23.797  1.00  0.00     0.097 C 
BRANCH  12  13
ATOM     13  C   UNL A   1      30.919  25.738  24.634  1.00  0.00     0.224 C 
ATOM     14  O   UNL A   1      29.895  25.343  25.195  1.00  0.00    -0.275 OA
ATOM     15  N   UNL A   1      32.042  24.992  24.760  1.00  0.00    -0.350 N 
ATOM     16  H   UNL A   1      31.969  24.295  25.453  1.00  0.00     0.163 HD
BRANCH  15  17
ATOM     17  C   UNL A   1      33.339  24.998  24.087  1.00  0.00     0.177 C 
BRANCH  17  18
ATOM     18  C   UNL A   1      34.516  25.156  25.086  1.00  0.00     0.283 C 
BRANCH  18  19
ATOM     19  N   UNL A   1      35.441  24.045  25.022  1.00  0.00    -0.330 N 
ATOM     20  C   UNL A   1      36.286  23.660  26.136  1.00  0.00     0.291 C 
ATOM     21  C   UNL A   1      35.232  22.974  24.061  1.00  0.00     0.291 C 
ATOM     22  H   UNL A   1      36.037  24.740  24.572  1.00  0.00     0.348 HD
ATOM     23  C   UNL A   1      37.640  23.190  25.562  1.00  0.00     0.221 C 
ATOM     24  C   UNL A   1      36.617  22.606  23.508  1.00  0.00     0.221 C 
ATOM     25  O   UNL A   1      37.487  22.161  24.564  1.00  0.00    -0.370 OA
ENDBRANCH  18  19
ENDBRANCH  17  18
ENDBRANCH  15  17
ENDBRANCH  12  13
ENDBRANCH   3   5
ENDBRANCH   2   3
ENDBRANCH   1   2
BRANCH   1  26
ATOM     26  C   UNL A   1      34.325  30.656  27.634  1.00  0.00     0.275 C 
BRANCH  26  27
ATOM     27  O   UNL A   1      35.089  29.635  28.312  1.00  0.00    -0.458 OA
BRANCH  27  28
ATOM     28  C   UNL A   1      36.037  30.141  29.128  1.00  0.00     0.338 C 
ATOM     29  O   UNL A   1      35.852  30.938  30.029  1.00  0.00    -0.246 OA
BRANCH  28  30
ATOM     30  C   UNL A   1      37.384  29.619  28.883  1.00  0.00     0.060 A 
ATOM     31  C   UNL A   1      38.211  29.403  29.989  1.00  0.00     0.016 A 
ATOM     32  C   UNL A   1      37.912  29.616  27.591  1.00  0.00     0.016 A 
ATOM     33  C   UNL A   1      39.575  29.198  29.812  1.00  0.00     0.010 A 
ATOM     34  C   UNL A   1      39.280  29.389  27.412  1.00  0.00     0.010 A 
ATOM     35  C   UNL A   1      40.117  29.185  28.521  1.00  0.00    -0.014 A 
BRANCH  35  36
ATOM     36  C   UNL A   1      41.538  28.820  28.341  1.00  0.00     0.031 A 
ATOM     37  C   UNL A   1      42.633  29.840  28.413  1.00  0.00     0.074 A 
ATOM     38  C   UNL A   1      41.816  27.522  28.120  1.00  0.00     0.049 A 
ATOM     39  N   UNL A   1      43.915  29.676  28.221  1.00  0.00    -0.248 NA
ATOM     40  C   UNL A   1      42.245  31.219  28.751  1.00  0.00     0.031 C 
ATOM     41  C   UNL A   1      40.818  26.450  28.064  1.00  0.00     0.029 A 
ATOM     42  N   UNL A   1      43.006  26.886  27.893  1.00  0.00    -0.354 N 
ATOM     43  C   UNL A   1      44.494  30.924  28.407  1.00  0.00     0.074 A 
ATOM     44  C   UNL A   1      43.417  31.842  28.725  1.00  0.00     0.031 C 
ATOM     45  C   UNL A   1      41.437  25.290  27.801  1.00  0.00     0.029 A 
ATOM     46  C   UNL A   1      42.863  25.545  27.634  1.00  0.00     0.049 A 
ATOM     47  H   UNL A   1      43.878  27.343  27.913  1.00  0.00     0.167 HD
ATOM     48  C   UNL A   1      45.803  31.264  28.316  1.00  0.00     0.037 A 
ATOM     49  C   UNL A   1      43.773  24.627  27.263  1.00  0.00     0.037 A 
ATOM     50  C   UNL A   1      46.860  30.338  27.994  1.00  0.00     0.049 A 
ATOM     51  C   UNL A   1      45.203  25.043  27.115  1.00  0.00     0.074 A 
ATOM     52  C   UNL A   1      48.220  30.580  27.901  1.00  0.00     0.029 A 
ATOM     53  N   UNL A   1      46.675  28.994  27.703  1.00  0.00    -0.354 N 
ATOM     54  N   UNL A   1      45.734  26.228  27.296  1.00  0.00    -0.248 NA
ATOM     55  C   UNL A   1      46.155  24.004  26.705  1.00  0.00     0.031 C 
ATOM     56  C   UNL A   1      48.854  29.388  27.525  1.00  0.00     0.029 A 
ATOM     57  C   UNL A   1      47.891  28.399  27.408  1.00  0.00     0.049 A 
ATOM     58  H   UNL A   1      45.806  28.531  27.705  1.00  0.00     0.167 HD
ATOM     59  C   UNL A   1      47.085  26.081  27.020  1.00  0.00     0.074 A 
ATOM     60  C   UNL A   1      47.293  24.686  26.677  1.00  0.00     0.031 C 
ATOM     61  C   UNL A   1      48.067  27.015  27.046  1.00  0.00     0.037 A 
BRANCH  48  62
ATOM     62  C   UNL A   1      46.174  32.701  28.549  1.00  0.00     0.058 A 
ATOM     63  C   UNL A   1      46.181  33.634  27.503  1.00  0.00     0.135 A 
ATOM     64  C   UNL A   1      46.450  33.163  29.846  1.00  0.00     0.135 A 
ATOM     65  F   UNL A   1      45.935  33.241  26.243  1.00  0.00    -0.206 F 
ATOM     66  C   UNL A   1      46.456  34.980  27.733  1.00  0.00     0.059 A 
ATOM     67  C   UNL A   1      46.717  34.506  30.101  1.00  0.00     0.059 A 
ATOM     68  F   UNL A   1      46.458  32.307  30.879  1.00  0.00    -0.206 F 
ATOM     69  C   UNL A   1      46.724  35.406  29.035  1.00  0.00     0.060 A 
BRANCH  69  70
ATOM     70  S   UNL A   1      47.055  37.158  29.327  1.00  0.00     0.124 S 
ATOM     71  O   UNL A   1      47.526  37.586  28.014  1.00  0.00    -0.237 OA
ATOM     72  O   UNL A   1      45.745  37.665  29.726  1.00  0.00    -0.237 OA
ATOM     73  O   UNL A   1      48.063  37.141  30.382  1.00  0.00    -0.744 OA
ENDBRANCH  69  70
ENDBRANCH  48  62
BRANCH  49  74
ATOM     74  C   UNL A   1      43.324  23.246  26.972  1.00  0.00     0.058 A 
ATOM     75  C   UNL A   1      43.265  22.766  25.658  1.00  0.00     0.135 A 
ATOM     76  C   UNL A   1      43.026  22.356  28.015  1.00  0.00     0.135 A 
ATOM     77  F   UNL A   1      43.544  23.585  24.631  1.00  0.00    -0.206 F 
ATOM     78  C   UNL A   1      42.935  21.444  25.384  1.00  0.00     0.059 A 
ATOM     79  C   UNL A   1      42.710  21.027  27.769  1.00  0.00     0.059 A 
ATOM     80  F   UNL A   1      43.089  22.770  29.291  1.00  0.00    -0.206 F 
ATOM     81  C   UNL A   1      42.665  20.579  26.448  1.00  0.00     0.060 A 
BRANCH  81  82
ATOM     82  S   UNL A   1      42.334  18.837  26.105  1.00  0.00     0.124 S 
ATOM     83  O   UNL A   1      43.260  18.575  25.011  1.00  0.00    -0.237 OA
ATOM     84  O   UNL A   1      42.652  18.198  27.378  1.00  0.00    -0.237 OA
ATOM     85  O   UNL A   1      40.917  18.836  25.753  1.00  0.00    -0.744 OA
ENDBRANCH  81  82
ENDBRANCH  49  74
BRANCH  61  86
ATOM     86  C   UNL A   1      49.443  26.549  26.681  1.00  0.00     0.058 A 
ATOM     87  C   UNL A   1      49.912  26.640  25.362  1.00  0.00     0.135 A 
ATOM     88  C   UNL A   1      50.297  26.006  27.653  1.00  0.00     0.135 A 
ATOM     89  F   UNL A   1      49.125  27.141  24.398  1.00  0.00    -0.206 F 
ATOM     90  C   UNL A   1      51.178  26.185  25.012  1.00  0.00     0.059 A 
ATOM     91  C   UNL A   1      51.573  25.559  27.328  1.00  0.00     0.059 A 
ATOM     92  F   UNL A   1      49.891  25.903  28.928  1.00  0.00    -0.206 F 
ATOM     93  C   UNL A   1      51.998  25.638  26.001  1.00  0.00     0.060 A 
BRANCH  93  94
ATOM     94  S   UNL A   1      53.643  25.049  25.546  1.00  0.00     0.124 S 
ATOM     95  O   UNL A   1      53.371  23.655  25.211  1.00  0.00    -0.237 OA
ATOM     96  O   UNL A   1      53.994  25.914  24.424  1.00  0.00    -0.237 OA
ATOM     97  O   UNL A   1      54.423  25.264  26.762  1.00  0.00    -0.744 OA
ENDBRANCH  93  94
ENDBRANCH  61  86
ENDBRANCH  35  36
ENDBRANCH  28  30
ENDBRANCH  27  28
ENDBRANCH  26  27
ENDBRANCH   1  26
TORSDOF 18
ENDMDL
