MODEL 1
REMARK VINA RESULT:     -11.0      0.000      0.000
REMARK SMILES CCC(C)(C)NC(=O)[C@@H](C)Oc1ccc(C)nc1C(=O)OCCOC(=O)c1ccc(-c2c3nc(c(-c4c(F)cc(S(=O)(=O)[O-])cc4F)c4ccc([nH]4)c(-c4c(F)cc(S(=O)(=O)[O-])cc4F)c4nc(c(-c5c(F)cc(S(=O)(=O)[O-])cc5F)c5ccc2[nH]5)C=C4)C=C3)cc1
REMARK SMILES IDX 22 1 21 2 19 3 20 4 18 5 12 6 13 7 14 8 17 9 15 10 16 11
REMARK SMILES IDX 11 12 9 13 10 14 7 15 6 16 8 18 3 19 4 20 5 21 2 22 1 23
REMARK SMILES IDX 23 24 24 25 25 26 26 27 27 28 28 29 92 30 29 31 91 32 30 33
REMARK SMILES IDX 31 34 32 35 85 36 33 37 90 38 84 39 86 40 34 41 89 42 83 43
REMARK SMILES IDX 82 44 35 46 69 47 48 48 68 49 49 50 52 51 67 52 87 53 50 54
REMARK SMILES IDX 51 55 66 57 88 58 53 59 36 60 37 61 46 62 38 63 39 64 45 65
REMARK SMILES IDX 47 66 40 67 41 68 42 69 43 70 44 71 70 72 71 73 80 74 72 75
REMARK SMILES IDX 73 76 79 77 81 78 74 79 75 80 76 81 77 82 78 83 54 84 55 85
REMARK SMILES IDX 64 86 56 87 57 88 63 89 65 90 58 91 59 92 60 93 61 94 62 95
REMARK H PARENT 6 17 86 45 52 56
REMARK Flexibility Score: inf
ROOT
ATOM      1  C   UNL A   1      37.512  22.013  25.693  1.00  0.00     0.275 C 
ENDROOT
BRANCH   1   2
ATOM      2  O   UNL A   1      36.765  23.125  25.159  1.00  0.00    -0.457 OA
BRANCH   2   3
ATOM      3  C   UNL A   1      36.308  22.944  23.891  1.00  0.00     0.360 C 
ATOM      4  O   UNL A   1      36.992  23.020  22.879  1.00  0.00    -0.244 OA
BRANCH   3   5
ATOM      5  C   UNL A   1      34.864  22.572  23.848  1.00  0.00     0.190 A 
ATOM      6  C   UNL A   1      33.920  23.240  23.072  1.00  0.00     0.153 A 
ATOM      7  C   UNL A   1      32.731  22.562  22.824  1.00  0.00     0.051 A 
ATOM      8  C   UNL A   1      32.415  21.411  23.547  1.00  0.00     0.027 A 
ATOM      9  N   UNL A   1      34.562  21.461  24.581  1.00  0.00    -0.243 NA
ATOM     10  C   UNL A   1      33.319  20.951  24.489  1.00  0.00     0.039 A 
ATOM     11  C   UNL A   1      32.925  19.939  25.520  1.00  0.00     0.067 C 
BRANCH   6  12
ATOM     12  O   UNL A   1      34.189  24.464  22.554  1.00  0.00    -0.478 OA
BRANCH  12  13
ATOM     13  C   UNL A   1      33.424  25.583  22.998  1.00  0.00     0.259 C 
ATOM     14  C   UNL A   1      33.630  26.750  22.014  1.00  0.00     0.064 C 
BRANCH  13  15
ATOM     15  C   UNL A   1      33.230  26.112  24.462  1.00  0.00     0.261 C 
ATOM     16  N   UNL A   1      32.168  26.884  24.836  1.00  0.00    -0.348 N 
ATOM     17  H   UNL A   1      31.384  26.376  25.149  1.00  0.00     0.164 HD
ATOM     18  O   UNL A   1      33.941  25.668  25.373  1.00  0.00    -0.271 OA
BRANCH  16  19
ATOM     19  C   UNL A   1      31.989  28.367  24.853  1.00  0.00     0.034 C 
ATOM     20  C   UNL A   1      33.337  29.063  24.543  1.00  0.00     0.034 C 
ATOM     21  C   UNL A   1      31.636  28.733  26.316  1.00  0.00     0.034 C 
BRANCH  19  22
ATOM     22  C   UNL A   1      30.907  28.985  23.930  1.00  0.00     0.024 C 
ATOM     23  C   UNL A   1      29.672  28.171  23.609  1.00  0.00     0.006 C 
ENDBRANCH  19  22
ENDBRANCH  16  19
ENDBRANCH  13  15
ENDBRANCH  12  13
ENDBRANCH   6  12
ENDBRANCH   3   5
ENDBRANCH   2   3
ENDBRANCH   1   2
BRANCH   1  24
ATOM     24  C   UNL A   1      38.979  22.401  25.855  1.00  0.00     0.275 C 
BRANCH  24  25
ATOM     25  O   UNL A   1      39.073  23.653  26.554  1.00  0.00    -0.458 OA
BRANCH  25  26
ATOM     26  C   UNL A   1      40.328  24.081  26.819  1.00  0.00     0.338 C 
ATOM     27  O   UNL A   1      41.373  23.570  26.461  1.00  0.00    -0.246 OA
BRANCH  26  28
ATOM     28  C   UNL A   1      40.266  25.282  27.668  1.00  0.00     0.060 A 
ATOM     29  C   UNL A   1      41.249  26.267  27.570  1.00  0.00     0.016 A 
ATOM     30  C   UNL A   1      39.268  25.378  28.638  1.00  0.00     0.016 A 
ATOM     31  C   UNL A   1      41.259  27.337  28.468  1.00  0.00     0.010 A 
ATOM     32  C   UNL A   1      39.252  26.476  29.504  1.00  0.00     0.010 A 
ATOM     33  C   UNL A   1      40.262  27.454  29.447  1.00  0.00    -0.014 A 
BRANCH  33  34
ATOM     34  C   UNL A   1      40.289  28.551  30.454  1.00  0.00     0.031 A 
ATOM     35  C   UNL A   1      41.259  28.478  31.606  1.00  0.00     0.074 A 
ATOM     36  C   UNL A   1      39.447  29.598  30.356  1.00  0.00     0.049 A 
ATOM     37  N   UNL A   1      41.316  29.208  32.691  1.00  0.00    -0.248 NA
ATOM     38  C   UNL A   1      42.298  27.437  31.528  1.00  0.00     0.031 C 
ATOM     39  C   UNL A   1      38.492  29.821  29.269  1.00  0.00     0.029 A 
ATOM     40  N   UNL A   1      39.247  30.668  31.196  1.00  0.00    -0.354 N 
ATOM     41  C   UNL A   1      42.375  28.700  33.437  1.00  0.00     0.074 A 
ATOM     42  C   UNL A   1      42.921  27.587  32.689  1.00  0.00     0.031 C 
ATOM     43  C   UNL A   1      37.808  30.952  29.509  1.00  0.00     0.029 A 
ATOM     44  C   UNL A   1      38.228  31.500  30.795  1.00  0.00     0.049 A 
ATOM     45  H   UNL A   1      39.783  30.823  32.007  1.00  0.00     0.167 HD
ATOM     46  C   UNL A   1      42.851  29.125  34.632  1.00  0.00     0.037 A 
ATOM     47  C   UNL A   1      37.663  32.557  31.413  1.00  0.00     0.037 A 
ATOM     48  C   UNL A   1      42.318  30.246  35.362  1.00  0.00     0.049 A 
ATOM     49  C   UNL A   1      38.169  32.975  32.770  1.00  0.00     0.074 A 
ATOM     50  C   UNL A   1      42.712  30.739  36.595  1.00  0.00     0.029 A 
ATOM     51  N   UNL A   1      41.283  31.058  34.920  1.00  0.00    -0.354 N 
ATOM     52  N   UNL A   1      39.137  32.453  33.486  1.00  0.00    -0.248 NA
ATOM     53  C   UNL A   1      37.500  34.119  33.407  1.00  0.00     0.031 C 
ATOM     54  C   UNL A   1      41.900  31.834  36.909  1.00  0.00     0.029 A 
ATOM     55  C   UNL A   1      41.028  32.048  35.854  1.00  0.00     0.049 A 
ATOM     56  H   UNL A   1      40.803  30.947  34.068  1.00  0.00     0.167 HD
ATOM     57  C   UNL A   1      39.206  33.218  34.646  1.00  0.00     0.074 A 
ATOM     58  C   UNL A   1      38.195  34.247  34.530  1.00  0.00     0.031 C 
ATOM     59  C   UNL A   1      40.031  33.079  35.713  1.00  0.00     0.037 A 
BRANCH  46  60
ATOM     60  C   UNL A   1      44.003  28.369  35.235  1.00  0.00     0.058 A 
ATOM     61  C   UNL A   1      45.334  28.720  34.968  1.00  0.00     0.135 A 
ATOM     62  C   UNL A   1      43.772  27.307  36.128  1.00  0.00     0.135 A 
ATOM     63  F   UNL A   1      45.611  29.715  34.110  1.00  0.00    -0.206 F 
ATOM     64  C   UNL A   1      46.398  28.035  35.548  1.00  0.00     0.059 A 
ATOM     65  C   UNL A   1      44.821  26.624  36.737  1.00  0.00     0.059 A 
ATOM     66  F   UNL A   1      42.517  26.929  36.418  1.00  0.00    -0.206 F 
ATOM     67  C   UNL A   1      46.131  26.988  36.432  1.00  0.00     0.060 A 
BRANCH  67  68
ATOM     68  S   UNL A   1      47.522  26.116  37.182  1.00  0.00     0.124 S 
ATOM     69  O   UNL A   1      47.420  26.544  38.573  1.00  0.00    -0.237 OA
ATOM     70  O   UNL A   1      47.192  24.718  36.924  1.00  0.00    -0.237 OA
ATOM     71  O   UNL A   1      48.678  26.627  36.452  1.00  0.00    -0.744 OA
ENDBRANCH  67  68
ENDBRANCH  46  60
BRANCH  47  72
ATOM     72  C   UNL A   1      36.522  33.273  30.782  1.00  0.00     0.058 A 
ATOM     73  C   UNL A   1      36.725  34.175  29.727  1.00  0.00     0.135 A 
ATOM     74  C   UNL A   1      35.206  33.088  31.237  1.00  0.00     0.135 A 
ATOM     75  F   UNL A   1      37.965  34.397  29.263  1.00  0.00    -0.206 F 
ATOM     76  C   UNL A   1      35.671  34.888  29.163  1.00  0.00     0.059 A 
ATOM     77  C   UNL A   1      34.132  33.767  30.670  1.00  0.00     0.059 A 
ATOM     78  F   UNL A   1      34.956  32.229  32.238  1.00  0.00    -0.206 F 
ATOM     79  C   UNL A   1      34.378  34.678  29.645  1.00  0.00     0.060 A 
BRANCH  79  80
ATOM     80  S   UNL A   1      33.011  35.593  28.898  1.00  0.00     0.124 S 
ATOM     81  O   UNL A   1      33.723  36.625  28.152  1.00  0.00    -0.237 OA
ATOM     82  O   UNL A   1      32.352  34.567  28.097  1.00  0.00    -0.237 OA
ATOM     83  O   UNL A   1      32.251  36.060  30.053  1.00  0.00    -0.744 OA
ENDBRANCH  79  80
ENDBRANCH  47  72
BRANCH  59  84
ATOM     84  C   UNL A   1      39.912  34.091  36.817  1.00  0.00     0.058 A 
ATOM     85  C   UNL A   1      40.518  35.354  36.729  1.00  0.00     0.135 A 
ATOM     86  C   UNL A   1      39.137  33.812  37.954  1.00  0.00     0.135 A 
ATOM     87  F   UNL A   1      41.276  35.668  35.666  1.00  0.00    -0.206 F 
ATOM     88  C   UNL A   1      40.374  36.300  37.739  1.00  0.00     0.059 A 
ATOM     89  C   UNL A   1      38.960  34.751  38.965  1.00  0.00     0.059 A 
ATOM     90  F   UNL A   1      38.529  32.622  38.082  1.00  0.00    -0.206 F 
ATOM     91  C   UNL A   1      39.592  35.990  38.853  1.00  0.00     0.060 A 
BRANCH  91  92
ATOM     92  S   UNL A   1      39.377  37.238  40.139  1.00  0.00     0.124 S 
ATOM     93  O   UNL A   1      38.586  38.246  39.440  1.00  0.00    -0.237 OA
ATOM     94  O   UNL A   1      38.677  36.497  41.184  1.00  0.00    -0.237 OA
ATOM     95  O   UNL A   1      40.745  37.628  40.467  1.00  0.00    -0.744 OA
ENDBRANCH  91  92
ENDBRANCH  59  84
ENDBRANCH  33  34
ENDBRANCH  26  28
ENDBRANCH  25  26
ENDBRANCH  24  25
ENDBRANCH   1  24
TORSDOF 19
ENDMDL
MODEL 2
REMARK VINA RESULT:     -10.9      0.984      2.057
REMARK SMILES CCC(C)(C)NC(=O)[C@@H](C)Oc1ccc(C)nc1C(=O)OCCOC(=O)c1ccc(-c2c3nc(c(-c4c(F)cc(S(=O)(=O)[O-])cc4F)c4ccc([nH]4)c(-c4c(F)cc(S(=O)(=O)[O-])cc4F)c4nc(c(-c5c(F)cc(S(=O)(=O)[O-])cc5F)c5ccc2[nH]5)C=C4)C=C3)cc1
REMARK SMILES IDX 22 1 21 2 19 3 20 4 18 5 12 6 13 7 14 8 17 9 15 10 16 11
REMARK SMILES IDX 11 12 9 13 10 14 7 15 6 16 8 18 3 19 4 20 5 21 2 22 1 23
REMARK SMILES IDX 23 24 24 25 25 26 26 27 27 28 28 29 92 30 29 31 91 32 30 33
REMARK SMILES IDX 31 34 32 35 85 36 33 37 90 38 84 39 86 40 34 41 89 42 83 43
REMARK SMILES IDX 82 44 35 46 69 47 48 48 68 49 49 50 52 51 67 52 87 53 50 54
REMARK SMILES IDX 51 55 66 57 88 58 53 59 36 60 37 61 46 62 38 63 39 64 45 65
REMARK SMILES IDX 47 66 40 67 41 68 42 69 43 70 44 71 70 72 71 73 80 74 72 75
REMARK SMILES IDX 73 76 79 77 81 78 74 79 75 80 76 81 77 82 78 83 54 84 55 85
REMARK SMILES IDX 64 86 56 87 57 88 63 89 65 90 58 91 59 92 60 93 61 94 62 95
REMARK H PARENT 6 17 86 45 52 56
REMARK Flexibility Score: inf
ROOT
ATOM      1  C   UNL A   1      37.305  22.485  25.770  1.00  0.00     0.275 C 
ENDROOT
BRANCH   1   2
ATOM      2  O   UNL A   1      36.056  22.790  25.117  1.00  0.00    -0.457 OA
BRANCH   2   3
ATOM      3  C   UNL A   1      34.950  22.554  25.873  1.00  0.00     0.360 C 
ATOM      4  O   UNL A   1      34.768  22.980  27.006  1.00  0.00    -0.244 OA
BRANCH   3   5
ATOM      5  C   UNL A   1      33.921  21.752  25.150  1.00  0.00     0.190 A 
ATOM      6  C   UNL A   1      32.975  22.307  24.292  1.00  0.00     0.153 A 
ATOM      7  C   UNL A   1      32.356  21.434  23.404  1.00  0.00     0.051 A 
ATOM      8  C   UNL A   1      32.484  20.055  23.572  1.00  0.00     0.027 A 
ATOM      9  N   UNL A   1      34.040  20.406  25.343  1.00  0.00    -0.243 NA
ATOM     10  C   UNL A   1      33.258  19.583  24.618  1.00  0.00     0.039 A 
ATOM     11  C   UNL A   1      33.184  18.155  25.062  1.00  0.00     0.067 C 
BRANCH   6  12
ATOM     12  O   UNL A   1      32.725  23.640  24.305  1.00  0.00    -0.478 OA
BRANCH  12  13
ATOM     13  C   UNL A   1      31.517  24.108  24.902  1.00  0.00     0.259 C 
ATOM     14  C   UNL A   1      30.601  24.672  23.799  1.00  0.00     0.064 C 
BRANCH  13  15
ATOM     15  C   UNL A   1      31.336  24.904  26.241  1.00  0.00     0.261 C 
ATOM     16  N   UNL A   1      30.935  26.209  26.280  1.00  0.00    -0.348 N 
ATOM     17  H   UNL A   1      29.959  26.335  26.329  1.00  0.00     0.164 HD
ATOM     18  O   UNL A   1      31.359  24.299  27.321  1.00  0.00    -0.271 OA
BRANCH  16  19
ATOM     19  C   UNL A   1      31.721  27.479  26.262  1.00  0.00     0.034 C 
ATOM     20  C   UNL A   1      33.223  27.165  26.058  1.00  0.00     0.034 C 
ATOM     21  C   UNL A   1      31.590  28.077  27.685  1.00  0.00     0.034 C 
BRANCH  19  22
ATOM     22  C   UNL A   1      31.318  28.575  25.243  1.00  0.00     0.024 C 
ATOM     23  C   UNL A   1      31.251  28.216  23.775  1.00  0.00     0.006 C 
ENDBRANCH  19  22
ENDBRANCH  16  19
ENDBRANCH  13  15
ENDBRANCH  12  13
ENDBRANCH   6  12
ENDBRANCH   3   5
ENDBRANCH   2   3
ENDBRANCH   1   2
BRANCH   1  24
ATOM     24  C   UNL A   1      38.113  23.763  25.973  1.00  0.00     0.275 C 
BRANCH  24  25
ATOM     25  O   UNL A   1      39.070  23.568  27.027  1.00  0.00    -0.458 OA
BRANCH  25  26
ATOM     26  C   UNL A   1      40.222  24.264  26.906  1.00  0.00     0.338 C 
ATOM     27  O   UNL A   1      41.193  23.974  26.229  1.00  0.00    -0.246 OA
BRANCH  26  28
ATOM     28  C   UNL A   1      40.166  25.457  27.768  1.00  0.00     0.060 A 
ATOM     29  C   UNL A   1      41.104  26.480  27.618  1.00  0.00     0.016 A 
ATOM     30  C   UNL A   1      39.226  25.509  28.796  1.00  0.00     0.016 A 
ATOM     31  C   UNL A   1      41.128  27.544  28.522  1.00  0.00     0.010 A 
ATOM     32  C   UNL A   1      39.221  26.600  29.671  1.00  0.00     0.010 A 
ATOM     33  C   UNL A   1      40.188  27.616  29.561  1.00  0.00    -0.014 A 
BRANCH  33  34
ATOM     34  C   UNL A   1      40.235  28.707  30.573  1.00  0.00     0.031 A 
ATOM     35  C   UNL A   1      41.210  28.617  31.719  1.00  0.00     0.074 A 
ATOM     36  C   UNL A   1      39.404  29.765  30.485  1.00  0.00     0.049 A 
ATOM     37  N   UNL A   1      41.282  29.341  32.807  1.00  0.00    -0.248 NA
ATOM     38  C   UNL A   1      42.236  27.564  31.630  1.00  0.00     0.031 C 
ATOM     39  C   UNL A   1      38.447  30.005  29.405  1.00  0.00     0.029 A 
ATOM     40  N   UNL A   1      39.222  30.833  31.332  1.00  0.00    -0.354 N 
ATOM     41  C   UNL A   1      42.339  28.816  33.544  1.00  0.00     0.074 A 
ATOM     42  C   UNL A   1      42.867  27.700  32.787  1.00  0.00     0.031 C 
ATOM     43  C   UNL A   1      37.777  31.143  29.655  1.00  0.00     0.029 A 
ATOM     44  C   UNL A   1      38.211  31.680  30.941  1.00  0.00     0.049 A 
ATOM     45  H   UNL A   1      39.765  30.978  32.141  1.00  0.00     0.167 HD
ATOM     46  C   UNL A   1      42.828  29.229  34.739  1.00  0.00     0.037 A 
ATOM     47  C   UNL A   1      37.663  32.740  31.568  1.00  0.00     0.037 A 
ATOM     48  C   UNL A   1      42.312  30.353  35.478  1.00  0.00     0.049 A 
ATOM     49  C   UNL A   1      38.182  33.145  32.924  1.00  0.00     0.074 A 
ATOM     50  C   UNL A   1      42.720  30.834  36.710  1.00  0.00     0.029 A 
ATOM     51  N   UNL A   1      41.285  31.179  35.046  1.00  0.00    -0.354 N 
ATOM     52  N   UNL A   1      39.147  32.608  33.632  1.00  0.00    -0.248 NA
ATOM     53  C   UNL A   1      37.531  34.294  33.571  1.00  0.00     0.031 C 
ATOM     54  C   UNL A   1      41.923  31.938  37.034  1.00  0.00     0.029 A 
ATOM     55  C   UNL A   1      41.047  32.168  35.987  1.00  0.00     0.049 A 
ATOM     56  H   UNL A   1      40.798  31.079  34.196  1.00  0.00     0.167 HD
ATOM     57  C   UNL A   1      39.233  33.366  34.794  1.00  0.00     0.074 A 
ATOM     58  C   UNL A   1      38.233  34.407  34.690  1.00  0.00     0.031 C 
ATOM     59  C   UNL A   1      40.062  33.212  35.856  1.00  0.00     0.037 A 
BRANCH  46  60
ATOM     60  C   UNL A   1      43.974  28.456  35.331  1.00  0.00     0.058 A 
ATOM     61  C   UNL A   1      43.760  27.369  36.193  1.00  0.00     0.135 A 
ATOM     62  C   UNL A   1      45.301  28.777  34.999  1.00  0.00     0.135 A 
ATOM     63  F   UNL A   1      42.513  27.030  36.557  1.00  0.00    -0.206 F 
ATOM     64  C   UNL A   1      44.821  26.639  36.720  1.00  0.00     0.059 A 
ATOM     65  C   UNL A   1      46.376  28.046  35.496  1.00  0.00     0.059 A 
ATOM     66  F   UNL A   1      45.562  29.808  34.179  1.00  0.00    -0.206 F 
ATOM     67  C   UNL A   1      46.127  26.986  36.365  1.00  0.00     0.060 A 
BRANCH  67  68
ATOM     68  S   UNL A   1      47.491  26.023  37.051  1.00  0.00     0.124 S 
ATOM     69  O   UNL A   1      48.630  26.570  36.321  1.00  0.00    -0.237 OA
ATOM     70  O   UNL A   1      47.429  26.357  38.471  1.00  0.00    -0.237 OA
ATOM     71  O   UNL A   1      47.137  24.646  36.720  1.00  0.00    -0.744 OA
ENDBRANCH  67  68
ENDBRANCH  46  60
BRANCH  47  72
ATOM     72  C   UNL A   1      36.527  33.473  30.947  1.00  0.00     0.058 A 
ATOM     73  C   UNL A   1      35.231  33.388  31.477  1.00  0.00     0.135 A 
ATOM     74  C   UNL A   1      36.710  34.256  29.795  1.00  0.00     0.135 A 
ATOM     75  F   UNL A   1      35.002  32.643  32.570  1.00  0.00    -0.206 F 
ATOM     76  C   UNL A   1      34.153  34.030  30.875  1.00  0.00     0.059 A 
ATOM     77  C   UNL A   1      35.653  34.930  29.192  1.00  0.00     0.059 A 
ATOM     78  F   UNL A   1      37.932  34.379  29.252  1.00  0.00    -0.206 F 
ATOM     79  C   UNL A   1      34.374  34.796  29.729  1.00  0.00     0.060 A 
BRANCH  79  80
ATOM     80  S   UNL A   1      32.974  35.640  28.961  1.00  0.00     0.124 S 
ATOM     81  O   UNL A   1      32.408  34.577  28.139  1.00  0.00    -0.237 OA
ATOM     82  O   UNL A   1      32.182  36.041  30.119  1.00  0.00    -0.237 OA
ATOM     83  O   UNL A   1      33.604  36.736  28.232  1.00  0.00    -0.744 OA
ENDBRANCH  79  80
ENDBRANCH  47  72
BRANCH  59  84
ATOM     84  C   UNL A   1      39.962  34.219  36.966  1.00  0.00     0.058 A 
ATOM     85  C   UNL A   1      39.146  34.005  38.087  1.00  0.00     0.135 A 
ATOM     86  C   UNL A   1      40.734  35.392  36.930  1.00  0.00     0.135 A 
ATOM     87  F   UNL A   1      38.383  32.903  38.166  1.00  0.00    -0.206 F 
ATOM     88  C   UNL A   1      39.085  34.925  39.128  1.00  0.00     0.059 A 
ATOM     89  C   UNL A   1      40.708  36.315  37.970  1.00  0.00     0.059 A 
ATOM     90  F   UNL A   1      41.538  35.641  35.884  1.00  0.00    -0.206 F 
ATOM     91  C   UNL A   1      39.871  36.078  39.062  1.00  0.00     0.060 A 
BRANCH  91  92
ATOM     92  S   UNL A   1      39.817  37.246  40.436  1.00  0.00     0.124 S 
ATOM     93  O   UNL A   1      39.899  36.351  41.586  1.00  0.00    -0.237 OA
ATOM     94  O   UNL A   1      40.996  38.073  40.193  1.00  0.00    -0.237 OA
ATOM     95  O   UNL A   1      38.538  37.924  40.257  1.00  0.00    -0.744 OA
ENDBRANCH  91  92
ENDBRANCH  59  84
ENDBRANCH  33  34
ENDBRANCH  26  28
ENDBRANCH  25  26
ENDBRANCH  24  25
ENDBRANCH   1  24
TORSDOF 19
ENDMDL
MODEL 3
REMARK VINA RESULT:     -10.8      6.601     11.991
REMARK SMILES CCC(C)(C)NC(=O)[C@@H](C)Oc1ccc(C)nc1C(=O)OCCOC(=O)c1ccc(-c2c3nc(c(-c4c(F)cc(S(=O)(=O)[O-])cc4F)c4ccc([nH]4)c(-c4c(F)cc(S(=O)(=O)[O-])cc4F)c4nc(c(-c5c(F)cc(S(=O)(=O)[O-])cc5F)c5ccc2[nH]5)C=C4)C=C3)cc1
REMARK SMILES IDX 22 1 21 2 19 3 20 4 18 5 12 6 13 7 14 8 17 9 15 10 16 11
REMARK SMILES IDX 11 12 9 13 10 14 7 15 6 16 8 18 3 19 4 20 5 21 2 22 1 23
REMARK SMILES IDX 23 24 24 25 25 26 26 27 27 28 28 29 92 30 29 31 91 32 30 33
REMARK SMILES IDX 31 34 32 35 85 36 33 37 90 38 84 39 86 40 34 41 89 42 83 43
REMARK SMILES IDX 82 44 35 46 69 47 48 48 68 49 49 50 52 51 67 52 87 53 50 54
REMARK SMILES IDX 51 55 66 57 88 58 53 59 36 60 37 61 46 62 38 63 39 64 45 65
REMARK SMILES IDX 47 66 40 67 41 68 42 69 43 70 44 71 70 72 71 73 80 74 72 75
REMARK SMILES IDX 73 76 79 77 81 78 74 79 75 80 76 81 77 82 78 83 54 84 55 85
REMARK SMILES IDX 64 86 56 87 57 88 63 89 65 90 58 91 59 92 60 93 61 94 62 95
REMARK H PARENT 6 17 86 45 52 56
REMARK Flexibility Score: inf
ROOT
ATOM      1  C   UNL A   1      34.175  29.207  27.460  1.00  0.00     0.275 C 
ENDROOT
BRANCH   1   2
ATOM      2  O   UNL A   1      33.247  28.867  26.409  1.00  0.00    -0.457 OA
BRANCH   2   3
ATOM      3  C   UNL A   1      32.090  28.298  26.840  1.00  0.00     0.360 C 
ATOM      4  O   UNL A   1      31.693  28.298  27.998  1.00  0.00    -0.244 OA
BRANCH   3   5
ATOM      5  C   UNL A   1      31.292  27.705  25.727  1.00  0.00     0.190 A 
ATOM      6  C   UNL A   1      30.703  26.445  25.788  1.00  0.00     0.153 A 
ATOM      7  C   UNL A   1      29.687  26.191  24.872  1.00  0.00     0.051 A 
ATOM      8  C   UNL A   1      29.484  27.052  23.794  1.00  0.00     0.027 A 
ATOM      9  N   UNL A   1      31.123  28.547  24.666  1.00  0.00    -0.243 NA
ATOM     10  C   UNL A   1      30.292  28.168  23.675  1.00  0.00     0.039 A 
ATOM     11  C   UNL A   1      30.363  28.950  22.399  1.00  0.00     0.067 C 
BRANCH   6  12
ATOM     12  O   UNL A   1      31.080  25.548  26.733  1.00  0.00    -0.478 OA
BRANCH  12  13
ATOM     13  C   UNL A   1      31.902  24.448  26.349  1.00  0.00     0.259 C 
ATOM     14  C   UNL A   1      33.379  24.881  26.413  1.00  0.00     0.064 C 
BRANCH  13  15
ATOM     15  C   UNL A   1      31.672  23.416  25.190  1.00  0.00     0.261 C 
ATOM     16  N   UNL A   1      32.618  23.138  24.245  1.00  0.00    -0.348 N 
ATOM     17  H   UNL A   1      33.228  22.403  24.483  1.00  0.00     0.164 HD
ATOM     18  O   UNL A   1      30.685  22.670  25.222  1.00  0.00    -0.271 OA
BRANCH  16  19
ATOM     19  C   UNL A   1      32.886  23.756  22.912  1.00  0.00     0.034 C 
ATOM     20  C   UNL A   1      32.959  22.654  21.827  1.00  0.00     0.034 C 
ATOM     21  C   UNL A   1      34.306  24.367  23.008  1.00  0.00     0.034 C 
BRANCH  19  22
ATOM     22  C   UNL A   1      31.922  24.861  22.410  1.00  0.00     0.024 C 
ATOM     23  C   UNL A   1      32.343  25.714  21.233  1.00  0.00     0.006 C 
ENDBRANCH  19  22
ENDBRANCH  16  19
ENDBRANCH  13  15
ENDBRANCH  12  13
ENDBRANCH   6  12
ENDBRANCH   3   5
ENDBRANCH   2   3
ENDBRANCH   1   2
BRANCH   1  24
ATOM     24  C   UNL A   1      34.344  30.722  27.536  1.00  0.00     0.275 C 
BRANCH  24  25
ATOM     25  O   UNL A   1      35.740  31.047  27.641  1.00  0.00    -0.458 OA
BRANCH  25  26
ATOM     26  C   UNL A   1      36.275  30.932  28.877  1.00  0.00     0.338 C 
ATOM     27  O   UNL A   1      35.794  31.315  29.929  1.00  0.00    -0.246 OA
BRANCH  26  28
ATOM     28  C   UNL A   1      37.594  30.286  28.782  1.00  0.00     0.060 A 
ATOM     29  C   UNL A   1      38.423  30.205  29.902  1.00  0.00     0.016 A 
ATOM     30  C   UNL A   1      38.046  29.843  27.539  1.00  0.00     0.016 A 
ATOM     31  C   UNL A   1      39.724  29.712  29.775  1.00  0.00     0.010 A 
ATOM     32  C   UNL A   1      39.332  29.304  27.425  1.00  0.00     0.010 A 
ATOM     33  C   UNL A   1      40.195  29.258  28.535  1.00  0.00    -0.014 A 
BRANCH  33  34
ATOM     34  C   UNL A   1      41.597  28.788  28.364  1.00  0.00     0.031 A 
ATOM     35  C   UNL A   1      42.728  29.783  28.427  1.00  0.00     0.074 A 
ATOM     36  C   UNL A   1      41.866  27.487  28.137  1.00  0.00     0.049 A 
ATOM     37  N   UNL A   1      43.988  29.630  28.111  1.00  0.00    -0.248 NA
ATOM     38  C   UNL A   1      42.389  31.135  28.903  1.00  0.00     0.031 C 
ATOM     39  C   UNL A   1      40.876  26.410  28.100  1.00  0.00     0.029 A 
ATOM     40  N   UNL A   1      43.057  26.851  27.879  1.00  0.00    -0.354 N 
ATOM     41  C   UNL A   1      44.587  30.868  28.321  1.00  0.00     0.074 A 
ATOM     42  C   UNL A   1      43.547  31.767  28.775  1.00  0.00     0.031 C 
ATOM     43  C   UNL A   1      41.498  25.249  27.832  1.00  0.00     0.029 A 
ATOM     44  C   UNL A   1      42.918  25.508  27.615  1.00  0.00     0.049 A 
ATOM     45  H   UNL A   1      43.927  27.313  27.882  1.00  0.00     0.167 HD
ATOM     46  C   UNL A   1      45.885  31.222  28.157  1.00  0.00     0.037 A 
ATOM     47  C   UNL A   1      43.822  24.597  27.201  1.00  0.00     0.037 A 
ATOM     48  C   UNL A   1      46.920  30.317  27.724  1.00  0.00     0.049 A 
ATOM     49  C   UNL A   1      45.247  25.025  26.965  1.00  0.00     0.074 A 
ATOM     50  C   UNL A   1      48.260  30.585  27.500  1.00  0.00     0.029 A 
ATOM     51  N   UNL A   1      46.734  28.968  27.465  1.00  0.00    -0.354 N 
ATOM     52  N   UNL A   1      45.788  26.211  27.119  1.00  0.00    -0.248 NA
ATOM     53  C   UNL A   1      46.183  23.996  26.491  1.00  0.00     0.031 C 
ATOM     54  C   UNL A   1      48.879  29.402  27.082  1.00  0.00     0.029 A 
ATOM     55  C   UNL A   1      47.933  28.389  27.085  1.00  0.00     0.049 A 
ATOM     56  H   UNL A   1      45.875  28.491  27.541  1.00  0.00     0.167 HD
ATOM     57  C   UNL A   1      47.129  26.063  26.782  1.00  0.00     0.074 A 
ATOM     58  C   UNL A   1      47.322  24.673  26.430  1.00  0.00     0.031 C 
ATOM     59  C   UNL A   1      48.113  26.997  26.761  1.00  0.00     0.037 A 
BRANCH  46  60
ATOM     60  C   UNL A   1      46.262  32.651  28.433  1.00  0.00     0.058 A 
ATOM     61  C   UNL A   1      46.169  33.640  27.443  1.00  0.00     0.135 A 
ATOM     62  C   UNL A   1      46.678  33.046  29.716  1.00  0.00     0.135 A 
ATOM     63  F   UNL A   1      45.794  33.315  26.196  1.00  0.00    -0.206 F 
ATOM     64  C   UNL A   1      46.494  34.967  27.707  1.00  0.00     0.059 A 
ATOM     65  C   UNL A   1      46.985  34.371  30.009  1.00  0.00     0.059 A 
ATOM     66  F   UNL A   1      46.784  32.139  30.700  1.00  0.00    -0.206 F 
ATOM     67  C   UNL A   1      46.902  35.323  28.995  1.00  0.00     0.060 A 
BRANCH  67  68
ATOM     68  S   UNL A   1      47.311  37.051  29.323  1.00  0.00     0.124 S 
ATOM     69  O   UNL A   1      48.551  37.205  28.569  1.00  0.00    -0.237 OA
ATOM     70  O   UNL A   1      46.151  37.756  28.786  1.00  0.00    -0.237 OA
ATOM     71  O   UNL A   1      47.450  37.097  30.776  1.00  0.00    -0.744 OA
ENDBRANCH  67  68
ENDBRANCH  46  60
BRANCH  47  72
ATOM     72  C   UNL A   1      43.404  23.194  26.934  1.00  0.00     0.058 A 
ATOM     73  C   UNL A   1      43.061  22.327  27.983  1.00  0.00     0.135 A 
ATOM     74  C   UNL A   1      43.361  22.684  25.626  1.00  0.00     0.135 A 
ATOM     75  F   UNL A   1      43.098  22.762  29.252  1.00  0.00    -0.206 F 
ATOM     76  C   UNL A   1      42.718  20.998  27.748  1.00  0.00     0.059 A 
ATOM     77  C   UNL A   1      42.993  21.368  25.364  1.00  0.00     0.059 A 
ATOM     78  F   UNL A   1      43.670  23.474  24.586  1.00  0.00    -0.206 F 
ATOM     79  C   UNL A   1      42.691  20.528  26.434  1.00  0.00     0.060 A 
BRANCH  79  80
ATOM     80  S   UNL A   1      42.228  18.808  26.135  1.00  0.00     0.124 S 
ATOM     81  O   UNL A   1      40.818  18.942  25.784  1.00  0.00    -0.237 OA
ATOM     82  O   UNL A   1      43.123  18.431  25.046  1.00  0.00    -0.237 OA
ATOM     83  O   UNL A   1      42.502  18.160  27.413  1.00  0.00    -0.744 OA
ENDBRANCH  79  80
ENDBRANCH  47  72
BRANCH  59  84
ATOM     84  C   UNL A   1      49.496  26.538  26.396  1.00  0.00     0.058 A 
ATOM     85  C   UNL A   1      49.995  26.662  25.090  1.00  0.00     0.135 A 
ATOM     86  C   UNL A   1      50.351  26.015  27.379  1.00  0.00     0.135 A 
ATOM     87  F   UNL A   1      49.214  27.149  24.112  1.00  0.00    -0.206 F 
ATOM     88  C   UNL A   1      51.289  26.268  24.767  1.00  0.00     0.059 A 
ATOM     89  C   UNL A   1      51.657  25.636  27.084  1.00  0.00     0.059 A 
ATOM     90  F   UNL A   1      49.926  25.884  28.645  1.00  0.00    -0.206 F 
ATOM     91  C   UNL A   1      52.114  25.757  25.772  1.00  0.00     0.060 A 
BRANCH  91  92
ATOM     92  S   UNL A   1      53.805  25.287  25.351  1.00  0.00     0.124 S 
ATOM     93  O   UNL A   1      53.916  25.780  23.982  1.00  0.00    -0.237 OA
ATOM     94  O   UNL A   1      54.589  26.010  26.349  1.00  0.00    -0.237 OA
ATOM     95  O   UNL A   1      53.802  23.835  25.499  1.00  0.00    -0.744 OA
ENDBRANCH  91  92
ENDBRANCH  59  84
ENDBRANCH  33  34
ENDBRANCH  26  28
ENDBRANCH  25  26
ENDBRANCH  24  25
ENDBRANCH   1  24
TORSDOF 19
ENDMDL
