MODEL 1
REMARK VINA RESULT:     -13.5      0.000      0.000
REMARK SMILES O=C(OCCOC(=O)c1cc2c(c(S(=O)(=O)Nc3cc(C(F)(F)F)ccc3-n3cccn3)c1)CCC2)c1ccc(-c2c3nc(c(-c4c(F)cc(S(=O)(=O)[O-])cc4F)c4ccc([nH]4)c(-c4c(F)cc(S(=O)(=O)[O-])cc4F)c4nc(c(-c5c(F)cc(S(=O)(=O)[O-])cc5F)c5ccc2[nH]5)C=C4)C=C3)cc1
REMARK SMILES IDX 5 1 4 2 3 3 2 4 1 5 37 6 38 7 102 8 39 9 101 10 40 11 41 12
REMARK SMILES IDX 42 13 95 14 43 15 100 16 94 17 96 18 44 19 99 20 93 21 92 22
REMARK SMILES IDX 45 24 79 25 58 26 78 27 59 28 62 29 77 30 97 31 60 32 61 33
REMARK SMILES IDX 76 35 98 36 63 37 46 38 47 39 56 40 48 41 49 42 55 43 57 44
REMARK SMILES IDX 50 45 51 46 52 47 53 48 54 49 80 50 81 51 90 52 82 53 83 54
REMARK SMILES IDX 89 55 91 56 84 57 85 58 86 59 87 60 88 61 64 62 65 63 74 64
REMARK SMILES IDX 66 65 67 66 73 67 75 68 68 69 69 70 70 71 71 72 72 73 6 74
REMARK SMILES IDX 7 75 8 76 9 77 10 78 33 79 11 80 13 81 12 82 36 83 34 84
REMARK SMILES IDX 35 85 14 86 15 87 16 88 17 89 18 91 19 92 27 93 20 94 26 95
REMARK SMILES IDX 25 96 28 97 29 98 32 99 30 100 31 101 21 102 22 103 23 104
REMARK SMILES IDX 24 105
REMARK H PARENT 96 23 62 34 17 90
REMARK Flexibility Score: inf
ROOT
ATOM      1  C   UNL A   1      37.099  20.890  24.371  1.00  0.00     0.275 C 
ENDROOT
BRANCH   1   2
ATOM      2  C   UNL A   1      38.126  20.965  25.501  1.00  0.00     0.275 C 
BRANCH   2   3
ATOM      3  O   UNL A   1      38.853  22.199  25.665  1.00  0.00    -0.458 OA
BRANCH   3   4
ATOM      4  C   UNL A   1      39.911  22.219  26.506  1.00  0.00     0.338 C 
ATOM      5  O   UNL A   1      40.655  21.278  26.719  1.00  0.00    -0.246 OA
BRANCH   4   6
ATOM      6  C   UNL A   1      40.105  23.577  27.064  1.00  0.00     0.060 A 
ATOM      7  C   UNL A   1      41.199  23.879  27.883  1.00  0.00     0.016 A 
ATOM      8  C   UNL A   1      39.183  24.574  26.731  1.00  0.00     0.016 A 
ATOM      9  C   UNL A   1      41.341  25.156  28.409  1.00  0.00     0.010 A 
ATOM     10  C   UNL A   1      39.330  25.855  27.262  1.00  0.00     0.010 A 
ATOM     11  C   UNL A   1      40.392  26.145  28.123  1.00  0.00    -0.014 A 
BRANCH  11  12
ATOM     12  C   UNL A   1      40.576  27.463  28.741  1.00  0.00     0.031 A 
ATOM     13  C   UNL A   1      41.714  28.301  28.253  1.00  0.00     0.074 A 
ATOM     14  C   UNL A   1      39.738  27.996  29.652  1.00  0.00     0.049 A 
ATOM     15  N   UNL A   1      42.867  28.523  28.802  1.00  0.00    -0.248 NA
ATOM     16  C   UNL A   1      41.571  28.920  26.934  1.00  0.00     0.031 C 
ATOM     17  C   UNL A   1      38.418  27.524  30.072  1.00  0.00     0.029 A 
ATOM     18  N   UNL A   1      39.892  29.156  30.353  1.00  0.00    -0.354 N 
ATOM     19  C   UNL A   1      43.507  29.456  27.980  1.00  0.00     0.074 A 
ATOM     20  C   UNL A   1      42.760  29.491  26.753  1.00  0.00     0.031 C 
ATOM     21  C   UNL A   1      37.811  28.490  30.796  1.00  0.00     0.029 A 
ATOM     22  C   UNL A   1      38.750  29.576  31.015  1.00  0.00     0.049 A 
ATOM     23  H   UNL A   1      40.742  29.652  30.385  1.00  0.00     0.167 HD
ATOM     24  C   UNL A   1      44.463  30.319  28.431  1.00  0.00     0.037 A 
ATOM     25  C   UNL A   1      38.578  30.754  31.664  1.00  0.00     0.037 A 
ATOM     26  C   UNL A   1      44.939  29.953  29.737  1.00  0.00     0.049 A 
ATOM     27  C   UNL A   1      39.924  31.282  32.005  1.00  0.00     0.074 A 
ATOM     28  C   UNL A   1      45.508  28.821  30.286  1.00  0.00     0.029 A 
ATOM     29  N   UNL A   1      44.539  30.720  30.805  1.00  0.00    -0.354 N 
ATOM     30  N   UNL A   1      40.723  30.746  32.887  1.00  0.00    -0.248 NA
ATOM     31  C   UNL A   1      40.556  32.217  31.085  1.00  0.00     0.031 C 
ATOM     32  C   UNL A   1      44.969  28.741  31.603  1.00  0.00     0.029 A 
ATOM     33  C   UNL A   1      44.143  29.851  31.787  1.00  0.00     0.049 A 
ATOM     34  H   UNL A   1      44.538  31.703  30.855  1.00  0.00     0.167 HD
ATOM     35  C   UNL A   1      41.999  30.943  32.381  1.00  0.00     0.074 A 
ATOM     36  C   UNL A   1      41.840  31.952  31.340  1.00  0.00     0.031 C 
ATOM     37  C   UNL A   1      43.017  30.079  32.666  1.00  0.00     0.037 A 
BRANCH  24  38
ATOM     38  C   UNL A   1      44.745  31.684  27.838  1.00  0.00     0.058 A 
ATOM     39  C   UNL A   1      45.975  31.918  27.187  1.00  0.00     0.135 A 
ATOM     40  C   UNL A   1      43.973  32.837  28.107  1.00  0.00     0.135 A 
ATOM     41  F   UNL A   1      46.799  30.898  26.896  1.00  0.00    -0.206 F 
ATOM     42  C   UNL A   1      46.431  33.204  26.885  1.00  0.00     0.059 A 
ATOM     43  C   UNL A   1      44.380  34.121  27.758  1.00  0.00     0.059 A 
ATOM     44  F   UNL A   1      42.836  32.784  28.812  1.00  0.00    -0.206 F 
ATOM     45  C   UNL A   1      45.630  34.300  27.190  1.00  0.00     0.060 A 
BRANCH  45  46
ATOM     46  S   UNL A   1      46.261  35.965  26.915  1.00  0.00     0.124 S 
ATOM     47  O   UNL A   1      46.687  35.884  25.522  1.00  0.00    -0.237 OA
ATOM     48  O   UNL A   1      45.084  36.787  27.178  1.00  0.00    -0.237 OA
ATOM     49  O   UNL A   1      47.333  36.082  27.899  1.00  0.00    -0.744 OA
ENDBRANCH  45  46
ENDBRANCH  24  38
BRANCH  25  50
ATOM     50  C   UNL A   1      37.343  31.565  31.787  1.00  0.00     0.058 A 
ATOM     51  C   UNL A   1      36.824  31.909  33.046  1.00  0.00     0.135 A 
ATOM     52  C   UNL A   1      36.803  32.251  30.680  1.00  0.00     0.135 A 
ATOM     53  F   UNL A   1      37.294  31.320  34.156  1.00  0.00    -0.206 F 
ATOM     54  C   UNL A   1      35.867  32.915  33.206  1.00  0.00     0.059 A 
ATOM     55  C   UNL A   1      35.838  33.247  30.814  1.00  0.00     0.059 A 
ATOM     56  F   UNL A   1      37.270  32.044  29.440  1.00  0.00    -0.206 F 
ATOM     57  C   UNL A   1      35.397  33.595  32.083  1.00  0.00     0.060 A 
BRANCH  57  58
ATOM     58  S   UNL A   1      34.319  35.028  32.303  1.00  0.00     0.124 S 
ATOM     59  O   UNL A   1      35.144  35.904  33.128  1.00  0.00    -0.237 OA
ATOM     60  O   UNL A   1      34.102  35.465  30.928  1.00  0.00    -0.237 OA
ATOM     61  O   UNL A   1      33.143  34.469  32.966  1.00  0.00    -0.744 OA
ENDBRANCH  57  58
ENDBRANCH  25  50
BRANCH  37  62
ATOM     62  C   UNL A   1      42.850  29.118  33.814  1.00  0.00     0.058 A 
ATOM     63  C   UNL A   1      43.093  29.434  35.161  1.00  0.00     0.135 A 
ATOM     64  C   UNL A   1      42.272  27.865  33.545  1.00  0.00     0.135 A 
ATOM     65  F   UNL A   1      43.535  30.649  35.516  1.00  0.00    -0.206 F 
ATOM     66  C   UNL A   1      42.823  28.529  36.188  1.00  0.00     0.059 A 
ATOM     67  C   UNL A   1      41.959  26.962  34.556  1.00  0.00     0.059 A 
ATOM     68  F   UNL A   1      41.953  27.526  32.284  1.00  0.00    -0.206 F 
ATOM     69  C   UNL A   1      42.253  27.294  35.876  1.00  0.00     0.060 A 
BRANCH  69  70
ATOM     70  S   UNL A   1      41.825  26.159  37.213  1.00  0.00     0.124 S 
ATOM     71  O   UNL A   1      41.814  24.870  36.529  1.00  0.00    -0.237 OA
ATOM     72  O   UNL A   1      42.912  26.362  38.167  1.00  0.00    -0.237 OA
ATOM     73  O   UNL A   1      40.519  26.638  37.662  1.00  0.00    -0.744 OA
ENDBRANCH  69  70
ENDBRANCH  37  62
ENDBRANCH  11  12
ENDBRANCH   4   6
ENDBRANCH   3   4
ENDBRANCH   2   3
ENDBRANCH   1   2
BRANCH   1  74
ATOM     74  O   UNL A   1      36.077  21.878  24.584  1.00  0.00    -0.458 OA
BRANCH  74  75
ATOM     75  C   UNL A   1      35.930  22.807  23.604  1.00  0.00     0.338 C 
ATOM     76  O   UNL A   1      36.699  23.095  22.709  1.00  0.00    -0.246 OA
BRANCH  75  77
ATOM     77  C   UNL A   1      34.663  23.501  23.874  1.00  0.00     0.061 A 
ATOM     78  C   UNL A   1      33.912  23.068  24.957  1.00  0.00     0.019 A 
ATOM     79  C   UNL A   1      34.209  24.540  23.044  1.00  0.00     0.038 A 
ATOM     80  C   UNL A   1      32.664  23.629  25.128  1.00  0.00    -0.043 A 
ATOM     81  C   UNL A   1      32.924  25.113  23.218  1.00  0.00     0.092 A 
ATOM     82  C   UNL A   1      32.125  24.581  24.225  1.00  0.00    -0.024 A 
ATOM     83  C   UNL A   1      31.701  23.278  26.223  1.00  0.00     0.036 C 
ATOM     84  C   UNL A   1      30.669  24.685  24.550  1.00  0.00     0.037 C 
ATOM     85  C   UNL A   1      30.687  24.406  26.058  1.00  0.00     0.010 C 
BRANCH  81  86
ATOM     86  S   UNL A   1      32.541  26.408  22.055  1.00  0.00     0.262 S 
ATOM     87  O   UNL A   1      33.781  27.094  21.756  1.00  0.00    -0.201 OA
ATOM     88  O   UNL A   1      31.860  25.754  20.963  1.00  0.00    -0.201 OA
BRANCH  86  89
ATOM     89  N   UNL A   1      31.448  27.592  22.546  1.00  0.00    -0.277 N 
ATOM     90  H   UNL A   1      30.693  27.754  21.935  1.00  0.00     0.180 HD
BRANCH  89  91
ATOM     91  C   UNL A   1      31.467  28.394  23.728  1.00  0.00     0.075 A 
ATOM     92  C   UNL A   1      32.420  27.983  24.689  1.00  0.00     0.042 A 
ATOM     93  C   UNL A   1      30.739  29.563  23.972  1.00  0.00     0.089 A 
ATOM     94  C   UNL A   1      32.772  28.801  25.778  1.00  0.00     0.058 A 
ATOM     95  C   UNL A   1      31.060  30.368  25.082  1.00  0.00     0.031 A 
ATOM     96  C   UNL A   1      32.071  29.994  25.972  1.00  0.00     0.015 A 
BRANCH  93  97
ATOM     97  N   UNL A   1      29.708  30.010  23.123  1.00  0.00    -0.239 N 
ATOM     98  C   UNL A   1      28.501  30.556  23.477  1.00  0.00     0.115 A 
ATOM     99  N   UNL A   1      29.825  29.889  21.775  1.00  0.00    -0.177 NA
ATOM    100  C   UNL A   1      27.725  30.558  22.341  1.00  0.00     0.042 A 
ATOM    101  C   UNL A   1      28.582  30.099  21.331  1.00  0.00     0.135 A 
ENDBRANCH  93  97
BRANCH  94 102
ATOM    102  C   UNL A   1      33.957  28.435  26.646  1.00  0.00     0.416 C 
ATOM    103  F   UNL A   1      33.692  28.555  27.971  1.00  0.00    -0.166 F 
ATOM    104  F   UNL A   1      34.358  27.151  26.441  1.00  0.00    -0.166 F 
ATOM    105  F   UNL A   1      35.053  29.208  26.402  1.00  0.00    -0.166 F 
ENDBRANCH  94 102
ENDBRANCH  89  91
ENDBRANCH  86  89
ENDBRANCH  81  86
ENDBRANCH  75  77
ENDBRANCH  74  75
ENDBRANCH   1  74
TORSDOF 19
ENDMDL
MODEL 2
REMARK VINA RESULT:     -13.2      3.518      9.650
REMARK SMILES O=C(OCCOC(=O)c1cc2c(c(S(=O)(=O)Nc3cc(C(F)(F)F)ccc3-n3cccn3)c1)CCC2)c1ccc(-c2c3nc(c(-c4c(F)cc(S(=O)(=O)[O-])cc4F)c4ccc([nH]4)c(-c4c(F)cc(S(=O)(=O)[O-])cc4F)c4nc(c(-c5c(F)cc(S(=O)(=O)[O-])cc5F)c5ccc2[nH]5)C=C4)C=C3)cc1
REMARK SMILES IDX 5 1 4 2 3 3 2 4 1 5 37 6 38 7 102 8 39 9 101 10 40 11 41 12
REMARK SMILES IDX 42 13 95 14 43 15 100 16 94 17 96 18 44 19 99 20 93 21 92 22
REMARK SMILES IDX 45 24 79 25 58 26 78 27 59 28 62 29 77 30 97 31 60 32 61 33
REMARK SMILES IDX 76 35 98 36 63 37 46 38 47 39 56 40 48 41 49 42 55 43 57 44
REMARK SMILES IDX 50 45 51 46 52 47 53 48 54 49 80 50 81 51 90 52 82 53 83 54
REMARK SMILES IDX 89 55 91 56 84 57 85 58 86 59 87 60 88 61 64 62 65 63 74 64
REMARK SMILES IDX 66 65 67 66 73 67 75 68 68 69 69 70 70 71 71 72 72 73 6 74
REMARK SMILES IDX 7 75 8 76 9 77 10 78 33 79 11 80 13 81 12 82 36 83 34 84
REMARK SMILES IDX 35 85 14 86 15 87 16 88 17 89 18 91 19 92 27 93 20 94 26 95
REMARK SMILES IDX 25 96 28 97 29 98 32 99 30 100 31 101 21 102 22 103 23 104
REMARK SMILES IDX 24 105
REMARK H PARENT 96 23 62 34 17 90
REMARK Flexibility Score: inf
ROOT
ATOM      1  C   UNL A   1      33.123  29.642  26.102  1.00  0.00     0.275 C 
ENDROOT
BRANCH   1   2
ATOM      2  C   UNL A   1      32.888  30.926  26.898  1.00  0.00     0.275 C 
BRANCH   2   3
ATOM      3  O   UNL A   1      33.712  31.154  28.059  1.00  0.00    -0.458 OA
BRANCH   3   4
ATOM      4  C   UNL A   1      34.763  31.997  27.951  1.00  0.00     0.338 C 
ATOM      5  O   UNL A   1      34.682  33.190  27.713  1.00  0.00    -0.246 OA
BRANCH   4   6
ATOM      6  C   UNL A   1      36.028  31.293  28.259  1.00  0.00     0.060 A 
ATOM      7  C   UNL A   1      37.156  31.986  28.713  1.00  0.00     0.016 A 
ATOM      8  C   UNL A   1      36.071  29.904  28.117  1.00  0.00     0.016 A 
ATOM      9  C   UNL A   1      38.336  31.301  28.972  1.00  0.00     0.010 A 
ATOM     10  C   UNL A   1      37.257  29.220  28.379  1.00  0.00     0.010 A 
ATOM     11  C   UNL A   1      38.401  29.916  28.781  1.00  0.00    -0.014 A 
BRANCH  11  12
ATOM     12  C   UNL A   1      39.686  29.254  29.033  1.00  0.00     0.031 A 
ATOM     13  C   UNL A   1      40.121  29.113  30.456  1.00  0.00     0.074 A 
ATOM     14  C   UNL A   1      40.451  28.695  28.075  1.00  0.00     0.049 A 
ATOM     15  N   UNL A   1      40.998  29.796  31.121  1.00  0.00    -0.248 NA
ATOM     16  C   UNL A   1      39.427  28.113  31.271  1.00  0.00     0.031 C 
ATOM     17  C   UNL A   1      40.123  28.437  26.672  1.00  0.00     0.029 A 
ATOM     18  N   UNL A   1      41.700  28.162  28.206  1.00  0.00    -0.354 N 
ATOM     19  C   UNL A   1      41.090  29.183  32.374  1.00  0.00     0.074 A 
ATOM     20  C   UNL A   1      39.958  28.305  32.477  1.00  0.00     0.031 C 
ATOM     21  C   UNL A   1      41.060  27.622  26.140  1.00  0.00     0.029 A 
ATOM     22  C   UNL A   1      42.122  27.426  27.111  1.00  0.00     0.049 A 
ATOM     23  H   UNL A   1      42.253  28.290  29.010  1.00  0.00     0.167 HD
ATOM     24  C   UNL A   1      42.206  29.244  33.157  1.00  0.00     0.037 A 
ATOM     25  C   UNL A   1      43.248  26.677  27.025  1.00  0.00     0.037 A 
ATOM     26  C   UNL A   1      43.131  30.240  32.691  1.00  0.00     0.049 A 
ATOM     27  C   UNL A   1      44.199  27.171  28.054  1.00  0.00     0.074 A 
ATOM     28  C   UNL A   1      43.063  31.598  32.448  1.00  0.00     0.029 A 
ATOM     29  N   UNL A   1      44.276  29.811  32.064  1.00  0.00    -0.354 N 
ATOM     30  N   UNL A   1      44.794  28.332  28.010  1.00  0.00    -0.248 NA
ATOM     31  C   UNL A   1      44.215  26.518  29.356  1.00  0.00     0.031 C 
ATOM     32  C   UNL A   1      43.870  31.806  31.292  1.00  0.00     0.029 A 
ATOM     33  C   UNL A   1      44.414  30.572  30.933  1.00  0.00     0.049 A 
ATOM     34  H   UNL A   1      44.881  29.096  32.369  1.00  0.00     0.167 HD
ATOM     35  C   UNL A   1      44.885  28.739  29.331  1.00  0.00     0.074 A 
ATOM     36  C   UNL A   1      44.624  27.538  30.115  1.00  0.00     0.031 C 
ATOM     37  C   UNL A   1      44.897  30.063  29.667  1.00  0.00     0.037 A 
BRANCH  24  38
ATOM     38  C   UNL A   1      42.619  28.184  34.157  1.00  0.00     0.058 A 
ATOM     39  C   UNL A   1      42.686  28.511  35.529  1.00  0.00     0.135 A 
ATOM     40  C   UNL A   1      43.199  26.945  33.802  1.00  0.00     0.135 A 
ATOM     41  F   UNL A   1      42.182  29.672  35.979  1.00  0.00    -0.206 F 
ATOM     42  C   UNL A   1      43.334  27.699  36.463  1.00  0.00     0.059 A 
ATOM     43  C   UNL A   1      43.794  26.092  34.727  1.00  0.00     0.059 A 
ATOM     44  F   UNL A   1      43.307  26.549  32.527  1.00  0.00    -0.206 F 
ATOM     45  C   UNL A   1      43.899  26.499  36.046  1.00  0.00     0.060 A 
BRANCH  45  46
ATOM     46  S   UNL A   1      44.841  25.505  37.218  1.00  0.00     0.124 S 
ATOM     47  O   UNL A   1      46.208  25.897  36.894  1.00  0.00    -0.237 OA
ATOM     48  O   UNL A   1      44.328  25.975  38.501  1.00  0.00    -0.237 OA
ATOM     49  O   UNL A   1      44.473  24.137  36.866  1.00  0.00    -0.744 OA
ENDBRANCH  45  46
ENDBRANCH  24  38
BRANCH  25  50
ATOM     50  C   UNL A   1      43.456  25.410  26.283  1.00  0.00     0.058 A 
ATOM     51  C   UNL A   1      44.489  25.284  25.339  1.00  0.00     0.135 A 
ATOM     52  C   UNL A   1      42.826  24.214  26.683  1.00  0.00     0.135 A 
ATOM     53  F   UNL A   1      45.156  26.369  24.917  1.00  0.00    -0.206 F 
ATOM     54  C   UNL A   1      44.911  24.041  24.861  1.00  0.00     0.059 A 
ATOM     55  C   UNL A   1      43.221  22.965  26.209  1.00  0.00     0.059 A 
ATOM     56  F   UNL A   1      41.872  24.214  27.625  1.00  0.00    -0.206 F 
ATOM     57  C   UNL A   1      44.285  22.883  25.322  1.00  0.00     0.060 A 
BRANCH  57  58
ATOM     58  S   UNL A   1      44.960  21.270  24.867  1.00  0.00     0.124 S 
ATOM     59  O   UNL A   1      46.356  21.402  25.272  1.00  0.00    -0.237 OA
ATOM     60  O   UNL A   1      44.147  20.359  25.665  1.00  0.00    -0.237 OA
ATOM     61  O   UNL A   1      44.731  21.202  23.426  1.00  0.00    -0.744 OA
ENDBRANCH  57  58
ENDBRANCH  25  50
BRANCH  37  62
ATOM     62  C   UNL A   1      45.173  31.080  28.591  1.00  0.00     0.058 A 
ATOM     63  C   UNL A   1      44.197  31.628  27.743  1.00  0.00     0.135 A 
ATOM     64  C   UNL A   1      46.465  31.631  28.522  1.00  0.00     0.135 A 
ATOM     65  F   UNL A   1      42.916  31.242  27.823  1.00  0.00    -0.206 F 
ATOM     66  C   UNL A   1      44.502  32.642  26.832  1.00  0.00     0.059 A 
ATOM     67  C   UNL A   1      46.781  32.667  27.649  1.00  0.00     0.059 A 
ATOM     68  F   UNL A   1      47.428  31.197  29.352  1.00  0.00    -0.206 F 
ATOM     69  C   UNL A   1      45.798  33.156  26.794  1.00  0.00     0.060 A 
BRANCH  69  70
ATOM     70  S   UNL A   1      46.169  34.525  25.677  1.00  0.00     0.124 S 
ATOM     71  O   UNL A   1      47.611  34.394  25.499  1.00  0.00    -0.237 OA
ATOM     72  O   UNL A   1      45.355  34.213  24.505  1.00  0.00    -0.237 OA
ATOM     73  O   UNL A   1      45.737  35.704  26.425  1.00  0.00    -0.744 OA
ENDBRANCH  69  70
ENDBRANCH  37  62
ENDBRANCH  11  12
ENDBRANCH   4   6
ENDBRANCH   3   4
ENDBRANCH   2   3
ENDBRANCH   1   2
BRANCH   1  74
ATOM     74  O   UNL A   1      31.872  28.958  25.913  1.00  0.00    -0.458 OA
BRANCH  74  75
ATOM     75  C   UNL A   1      31.649  27.888  26.720  1.00  0.00     0.338 C 
ATOM     76  O   UNL A   1      31.388  27.872  27.906  1.00  0.00    -0.246 OA
BRANCH  75  77
ATOM     77  C   UNL A   1      31.874  26.692  25.896  1.00  0.00     0.061 A 
ATOM     78  C   UNL A   1      32.227  26.884  24.569  1.00  0.00     0.019 A 
ATOM     79  C   UNL A   1      31.700  25.401  26.423  1.00  0.00     0.038 A 
ATOM     80  C   UNL A   1      32.307  25.765  23.766  1.00  0.00    -0.043 A 
ATOM     81  C   UNL A   1      31.777  24.252  25.596  1.00  0.00     0.092 A 
ATOM     82  C   UNL A   1      32.002  24.463  24.239  1.00  0.00    -0.024 A 
ATOM     83  C   UNL A   1      32.654  25.772  22.306  1.00  0.00     0.036 C 
ATOM     84  C   UNL A   1      31.875  23.599  23.025  1.00  0.00     0.037 C 
ATOM     85  C   UNL A   1      32.871  24.280  22.078  1.00  0.00     0.010 C 
BRANCH  81  86
ATOM     86  S   UNL A   1      31.518  22.714  26.458  1.00  0.00     0.262 S 
ATOM     87  O   UNL A   1      31.935  22.918  27.830  1.00  0.00    -0.201 OA
ATOM     88  O   UNL A   1      30.135  22.372  26.225  1.00  0.00    -0.201 OA
BRANCH  86  89
ATOM     89  N   UNL A   1      32.355  21.362  25.902  1.00  0.00    -0.277 N 
ATOM     90  H   UNL A   1      31.847  20.519  25.897  1.00  0.00     0.180 HD
BRANCH  89  91
ATOM     91  C   UNL A   1      33.703  21.272  25.437  1.00  0.00     0.075 A 
ATOM     92  C   UNL A   1      34.410  22.496  25.476  1.00  0.00     0.042 A 
ATOM     93  C   UNL A   1      34.396  20.116  25.064  1.00  0.00     0.089 A 
ATOM     94  C   UNL A   1      35.808  22.548  25.323  1.00  0.00     0.058 A 
ATOM     95  C   UNL A   1      35.790  20.168  24.870  1.00  0.00     0.031 A 
ATOM     96  C   UNL A   1      36.489  21.370  25.006  1.00  0.00     0.015 A 
BRANCH  93  97
ATOM     97  N   UNL A   1      33.766  18.866  24.909  1.00  0.00    -0.239 N 
ATOM     98  C   UNL A   1      34.303  17.706  24.415  1.00  0.00     0.115 A 
ATOM     99  N   UNL A   1      32.455  18.712  25.227  1.00  0.00    -0.177 NA
ATOM    100  C   UNL A   1      33.249  16.855  24.181  1.00  0.00     0.042 A 
ATOM    101  C   UNL A   1      32.129  17.544  24.666  1.00  0.00     0.135 A 
ENDBRANCH  93  97
BRANCH  94 102
ATOM    102  C   UNL A   1      36.551  23.836  25.606  1.00  0.00     0.416 C 
ATOM    103  F   UNL A   1      37.204  23.813  26.796  1.00  0.00    -0.166 F 
ATOM    104  F   UNL A   1      37.485  24.102  24.653  1.00  0.00    -0.166 F 
ATOM    105  F   UNL A   1      35.733  24.925  25.637  1.00  0.00    -0.166 F 
ENDBRANCH  94 102
ENDBRANCH  89  91
ENDBRANCH  86  89
ENDBRANCH  81  86
ENDBRANCH  75  77
ENDBRANCH  74  75
ENDBRANCH   1  74
TORSDOF 19
ENDMDL
MODEL 3
REMARK VINA RESULT:     -13.2      3.536      9.557
REMARK SMILES O=C(OCCOC(=O)c1cc2c(c(S(=O)(=O)Nc3cc(C(F)(F)F)ccc3-n3cccn3)c1)CCC2)c1ccc(-c2c3nc(c(-c4c(F)cc(S(=O)(=O)[O-])cc4F)c4ccc([nH]4)c(-c4c(F)cc(S(=O)(=O)[O-])cc4F)c4nc(c(-c5c(F)cc(S(=O)(=O)[O-])cc5F)c5ccc2[nH]5)C=C4)C=C3)cc1
REMARK SMILES IDX 5 1 4 2 3 3 2 4 1 5 37 6 38 7 102 8 39 9 101 10 40 11 41 12
REMARK SMILES IDX 42 13 95 14 43 15 100 16 94 17 96 18 44 19 99 20 93 21 92 22
REMARK SMILES IDX 45 24 79 25 58 26 78 27 59 28 62 29 77 30 97 31 60 32 61 33
REMARK SMILES IDX 76 35 98 36 63 37 46 38 47 39 56 40 48 41 49 42 55 43 57 44
REMARK SMILES IDX 50 45 51 46 52 47 53 48 54 49 80 50 81 51 90 52 82 53 83 54
REMARK SMILES IDX 89 55 91 56 84 57 85 58 86 59 87 60 88 61 64 62 65 63 74 64
REMARK SMILES IDX 66 65 67 66 73 67 75 68 68 69 69 70 70 71 71 72 72 73 6 74
REMARK SMILES IDX 7 75 8 76 9 77 10 78 33 79 11 80 13 81 12 82 36 83 34 84
REMARK SMILES IDX 35 85 14 86 15 87 16 88 17 89 18 91 19 92 27 93 20 94 26 95
REMARK SMILES IDX 25 96 28 97 29 98 32 99 30 100 31 101 21 102 22 103 23 104
REMARK SMILES IDX 24 105
REMARK H PARENT 96 23 62 34 17 90
REMARK Flexibility Score: inf
ROOT
ATOM      1  C   UNL A   1      33.991  30.030  26.231  1.00  0.00     0.275 C 
ENDROOT
BRANCH   1   2
ATOM      2  C   UNL A   1      33.558  30.942  27.379  1.00  0.00     0.275 C 
BRANCH   2   3
ATOM      3  O   UNL A   1      34.449  32.010  27.758  1.00  0.00    -0.458 OA
BRANCH   3   4
ATOM      4  C   UNL A   1      34.851  32.090  29.046  1.00  0.00     0.338 C 
ATOM      5  O   UNL A   1      34.211  32.599  29.950  1.00  0.00    -0.246 OA
BRANCH   4   6
ATOM      6  C   UNL A   1      36.138  31.382  29.232  1.00  0.00     0.060 A 
ATOM      7  C   UNL A   1      37.358  32.069  29.210  1.00  0.00     0.016 A 
ATOM      8  C   UNL A   1      36.116  30.004  29.464  1.00  0.00     0.016 A 
ATOM      9  C   UNL A   1      38.550  31.374  29.365  1.00  0.00     0.010 A 
ATOM     10  C   UNL A   1      37.315  29.311  29.619  1.00  0.00     0.010 A 
ATOM     11  C   UNL A   1      38.537  29.986  29.544  1.00  0.00    -0.014 A 
BRANCH  11  12
ATOM     12  C   UNL A   1      39.830  29.303  29.662  1.00  0.00     0.031 A 
ATOM     13  C   UNL A   1      40.404  29.145  31.033  1.00  0.00     0.074 A 
ATOM     14  C   UNL A   1      40.486  28.738  28.629  1.00  0.00     0.049 A 
ATOM     15  N   UNL A   1      41.355  29.811  31.609  1.00  0.00    -0.248 NA
ATOM     16  C   UNL A   1      39.780  28.151  31.909  1.00  0.00     0.031 C 
ATOM     17  C   UNL A   1      40.013  28.495  27.265  1.00  0.00     0.029 A 
ATOM     18  N   UNL A   1      41.733  28.186  28.631  1.00  0.00    -0.354 N 
ATOM     19  C   UNL A   1      41.563  29.188  32.844  1.00  0.00     0.074 A 
ATOM     20  C   UNL A   1      40.433  28.327  33.056  1.00  0.00     0.031 C 
ATOM     21  C   UNL A   1      40.879  27.670  26.636  1.00  0.00     0.029 A 
ATOM     22  C   UNL A   1      42.031  27.451  27.494  1.00  0.00     0.049 A 
ATOM     23  H   UNL A   1      42.367  28.300  29.374  1.00  0.00     0.167 HD
ATOM     24  C   UNL A   1      42.752  29.226  33.510  1.00  0.00     0.037 A 
ATOM     25  C   UNL A   1      43.131  26.685  27.291  1.00  0.00     0.037 A 
ATOM     26  C   UNL A   1      43.642  30.212  32.959  1.00  0.00     0.049 A 
ATOM     27  C   UNL A   1      44.188  27.158  28.221  1.00  0.00     0.074 A 
ATOM     28  C   UNL A   1      43.571  31.572  32.731  1.00  0.00     0.029 A 
ATOM     29  N   UNL A   1      44.711  29.769  32.217  1.00  0.00    -0.354 N 
ATOM     30  N   UNL A   1      44.793  28.310  28.124  1.00  0.00    -0.248 NA
ATOM     31  C   UNL A   1      44.324  26.496  29.512  1.00  0.00     0.031 C 
ATOM     32  C   UNL A   1      44.261  31.775  31.501  1.00  0.00     0.029 A 
ATOM     33  C   UNL A   1      44.746  30.535  31.081  1.00  0.00     0.049 A 
ATOM     34  H   UNL A   1      45.332  29.043  32.456  1.00  0.00     0.167 HD
ATOM     35  C   UNL A   1      45.024  28.707  29.431  1.00  0.00     0.074 A 
ATOM     36  C   UNL A   1      44.824  27.504  30.231  1.00  0.00     0.031 C 
ATOM     37  C   UNL A   1      45.090  30.028  29.771  1.00  0.00     0.037 A 
BRANCH  24  38
ATOM     38  C   UNL A   1      43.248  28.153  34.458  1.00  0.00     0.058 A 
ATOM     39  C   UNL A   1      43.616  28.505  35.774  1.00  0.00     0.135 A 
ATOM     40  C   UNL A   1      43.620  26.852  34.053  1.00  0.00     0.135 A 
ATOM     41  F   UNL A   1      43.329  29.724  36.261  1.00  0.00    -0.206 F 
ATOM     42  C   UNL A   1      44.352  27.653  36.601  1.00  0.00     0.059 A 
ATOM     43  C   UNL A   1      44.298  25.963  34.883  1.00  0.00     0.059 A 
ATOM     44  F   UNL A   1      43.435  26.415  32.801  1.00  0.00    -0.206 F 
ATOM     45  C   UNL A   1      44.702  26.388  36.137  1.00  0.00     0.060 A 
BRANCH  45  46
ATOM     46  S   UNL A   1      45.752  25.330  37.148  1.00  0.00     0.124 S 
ATOM     47  O   UNL A   1      45.700  26.018  38.434  1.00  0.00    -0.237 OA
ATOM     48  O   UNL A   1      45.056  24.049  37.079  1.00  0.00    -0.237 OA
ATOM     49  O   UNL A   1      47.037  25.377  36.457  1.00  0.00    -0.744 OA
ENDBRANCH  45  46
ENDBRANCH  24  38
BRANCH  25  50
ATOM     50  C   UNL A   1      43.242  25.421  26.525  1.00  0.00     0.058 A 
ATOM     51  C   UNL A   1      44.106  25.315  25.423  1.00  0.00     0.135 A 
ATOM     52  C   UNL A   1      42.716  24.212  27.025  1.00  0.00     0.135 A 
ATOM     53  F   UNL A   1      44.668  26.413  24.896  1.00  0.00    -0.206 F 
ATOM     54  C   UNL A   1      44.473  24.080  24.882  1.00  0.00     0.059 A 
ATOM     55  C   UNL A   1      43.056  22.970  26.493  1.00  0.00     0.059 A 
ATOM     56  F   UNL A   1      41.931  24.193  28.112  1.00  0.00    -0.206 F 
ATOM     57  C   UNL A   1      43.960  22.909  25.441  1.00  0.00     0.060 A 
BRANCH  57  58
ATOM     58  S   UNL A   1      44.589  21.311  24.881  1.00  0.00     0.124 S 
ATOM     59  O   UNL A   1      43.566  20.394  25.373  1.00  0.00    -0.237 OA
ATOM     60  O   UNL A   1      44.642  21.490  23.434  1.00  0.00    -0.237 OA
ATOM     61  O   UNL A   1      45.889  21.209  25.539  1.00  0.00    -0.744 OA
ENDBRANCH  57  58
ENDBRANCH  25  50
BRANCH  37  62
ATOM     62  C   UNL A   1      45.273  31.047  28.678  1.00  0.00     0.058 A 
ATOM     63  C   UNL A   1      44.244  31.516  27.845  1.00  0.00     0.135 A 
ATOM     64  C   UNL A   1      46.521  31.686  28.575  1.00  0.00     0.135 A 
ATOM     65  F   UNL A   1      42.994  31.044  27.958  1.00  0.00    -0.206 F 
ATOM     66  C   UNL A   1      44.458  32.537  26.917  1.00  0.00     0.059 A 
ATOM     67  C   UNL A   1      46.747  32.729  27.683  1.00  0.00     0.059 A 
ATOM     68  F   UNL A   1      47.530  31.329  29.388  1.00  0.00    -0.206 F 
ATOM     69  C   UNL A   1      45.714  33.139  26.844  1.00  0.00     0.060 A 
BRANCH  69  70
ATOM     70  S   UNL A   1      45.966  34.516  25.704  1.00  0.00     0.124 S 
ATOM     71  O   UNL A   1      45.612  35.666  26.529  1.00  0.00    -0.237 OA
ATOM     72  O   UNL A   1      47.380  34.393  25.360  1.00  0.00    -0.237 OA
ATOM     73  O   UNL A   1      45.043  34.226  24.609  1.00  0.00    -0.744 OA
ENDBRANCH  69  70
ENDBRANCH  37  62
ENDBRANCH  11  12
ENDBRANCH   4   6
ENDBRANCH   3   4
ENDBRANCH   2   3
ENDBRANCH   1   2
BRANCH   1  74
ATOM     74  O   UNL A   1      34.209  28.699  26.730  1.00  0.00    -0.458 OA
BRANCH  74  75
ATOM     75  C   UNL A   1      33.144  27.857  26.670  1.00  0.00     0.338 C 
ATOM     76  O   UNL A   1      32.200  27.772  27.428  1.00  0.00    -0.246 OA
BRANCH  75  77
ATOM     77  C   UNL A   1      33.385  26.963  25.528  1.00  0.00     0.061 A 
ATOM     78  C   UNL A   1      32.679  27.209  24.360  1.00  0.00     0.019 A 
ATOM     79  C   UNL A   1      34.269  25.876  25.628  1.00  0.00     0.038 A 
ATOM     80  C   UNL A   1      32.806  26.292  23.338  1.00  0.00    -0.043 A 
ATOM     81  C   UNL A   1      34.396  24.931  24.578  1.00  0.00     0.092 A 
ATOM     82  C   UNL A   1      33.585  25.113  23.462  1.00  0.00    -0.024 A 
ATOM     83  C   UNL A   1      32.109  26.374  22.011  1.00  0.00     0.036 C 
ATOM     84  C   UNL A   1      33.204  24.239  22.309  1.00  0.00     0.037 C 
ATOM     85  C   UNL A   1      32.865  25.292  21.247  1.00  0.00     0.010 C 
BRANCH  81  86
ATOM     86  S   UNL A   1      35.563  23.626  24.909  1.00  0.00     0.262 S 
ATOM     87  O   UNL A   1      36.046  23.151  23.629  1.00  0.00    -0.201 OA
ATOM     88  O   UNL A   1      36.529  24.196  25.816  1.00  0.00    -0.201 OA
BRANCH  86  89
ATOM     89  N   UNL A   1      34.999  22.272  25.737  1.00  0.00    -0.277 N 
ATOM     90  H   UNL A   1      35.332  22.166  26.657  1.00  0.00     0.180 HD
BRANCH  89  91
ATOM     91  C   UNL A   1      34.101  21.256  25.286  1.00  0.00     0.075 A 
ATOM     92  C   UNL A   1      34.742  20.090  24.807  1.00  0.00     0.042 A 
ATOM     93  C   UNL A   1      32.705  21.260  25.369  1.00  0.00     0.089 A 
ATOM     94  C   UNL A   1      34.034  18.895  24.585  1.00  0.00     0.058 A 
ATOM     95  C   UNL A   1      31.986  20.077  25.109  1.00  0.00     0.031 A 
ATOM     96  C   UNL A   1      32.644  18.905  24.728  1.00  0.00     0.015 A 
BRANCH  93  97
ATOM     97  N   UNL A   1      31.967  22.397  25.749  1.00  0.00    -0.239 N 
ATOM     98  C   UNL A   1      31.004  23.057  25.030  1.00  0.00     0.115 A 
ATOM     99  N   UNL A   1      32.201  23.003  26.942  1.00  0.00    -0.177 NA
ATOM    100  C   UNL A   1      30.789  24.254  25.671  1.00  0.00     0.042 A 
ATOM    101  C   UNL A   1      31.583  24.181  26.824  1.00  0.00     0.135 A 
ENDBRANCH  93  97
BRANCH  94 102
ATOM    102  C   UNL A   1      34.787  17.612  24.302  1.00  0.00     0.416 C 
ATOM    103  F   UNL A   1      36.124  17.735  24.503  1.00  0.00    -0.166 F 
ATOM    104  F   UNL A   1      34.365  16.591  25.096  1.00  0.00    -0.166 F 
ATOM    105  F   UNL A   1      34.629  17.176  23.020  1.00  0.00    -0.166 F 
ENDBRANCH  94 102
ENDBRANCH  89  91
ENDBRANCH  86  89
ENDBRANCH  81  86
ENDBRANCH  75  77
ENDBRANCH  74  75
ENDBRANCH   1  74
TORSDOF 19
ENDMDL
