MODEL 1
REMARK VINA RESULT:     -14.9      0.000      0.000
REMARK SMILES Cc1c(C(=O)OCCOC(=O)c2ccc(-c3c4nc(c(-c5c(F)cc(S(=O)(=O)[O-])cc5F)c5ccc([nH]5)c(-c5c(F)cc(S(=O)(=O)[O-])cc5F)c5nc(c(-c6c(F)cc(S(=O)(=O)[O-])cc6F)c6ccc3[nH]6)C=C5)C=C4)cc2)cccc1-n1c(C)cc(/C=C2/C(=O)NC(=S)N=C2O)c1C
REMARK SMILES IDX 7 1 6 2 4 3 5 4 3 5 1 6 2 7 81 8 78 9 80 10 79 11 82 12
REMARK SMILES IDX 83 13 97 14 84 15 85 16 86 17 98 18 87 19 88 20 89 21 95 22
REMARK SMILES IDX 90 23 91 24 94 25 92 26 93 28 96 29 8 31 9 32 10 33 11 34
REMARK SMILES IDX 12 35 13 36 77 37 14 38 76 39 15 40 16 41 17 42 70 43 18 44
REMARK SMILES IDX 75 45 69 46 71 47 19 48 74 49 68 50 67 51 20 53 54 54 33 55
REMARK SMILES IDX 53 56 34 57 37 58 52 59 72 60 35 61 36 62 51 64 73 65 38 66
REMARK SMILES IDX 21 67 22 68 31 69 23 70 24 71 30 72 32 73 25 74 26 75 27 76
REMARK SMILES IDX 28 77 29 78 55 79 56 80 65 81 57 82 58 83 64 84 66 85 59 86
REMARK SMILES IDX 60 87 61 88 62 89 63 90 39 91 40 92 49 93 41 94 42 95 48 96
REMARK SMILES IDX 50 97 43 98 44 99 45 100 46 101 47 102
REMARK H PARENT 91 27 96 30 71 52 37 63
REMARK Flexibility Score: inf
ROOT
ATOM      1  C   UNL A   1      33.769  30.790  27.103  1.00  0.00     0.275 C 
ENDROOT
BRANCH   1   2
ATOM      2  O   UNL A   1      32.378  31.142  27.196  1.00  0.00    -0.458 OA
BRANCH   2   3
ATOM      3  C   UNL A   1      31.498  30.822  26.005  1.00  0.00     0.338 C 
ATOM      4  O   UNL A   1      30.955  31.964  25.874  1.00  0.00    -0.246 OA
BRANCH   3   5
ATOM      5  C   UNL A   1      31.295  28.935  24.986  1.00  0.00     0.065 A 
ATOM      6  C   UNL A   1      33.773  27.542  24.952  1.00  0.00     0.047 C 
ATOM      7  C   UNL A   1      32.229  27.674  24.700  1.00  0.00    -0.012 A 
ATOM      8  C   UNL A   1      31.753  26.446  24.006  1.00  0.00     0.049 A 
ATOM      9  C   UNL A   1      29.969  28.397  24.251  1.00  0.00     0.016 A 
ATOM     10  C   UNL A   1      30.497  26.228  23.453  1.00  0.00     0.027 A 
ATOM     11  C   UNL A   1      29.597  27.224  23.560  1.00  0.00     0.003 A 
BRANCH   8  12
ATOM     12  N   UNL A   1      32.636  25.392  23.684  1.00  0.00    -0.318 N 
ATOM     13  C   UNL A   1      33.209  25.175  22.451  1.00  0.00     0.020 A 
ATOM     14  C   UNL A   1      33.024  24.411  24.587  1.00  0.00     0.027 A 
ATOM     15  C   UNL A   1      32.893  26.021  21.263  1.00  0.00     0.065 C 
ATOM     16  C   UNL A   1      34.027  24.072  22.589  1.00  0.00     0.031 A 
ATOM     17  C   UNL A   1      33.975  23.632  23.950  1.00  0.00    -0.003 A 
ATOM     18  C   UNL A   1      32.371  24.364  25.934  1.00  0.00     0.065 C 
BRANCH  17  19
ATOM     19  C   UNL A   1      34.707  22.496  24.421  1.00  0.00     0.029 C 
ATOM     20  C   UNL A   1      34.380  21.205  24.622  1.00  0.00     0.102 C 
ATOM     21  C   UNL A   1      35.494  20.310  25.036  1.00  0.00     0.262 C 
ATOM     22  C   UNL A   1      33.114  20.491  24.447  1.00  0.00     0.226 C 
ATOM     23  O   UNL A   1      36.568  20.693  25.485  1.00  0.00    -0.269 OA
ATOM     24  N   UNL A   1      35.236  18.978  24.851  1.00  0.00    -0.297 N 
ATOM     25  N   UNL A   1      32.951  19.224  24.321  1.00  0.00    -0.184 NA
ATOM     26  C   UNL A   1      34.055  18.424  24.426  1.00  0.00     0.203 C 
ATOM     27  H   UNL A   1      35.973  18.353  25.043  1.00  0.00     0.172 HD
ATOM     28  S   UNL A   1      34.025  16.769  24.156  1.00  0.00    -0.038 S 
BRANCH  22  29
ATOM     29  O   UNL A   1      32.005  21.223  24.522  1.00  0.00    -0.493 OA
ATOM     30  H   UNL A   1      31.667  21.478  25.357  1.00  0.00     0.295 HD
ENDBRANCH  22  29
ENDBRANCH  17  19
ENDBRANCH   8  12
ENDBRANCH   3   5
ENDBRANCH   2   3
ENDBRANCH   1   2
BRANCH   1  31
ATOM     31  C   UNL A   1      34.496  31.341  28.340  1.00  0.00     0.275 C 
BRANCH  31  32
ATOM     32  O   UNL A   1      35.785  31.935  28.034  1.00  0.00    -0.458 OA
BRANCH  32  33
ATOM     33  C   UNL A   1      36.850  31.606  28.816  1.00  0.00     0.338 C 
ATOM     34  O   UNL A   1      37.302  32.262  29.740  1.00  0.00    -0.246 OA
BRANCH  33  35
ATOM     35  C   UNL A   1      37.118  30.162  28.654  1.00  0.00     0.060 A 
ATOM     36  C   UNL A   1      37.264  29.120  30.110  1.00  0.00     0.016 A 
ATOM     37  C   UNL A   1      38.223  29.914  27.279  1.00  0.00     0.016 A 
ATOM     38  C   UNL A   1      38.576  27.807  30.202  1.00  0.00     0.010 A 
ATOM     39  C   UNL A   1      39.548  28.650  27.381  1.00  0.00     0.010 A 
ATOM     40  C   UNL A   1      39.731  27.610  28.839  1.00  0.00    -0.014 A 
BRANCH  40  41
ATOM     41  C   UNL A   1      41.120  27.180  29.022  1.00  0.00     0.031 A 
ATOM     42  C   UNL A   1      41.400  25.792  28.587  1.00  0.00     0.074 A 
ATOM     43  C   UNL A   1      42.030  28.068  29.485  1.00  0.00     0.049 A 
ATOM     44  N   UNL A   1      41.777  24.832  29.376  1.00  0.00    -0.248 NA
ATOM     45  C   UNL A   1      41.021  25.286  27.256  1.00  0.00     0.031 C 
ATOM     46  C   UNL A   1      43.485  28.010  29.475  1.00  0.00     0.029 A 
ATOM     47  N   UNL A   1      41.782  29.231  30.207  1.00  0.00    -0.354 N 
ATOM     48  C   UNL A   1      42.058  23.784  28.511  1.00  0.00     0.074 A 
ATOM     49  C   UNL A   1      41.196  23.976  27.390  1.00  0.00     0.031 C 
ATOM     50  C   UNL A   1      43.974  28.895  30.368  1.00  0.00     0.029 A 
ATOM     51  C   UNL A   1      42.853  29.522  31.052  1.00  0.00     0.049 A 
ATOM     52  H   UNL A   1      40.964  29.773  30.133  1.00  0.00     0.167 HD
ATOM     53  C   UNL A   1      43.324  23.272  28.419  1.00  0.00     0.037 A 
ATOM     54  C   UNL A   1      42.651  29.526  32.406  1.00  0.00     0.037 A 
ATOM     55  C   UNL A   1      44.220  24.028  29.285  1.00  0.00     0.049 A 
ATOM     56  C   UNL A   1      43.169  28.246  33.054  1.00  0.00     0.074 A 
ATOM     57  C   UNL A   1      45.180  25.002  29.072  1.00  0.00     0.029 A 
ATOM     58  N   UNL A   1      43.920  24.096  30.626  1.00  0.00    -0.354 N 
ATOM     59  N   UNL A   1      43.630  27.230  32.373  1.00  0.00    -0.248 NA
ATOM     60  C   UNL A   1      43.205  27.984  34.492  1.00  0.00     0.031 C 
ATOM     61  C   UNL A   1      45.513  25.580  30.334  1.00  0.00     0.029 A 
ATOM     62  C   UNL A   1      44.735  24.970  31.297  1.00  0.00     0.049 A 
ATOM     63  H   UNL A   1      43.203  23.575  31.054  1.00  0.00     0.167 HD
ATOM     64  C   UNL A   1      44.014  26.217  33.210  1.00  0.00     0.074 A 
ATOM     65  C   UNL A   1      43.677  26.722  34.530  1.00  0.00     0.031 C 
ATOM     66  C   UNL A   1      44.570  25.056  32.737  1.00  0.00     0.037 A 
BRANCH  53  67
ATOM     67  C   UNL A   1      43.794  22.378  27.281  1.00  0.00     0.058 A 
ATOM     68  C   UNL A   1      43.136  21.164  27.007  1.00  0.00     0.135 A 
ATOM     69  C   UNL A   1      44.865  22.676  26.402  1.00  0.00     0.135 A 
ATOM     70  F   UNL A   1      42.047  20.786  27.687  1.00  0.00    -0.206 F 
ATOM     71  C   UNL A   1      43.544  20.284  26.006  1.00  0.00     0.059 A 
ATOM     72  C   UNL A   1      45.329  21.784  25.426  1.00  0.00     0.059 A 
ATOM     73  F   UNL A   1      45.475  23.871  26.417  1.00  0.00    -0.206 F 
ATOM     74  C   UNL A   1      44.650  20.592  25.227  1.00  0.00     0.060 A 
BRANCH  74  75
ATOM     75  S   UNL A   1      45.123  19.450  23.918  1.00  0.00     0.124 S 
ATOM     76  O   UNL A   1      46.579  19.521  23.958  1.00  0.00    -0.237 OA
ATOM     77  O   UNL A   1      44.534  18.199  24.387  1.00  0.00    -0.237 OA
ATOM     78  O   UNL A   1      44.506  20.023  22.725  1.00  0.00    -0.744 OA
ENDBRANCH  74  75
ENDBRANCH  53  67
BRANCH  54  79
ATOM     79  C   UNL A   1      41.438  30.330  32.773  1.00  0.00     0.058 A 
ATOM     80  C   UNL A   1      40.285  29.600  33.154  1.00  0.00     0.135 A 
ATOM     81  C   UNL A   1      41.481  31.672  33.161  1.00  0.00     0.135 A 
ATOM     82  F   UNL A   1      40.144  28.323  32.757  1.00  0.00    -0.206 F 
ATOM     83  C   UNL A   1      39.334  30.108  34.036  1.00  0.00     0.059 A 
ATOM     84  C   UNL A   1      40.505  32.221  34.015  1.00  0.00     0.059 A 
ATOM     85  F   UNL A   1      42.545  32.430  32.855  1.00  0.00    -0.206 F 
ATOM     86  C   UNL A   1      39.467  31.414  34.491  1.00  0.00     0.060 A 
BRANCH  86  87
ATOM     87  S   UNL A   1      38.307  31.995  35.760  1.00  0.00     0.124 S 
ATOM     88  O   UNL A   1      39.002  33.153  36.306  1.00  0.00    -0.237 OA
ATOM     89  O   UNL A   1      37.105  32.295  34.987  1.00  0.00    -0.237 OA
ATOM     90  O   UNL A   1      38.193  30.849  36.659  1.00  0.00    -0.744 OA
ENDBRANCH  86  87
ENDBRANCH  54  79
BRANCH  66  91
ATOM     91  C   UNL A   1      44.968  23.848  33.565  1.00  0.00     0.058 A 
ATOM     92  C   UNL A   1      44.039  22.929  34.063  1.00  0.00     0.135 A 
ATOM     93  C   UNL A   1      46.315  23.605  33.960  1.00  0.00     0.135 A 
ATOM     94  F   UNL A   1      42.721  23.148  33.951  1.00  0.00    -0.206 F 
ATOM     95  C   UNL A   1      44.427  21.778  34.753  1.00  0.00     0.059 A 
ATOM     96  C   UNL A   1      46.718  22.499  34.691  1.00  0.00     0.059 A 
ATOM     97  F   UNL A   1      47.329  24.424  33.662  1.00  0.00    -0.206 F 
ATOM     98  C   UNL A   1      45.770  21.565  35.047  1.00  0.00     0.060 A 
BRANCH  98  99
ATOM     99  S   UNL A   1      46.262  20.094  35.949  1.00  0.00     0.124 S 
ATOM    100  O   UNL A   1      47.717  20.143  35.836  1.00  0.00    -0.237 OA
ATOM    101  O   UNL A   1      45.718  20.370  37.275  1.00  0.00    -0.237 OA
ATOM    102  O   UNL A   1      45.616  19.007  35.220  1.00  0.00    -0.744 OA
ENDBRANCH  98  99
ENDBRANCH  66  91
ENDBRANCH  40  41
ENDBRANCH  33  35
ENDBRANCH  32  33
ENDBRANCH  31  32
ENDBRANCH   1  31
TORSDOF 17
ENDMDL
MODEL 2
REMARK VINA RESULT:     -14.0      1.673      2.299
REMARK SMILES Cc1c(C(=O)OCCOC(=O)c2ccc(-c3c4nc(c(-c5c(F)cc(S(=O)(=O)[O-])cc5F)c5ccc([nH]5)c(-c5c(F)cc(S(=O)(=O)[O-])cc5F)c5nc(c(-c6c(F)cc(S(=O)(=O)[O-])cc6F)c6ccc3[nH]6)C=C5)C=C4)cc2)cccc1-n1c(C)cc(/C=C2/C(=O)NC(=S)N=C2O)c1C
REMARK SMILES IDX 7 1 6 2 4 3 5 4 3 5 1 6 2 7 81 8 78 9 80 10 79 11 82 12
REMARK SMILES IDX 83 13 97 14 84 15 85 16 86 17 98 18 87 19 88 20 89 21 95 22
REMARK SMILES IDX 90 23 91 24 94 25 92 26 93 28 96 29 8 31 9 32 10 33 11 34
REMARK SMILES IDX 12 35 13 36 77 37 14 38 76 39 15 40 16 41 17 42 70 43 18 44
REMARK SMILES IDX 75 45 69 46 71 47 19 48 74 49 68 50 67 51 20 53 54 54 33 55
REMARK SMILES IDX 53 56 34 57 37 58 52 59 72 60 35 61 36 62 51 64 73 65 38 66
REMARK SMILES IDX 21 67 22 68 31 69 23 70 24 71 30 72 32 73 25 74 26 75 27 76
REMARK SMILES IDX 28 77 29 78 55 79 56 80 65 81 57 82 58 83 64 84 66 85 59 86
REMARK SMILES IDX 60 87 61 88 62 89 63 90 39 91 40 92 49 93 41 94 42 95 48 96
REMARK SMILES IDX 50 97 43 98 44 99 45 100 46 101 47 102
REMARK H PARENT 91 27 96 30 71 52 37 63
REMARK Flexibility Score: inf
ROOT
ATOM      1  C   UNL A   1      33.554  33.996  28.052  1.00  0.00     0.275 C 
ENDROOT
BRANCH   1   2
ATOM      2  O   UNL A   1      33.233  32.612  27.830  1.00  0.00    -0.458 OA
BRANCH   2   3
ATOM      3  C   UNL A   1      32.117  32.305  26.853  1.00  0.00     0.338 C 
ATOM      4  O   UNL A   1      31.483  33.403  26.956  1.00  0.00    -0.246 OA
BRANCH   3   5
ATOM      5  C   UNL A   1      31.803  30.488  25.740  1.00  0.00     0.065 A 
ATOM      6  C   UNL A   1      33.782  28.556  26.395  1.00  0.00     0.047 C 
ATOM      7  C   UNL A   1      32.461  29.036  25.695  1.00  0.00    -0.012 A 
ATOM      8  C   UNL A   1      31.949  27.932  24.838  1.00  0.00     0.049 A 
ATOM      9  C   UNL A   1      30.676  30.252  24.617  1.00  0.00     0.016 A 
ATOM     10  C   UNL A   1      30.905  27.997  23.923  1.00  0.00     0.027 A 
ATOM     11  C   UNL A   1      30.270  29.177  23.796  1.00  0.00     0.003 A 
BRANCH   8  12
ATOM     12  N   UNL A   1      32.619  26.692  24.752  1.00  0.00    -0.318 N 
ATOM     13  C   UNL A   1      33.586  26.366  23.828  1.00  0.00     0.020 A 
ATOM     14  C   UNL A   1      32.361  25.620  25.595  1.00  0.00     0.027 A 
ATOM     15  C   UNL A   1      33.994  27.298  22.736  1.00  0.00     0.065 C 
ATOM     16  C   UNL A   1      33.997  25.084  24.128  1.00  0.00     0.031 A 
ATOM     17  C   UNL A   1      33.285  24.635  25.287  1.00  0.00    -0.003 A 
ATOM     18  C   UNL A   1      31.216  25.708  26.557  1.00  0.00     0.065 C 
BRANCH  17  19
ATOM     19  C   UNL A   1      33.476  23.334  25.852  1.00  0.00     0.029 C 
ATOM     20  C   UNL A   1      33.150  22.093  25.442  1.00  0.00     0.102 C 
ATOM     21  C   UNL A   1      33.632  20.979  26.301  1.00  0.00     0.262 C 
ATOM     22  C   UNL A   1      32.444  21.624  24.248  1.00  0.00     0.226 C 
ATOM     23  O   UNL A   1      34.018  21.104  27.458  1.00  0.00    -0.269 OA
ATOM     24  N   UNL A   1      33.638  19.758  25.680  1.00  0.00    -0.297 N 
ATOM     25  N   UNL A   1      32.468  20.442  23.749  1.00  0.00    -0.184 NA
ATOM     26  C   UNL A   1      33.168  19.478  24.421  1.00  0.00     0.203 C 
ATOM     27  H   UNL A   1      34.019  19.005  26.187  1.00  0.00     0.172 HD
ATOM     28  S   UNL A   1      33.402  17.926  23.831  1.00  0.00    -0.038 S 
BRANCH  22  29
ATOM     29  O   UNL A   1      31.611  22.489  23.673  1.00  0.00    -0.493 OA
ATOM     30  H   UNL A   1      31.023  22.200  23.004  1.00  0.00     0.295 HD
ENDBRANCH  22  29
ENDBRANCH  17  19
ENDBRANCH   8  12
ENDBRANCH   3   5
ENDBRANCH   2   3
ENDBRANCH   1   2
BRANCH   1  31
ATOM     31  C   UNL A   1      33.945  34.176  29.527  1.00  0.00     0.275 C 
BRANCH  31  32
ATOM     32  O   UNL A   1      34.334  32.937  30.176  1.00  0.00    -0.458 OA
BRANCH  32  33
ATOM     33  C   UNL A   1      35.647  32.751  30.484  1.00  0.00     0.338 C 
ATOM     34  O   UNL A   1      36.295  33.381  31.302  1.00  0.00    -0.246 OA
BRANCH  33  35
ATOM     35  C   UNL A   1      36.056  31.420  29.991  1.00  0.00     0.060 A 
ATOM     36  C   UNL A   1      36.312  30.083  31.163  1.00  0.00     0.016 A 
ATOM     37  C   UNL A   1      37.174  31.614  28.618  1.00  0.00     0.016 A 
ATOM     38  C   UNL A   1      37.748  28.919  30.967  1.00  0.00     0.010 A 
ATOM     39  C   UNL A   1      38.618  30.498  28.443  1.00  0.00     0.010 A 
ATOM     40  C   UNL A   1      38.911  29.165  29.618  1.00  0.00    -0.014 A 
BRANCH  40  41
ATOM     41  C   UNL A   1      40.337  28.842  29.721  1.00  0.00     0.031 A 
ATOM     42  C   UNL A   1      40.712  27.520  29.169  1.00  0.00     0.074 A 
ATOM     43  C   UNL A   1      41.188  29.766  30.221  1.00  0.00     0.049 A 
ATOM     44  N   UNL A   1      41.198  26.538  29.866  1.00  0.00    -0.248 NA
ATOM     45  C   UNL A   1      40.324  27.085  27.815  1.00  0.00     0.031 C 
ATOM     46  C   UNL A   1      42.642  29.833  30.159  1.00  0.00     0.029 A 
ATOM     47  N   UNL A   1      40.875  30.846  31.041  1.00  0.00    -0.354 N 
ATOM     48  C   UNL A   1      41.530  25.586  28.913  1.00  0.00     0.074 A 
ATOM     49  C   UNL A   1      40.611  25.789  27.840  1.00  0.00     0.031 C 
ATOM     50  C   UNL A   1      43.091  30.686  31.102  1.00  0.00     0.029 A 
ATOM     51  C   UNL A   1      41.951  31.162  31.870  1.00  0.00     0.049 A 
ATOM     52  H   UNL A   1      40.012  31.320  31.037  1.00  0.00     0.167 HD
ATOM     53  C   UNL A   1      42.828  25.192  28.739  1.00  0.00     0.037 A 
ATOM     54  C   UNL A   1      41.803  31.046  33.226  1.00  0.00     0.037 A 
ATOM     55  C   UNL A   1      43.693  25.954  29.632  1.00  0.00     0.049 A 
ATOM     56  C   UNL A   1      42.449  29.769  33.754  1.00  0.00     0.074 A 
ATOM     57  C   UNL A   1      44.561  27.019  29.464  1.00  0.00     0.029 A 
ATOM     58  N   UNL A   1      43.442  25.894  30.983  1.00  0.00    -0.354 N 
ATOM     59  N   UNL A   1      42.965  28.851  32.980  1.00  0.00    -0.248 NA
ATOM     60  C   UNL A   1      42.564  29.403  35.165  1.00  0.00     0.031 C 
ATOM     61  C   UNL A   1      44.895  27.525  30.756  1.00  0.00     0.029 A 
ATOM     62  C   UNL A   1      44.208  26.780  31.694  1.00  0.00     0.049 A 
ATOM     63  H   UNL A   1      42.788  25.283  31.392  1.00  0.00     0.167 HD
ATOM     64  C   UNL A   1      43.463  27.813  33.722  1.00  0.00     0.074 A 
ATOM     65  C   UNL A   1      43.138  28.187  35.088  1.00  0.00     0.031 C 
ATOM     66  C   UNL A   1      44.094  26.743  33.141  1.00  0.00     0.037 A 
BRANCH  53  67
ATOM     67  C   UNL A   1      43.325  24.430  27.519  1.00  0.00     0.058 A 
ATOM     68  C   UNL A   1      43.328  23.022  27.508  1.00  0.00     0.135 A 
ATOM     69  C   UNL A   1      43.778  25.026  26.316  1.00  0.00     0.135 A 
ATOM     70  F   UNL A   1      42.841  22.310  28.532  1.00  0.00    -0.206 F 
ATOM     71  C   UNL A   1      43.807  22.269  26.438  1.00  0.00     0.059 A 
ATOM     72  C   UNL A   1      44.317  24.294  25.251  1.00  0.00     0.059 A 
ATOM     73  F   UNL A   1      43.669  26.347  26.102  1.00  0.00    -0.206 F 
ATOM     74  C   UNL A   1      44.314  22.909  25.317  1.00  0.00     0.060 A 
BRANCH  74  75
ATOM     75  S   UNL A   1      44.888  21.902  23.939  1.00  0.00     0.124 S 
ATOM     76  O   UNL A   1      44.130  22.451  22.820  1.00  0.00    -0.237 OA
ATOM     77  O   UNL A   1      46.320  22.186  23.938  1.00  0.00    -0.237 OA
ATOM     78  O   UNL A   1      44.520  20.545  24.332  1.00  0.00    -0.744 OA
ENDBRANCH  74  75
ENDBRANCH  53  67
BRANCH  54  79
ATOM     79  C   UNL A   1      40.543  31.714  33.695  1.00  0.00     0.058 A 
ATOM     80  C   UNL A   1      39.511  30.864  34.163  1.00  0.00     0.135 A 
ATOM     81  C   UNL A   1      40.472  33.054  34.088  1.00  0.00     0.135 A 
ATOM     82  F   UNL A   1      39.478  29.579  33.770  1.00  0.00    -0.206 F 
ATOM     83  C   UNL A   1      38.585  31.267  35.122  1.00  0.00     0.059 A 
ATOM     84  C   UNL A   1      39.514  33.495  35.022  1.00  0.00     0.059 A 
ATOM     85  F   UNL A   1      41.419  33.922  33.702  1.00  0.00    -0.206 F 
ATOM     86  C   UNL A   1      38.612  32.581  35.574  1.00  0.00     0.060 A 
BRANCH  86  87
ATOM     87  S   UNL A   1      37.501  33.035  36.936  1.00  0.00     0.124 S 
ATOM     88  O   UNL A   1      37.314  31.762  37.619  1.00  0.00    -0.237 OA
ATOM     89  O   UNL A   1      38.278  34.029  37.670  1.00  0.00    -0.237 OA
ATOM     90  O   UNL A   1      36.323  33.558  36.247  1.00  0.00    -0.744 OA
ENDBRANCH  86  87
ENDBRANCH  54  79
BRANCH  66  91
ATOM     91  C   UNL A   1      44.622  25.514  33.857  1.00  0.00     0.058 A 
ATOM     92  C   UNL A   1      45.939  25.063  33.720  1.00  0.00     0.135 A 
ATOM     93  C   UNL A   1      43.790  24.684  34.662  1.00  0.00     0.135 A 
ATOM     94  F   UNL A   1      46.773  25.622  32.831  1.00  0.00    -0.206 F 
ATOM     95  C   UNL A   1      46.434  23.980  34.449  1.00  0.00     0.059 A 
ATOM     96  C   UNL A   1      44.246  23.571  35.351  1.00  0.00     0.059 A 
ATOM     97  F   UNL A   1      42.482  24.898  34.833  1.00  0.00    -0.206 F 
ATOM     98  C   UNL A   1      45.583  23.251  35.274  1.00  0.00     0.060 A 
BRANCH  98  99
ATOM     99  S   UNL A   1      46.219  21.848  36.194  1.00  0.00     0.124 S 
ATOM    100  O   UNL A   1      45.744  22.133  37.545  1.00  0.00    -0.237 OA
ATOM    101  O   UNL A   1      45.567  20.734  35.513  1.00  0.00    -0.237 OA
ATOM    102  O   UNL A   1      47.663  21.937  36.009  1.00  0.00    -0.744 OA
ENDBRANCH  98  99
ENDBRANCH  66  91
ENDBRANCH  40  41
ENDBRANCH  33  35
ENDBRANCH  32  33
ENDBRANCH  31  32
ENDBRANCH   1  31
TORSDOF 17
ENDMDL
MODEL 3
REMARK VINA RESULT:     -13.6      6.909     10.161
REMARK SMILES Cc1c(C(=O)OCCOC(=O)c2ccc(-c3c4nc(c(-c5c(F)cc(S(=O)(=O)[O-])cc5F)c5ccc([nH]5)c(-c5c(F)cc(S(=O)(=O)[O-])cc5F)c5nc(c(-c6c(F)cc(S(=O)(=O)[O-])cc6F)c6ccc3[nH]6)C=C5)C=C4)cc2)cccc1-n1c(C)cc(/C=C2/C(=O)NC(=S)N=C2O)c1C
REMARK SMILES IDX 7 1 6 2 4 3 5 4 3 5 1 6 2 7 81 8 78 9 80 10 79 11 82 12
REMARK SMILES IDX 83 13 97 14 84 15 85 16 86 17 98 18 87 19 88 20 89 21 95 22
REMARK SMILES IDX 90 23 91 24 94 25 92 26 93 28 96 29 8 31 9 32 10 33 11 34
REMARK SMILES IDX 12 35 13 36 77 37 14 38 76 39 15 40 16 41 17 42 70 43 18 44
REMARK SMILES IDX 75 45 69 46 71 47 19 48 74 49 68 50 67 51 20 53 54 54 33 55
REMARK SMILES IDX 53 56 34 57 37 58 52 59 72 60 35 61 36 62 51 64 73 65 38 66
REMARK SMILES IDX 21 67 22 68 31 69 23 70 24 71 30 72 32 73 25 74 26 75 27 76
REMARK SMILES IDX 28 77 29 78 55 79 56 80 65 81 57 82 58 83 64 84 66 85 59 86
REMARK SMILES IDX 60 87 61 88 62 89 63 90 39 91 40 92 49 93 41 94 42 95 48 96
REMARK SMILES IDX 50 97 43 98 44 99 45 100 46 101 47 102
REMARK H PARENT 91 27 96 30 71 52 37 63
REMARK Flexibility Score: inf
ROOT
ATOM      1  C   UNL A   1      37.030  30.597  32.777  1.00  0.00     0.275 C 
ENDROOT
BRANCH   1   2
ATOM      2  O   UNL A   1      36.398  29.778  31.778  1.00  0.00    -0.458 OA
BRANCH   2   3
ATOM      3  C   UNL A   1      36.749  30.052  30.330  1.00  0.00     0.338 C 
ATOM      4  O   UNL A   1      35.894  30.967  30.110  1.00  0.00    -0.246 OA
BRANCH   3   5
ATOM      5  C   UNL A   1      38.236  29.065  29.125  1.00  0.00     0.065 A 
ATOM      6  C   UNL A   1      39.091  26.654  30.364  1.00  0.00     0.047 C 
ATOM      7  C   UNL A   1      39.035  27.686  29.182  1.00  0.00    -0.012 A 
ATOM      8  C   UNL A   1      39.976  27.242  28.117  1.00  0.00     0.049 A 
ATOM      9  C   UNL A   1      38.870  29.629  27.759  1.00  0.00     0.016 A 
ATOM     10  C   UNL A   1      40.354  27.951  26.984  1.00  0.00     0.027 A 
ATOM     11  C   UNL A   1      39.809  29.170  26.809  1.00  0.00     0.003 A 
BRANCH   8  12
ATOM     12  N   UNL A   1      40.739  26.061  28.252  1.00  0.00    -0.318 N 
ATOM     13  C   UNL A   1      41.992  25.976  28.817  1.00  0.00     0.020 A 
ATOM     14  C   UNL A   1      40.316  24.818  27.800  1.00  0.00     0.027 A 
ATOM     15  C   UNL A   1      42.733  27.178  29.301  1.00  0.00     0.065 C 
ATOM     16  C   UNL A   1      42.347  24.644  28.780  1.00  0.00     0.031 A 
ATOM     17  C   UNL A   1      41.265  23.897  28.212  1.00  0.00    -0.003 A 
ATOM     18  C   UNL A   1      39.057  24.726  26.995  1.00  0.00     0.065 C 
BRANCH  17  19
ATOM     19  C   UNL A   1      41.322  22.480  28.024  1.00  0.00     0.029 C 
ATOM     20  C   UNL A   1      41.842  21.696  27.060  1.00  0.00     0.102 C 
ATOM     21  C   UNL A   1      41.772  20.231  27.306  1.00  0.00     0.262 C 
ATOM     22  C   UNL A   1      42.532  22.030  25.812  1.00  0.00     0.226 C 
ATOM     23  O   UNL A   1      41.040  19.695  28.130  1.00  0.00    -0.269 OA
ATOM     24  N   UNL A   1      42.631  19.494  26.535  1.00  0.00    -0.297 N 
ATOM     25  N   UNL A   1      43.294  21.262  25.121  1.00  0.00    -0.184 NA
ATOM     26  C   UNL A   1      43.443  19.967  25.534  1.00  0.00     0.203 C 
ATOM     27  H   UNL A   1      42.671  18.527  26.716  1.00  0.00     0.172 HD
ATOM     28  S   UNL A   1      44.503  18.885  24.816  1.00  0.00    -0.038 S 
BRANCH  22  29
ATOM     29  O   UNL A   1      42.265  23.223  25.287  1.00  0.00    -0.493 OA
ATOM     30  H   UNL A   1      42.902  23.908  25.332  1.00  0.00     0.295 HD
ENDBRANCH  22  29
ENDBRANCH  17  19
ENDBRANCH   8  12
ENDBRANCH   3   5
ENDBRANCH   2   3
ENDBRANCH   1   2
BRANCH   1  31
ATOM     31  C   UNL A   1      38.335  29.914  33.214  1.00  0.00     0.275 C 
BRANCH  31  32
ATOM     32  O   UNL A   1      39.471  30.817  33.261  1.00  0.00    -0.458 OA
BRANCH  32  33
ATOM     33  C   UNL A   1      39.483  31.793  34.210  1.00  0.00     0.338 C 
ATOM     34  O   UNL A   1      39.496  31.629  35.419  1.00  0.00    -0.246 OA
BRANCH  33  35
ATOM     35  C   UNL A   1      39.893  33.059  33.570  1.00  0.00     0.060 A 
ATOM     36  C   UNL A   1      38.945  33.698  32.184  1.00  0.00     0.016 A 
ATOM     37  C   UNL A   1      41.671  33.160  33.541  1.00  0.00     0.016 A 
ATOM     38  C   UNL A   1      39.806  34.437  30.712  1.00  0.00     0.010 A 
ATOM     39  C   UNL A   1      42.530  33.848  32.073  1.00  0.00     0.010 A 
ATOM     40  C   UNL A   1      41.603  34.471  30.662  1.00  0.00    -0.014 A 
BRANCH  40  41
ATOM     41  C   UNL A   1      42.371  34.355  29.419  1.00  0.00     0.031 A 
ATOM     42  C   UNL A   1      43.120  33.086  29.272  1.00  0.00     0.074 A 
ATOM     43  C   UNL A   1      42.284  35.339  28.494  1.00  0.00     0.049 A 
ATOM     44  N   UNL A   1      44.414  32.995  29.209  1.00  0.00    -0.248 NA
ATOM     45  C   UNL A   1      42.490  31.766  29.450  1.00  0.00     0.031 C 
ATOM     46  C   UNL A   1      42.677  35.346  27.093  1.00  0.00     0.029 A 
ATOM     47  N   UNL A   1      41.892  36.658  28.702  1.00  0.00    -0.354 N 
ATOM     48  C   UNL A   1      44.639  31.655  28.924  1.00  0.00     0.074 A 
ATOM     49  C   UNL A   1      43.540  30.955  29.507  1.00  0.00     0.031 C 
ATOM     50  C   UNL A   1      42.776  36.621  26.662  1.00  0.00     0.029 A 
ATOM     51  C   UNL A   1      42.519  37.506  27.788  1.00  0.00     0.049 A 
ATOM     52  H   UNL A   1      41.260  36.952  29.397  1.00  0.00     0.167 HD
ATOM     53  C   UNL A   1      45.248  31.280  27.758  1.00  0.00     0.037 A 
ATOM     54  C   UNL A   1      43.373  38.470  28.252  1.00  0.00     0.037 A 
ATOM     55  C   UNL A   1      45.520  32.461  26.948  1.00  0.00     0.049 A 
ATOM     56  C   UNL A   1      44.831  38.061  28.074  1.00  0.00     0.074 A 
ATOM     57  C   UNL A   1      44.933  33.023  25.828  1.00  0.00     0.029 A 
ATOM     58  N   UNL A   1      46.297  33.456  27.494  1.00  0.00    -0.354 N 
ATOM     59  N   UNL A   1      45.200  36.881  27.646  1.00  0.00    -0.248 NA
ATOM     60  C   UNL A   1      45.987  38.908  28.365  1.00  0.00     0.031 C 
ATOM     61  C   UNL A   1      45.456  34.342  25.669  1.00  0.00     0.029 A 
ATOM     62  C   UNL A   1      46.336  34.577  26.707  1.00  0.00     0.049 A 
ATOM     63  H   UNL A   1      46.771  33.372  28.353  1.00  0.00     0.167 HD
ATOM     64  C   UNL A   1      46.565  36.788  27.595  1.00  0.00     0.074 A 
ATOM     65  C   UNL A   1      47.012  38.073  28.107  1.00  0.00     0.031 C 
ATOM     66  C   UNL A   1      47.199  35.661  27.139  1.00  0.00     0.037 A 
BRANCH  53  67
ATOM     67  C   UNL A   1      45.228  29.859  27.212  1.00  0.00     0.058 A 
ATOM     68  C   UNL A   1      44.082  29.357  26.567  1.00  0.00     0.135 A 
ATOM     69  C   UNL A   1      46.317  28.954  27.262  1.00  0.00     0.135 A 
ATOM     70  F   UNL A   1      43.003  30.121  26.356  1.00  0.00    -0.206 F 
ATOM     71  C   UNL A   1      43.989  28.053  26.083  1.00  0.00     0.059 A 
ATOM     72  C   UNL A   1      46.230  27.623  26.834  1.00  0.00     0.059 A 
ATOM     73  F   UNL A   1      47.533  29.339  27.681  1.00  0.00    -0.206 F 
ATOM     74  C   UNL A   1      45.061  27.185  26.232  1.00  0.00     0.060 A 
BRANCH  74  75
ATOM     75  S   UNL A   1      44.917  25.521  25.558  1.00  0.00     0.124 S 
ATOM     76  O   UNL A   1      45.060  24.693  26.751  1.00  0.00    -0.237 OA
ATOM     77  O   UNL A   1      43.586  25.555  24.963  1.00  0.00    -0.237 OA
ATOM     78  O   UNL A   1      46.025  25.440  24.611  1.00  0.00    -0.744 OA
ENDBRANCH  74  75
ENDBRANCH  53  67
BRANCH  54  79
ATOM     79  C   UNL A   1      42.755  39.248  29.378  1.00  0.00     0.058 A 
ATOM     80  C   UNL A   1      43.327  39.067  30.661  1.00  0.00     0.135 A 
ATOM     81  C   UNL A   1      41.982  40.398  29.197  1.00  0.00     0.135 A 
ATOM     82  F   UNL A   1      44.026  37.950  30.928  1.00  0.00    -0.206 F 
ATOM     83  C   UNL A   1      43.304  40.059  31.639  1.00  0.00     0.059 A 
ATOM     84  C   UNL A   1      41.906  41.394  30.189  1.00  0.00     0.059 A 
ATOM     85  F   UNL A   1      41.419  40.653  28.006  1.00  0.00    -0.206 F 
ATOM     86  C   UNL A   1      42.616  41.240  31.384  1.00  0.00     0.060 A 
BRANCH  86  87
ATOM     87  S   UNL A   1      42.737  42.576  32.606  1.00  0.00     0.124 S 
ATOM     88  O   UNL A   1      44.164  42.601  32.897  1.00  0.00    -0.237 OA
ATOM     89  O   UNL A   1      42.228  43.732  31.875  1.00  0.00    -0.237 OA
ATOM     90  O   UNL A   1      41.882  42.109  33.697  1.00  0.00    -0.744 OA
ENDBRANCH  86  87
ENDBRANCH  54  79
BRANCH  66  91
ATOM     91  C   UNL A   1      48.698  35.425  27.101  1.00  0.00     0.058 A 
ATOM     92  C   UNL A   1      49.420  35.319  25.908  1.00  0.00     0.135 A 
ATOM     93  C   UNL A   1      49.467  35.217  28.282  1.00  0.00     0.135 A 
ATOM     94  F   UNL A   1      48.795  35.281  24.723  1.00  0.00    -0.206 F 
ATOM     95  C   UNL A   1      50.810  35.184  25.889  1.00  0.00     0.059 A 
ATOM     96  C   UNL A   1      50.839  35.027  28.286  1.00  0.00     0.059 A 
ATOM     97  F   UNL A   1      48.938  35.186  29.509  1.00  0.00    -0.206 F 
ATOM     98  C   UNL A   1      51.511  35.056  27.084  1.00  0.00     0.060 A 
BRANCH  98  99
ATOM     99  S   UNL A   1      53.295  34.865  27.054  1.00  0.00     0.124 S 
ATOM    100  O   UNL A   1      53.500  34.140  25.804  1.00  0.00    -0.237 OA
ATOM    101  O   UNL A   1      53.736  36.256  27.062  1.00  0.00    -0.237 OA
ATOM    102  O   UNL A   1      53.584  34.109  28.268  1.00  0.00    -0.744 OA
ENDBRANCH  98  99
ENDBRANCH  66  91
ENDBRANCH  40  41
ENDBRANCH  33  35
ENDBRANCH  32  33
ENDBRANCH  31  32
ENDBRANCH   1  31
TORSDOF 17
ENDMDL
