MODEL 1
REMARK VINA RESULT:     -10.3      0.000      0.000
REMARK SMILES CCCCCNC(=O)Oc1cccc(-c2ccc([C@@H](C)C(=O)OCCOC(=O)c3ccc(-c4c5nc(c(-c6c(F)cc(S(=O)(=O)[O-])cc6F)c6ccc([nH]6)c(-c6c(F)cc(S(=O)(=O)[O-])cc6F)c6nc(c(-c7c(F)cc(S(=O)(=O)[O-])cc7F)c7ccc4[nH]7)C=C6)C=C5)cc3)cc2F)c1
REMARK SMILES IDX 21 1 22 2 19 3 20 4 18 5 15 6 16 7 96 8 17 9 95 10 97 11
REMARK SMILES IDX 14 12 10 13 11 14 98 15 12 16 13 17 9 18 7 19 6 20 8 22 5 23
REMARK SMILES IDX 4 24 3 25 2 26 1 27 23 28 24 29 25 30 26 31 27 32 28 33
REMARK SMILES IDX 29 34 30 35 94 36 31 37 93 38 32 39 33 40 34 41 87 42 35 43
REMARK SMILES IDX 92 44 86 45 88 46 36 47 91 48 85 49 84 50 37 52 71 53 50 54
REMARK SMILES IDX 70 55 51 56 54 57 69 58 89 59 52 60 53 61 68 63 90 64 55 65
REMARK SMILES IDX 38 66 39 67 48 68 40 69 41 70 47 71 49 72 42 73 43 74 44 75
REMARK SMILES IDX 45 76 46 77 72 78 73 79 82 80 74 81 75 82 81 83 83 84 76 85
REMARK SMILES IDX 77 86 78 87 79 88 80 89 56 90 57 91 66 92 58 93 59 94 65 95
REMARK SMILES IDX 67 96 60 97 61 98 62 99 63 100 64 101
REMARK H PARENT 6 21 88 51 54 62
REMARK Flexibility Score: inf
ROOT
ATOM      1  C   UNL A   1      35.108  33.052  28.159  1.00  0.00     0.313 C 
ATOM      2  O   UNL A   1      35.730  33.606  27.258  1.00  0.00    -0.252 OA
ENDROOT
BRANCH   1   3
ATOM      3  C   UNL A   1      35.213  31.552  28.411  1.00  0.00     0.126 C 
ATOM      4  C   UNL A   1      36.654  31.091  28.190  1.00  0.00     0.025 C 
BRANCH   3   5
ATOM      5  C   UNL A   1      34.207  30.676  27.680  1.00  0.00    -0.031 A 
ATOM      6  C   UNL A   1      32.379  29.007  26.262  1.00  0.00     0.018 A 
ATOM      7  C   UNL A   1      32.052  30.332  26.596  1.00  0.00     0.012 A 
ATOM      8  C   UNL A   1      33.630  28.535  26.676  1.00  0.00     0.131 A 
ATOM      9  C   UNL A   1      32.951  31.155  27.287  1.00  0.00     0.005 A 
ATOM     10  C   UNL A   1      34.531  29.347  27.368  1.00  0.00     0.044 A 
ATOM     11  F   UNL A   1      34.015  27.284  26.377  1.00  0.00    -0.206 F 
BRANCH   6  12
ATOM     12  C   UNL A   1      31.452  28.181  25.468  1.00  0.00    -0.012 A 
ATOM     13  C   UNL A   1      30.280  26.100  25.033  1.00  0.00     0.133 A 
ATOM     14  C   UNL A   1      29.716  26.626  23.872  1.00  0.00     0.047 A 
ATOM     15  C   UNL A   1      31.149  26.855  25.823  1.00  0.00     0.056 A 
ATOM     16  C   UNL A   1      30.004  27.936  23.507  1.00  0.00     0.004 A 
ATOM     17  C   UNL A   1      30.864  28.703  24.298  1.00  0.00     0.009 A 
BRANCH  13  18
ATOM     18  O   UNL A   1      30.033  24.740  25.282  1.00  0.00    -0.410 OA
BRANCH  18  19
ATOM     19  C   UNL A   1      30.948  24.013  26.028  1.00  0.00     0.412 C 
ATOM     20  N   UNL A   1      31.777  23.247  25.255  1.00  0.00    -0.321 N 
ATOM     21  H   UNL A   1      32.476  22.738  25.726  1.00  0.00     0.167 HD
ATOM     22  O   UNL A   1      31.028  23.995  27.251  1.00  0.00    -0.224 OA
BRANCH  20  23
ATOM     23  C   UNL A   1      31.735  23.108  23.811  1.00  0.00     0.119 C 
BRANCH  23  24
ATOM     24  C   UNL A   1      32.915  23.789  23.122  1.00  0.00     0.021 C 
BRANCH  24  25
ATOM     25  C   UNL A   1      33.573  24.918  23.924  1.00  0.00     0.002 C 
BRANCH  25  26
ATOM     26  C   UNL A   1      33.724  26.255  23.192  1.00  0.00    -0.003 C 
ATOM     27  C   UNL A   1      32.913  26.344  21.909  1.00  0.00     0.004 C 
ENDBRANCH  25  26
ENDBRANCH  24  25
ENDBRANCH  23  24
ENDBRANCH  20  23
ENDBRANCH  18  19
ENDBRANCH  13  18
ENDBRANCH   6  12
ENDBRANCH   3   5
ENDBRANCH   1   3
BRANCH   1  28
ATOM     28  O   UNL A   1      34.233  33.686  28.983  1.00  0.00    -0.462 OA
BRANCH  28  29
ATOM     29  C   UNL A   1      34.121  35.114  28.834  1.00  0.00     0.274 C 
BRANCH  29  30
ATOM     30  C   UNL A   1      32.912  35.659  29.600  1.00  0.00     0.275 C 
BRANCH  30  31
ATOM     31  O   UNL A   1      33.305  36.240  30.857  1.00  0.00    -0.458 OA
BRANCH  31  32
ATOM     32  C   UNL A   1      32.896  35.558  31.952  1.00  0.00     0.338 C 
ATOM     33  O   UNL A   1      31.755  35.428  32.358  1.00  0.00    -0.246 OA
BRANCH  32  34
ATOM     34  C   UNL A   1      34.041  34.860  32.553  1.00  0.00     0.060 A 
ATOM     35  C   UNL A   1      35.309  35.427  32.404  1.00  0.00     0.016 A 
ATOM     36  C   UNL A   1      33.885  33.621  33.176  1.00  0.00     0.016 A 
ATOM     37  C   UNL A   1      36.434  34.751  32.864  1.00  0.00     0.010 A 
ATOM     38  C   UNL A   1      35.016  32.948  33.648  1.00  0.00     0.010 A 
ATOM     39  C   UNL A   1      36.298  33.503  33.483  1.00  0.00    -0.014 A 
BRANCH  39  40
ATOM     40  C   UNL A   1      37.507  32.762  33.916  1.00  0.00     0.031 A 
ATOM     41  C   UNL A   1      38.173  33.114  35.215  1.00  0.00     0.074 A 
ATOM     42  C   UNL A   1      37.989  31.764  33.151  1.00  0.00     0.049 A 
ATOM     43  N   UNL A   1      39.285  32.650  35.725  1.00  0.00    -0.248 NA
ATOM     44  C   UNL A   1      37.500  34.121  36.051  1.00  0.00     0.031 C 
ATOM     45  C   UNL A   1      37.400  31.307  31.891  1.00  0.00     0.029 A 
ATOM     46  N   UNL A   1      39.085  30.958  33.318  1.00  0.00    -0.354 N 
ATOM     47  C   UNL A   1      39.457  33.320  36.931  1.00  0.00     0.074 A 
ATOM     48  C   UNL A   1      38.342  34.234  37.069  1.00  0.00     0.031 C 
ATOM     49  C   UNL A   1      38.144  30.303  31.398  1.00  0.00     0.029 A 
ATOM     50  C   UNL A   1      39.284  30.077  32.282  1.00  0.00     0.049 A 
ATOM     51  H   UNL A   1      39.674  31.006  34.107  1.00  0.00     0.167 HD
ATOM     52  C   UNL A   1      40.453  33.182  37.837  1.00  0.00     0.037 A 
ATOM     53  C   UNL A   1      40.288  29.208  32.057  1.00  0.00     0.037 A 
ATOM     54  C   UNL A   1      41.549  32.259  37.698  1.00  0.00     0.049 A 
ATOM     55  C   UNL A   1      41.407  29.105  33.058  1.00  0.00     0.074 A 
ATOM     56  C   UNL A   1      42.610  32.043  38.561  1.00  0.00     0.029 A 
ATOM     57  N   UNL A   1      41.725  31.393  36.627  1.00  0.00    -0.354 N 
ATOM     58  N   UNL A   1      41.567  29.758  34.185  1.00  0.00    -0.248 NA
ATOM     59  C   UNL A   1      42.484  28.153  32.757  1.00  0.00     0.031 C 
ATOM     60  C   UNL A   1      43.441  31.068  37.998  1.00  0.00     0.029 A 
ATOM     61  C   UNL A   1      42.880  30.650  36.802  1.00  0.00     0.049 A 
ATOM     62  H   UNL A   1      41.116  31.318  35.857  1.00  0.00     0.167 HD
ATOM     63  C   UNL A   1      42.753  29.284  34.734  1.00  0.00     0.074 A 
ATOM     64  C   UNL A   1      43.262  28.280  33.823  1.00  0.00     0.031 C 
ATOM     65  C   UNL A   1      43.365  29.648  35.887  1.00  0.00     0.037 A 
BRANCH  52  66
ATOM     66  C   UNL A   1      40.418  34.066  39.052  1.00  0.00     0.058 A 
ATOM     67  C   UNL A   1      39.771  33.670  40.233  1.00  0.00     0.135 A 
ATOM     68  C   UNL A   1      41.072  35.308  39.048  1.00  0.00     0.135 A 
ATOM     69  F   UNL A   1      39.117  32.500  40.286  1.00  0.00    -0.206 F 
ATOM     70  C   UNL A   1      39.759  34.483  41.362  1.00  0.00     0.059 A 
ATOM     71  C   UNL A   1      41.091  36.128  40.171  1.00  0.00     0.059 A 
ATOM     72  F   UNL A   1      41.703  35.735  37.942  1.00  0.00    -0.206 F 
ATOM     73  C   UNL A   1      40.421  35.712  41.321  1.00  0.00     0.060 A 
BRANCH  73  74
ATOM     74  S   UNL A   1      40.406  36.753  42.797  1.00  0.00     0.124 S 
ATOM     75  O   UNL A   1      39.672  37.923  42.321  1.00  0.00    -0.237 OA
ATOM     76  O   UNL A   1      39.705  35.918  43.765  1.00  0.00    -0.237 OA
ATOM     77  O   UNL A   1      41.823  36.972  43.072  1.00  0.00    -0.744 OA
ENDBRANCH  73  74
ENDBRANCH  52  66
BRANCH  53  78
ATOM     78  C   UNL A   1      40.297  28.386  30.819  1.00  0.00     0.058 A 
ATOM     79  C   UNL A   1      39.419  27.305  30.658  1.00  0.00     0.135 A 
ATOM     80  C   UNL A   1      41.188  28.667  29.770  1.00  0.00     0.135 A 
ATOM     81  F   UNL A   1      38.556  26.992  31.638  1.00  0.00    -0.206 F 
ATOM     82  C   UNL A   1      39.434  26.519  29.510  1.00  0.00     0.059 A 
ATOM     83  C   UNL A   1      41.205  27.911  28.604  1.00  0.00     0.059 A 
ATOM     84  F   UNL A   1      42.040  29.699  29.871  1.00  0.00    -0.206 F 
ATOM     85  C   UNL A   1      40.333  26.830  28.488  1.00  0.00     0.060 A 
BRANCH  85  86
ATOM     86  S   UNL A   1      40.322  25.831  26.984  1.00  0.00     0.124 S 
ATOM     87  O   UNL A   1      40.764  26.799  25.987  1.00  0.00    -0.237 OA
ATOM     88  O   UNL A   1      41.272  24.770  27.309  1.00  0.00    -0.237 OA
ATOM     89  O   UNL A   1      38.930  25.402  26.879  1.00  0.00    -0.744 OA
ENDBRANCH  85  86
ENDBRANCH  53  78
BRANCH  65  90
ATOM     90  C   UNL A   1      44.638  28.935  36.244  1.00  0.00     0.058 A 
ATOM     91  C   UNL A   1      44.629  27.725  36.954  1.00  0.00     0.135 A 
ATOM     92  C   UNL A   1      45.879  29.446  35.830  1.00  0.00     0.135 A 
ATOM     93  F   UNL A   1      43.468  27.199  37.378  1.00  0.00    -0.206 F 
ATOM     94  C   UNL A   1      45.808  27.055  37.260  1.00  0.00     0.059 A 
ATOM     95  C   UNL A   1      47.069  28.780  36.105  1.00  0.00     0.059 A 
ATOM     96  F   UNL A   1      45.940  30.596  35.139  1.00  0.00    -0.206 F 
ATOM     97  C   UNL A   1      47.025  27.591  36.831  1.00  0.00     0.060 A 
BRANCH  97  98
ATOM     98  S   UNL A   1      48.547  26.697  37.204  1.00  0.00     0.124 S 
ATOM     99  O   UNL A   1      48.184  25.995  38.431  1.00  0.00    -0.237 OA
ATOM    100  O   UNL A   1      48.719  25.858  36.021  1.00  0.00    -0.237 OA
ATOM    101  O   UNL A   1      49.536  27.761  37.357  1.00  0.00    -0.744 OA
ENDBRANCH  97  98
ENDBRANCH  65  90
ENDBRANCH  39  40
ENDBRANCH  32  34
ENDBRANCH  31  32
ENDBRANCH  30  31
ENDBRANCH  29  30
ENDBRANCH  28  29
ENDBRANCH   1  28
TORSDOF 22
ENDMDL
MODEL 2
REMARK VINA RESULT:     -10.1      6.287     10.826
REMARK SMILES CCCCCNC(=O)Oc1cccc(-c2ccc([C@@H](C)C(=O)OCCOC(=O)c3ccc(-c4c5nc(c(-c6c(F)cc(S(=O)(=O)[O-])cc6F)c6ccc([nH]6)c(-c6c(F)cc(S(=O)(=O)[O-])cc6F)c6nc(c(-c7c(F)cc(S(=O)(=O)[O-])cc7F)c7ccc4[nH]7)C=C6)C=C5)cc3)cc2F)c1
REMARK SMILES IDX 21 1 22 2 19 3 20 4 18 5 15 6 16 7 96 8 17 9 95 10 97 11
REMARK SMILES IDX 14 12 10 13 11 14 98 15 12 16 13 17 9 18 7 19 6 20 8 22 5 23
REMARK SMILES IDX 4 24 3 25 2 26 1 27 23 28 24 29 25 30 26 31 27 32 28 33
REMARK SMILES IDX 29 34 30 35 94 36 31 37 93 38 32 39 33 40 34 41 87 42 35 43
REMARK SMILES IDX 92 44 86 45 88 46 36 47 91 48 85 49 84 50 37 52 71 53 50 54
REMARK SMILES IDX 70 55 51 56 54 57 69 58 89 59 52 60 53 61 68 63 90 64 55 65
REMARK SMILES IDX 38 66 39 67 48 68 40 69 41 70 47 71 49 72 42 73 43 74 44 75
REMARK SMILES IDX 45 76 46 77 72 78 73 79 82 80 74 81 75 82 81 83 83 84 76 85
REMARK SMILES IDX 77 86 78 87 79 88 80 89 56 90 57 91 66 92 58 93 59 94 65 95
REMARK SMILES IDX 67 96 60 97 61 98 62 99 63 100 64 101
REMARK H PARENT 6 21 88 51 54 62
REMARK Flexibility Score: inf
ROOT
ATOM      1  C   UNL A   1      35.336  32.839  28.600  1.00  0.00     0.313 C 
ATOM      2  O   UNL A   1      34.786  33.526  27.745  1.00  0.00    -0.252 OA
ENDROOT
BRANCH   1   3
ATOM      3  C   UNL A   1      35.683  31.374  28.361  1.00  0.00     0.126 C 
ATOM      4  C   UNL A   1      37.023  31.272  27.633  1.00  0.00     0.025 C 
BRANCH   3   5
ATOM      5  C   UNL A   1      34.603  30.527  27.706  1.00  0.00    -0.031 A 
ATOM      6  C   UNL A   1      32.630  28.914  26.422  1.00  0.00     0.018 A 
ATOM      7  C   UNL A   1      32.340  30.219  26.856  1.00  0.00     0.012 A 
ATOM      8  C   UNL A   1      33.921  28.432  26.668  1.00  0.00     0.131 A 
ATOM      9  C   UNL A   1      33.309  31.013  27.481  1.00  0.00     0.005 A 
ATOM     10  C   UNL A   1      34.893  29.217  27.294  1.00  0.00     0.044 A 
ATOM     11  F   UNL A   1      34.274  27.201  26.266  1.00  0.00    -0.206 F 
BRANCH   6  12
ATOM     12  C   UNL A   1      31.622  28.120  25.697  1.00  0.00    -0.012 A 
ATOM     13  C   UNL A   1      30.273  26.122  25.415  1.00  0.00     0.133 A 
ATOM     14  C   UNL A   1      29.729  26.619  24.233  1.00  0.00     0.047 A 
ATOM     15  C   UNL A   1      31.218  26.849  26.141  1.00  0.00     0.056 A 
ATOM     16  C   UNL A   1      30.117  27.875  23.779  1.00  0.00     0.004 A 
ATOM     17  C   UNL A   1      31.054  28.615  24.506  1.00  0.00     0.009 A 
BRANCH  13  18
ATOM     18  O   UNL A   1      29.919  24.805  25.755  1.00  0.00    -0.410 OA
BRANCH  18  19
ATOM     19  C   UNL A   1      30.901  23.941  26.218  1.00  0.00     0.412 C 
ATOM     20  N   UNL A   1      31.495  23.224  25.215  1.00  0.00    -0.321 N 
ATOM     21  H   UNL A   1      32.229  22.622  25.477  1.00  0.00     0.167 HD
ATOM     22  O   UNL A   1      31.218  23.772  27.389  1.00  0.00    -0.224 OA
BRANCH  20  23
ATOM     23  C   UNL A   1      31.158  23.261  23.804  1.00  0.00     0.119 C 
BRANCH  23  24
ATOM     24  C   UNL A   1      32.291  23.816  22.945  1.00  0.00     0.021 C 
BRANCH  24  25
ATOM     25  C   UNL A   1      33.381  24.572  23.716  1.00  0.00     0.002 C 
BRANCH  25  26
ATOM     26  C   UNL A   1      33.578  26.039  23.326  1.00  0.00    -0.003 C 
ATOM     27  C   UNL A   1      33.015  26.389  21.957  1.00  0.00     0.004 C 
ENDBRANCH  25  26
ENDBRANCH  24  25
ENDBRANCH  23  24
ENDBRANCH  20  23
ENDBRANCH  18  19
ENDBRANCH  13  18
ENDBRANCH   6  12
ENDBRANCH   3   5
ENDBRANCH   1   3
BRANCH   1  28
ATOM     28  O   UNL A   1      35.644  33.278  29.849  1.00  0.00    -0.462 OA
BRANCH  28  29
ATOM     29  C   UNL A   1      34.775  32.855  30.917  1.00  0.00     0.274 C 
BRANCH  29  30
ATOM     30  C   UNL A   1      35.570  32.213  32.058  1.00  0.00     0.275 C 
BRANCH  30  31
ATOM     31  O   UNL A   1      36.917  31.907  31.653  1.00  0.00    -0.458 OA
BRANCH  31  32
ATOM     32  C   UNL A   1      37.333  30.655  31.955  1.00  0.00     0.338 C 
ATOM     33  O   UNL A   1      36.706  29.789  32.539  1.00  0.00    -0.246 OA
BRANCH  32  34
ATOM     34  C   UNL A   1      38.653  30.417  31.354  1.00  0.00     0.060 A 
ATOM     35  C   UNL A   1      38.769  30.503  29.965  1.00  0.00     0.016 A 
ATOM     36  C   UNL A   1      39.741  30.028  32.136  1.00  0.00     0.016 A 
ATOM     37  C   UNL A   1      39.971  30.185  29.344  1.00  0.00     0.010 A 
ATOM     38  C   UNL A   1      40.954  29.719  31.511  1.00  0.00     0.010 A 
ATOM     39  C   UNL A   1      41.071  29.784  30.111  1.00  0.00    -0.014 A 
BRANCH  39  40
ATOM     40  C   UNL A   1      42.332  29.389  29.437  1.00  0.00     0.031 A 
ATOM     41  C   UNL A   1      42.477  28.002  28.877  1.00  0.00     0.074 A 
ATOM     42  C   UNL A   1      43.332  30.282  29.313  1.00  0.00     0.049 A 
ATOM     43  N   UNL A   1      43.524  27.436  28.336  1.00  0.00    -0.248 NA
ATOM     44  C   UNL A   1      41.286  27.139  28.934  1.00  0.00     0.031 C 
ATOM     45  C   UNL A   1      43.287  31.668  29.781  1.00  0.00     0.029 A 
ATOM     46  N   UNL A   1      44.581  30.156  28.762  1.00  0.00    -0.354 N 
ATOM     47  C   UNL A   1      43.128  26.146  28.004  1.00  0.00     0.074 A 
ATOM     48  C   UNL A   1      41.748  26.008  28.419  1.00  0.00     0.031 C 
ATOM     49  C   UNL A   1      44.458  32.264  29.499  1.00  0.00     0.029 A 
ATOM     50  C   UNL A   1      45.348  31.291  28.872  1.00  0.00     0.049 A 
ATOM     51  H   UNL A   1      44.897  29.330  28.327  1.00  0.00     0.167 HD
ATOM     52  C   UNL A   1      43.851  25.169  27.408  1.00  0.00     0.037 A 
ATOM     53  C   UNL A   1      46.633  31.511  28.534  1.00  0.00     0.037 A 
ATOM     54  C   UNL A   1      45.219  25.321  26.983  1.00  0.00     0.049 A 
ATOM     55  C   UNL A   1      47.429  30.395  27.912  1.00  0.00     0.074 A 
ATOM     56  C   UNL A   1      46.040  24.391  26.369  1.00  0.00     0.029 A 
ATOM     57  N   UNL A   1      45.968  26.481  27.125  1.00  0.00    -0.354 N 
ATOM     58  N   UNL A   1      47.048  29.174  27.622  1.00  0.00    -0.248 NA
ATOM     59  C   UNL A   1      48.830  30.683  27.578  1.00  0.00     0.031 C 
ATOM     60  C   UNL A   1      47.293  24.980  26.166  1.00  0.00     0.029 A 
ATOM     61  C   UNL A   1      47.242  26.288  26.621  1.00  0.00     0.049 A 
ATOM     62  H   UNL A   1      45.640  27.319  27.526  1.00  0.00     0.167 HD
ATOM     63  C   UNL A   1      48.156  28.554  27.056  1.00  0.00     0.074 A 
ATOM     64  C   UNL A   1      49.218  29.539  27.031  1.00  0.00     0.031 C 
ATOM     65  C   UNL A   1      48.283  27.285  26.598  1.00  0.00     0.037 A 
BRANCH  52  66
ATOM     66  C   UNL A   1      43.185  23.839  27.196  1.00  0.00     0.058 A 
ATOM     67  C   UNL A   1      43.132  22.871  28.211  1.00  0.00     0.135 A 
ATOM     68  C   UNL A   1      42.559  23.542  25.975  1.00  0.00     0.135 A 
ATOM     69  F   UNL A   1      43.729  23.097  29.392  1.00  0.00    -0.206 F 
ATOM     70  C   UNL A   1      42.497  21.648  28.017  1.00  0.00     0.059 A 
ATOM     71  C   UNL A   1      41.900  22.335  25.766  1.00  0.00     0.059 A 
ATOM     72  F   UNL A   1      42.583  24.432  24.970  1.00  0.00    -0.206 F 
ATOM     73  C   UNL A   1      41.884  21.389  26.790  1.00  0.00     0.060 A 
BRANCH  73  74
ATOM     74  S   UNL A   1      41.054  19.802  26.554  1.00  0.00     0.124 S 
ATOM     75  O   UNL A   1      42.048  19.065  25.778  1.00  0.00    -0.237 OA
ATOM     76  O   UNL A   1      40.856  19.343  27.924  1.00  0.00    -0.237 OA
ATOM     77  O   UNL A   1      39.836  20.159  25.834  1.00  0.00    -0.744 OA
ENDBRANCH  73  74
ENDBRANCH  52  66
BRANCH  53  78
ATOM     78  C   UNL A   1      47.257  32.832  28.802  1.00  0.00     0.058 A 
ATOM     79  C   UNL A   1      47.876  33.109  30.029  1.00  0.00     0.135 A 
ATOM     80  C   UNL A   1      47.246  33.848  27.832  1.00  0.00     0.135 A 
ATOM     81  F   UNL A   1      47.904  32.172  30.991  1.00  0.00    -0.206 F 
ATOM     82  C   UNL A   1      48.446  34.349  30.295  1.00  0.00     0.059 A 
ATOM     83  C   UNL A   1      47.829  35.088  28.066  1.00  0.00     0.059 A 
ATOM     84  F   UNL A   1      46.676  33.630  26.637  1.00  0.00    -0.206 F 
ATOM     85  C   UNL A   1      48.416  35.334  29.306  1.00  0.00     0.060 A 
BRANCH  85  86
ATOM     86  S   UNL A   1      49.191  36.930  29.641  1.00  0.00     0.124 S 
ATOM     87  O   UNL A   1      49.466  36.827  31.070  1.00  0.00    -0.237 OA
ATOM     88  O   UNL A   1      50.357  36.901  28.763  1.00  0.00    -0.237 OA
ATOM     89  O   UNL A   1      48.157  37.889  29.263  1.00  0.00    -0.744 OA
ENDBRANCH  85  86
ENDBRANCH  53  78
BRANCH  65  90
ATOM     90  C   UNL A   1      49.607  26.897  26.005  1.00  0.00     0.058 A 
ATOM     91  C   UNL A   1      49.860  27.016  24.630  1.00  0.00     0.135 A 
ATOM     92  C   UNL A   1      50.651  26.446  26.829  1.00  0.00     0.135 A 
ATOM     93  F   UNL A   1      48.892  27.436  23.799  1.00  0.00    -0.206 F 
ATOM     94  C   UNL A   1      51.096  26.681  24.088  1.00  0.00     0.059 A 
ATOM     95  C   UNL A   1      51.902  26.127  26.311  1.00  0.00     0.059 A 
ATOM     96  F   UNL A   1      50.462  26.324  28.153  1.00  0.00    -0.206 F 
ATOM     97  C   UNL A   1      52.112  26.236  24.938  1.00  0.00     0.060 A 
BRANCH  97  98
ATOM     98  S   UNL A   1      53.723  25.836  24.230  1.00  0.00     0.124 S 
ATOM     99  O   UNL A   1      53.509  26.144  22.819  1.00  0.00    -0.237 OA
ATOM    100  O   UNL A   1      54.617  26.739  24.948  1.00  0.00    -0.237 OA
ATOM    101  O   UNL A   1      53.889  24.420  24.545  1.00  0.00    -0.744 OA
ENDBRANCH  97  98
ENDBRANCH  65  90
ENDBRANCH  39  40
ENDBRANCH  32  34
ENDBRANCH  31  32
ENDBRANCH  30  31
ENDBRANCH  29  30
ENDBRANCH  28  29
ENDBRANCH   1  28
TORSDOF 22
ENDMDL
MODEL 3
REMARK VINA RESULT:     -10.1      4.960      8.687
REMARK SMILES CCCCCNC(=O)Oc1cccc(-c2ccc([C@@H](C)C(=O)OCCOC(=O)c3ccc(-c4c5nc(c(-c6c(F)cc(S(=O)(=O)[O-])cc6F)c6ccc([nH]6)c(-c6c(F)cc(S(=O)(=O)[O-])cc6F)c6nc(c(-c7c(F)cc(S(=O)(=O)[O-])cc7F)c7ccc4[nH]7)C=C6)C=C5)cc3)cc2F)c1
REMARK SMILES IDX 21 1 22 2 19 3 20 4 18 5 15 6 16 7 96 8 17 9 95 10 97 11
REMARK SMILES IDX 14 12 10 13 11 14 98 15 12 16 13 17 9 18 7 19 6 20 8 22 5 23
REMARK SMILES IDX 4 24 3 25 2 26 1 27 23 28 24 29 25 30 26 31 27 32 28 33
REMARK SMILES IDX 29 34 30 35 94 36 31 37 93 38 32 39 33 40 34 41 87 42 35 43
REMARK SMILES IDX 92 44 86 45 88 46 36 47 91 48 85 49 84 50 37 52 71 53 50 54
REMARK SMILES IDX 70 55 51 56 54 57 69 58 89 59 52 60 53 61 68 63 90 64 55 65
REMARK SMILES IDX 38 66 39 67 48 68 40 69 41 70 47 71 49 72 42 73 43 74 44 75
REMARK SMILES IDX 45 76 46 77 72 78 73 79 82 80 74 81 75 82 81 83 83 84 76 85
REMARK SMILES IDX 77 86 78 87 79 88 80 89 56 90 57 91 66 92 58 93 59 94 65 95
REMARK SMILES IDX 67 96 60 97 61 98 62 99 63 100 64 101
REMARK H PARENT 6 21 88 51 54 62
REMARK Flexibility Score: inf
ROOT
ATOM      1  C   UNL A   1      32.970  35.677  29.792  1.00  0.00     0.313 C 
ATOM      2  O   UNL A   1      33.282  36.738  29.260  1.00  0.00    -0.252 OA
ENDROOT
BRANCH   1   3
ATOM      3  C   UNL A   1      33.075  35.466  31.298  1.00  0.00     0.126 C 
ATOM      4  C   UNL A   1      32.852  36.793  32.023  1.00  0.00     0.025 C 
BRANCH   3   5
ATOM      5  C   UNL A   1      34.317  34.739  31.789  1.00  0.00    -0.031 A 
ATOM      6  C   UNL A   1      36.661  33.436  32.763  1.00  0.00     0.018 A 
ATOM      7  C   UNL A   1      36.403  33.545  31.387  1.00  0.00     0.012 A 
ATOM      8  C   UNL A   1      35.707  33.973  33.636  1.00  0.00     0.131 A 
ATOM      9  C   UNL A   1      35.256  34.190  30.907  1.00  0.00     0.005 A 
ATOM     10  C   UNL A   1      34.559  34.614  33.166  1.00  0.00     0.044 A 
ATOM     11  F   UNL A   1      35.896  33.919  34.964  1.00  0.00    -0.206 F 
BRANCH   6  12
ATOM     12  C   UNL A   1      37.910  32.822  33.249  1.00  0.00    -0.012 A 
ATOM     13  C   UNL A   1      39.207  30.906  33.982  1.00  0.00     0.133 A 
ATOM     14  C   UNL A   1      40.313  31.714  34.237  1.00  0.00     0.047 A 
ATOM     15  C   UNL A   1      38.010  31.444  33.506  1.00  0.00     0.056 A 
ATOM     16  C   UNL A   1      40.232  33.079  33.987  1.00  0.00     0.004 A 
ATOM     17  C   UNL A   1      39.041  33.625  33.499  1.00  0.00     0.009 A 
BRANCH  13  18
ATOM     18  O   UNL A   1      39.324  29.557  34.359  1.00  0.00    -0.410 OA
BRANCH  18  19
ATOM     19  C   UNL A   1      39.680  28.618  33.402  1.00  0.00     0.412 C 
ATOM     20  N   UNL A   1      40.813  27.925  33.733  1.00  0.00    -0.321 N 
ATOM     21  H   UNL A   1      41.094  27.215  33.111  1.00  0.00     0.167 HD
ATOM     22  O   UNL A   1      39.101  28.415  32.342  1.00  0.00    -0.224 OA
BRANCH  20  23
ATOM     23  C   UNL A   1      41.641  28.124  34.907  1.00  0.00     0.119 C 
BRANCH  23  24
ATOM     24  C   UNL A   1      42.566  26.941  35.180  1.00  0.00     0.021 C 
BRANCH  24  25
ATOM     25  C   UNL A   1      42.684  26.534  36.654  1.00  0.00     0.002 C 
BRANCH  25  26
ATOM     26  C   UNL A   1      43.240  25.131  36.916  1.00  0.00    -0.003 C 
ATOM     27  C   UNL A   1      44.759  25.066  36.916  1.00  0.00     0.004 C 
ENDBRANCH  25  26
ENDBRANCH  24  25
ENDBRANCH  23  24
ENDBRANCH  20  23
ENDBRANCH  18  19
ENDBRANCH  13  18
ENDBRANCH   6  12
ENDBRANCH   3   5
ENDBRANCH   1   3
BRANCH   1  28
ATOM     28  O   UNL A   1      32.555  34.576  29.112  1.00  0.00    -0.462 OA
BRANCH  28  29
ATOM     29  C   UNL A   1      33.373  34.153  28.004  1.00  0.00     0.274 C 
BRANCH  29  30
ATOM     30  C   UNL A   1      33.196  32.658  27.722  1.00  0.00     0.275 C 
BRANCH  30  31
ATOM     31  O   UNL A   1      34.162  31.870  28.440  1.00  0.00    -0.458 OA
BRANCH  31  32
ATOM     32  C   UNL A   1      34.269  30.585  28.030  1.00  0.00     0.338 C 
ATOM     33  O   UNL A   1      33.417  29.913  27.475  1.00  0.00    -0.246 OA
BRANCH  32  34
ATOM     34  C   UNL A   1      35.647  30.116  28.235  1.00  0.00     0.060 A 
ATOM     35  C   UNL A   1      36.040  29.778  29.531  1.00  0.00     0.016 A 
ATOM     36  C   UNL A   1      36.565  30.093  27.184  1.00  0.00     0.016 A 
ATOM     37  C   UNL A   1      37.361  29.429  29.791  1.00  0.00     0.010 A 
ATOM     38  C   UNL A   1      37.890  29.730  27.444  1.00  0.00     0.010 A 
ATOM     39  C   UNL A   1      38.298  29.410  28.752  1.00  0.00    -0.014 A 
BRANCH  39  40
ATOM     40  C   UNL A   1      39.717  29.095  29.048  1.00  0.00     0.031 A 
ATOM     41  C   UNL A   1      40.599  30.139  29.670  1.00  0.00     0.074 A 
ATOM     42  C   UNL A   1      40.200  27.868  28.775  1.00  0.00     0.049 A 
ATOM     43  N   UNL A   1      41.882  30.092  29.921  1.00  0.00    -0.248 NA
ATOM     44  C   UNL A   1      39.954  31.402  30.060  1.00  0.00     0.031 C 
ATOM     45  C   UNL A   1      39.425  26.762  28.210  1.00  0.00     0.029 A 
ATOM     46  N   UNL A   1      41.458  27.347  28.932  1.00  0.00    -0.354 N 
ATOM     47  C   UNL A   1      42.203  31.323  30.481  1.00  0.00     0.074 A 
ATOM     48  C   UNL A   1      40.983  32.101  30.519  1.00  0.00     0.031 C 
ATOM     49  C   UNL A   1      40.226  25.694  28.065  1.00  0.00     0.029 A 
ATOM     50  C   UNL A   1      41.578  26.053  28.485  1.00  0.00     0.049 A 
ATOM     51  H   UNL A   1      42.206  27.852  29.329  1.00  0.00     0.167 HD
ATOM     52  C   UNL A   1      43.406  31.760  30.923  1.00  0.00     0.037 A 
ATOM     53  C   UNL A   1      42.662  25.258  28.394  1.00  0.00     0.037 A 
ATOM     54  C   UNL A   1      44.611  30.972  30.897  1.00  0.00     0.049 A 
ATOM     55  C   UNL A   1      43.996  25.783  28.852  1.00  0.00     0.074 A 
ATOM     56  C   UNL A   1      45.881  31.324  31.322  1.00  0.00     0.029 A 
ATOM     57  N   UNL A   1      44.696  29.671  30.422  1.00  0.00    -0.354 N 
ATOM     58  N   UNL A   1      44.289  26.956  29.361  1.00  0.00    -0.248 NA
ATOM     59  C   UNL A   1      45.148  24.881  28.717  1.00  0.00     0.031 C 
ATOM     60  C   UNL A   1      46.739  30.246  31.077  1.00  0.00     0.029 A 
ATOM     61  C   UNL A   1      45.997  29.209  30.533  1.00  0.00     0.049 A 
ATOM     62  H   UNL A   1      43.942  29.152  30.060  1.00  0.00     0.167 HD
ATOM     63  C   UNL A   1      45.654  26.926  29.623  1.00  0.00     0.074 A 
ATOM     64  C   UNL A   1      46.126  25.615  29.229  1.00  0.00     0.031 C 
ATOM     65  C   UNL A   1      46.445  27.897  30.142  1.00  0.00     0.037 A 
BRANCH  52  66
ATOM     66  C   UNL A   1      43.486  33.163  31.455  1.00  0.00     0.058 A 
ATOM     67  C   UNL A   1      43.546  33.428  32.832  1.00  0.00     0.135 A 
ATOM     68  C   UNL A   1      43.541  34.256  30.575  1.00  0.00     0.135 A 
ATOM     69  F   UNL A   1      43.480  32.421  33.717  1.00  0.00    -0.206 F 
ATOM     70  C   UNL A   1      43.640  34.728  33.319  1.00  0.00     0.059 A 
ATOM     71  C   UNL A   1      43.657  35.562  31.039  1.00  0.00     0.059 A 
ATOM     72  F   UNL A   1      43.485  34.058  29.248  1.00  0.00    -0.206 F 
ATOM     73  C   UNL A   1      43.694  35.790  32.414  1.00  0.00     0.060 A 
BRANCH  73  74
ATOM     74  S   UNL A   1      43.827  37.471  33.058  1.00  0.00     0.124 S 
ATOM     75  O   UNL A   1      45.121  37.424  33.733  1.00  0.00    -0.237 OA
ATOM     76  O   UNL A   1      43.777  38.279  31.845  1.00  0.00    -0.237 OA
ATOM     77  O   UNL A   1      42.667  37.592  33.936  1.00  0.00    -0.744 OA
ENDBRANCH  73  74
ENDBRANCH  52  66
BRANCH  53  78
ATOM     78  C   UNL A   1      42.537  23.892  27.822  1.00  0.00     0.058 A 
ATOM     79  C   UNL A   1      42.438  22.765  28.649  1.00  0.00     0.135 A 
ATOM     80  C   UNL A   1      42.516  23.689  26.433  1.00  0.00     0.135 A 
ATOM     81  F   UNL A   1      42.463  22.908  29.984  1.00  0.00    -0.206 F 
ATOM     82  C   UNL A   1      42.340  21.481  28.122  1.00  0.00     0.059 A 
ATOM     83  C   UNL A   1      42.395  22.418  25.882  1.00  0.00     0.059 A 
ATOM     84  F   UNL A   1      42.597  24.736  25.599  1.00  0.00    -0.206 F 
ATOM     85  C   UNL A   1      42.321  21.318  26.735  1.00  0.00     0.060 A 
BRANCH  85  86
ATOM     86  S   UNL A   1      42.155  19.653  26.056  1.00  0.00     0.124 S 
ATOM     87  O   UNL A   1      43.073  19.707  24.924  1.00  0.00    -0.237 OA
ATOM     88  O   UNL A   1      42.571  18.816  27.177  1.00  0.00    -0.237 OA
ATOM     89  O   UNL A   1      40.737  19.571  25.717  1.00  0.00    -0.744 OA
ENDBRANCH  85  86
ENDBRANCH  53  78
BRANCH  65  90
ATOM     90  C   UNL A   1      47.897  27.567  30.341  1.00  0.00     0.058 A 
ATOM     91  C   UNL A   1      48.357  26.959  31.519  1.00  0.00     0.135 A 
ATOM     92  C   UNL A   1      48.830  27.821  29.323  1.00  0.00     0.135 A 
ATOM     93  F   UNL A   1      47.506  26.702  32.525  1.00  0.00    -0.206 F 
ATOM     94  C   UNL A   1      49.698  26.631  31.689  1.00  0.00     0.059 A 
ATOM     95  C   UNL A   1      50.171  27.481  29.463  1.00  0.00     0.059 A 
ATOM     96  F   UNL A   1      48.437  28.393  28.174  1.00  0.00    -0.206 F 
ATOM     97  C   UNL A   1      50.598  26.897  30.655  1.00  0.00     0.060 A 
BRANCH  97  98
ATOM     98  S   UNL A   1      52.330  26.437  30.871  1.00  0.00     0.124 S 
ATOM     99  O   UNL A   1      52.785  26.345  29.488  1.00  0.00    -0.237 OA
ATOM    100  O   UNL A   1      52.862  27.559  31.641  1.00  0.00    -0.237 OA
ATOM    101  O   UNL A   1      52.256  25.170  31.594  1.00  0.00    -0.744 OA
ENDBRANCH  97  98
ENDBRANCH  65  90
ENDBRANCH  39  40
ENDBRANCH  32  34
ENDBRANCH  31  32
ENDBRANCH  30  31
ENDBRANCH  29  30
ENDBRANCH  28  29
ENDBRANCH   1  28
TORSDOF 22
ENDMDL
