MODEL 1
REMARK VINA RESULT:     -11.4      0.000      0.000
REMARK SMILES C[C@H](NC(=O)c1ccc(C(C)(C)C)cc1)C(=O)N[C@@H](C(=O)OCCOC(=O)c1ccc(-c2c3nc(c(-c4c(F)cc(S(=O)(=O)[O-])cc4F)c4ccc([nH]4)c(-c4c(F)cc(S(=O)(=O)[O-])cc4F)c4nc(c(-c5c(F)cc(S(=O)(=O)[O-])cc5F)c5ccc2[nH]5)C=C4)C=C3)cc1)[C@H](C)O
REMARK SMILES IDX 23 1 22 2 20 3 21 4 19 5 18 6 16 7 17 8 2 10 1 11 3 12 4 13
REMARK SMILES IDX 5 15 6 16 7 17 15 18 8 19 14 20 9 21 10 22 11 23 12 24 13 25
REMARK SMILES IDX 94 26 95 27 96 28 24 30 25 31 26 32 27 33 28 34 29 35 93 36
REMARK SMILES IDX 30 37 92 38 31 39 32 40 33 41 86 42 34 43 91 44 85 45 87 46
REMARK SMILES IDX 35 47 90 48 84 49 83 50 36 52 70 53 49 54 69 55 50 56 53 57
REMARK SMILES IDX 68 58 88 59 51 60 52 61 67 63 89 64 54 65 37 66 38 67 47 68
REMARK SMILES IDX 39 69 40 70 46 71 48 72 41 73 42 74 43 75 44 76 45 77 71 78
REMARK SMILES IDX 72 79 81 80 73 81 74 82 80 83 82 84 75 85 76 86 77 87 78 88
REMARK SMILES IDX 79 89 55 90 56 91 65 92 57 93 58 94 64 95 66 96 59 97 60 98
REMARK SMILES IDX 61 99 62 100 63 101
REMARK H PARENT 18 9 3 14 96 29 87 51 53 62
REMARK Flexibility Score: inf
ROOT
ATOM      1  C   UNL A   1      35.566  23.289  23.921  1.00  0.00     0.274 C 
ENDROOT
BRANCH   1   2
ATOM      2  O   UNL A   1      34.955  23.920  25.066  1.00  0.00    -0.460 OA
BRANCH   2   3
ATOM      3  C   UNL A   1      34.417  23.087  25.998  1.00  0.00     0.331 C 
ATOM      4  O   UNL A   1      34.956  22.795  27.060  1.00  0.00    -0.250 OA
BRANCH   3   5
ATOM      5  C   UNL A   1      33.017  22.584  25.626  1.00  0.00     0.221 C 
BRANCH   5   6
ATOM      6  N   UNL A   1      31.915  23.190  26.384  1.00  0.00    -0.339 N 
ATOM      7  C   UNL A   1      31.011  24.133  25.994  1.00  0.00     0.243 C 
ATOM      8  O   UNL A   1      30.103  24.443  26.765  1.00  0.00    -0.273 OA
ATOM      9  H   UNL A   1      31.817  22.870  27.310  1.00  0.00     0.164 HD
BRANCH   7  10
ATOM     10  C   UNL A   1      31.117  24.772  24.594  1.00  0.00     0.168 C 
ATOM     11  C   UNL A   1      30.772  23.752  23.506  1.00  0.00     0.041 C 
BRANCH  10  12
ATOM     12  N   UNL A   1      32.434  25.423  24.509  1.00  0.00    -0.341 N 
ATOM     13  C   UNL A   1      32.806  26.716  24.258  1.00  0.00     0.251 C 
ATOM     14  H   UNL A   1      33.190  24.814  24.662  1.00  0.00     0.164 HD
ATOM     15  O   UNL A   1      33.990  27.034  24.319  1.00  0.00    -0.269 OA
BRANCH  13  16
ATOM     16  C   UNL A   1      31.803  27.706  23.837  1.00  0.00     0.039 A 
ATOM     17  C   UNL A   1      31.083  27.454  22.672  1.00  0.00     0.014 A 
ATOM     18  C   UNL A   1      31.542  28.845  24.593  1.00  0.00     0.014 A 
ATOM     19  C   UNL A   1      30.019  28.289  22.326  1.00  0.00     0.005 A 
ATOM     20  C   UNL A   1      30.463  29.667  24.250  1.00  0.00     0.005 A 
ATOM     21  C   UNL A   1      29.649  29.379  23.139  1.00  0.00    -0.043 A 
BRANCH  21  22
ATOM     22  C   UNL A   1      28.399  30.212  22.802  1.00  0.00    -0.013 C 
ATOM     23  C   UNL A   1      28.441  30.585  21.309  1.00  0.00     0.016 C 
ATOM     24  C   UNL A   1      27.105  29.413  23.090  1.00  0.00     0.016 C 
ATOM     25  C   UNL A   1      28.296  31.515  23.628  1.00  0.00     0.016 C 
ENDBRANCH  21  22
ENDBRANCH  13  16
ENDBRANCH  10  12
ENDBRANCH   7  10
ENDBRANCH   5   6
BRANCH   5  26
ATOM     26  C   UNL A   1      32.948  21.048  25.740  1.00  0.00     0.145 C 
ATOM     27  C   UNL A   1      33.875  20.358  24.741  1.00  0.00     0.041 C 
BRANCH  26  28
ATOM     28  O   UNL A   1      31.629  20.562  25.471  1.00  0.00    -0.391 OA
ATOM     29  H   UNL A   1      31.615  20.124  24.606  1.00  0.00     0.211 HD
ENDBRANCH  26  28
ENDBRANCH   5  26
ENDBRANCH   3   5
ENDBRANCH   2   3
ENDBRANCH   1   2
BRANCH   1  30
ATOM     30  C   UNL A   1      36.949  22.729  24.264  1.00  0.00     0.275 C 
BRANCH  30  31
ATOM     31  O   UNL A   1      37.715  23.676  25.030  1.00  0.00    -0.458 OA
BRANCH  31  32
ATOM     32  C   UNL A   1      38.611  23.138  25.886  1.00  0.00     0.338 C 
ATOM     33  O   UNL A   1      39.002  21.980  25.915  1.00  0.00    -0.246 OA
BRANCH  32  34
ATOM     34  C   UNL A   1      39.255  24.185  26.691  1.00  0.00     0.060 A 
ATOM     35  C   UNL A   1      38.892  24.280  28.030  1.00  0.00     0.016 A 
ATOM     36  C   UNL A   1      40.007  25.197  26.096  1.00  0.00     0.016 A 
ATOM     37  C   UNL A   1      39.169  25.438  28.743  1.00  0.00     0.010 A 
ATOM     38  C   UNL A   1      40.418  26.292  26.868  1.00  0.00     0.010 A 
ATOM     39  C   UNL A   1      39.984  26.439  28.199  1.00  0.00    -0.014 A 
BRANCH  39  40
ATOM     40  C   UNL A   1      40.396  27.603  29.034  1.00  0.00     0.031 A 
ATOM     41  C   UNL A   1      41.706  27.599  29.777  1.00  0.00     0.074 A 
ATOM     42  C   UNL A   1      39.586  28.681  29.131  1.00  0.00     0.049 A 
ATOM     43  N   UNL A   1      42.108  28.387  30.741  1.00  0.00    -0.248 NA
ATOM     44  C   UNL A   1      42.686  26.569  29.399  1.00  0.00     0.031 C 
ATOM     45  C   UNL A   1      38.313  28.856  28.426  1.00  0.00     0.029 A 
ATOM     46  N   UNL A   1      39.714  29.839  29.858  1.00  0.00    -0.354 N 
ATOM     47  C   UNL A   1      43.352  27.907  31.135  1.00  0.00     0.074 A 
ATOM     48  C   UNL A   1      43.649  26.770  30.290  1.00  0.00     0.031 C 
ATOM     49  C   UNL A   1      37.811  30.064  28.705  1.00  0.00     0.029 A 
ATOM     50  C   UNL A   1      38.648  30.696  29.714  1.00  0.00     0.049 A 
ATOM     51  H   UNL A   1      40.494  30.036  30.427  1.00  0.00     0.167 HD
ATOM     52  C   UNL A   1      44.159  28.372  32.119  1.00  0.00     0.037 A 
ATOM     53  C   UNL A   1      38.325  31.826  30.369  1.00  0.00     0.037 A 
ATOM     54  C   UNL A   1      43.879  29.545  32.909  1.00  0.00     0.049 A 
ATOM     55  C   UNL A   1      39.201  32.291  31.491  1.00  0.00     0.074 A 
ATOM     56  C   UNL A   1      44.644  30.111  33.914  1.00  0.00     0.029 A 
ATOM     57  N   UNL A   1      42.752  30.342  32.771  1.00  0.00    -0.354 N 
ATOM     58  N   UNL A   1      40.325  31.771  31.921  1.00  0.00    -0.248 NA
ATOM     59  C   UNL A   1      38.744  33.463  32.247  1.00  0.00     0.031 C 
ATOM     60  C   UNL A   1      43.964  31.232  34.405  1.00  0.00     0.029 A 
ATOM     61  C   UNL A   1      42.791  31.383  33.684  1.00  0.00     0.049 A 
ATOM     62  H   UNL A   1      42.030  30.190  32.119  1.00  0.00     0.167 HD
ATOM     63  C   UNL A   1      40.703  32.543  33.012  1.00  0.00     0.074 A 
ATOM     64  C   UNL A   1      39.703  33.583  33.156  1.00  0.00     0.031 C 
ATOM     65  C   UNL A   1      41.775  32.395  33.825  1.00  0.00     0.037 A 
BRANCH  52  66
ATOM     66  C   UNL A   1      45.403  27.587  32.436  1.00  0.00     0.058 A 
ATOM     67  C   UNL A   1      45.398  26.499  33.320  1.00  0.00     0.135 A 
ATOM     68  C   UNL A   1      46.616  27.908  31.801  1.00  0.00     0.135 A 
ATOM     69  F   UNL A   1      44.269  26.157  33.963  1.00  0.00    -0.206 F 
ATOM     70  C   UNL A   1      46.555  25.771  33.585  1.00  0.00     0.059 A 
ATOM     71  C   UNL A   1      47.779  27.182  32.034  1.00  0.00     0.059 A 
ATOM     72  F   UNL A   1      46.676  28.939  30.943  1.00  0.00    -0.206 F 
ATOM     73  C   UNL A   1      47.742  26.123  32.939  1.00  0.00     0.060 A 
BRANCH  73  74
ATOM     74  S   UNL A   1      49.239  25.171  33.287  1.00  0.00     0.124 S 
ATOM     75  O   UNL A   1      49.766  24.960  31.943  1.00  0.00    -0.237 OA
ATOM     76  O   UNL A   1      50.003  26.084  34.131  1.00  0.00    -0.237 OA
ATOM     77  O   UNL A   1      48.734  23.978  33.958  1.00  0.00    -0.744 OA
ENDBRANCH  73  74
ENDBRANCH  52  66
BRANCH  53  78
ATOM     78  C   UNL A   1      37.062  32.532  30.027  1.00  0.00     0.058 A 
ATOM     79  C   UNL A   1      35.873  32.251  30.712  1.00  0.00     0.135 A 
ATOM     80  C   UNL A   1      37.041  33.553  29.064  1.00  0.00     0.135 A 
ATOM     81  F   UNL A   1      35.843  31.276  31.633  1.00  0.00    -0.206 F 
ATOM     82  C   UNL A   1      34.708  32.970  30.465  1.00  0.00     0.059 A 
ATOM     83  C   UNL A   1      35.896  34.302  28.819  1.00  0.00     0.059 A 
ATOM     84  F   UNL A   1      38.160  33.867  28.391  1.00  0.00    -0.206 F 
ATOM     85  C   UNL A   1      34.733  34.002  29.525  1.00  0.00     0.060 A 
BRANCH  85  86
ATOM     86  S   UNL A   1      33.249  35.004  29.287  1.00  0.00     0.124 S 
ATOM     87  O   UNL A   1      32.536  34.232  28.277  1.00  0.00    -0.237 OA
ATOM     88  O   UNL A   1      32.660  35.010  30.622  1.00  0.00    -0.237 OA
ATOM     89  O   UNL A   1      33.784  36.288  28.843  1.00  0.00    -0.744 OA
ENDBRANCH  85  86
ENDBRANCH  53  78
BRANCH  65  90
ATOM     90  C   UNL A   1      41.913  33.378  34.949  1.00  0.00     0.058 A 
ATOM     91  C   UNL A   1      41.384  33.106  36.220  1.00  0.00     0.135 A 
ATOM     92  C   UNL A   1      42.602  34.586  34.765  1.00  0.00     0.135 A 
ATOM     93  F   UNL A   1      40.705  31.970  36.440  1.00  0.00    -0.206 F 
ATOM     94  C   UNL A   1      41.525  34.006  37.270  1.00  0.00     0.059 A 
ATOM     95  C   UNL A   1      42.770  35.493  35.805  1.00  0.00     0.059 A 
ATOM     96  F   UNL A   1      43.127  34.888  33.567  1.00  0.00    -0.206 F 
ATOM     97  C   UNL A   1      42.218  35.198  37.052  1.00  0.00     0.060 A 
BRANCH  97  98
ATOM     98  S   UNL A   1      42.422  36.347  38.430  1.00  0.00     0.124 S 
ATOM     99  O   UNL A   1      43.081  37.473  37.777  1.00  0.00    -0.237 OA
ATOM    100  O   UNL A   1      41.045  36.577  38.854  1.00  0.00    -0.237 OA
ATOM    101  O   UNL A   1      43.245  35.599  39.375  1.00  0.00    -0.744 OA
ENDBRANCH  97  98
ENDBRANCH  65  90
ENDBRANCH  39  40
ENDBRANCH  32  34
ENDBRANCH  31  32
ENDBRANCH  30  31
ENDBRANCH   1  30
TORSDOF 21
ENDMDL
MODEL 2
REMARK VINA RESULT:     -11.1      1.388      2.090
REMARK SMILES C[C@H](NC(=O)c1ccc(C(C)(C)C)cc1)C(=O)N[C@@H](C(=O)OCCOC(=O)c1ccc(-c2c3nc(c(-c4c(F)cc(S(=O)(=O)[O-])cc4F)c4ccc([nH]4)c(-c4c(F)cc(S(=O)(=O)[O-])cc4F)c4nc(c(-c5c(F)cc(S(=O)(=O)[O-])cc5F)c5ccc2[nH]5)C=C4)C=C3)cc1)[C@H](C)O
REMARK SMILES IDX 23 1 22 2 20 3 21 4 19 5 18 6 16 7 17 8 2 10 1 11 3 12 4 13
REMARK SMILES IDX 5 15 6 16 7 17 15 18 8 19 14 20 9 21 10 22 11 23 12 24 13 25
REMARK SMILES IDX 94 26 95 27 96 28 24 30 25 31 26 32 27 33 28 34 29 35 93 36
REMARK SMILES IDX 30 37 92 38 31 39 32 40 33 41 86 42 34 43 91 44 85 45 87 46
REMARK SMILES IDX 35 47 90 48 84 49 83 50 36 52 70 53 49 54 69 55 50 56 53 57
REMARK SMILES IDX 68 58 88 59 51 60 52 61 67 63 89 64 54 65 37 66 38 67 47 68
REMARK SMILES IDX 39 69 40 70 46 71 48 72 41 73 42 74 43 75 44 76 45 77 71 78
REMARK SMILES IDX 72 79 81 80 73 81 74 82 80 83 82 84 75 85 76 86 77 87 78 88
REMARK SMILES IDX 79 89 55 90 56 91 65 92 57 93 58 94 64 95 66 96 59 97 60 98
REMARK SMILES IDX 61 99 62 100 63 101
REMARK H PARENT 18 9 3 14 96 29 87 51 53 62
REMARK Flexibility Score: inf
ROOT
ATOM      1  C   UNL A   1      35.833  22.875  26.628  1.00  0.00     0.274 C 
ENDROOT
BRANCH   1   2
ATOM      2  O   UNL A   1      34.400  22.923  26.459  1.00  0.00    -0.460 OA
BRANCH   2   3
ATOM      3  C   UNL A   1      33.770  21.726  26.320  1.00  0.00     0.331 C 
ATOM      4  O   UNL A   1      33.613  20.916  27.227  1.00  0.00    -0.250 OA
BRANCH   3   5
ATOM      5  C   UNL A   1      33.201  21.499  24.914  1.00  0.00     0.221 C 
BRANCH   5   6
ATOM      6  N   UNL A   1      31.961  22.227  24.618  1.00  0.00    -0.339 N 
ATOM      7  C   UNL A   1      31.740  23.231  23.722  1.00  0.00     0.243 C 
ATOM      8  O   UNL A   1      30.592  23.648  23.567  1.00  0.00    -0.273 OA
ATOM      9  H   UNL A   1      31.176  21.951  25.144  1.00  0.00     0.164 HD
BRANCH   7  10
ATOM     10  C   UNL A   1      32.912  23.807  22.902  1.00  0.00     0.168 C 
ATOM     11  C   UNL A   1      33.871  24.589  23.803  1.00  0.00     0.041 C 
BRANCH  10  12
ATOM     12  N   UNL A   1      32.332  24.526  21.756  1.00  0.00    -0.341 N 
ATOM     13  C   UNL A   1      32.016  25.843  21.562  1.00  0.00     0.251 C 
ATOM     14  H   UNL A   1      32.133  23.950  20.984  1.00  0.00     0.164 HD
ATOM     15  O   UNL A   1      31.606  26.218  20.467  1.00  0.00    -0.269 OA
BRANCH  13  16
ATOM     16  C   UNL A   1      32.090  26.794  22.681  1.00  0.00     0.039 A 
ATOM     17  C   UNL A   1      31.000  26.877  23.544  1.00  0.00     0.014 A 
ATOM     18  C   UNL A   1      33.226  27.565  22.908  1.00  0.00     0.014 A 
ATOM     19  C   UNL A   1      31.095  27.652  24.701  1.00  0.00     0.005 A 
ATOM     20  C   UNL A   1      33.321  28.324  24.079  1.00  0.00     0.005 A 
ATOM     21  C   UNL A   1      32.279  28.344  25.024  1.00  0.00    -0.043 A 
BRANCH  21  22
ATOM     22  C   UNL A   1      32.402  29.092  26.364  1.00  0.00    -0.013 C 
ATOM     23  C   UNL A   1      31.790  30.495  26.206  1.00  0.00     0.016 C 
ATOM     24  C   UNL A   1      31.658  28.336  27.491  1.00  0.00     0.016 C 
ATOM     25  C   UNL A   1      33.865  29.248  26.840  1.00  0.00     0.016 C 
ENDBRANCH  21  22
ENDBRANCH  13  16
ENDBRANCH  10  12
ENDBRANCH   7  10
ENDBRANCH   5   6
BRANCH   5  26
ATOM     26  C   UNL A   1      33.000  19.992  24.651  1.00  0.00     0.145 C 
ATOM     27  C   UNL A   1      32.438  19.724  23.258  1.00  0.00     0.041 C 
BRANCH  26  28
ATOM     28  O   UNL A   1      32.072  19.419  25.580  1.00  0.00    -0.391 OA
ATOM     29  H   UNL A   1      31.191  19.381  25.175  1.00  0.00     0.211 HD
ENDBRANCH  26  28
ENDBRANCH   5  26
ENDBRANCH   3   5
ENDBRANCH   2   3
ENDBRANCH   1   2
BRANCH   1  30
ATOM     30  C   UNL A   1      36.551  22.756  25.281  1.00  0.00     0.275 C 
BRANCH  30  31
ATOM     31  O   UNL A   1      37.724  23.590  25.245  1.00  0.00    -0.458 OA
BRANCH  31  32
ATOM     32  C   UNL A   1      38.788  23.122  25.932  1.00  0.00     0.338 C 
ATOM     33  O   UNL A   1      39.322  22.028  25.813  1.00  0.00    -0.246 OA
BRANCH  32  34
ATOM     34  C   UNL A   1      39.398  24.189  26.737  1.00  0.00     0.060 A 
ATOM     35  C   UNL A   1      39.031  24.273  28.076  1.00  0.00     0.016 A 
ATOM     36  C   UNL A   1      40.116  25.225  26.142  1.00  0.00     0.016 A 
ATOM     37  C   UNL A   1      39.270  25.440  28.788  1.00  0.00     0.010 A 
ATOM     38  C   UNL A   1      40.492  26.332  26.914  1.00  0.00     0.010 A 
ATOM     39  C   UNL A   1      40.052  26.466  28.244  1.00  0.00    -0.014 A 
BRANCH  39  40
ATOM     40  C   UNL A   1      40.426  27.643  29.079  1.00  0.00     0.031 A 
ATOM     41  C   UNL A   1      41.716  27.664  29.856  1.00  0.00     0.074 A 
ATOM     42  C   UNL A   1      39.600  28.710  29.144  1.00  0.00     0.049 A 
ATOM     43  N   UNL A   1      42.082  28.466  30.824  1.00  0.00    -0.248 NA
ATOM     44  C   UNL A   1      42.720  26.644  29.514  1.00  0.00     0.031 C 
ATOM     45  C   UNL A   1      38.344  28.862  28.404  1.00  0.00     0.029 A 
ATOM     46  N   UNL A   1      39.693  29.877  29.864  1.00  0.00    -0.354 N 
ATOM     47  C   UNL A   1      43.321  28.007  31.254  1.00  0.00     0.074 A 
ATOM     48  C   UNL A   1      43.657  26.866  30.428  1.00  0.00     0.031 C 
ATOM     49  C   UNL A   1      37.818  30.066  28.659  1.00  0.00     0.029 A 
ATOM     50  C   UNL A   1      38.620  30.717  29.684  1.00  0.00     0.049 A 
ATOM     51  H   UNL A   1      40.455  30.090  30.451  1.00  0.00     0.167 HD
ATOM     52  C   UNL A   1      44.096  28.491  32.255  1.00  0.00     0.037 A 
ATOM     53  C   UNL A   1      38.264  31.849  30.319  1.00  0.00     0.037 A 
ATOM     54  C   UNL A   1      43.779  29.667  33.026  1.00  0.00     0.049 A 
ATOM     55  C   UNL A   1      39.104  32.336  31.459  1.00  0.00     0.074 A 
ATOM     56  C   UNL A   1      44.510  30.253  34.046  1.00  0.00     0.029 A 
ATOM     57  N   UNL A   1      42.645  30.448  32.851  1.00  0.00    -0.354 N 
ATOM     58  N   UNL A   1      40.223  31.836  31.924  1.00  0.00    -0.248 NA
ATOM     59  C   UNL A   1      38.611  33.509  32.192  1.00  0.00     0.031 C 
ATOM     60  C   UNL A   1      43.802  31.369  34.508  1.00  0.00     0.029 A 
ATOM     61  C   UNL A   1      42.646  31.497  33.755  1.00  0.00     0.049 A 
ATOM     62  H   UNL A   1      41.944  30.280  32.182  1.00  0.00     0.167 HD
ATOM     63  C   UNL A   1      40.561  32.622  33.017  1.00  0.00     0.074 A 
ATOM     64  C   UNL A   1      39.543  33.649  33.125  1.00  0.00     0.031 C 
ATOM     65  C   UNL A   1      41.614  32.497  33.860  1.00  0.00     0.037 A 
BRANCH  52  66
ATOM     66  C   UNL A   1      45.341  27.726  32.611  1.00  0.00     0.058 A 
ATOM     67  C   UNL A   1      46.591  28.026  32.052  1.00  0.00     0.135 A 
ATOM     68  C   UNL A   1      45.282  26.699  33.570  1.00  0.00     0.135 A 
ATOM     69  F   UNL A   1      46.701  28.989  31.123  1.00  0.00    -0.206 F 
ATOM     70  C   UNL A   1      47.737  27.320  32.411  1.00  0.00     0.059 A 
ATOM     71  C   UNL A   1      46.418  25.994  33.959  1.00  0.00     0.059 A 
ATOM     72  F   UNL A   1      44.111  26.372  34.138  1.00  0.00    -0.206 F 
ATOM     73  C   UNL A   1      47.639  26.303  33.363  1.00  0.00     0.060 A 
BRANCH  73  74
ATOM     74  S   UNL A   1      49.131  25.393  33.824  1.00  0.00     0.124 S 
ATOM     75  O   UNL A   1      48.605  24.043  33.997  1.00  0.00    -0.237 OA
ATOM     76  O   UNL A   1      49.993  25.594  32.663  1.00  0.00    -0.237 OA
ATOM     77  O   UNL A   1      49.570  26.059  35.046  1.00  0.00    -0.744 OA
ENDBRANCH  73  74
ENDBRANCH  52  66
BRANCH  53  78
ATOM     78  C   UNL A   1      37.002  32.534  29.938  1.00  0.00     0.058 A 
ATOM     79  C   UNL A   1      35.800  32.248  30.598  1.00  0.00     0.135 A 
ATOM     80  C   UNL A   1      36.991  33.542  28.959  1.00  0.00     0.135 A 
ATOM     81  F   UNL A   1      35.759  31.286  31.531  1.00  0.00    -0.206 F 
ATOM     82  C   UNL A   1      34.633  32.949  30.313  1.00  0.00     0.059 A 
ATOM     83  C   UNL A   1      35.844  34.273  28.677  1.00  0.00     0.059 A 
ATOM     84  F   UNL A   1      38.122  33.860  28.309  1.00  0.00    -0.206 F 
ATOM     85  C   UNL A   1      34.667  33.969  29.359  1.00  0.00     0.060 A 
BRANCH  85  86
ATOM     86  S   UNL A   1      33.178  34.948  29.072  1.00  0.00     0.124 S 
ATOM     87  O   UNL A   1      33.743  36.211  28.612  1.00  0.00    -0.237 OA
ATOM     88  O   UNL A   1      32.475  34.158  28.066  1.00  0.00    -0.237 OA
ATOM     89  O   UNL A   1      32.542  34.980  30.386  1.00  0.00    -0.744 OA
ENDBRANCH  85  86
ENDBRANCH  53  78
BRANCH  65  90
ATOM     90  C   UNL A   1      41.708  33.492  34.977  1.00  0.00     0.058 A 
ATOM     91  C   UNL A   1      41.193  33.204  36.250  1.00  0.00     0.135 A 
ATOM     92  C   UNL A   1      42.343  34.728  34.785  1.00  0.00     0.135 A 
ATOM     93  F   UNL A   1      40.565  32.040  36.478  1.00  0.00    -0.206 F 
ATOM     94  C   UNL A   1      41.294  34.116  37.295  1.00  0.00     0.059 A 
ATOM     95  C   UNL A   1      42.470  35.648  35.820  1.00  0.00     0.059 A 
ATOM     96  F   UNL A   1      42.853  35.046  33.585  1.00  0.00    -0.206 F 
ATOM     97  C   UNL A   1      41.933  35.336  37.069  1.00  0.00     0.060 A 
BRANCH  97  98
ATOM     98  S   UNL A   1      42.086  36.501  38.440  1.00  0.00     0.124 S 
ATOM     99  O   UNL A   1      40.741  37.063  38.498  1.00  0.00    -0.237 OA
ATOM    100  O   UNL A   1      42.459  35.633  39.551  1.00  0.00    -0.237 OA
ATOM    101  O   UNL A   1      43.131  37.416  37.991  1.00  0.00    -0.744 OA
ENDBRANCH  97  98
ENDBRANCH  65  90
ENDBRANCH  39  40
ENDBRANCH  32  34
ENDBRANCH  31  32
ENDBRANCH  30  31
ENDBRANCH   1  30
TORSDOF 21
ENDMDL
MODEL 3
REMARK VINA RESULT:     -10.7      2.181      2.825
REMARK SMILES C[C@H](NC(=O)c1ccc(C(C)(C)C)cc1)C(=O)N[C@@H](C(=O)OCCOC(=O)c1ccc(-c2c3nc(c(-c4c(F)cc(S(=O)(=O)[O-])cc4F)c4ccc([nH]4)c(-c4c(F)cc(S(=O)(=O)[O-])cc4F)c4nc(c(-c5c(F)cc(S(=O)(=O)[O-])cc5F)c5ccc2[nH]5)C=C4)C=C3)cc1)[C@H](C)O
REMARK SMILES IDX 23 1 22 2 20 3 21 4 19 5 18 6 16 7 17 8 2 10 1 11 3 12 4 13
REMARK SMILES IDX 5 15 6 16 7 17 15 18 8 19 14 20 9 21 10 22 11 23 12 24 13 25
REMARK SMILES IDX 94 26 95 27 96 28 24 30 25 31 26 32 27 33 28 34 29 35 93 36
REMARK SMILES IDX 30 37 92 38 31 39 32 40 33 41 86 42 34 43 91 44 85 45 87 46
REMARK SMILES IDX 35 47 90 48 84 49 83 50 36 52 70 53 49 54 69 55 50 56 53 57
REMARK SMILES IDX 68 58 88 59 51 60 52 61 67 63 89 64 54 65 37 66 38 67 47 68
REMARK SMILES IDX 39 69 40 70 46 71 48 72 41 73 42 74 43 75 44 76 45 77 71 78
REMARK SMILES IDX 72 79 81 80 73 81 74 82 80 83 82 84 75 85 76 86 77 87 78 88
REMARK SMILES IDX 79 89 55 90 56 91 65 92 57 93 58 94 64 95 66 96 59 97 60 98
REMARK SMILES IDX 61 99 62 100 63 101
REMARK H PARENT 18 9 3 14 96 29 87 51 53 62
REMARK Flexibility Score: inf
ROOT
ATOM      1  C   UNL A   1      36.183  23.395  26.652  1.00  0.00     0.274 C 
ENDROOT
BRANCH   1   2
ATOM      2  O   UNL A   1      34.921  23.223  25.972  1.00  0.00    -0.460 OA
BRANCH   2   3
ATOM      3  C   UNL A   1      34.321  22.010  26.116  1.00  0.00     0.331 C 
ATOM      4  O   UNL A   1      34.338  21.347  27.147  1.00  0.00    -0.250 OA
BRANCH   3   5
ATOM      5  C   UNL A   1      33.547  21.564  24.870  1.00  0.00     0.221 C 
BRANCH   5   6
ATOM      6  N   UNL A   1      32.273  22.257  24.645  1.00  0.00    -0.339 N 
ATOM      7  C   UNL A   1      31.965  23.233  23.745  1.00  0.00     0.243 C 
ATOM      8  O   UNL A   1      30.799  23.620  23.661  1.00  0.00    -0.273 OA
ATOM      9  H   UNL A   1      31.533  21.976  25.232  1.00  0.00     0.164 HD
BRANCH   7  10
ATOM     10  C   UNL A   1      33.061  23.814  22.830  1.00  0.00     0.168 C 
ATOM     11  C   UNL A   1      34.067  24.633  23.643  1.00  0.00     0.041 C 
BRANCH  10  12
ATOM     12  N   UNL A   1      32.385  24.498  21.716  1.00  0.00    -0.341 N 
ATOM     13  C   UNL A   1      31.987  25.795  21.540  1.00  0.00     0.251 C 
ATOM     14  H   UNL A   1      32.179  23.911  20.954  1.00  0.00     0.164 HD
ATOM     15  O   UNL A   1      31.502  26.145  20.468  1.00  0.00    -0.269 OA
BRANCH  13  16
ATOM     16  C   UNL A   1      32.064  26.751  22.655  1.00  0.00     0.039 A 
ATOM     17  C   UNL A   1      31.004  26.793  23.557  1.00  0.00     0.014 A 
ATOM     18  C   UNL A   1      33.177  27.566  22.840  1.00  0.00     0.014 A 
ATOM     19  C   UNL A   1      31.110  27.573  24.709  1.00  0.00     0.005 A 
ATOM     20  C   UNL A   1      33.285  28.330  24.006  1.00  0.00     0.005 A 
ATOM     21  C   UNL A   1      32.278  28.312  24.989  1.00  0.00    -0.043 A 
BRANCH  21  22
ATOM     22  C   UNL A   1      32.420  29.066  26.323  1.00  0.00    -0.013 C 
ATOM     23  C   UNL A   1      31.859  30.488  26.150  1.00  0.00     0.016 C 
ATOM     24  C   UNL A   1      31.644  28.347  27.453  1.00  0.00     0.016 C 
ATOM     25  C   UNL A   1      33.885  29.175  26.806  1.00  0.00     0.016 C 
ENDBRANCH  21  22
ENDBRANCH  13  16
ENDBRANCH  10  12
ENDBRANCH   7  10
ENDBRANCH   5   6
BRANCH   5  26
ATOM     26  C   UNL A   1      33.318  20.039  24.895  1.00  0.00     0.145 C 
ATOM     27  C   UNL A   1      32.581  19.549  23.651  1.00  0.00     0.041 C 
BRANCH  26  28
ATOM     28  O   UNL A   1      32.520  19.649  26.019  1.00  0.00    -0.391 OA
ATOM     29  H   UNL A   1      33.081  19.211  26.678  1.00  0.00     0.211 HD
ENDBRANCH  26  28
ENDBRANCH   5  26
ENDBRANCH   3   5
ENDBRANCH   2   3
ENDBRANCH   1   2
BRANCH   1  30
ATOM     30  C   UNL A   1      37.350  23.437  25.663  1.00  0.00     0.275 C 
BRANCH  30  31
ATOM     31  O   UNL A   1      38.275  24.488  25.999  1.00  0.00    -0.458 OA
BRANCH  31  32
ATOM     32  C   UNL A   1      39.356  24.101  26.711  1.00  0.00     0.338 C 
ATOM     33  O   UNL A   1      40.068  23.129  26.505  1.00  0.00    -0.246 OA
BRANCH  32  34
ATOM     34  C   UNL A   1      39.730  25.132  27.688  1.00  0.00     0.060 A 
ATOM     35  C   UNL A   1      39.006  25.186  28.874  1.00  0.00     0.016 A 
ATOM     36  C   UNL A   1      40.599  26.168  27.351  1.00  0.00     0.016 A 
ATOM     37  C   UNL A   1      39.052  26.327  29.663  1.00  0.00     0.010 A 
ATOM     38  C   UNL A   1      40.759  27.245  28.233  1.00  0.00     0.010 A 
ATOM     39  C   UNL A   1      39.968  27.351  29.392  1.00  0.00    -0.014 A 
BRANCH  39  40
ATOM     40  C   UNL A   1      40.110  28.496  30.337  1.00  0.00     0.031 A 
ATOM     41  C   UNL A   1      41.181  28.499  31.396  1.00  0.00     0.074 A 
ATOM     42  C   UNL A   1      39.268  29.549  30.247  1.00  0.00     0.049 A 
ATOM     43  N   UNL A   1      41.291  29.264  32.452  1.00  0.00    -0.248 NA
ATOM     44  C   UNL A   1      42.259  27.508  31.260  1.00  0.00     0.031 C 
ATOM     45  C   UNL A   1      38.218  29.716  29.238  1.00  0.00     0.029 A 
ATOM     46  N   UNL A   1      39.164  30.685  31.013  1.00  0.00    -0.354 N 
ATOM     47  C   UNL A   1      42.405  28.803  33.144  1.00  0.00     0.074 A 
ATOM     48  C   UNL A   1      42.950  27.702  32.377  1.00  0.00     0.031 C 
ATOM     49  C   UNL A   1      37.620  30.902  29.408  1.00  0.00     0.029 A 
ATOM     50  C   UNL A   1      38.144  31.519  30.617  1.00  0.00     0.049 A 
ATOM     51  H   UNL A   1      39.761  30.882  31.770  1.00  0.00     0.167 HD
ATOM     52  C   UNL A   1      42.912  29.253  34.317  1.00  0.00     0.037 A 
ATOM     53  C   UNL A   1      37.625  32.618  31.194  1.00  0.00     0.037 A 
ATOM     54  C   UNL A   1      42.398  30.391  35.037  1.00  0.00     0.049 A 
ATOM     55  C   UNL A   1      38.162  33.066  32.518  1.00  0.00     0.074 A 
ATOM     56  C   UNL A   1      42.855  30.942  36.221  1.00  0.00     0.029 A 
ATOM     57  N   UNL A   1      41.319  31.165  34.630  1.00  0.00    -0.354 N 
ATOM     58  N   UNL A   1      39.152  32.561  33.213  1.00  0.00    -0.248 NA
ATOM     59  C   UNL A   1      37.485  34.200  33.159  1.00  0.00     0.031 C 
ATOM     60  C   UNL A   1      42.034  32.028  36.547  1.00  0.00     0.029 A 
ATOM     61  C   UNL A   1      41.085  32.174  35.549  1.00  0.00     0.049 A 
ATOM     62  H   UNL A   1      40.798  31.017  33.808  1.00  0.00     0.167 HD
ATOM     63  C   UNL A   1      39.207  33.304  34.385  1.00  0.00     0.074 A 
ATOM     64  C   UNL A   1      38.170  34.313  34.290  1.00  0.00     0.031 C 
ATOM     65  C   UNL A   1      40.035  33.155  35.446  1.00  0.00     0.037 A 
BRANCH  52  66
ATOM     66  C   UNL A   1      44.055  28.489  34.927  1.00  0.00     0.058 A 
ATOM     67  C   UNL A   1      43.856  27.386  35.769  1.00  0.00     0.135 A 
ATOM     68  C   UNL A   1      45.381  28.848  34.622  1.00  0.00     0.135 A 
ATOM     69  F   UNL A   1      42.611  27.008  36.102  1.00  0.00    -0.206 F 
ATOM     70  C   UNL A   1      44.928  26.678  36.307  1.00  0.00     0.059 A 
ATOM     71  C   UNL A   1      46.466  28.142  35.132  1.00  0.00     0.059 A 
ATOM     72  F   UNL A   1      45.629  29.895  33.819  1.00  0.00    -0.206 F 
ATOM     73  C   UNL A   1      46.229  27.067  35.985  1.00  0.00     0.060 A 
BRANCH  73  74
ATOM     74  S   UNL A   1      47.614  26.141  36.687  1.00  0.00     0.124 S 
ATOM     75  O   UNL A   1      46.943  25.349  37.712  1.00  0.00    -0.237 OA
ATOM     76  O   UNL A   1      48.110  25.396  35.534  1.00  0.00    -0.237 OA
ATOM     77  O   UNL A   1      48.504  27.186  37.182  1.00  0.00    -0.744 OA
ENDBRANCH  73  74
ENDBRANCH  52  66
BRANCH  53  78
ATOM     78  C   UNL A   1      36.472  33.303  30.553  1.00  0.00     0.058 A 
ATOM     79  C   UNL A   1      35.177  33.171  31.071  1.00  0.00     0.135 A 
ATOM     80  C   UNL A   1      36.657  34.163  29.459  1.00  0.00     0.135 A 
ATOM     81  F   UNL A   1      34.950  32.352  32.109  1.00  0.00    -0.206 F 
ATOM     82  C   UNL A   1      34.107  33.880  30.537  1.00  0.00     0.059 A 
ATOM     83  C   UNL A   1      35.609  34.902  28.925  1.00  0.00     0.059 A 
ATOM     84  F   UNL A   1      37.882  34.332  28.936  1.00  0.00    -0.206 F 
ATOM     85  C   UNL A   1      34.335  34.753  29.470  1.00  0.00     0.060 A 
BRANCH  85  86
ATOM     86  S   UNL A   1      32.965  35.754  28.851  1.00  0.00     0.124 S 
ATOM     87  O   UNL A   1      33.675  36.853  28.209  1.00  0.00    -0.237 OA
ATOM     88  O   UNL A   1      32.281  34.825  27.957  1.00  0.00    -0.237 OA
ATOM     89  O   UNL A   1      32.229  36.096  30.065  1.00  0.00    -0.744 OA
ENDBRANCH  85  86
ENDBRANCH  53  78
BRANCH  65  90
ATOM     90  C   UNL A   1      39.842  34.103  36.592  1.00  0.00     0.058 A 
ATOM     91  C   UNL A   1      39.097  33.733  37.722  1.00  0.00     0.135 A 
ATOM     92  C   UNL A   1      40.430  35.377  36.576  1.00  0.00     0.135 A 
ATOM     93  F   UNL A   1      38.505  32.530  37.777  1.00  0.00    -0.206 F 
ATOM     94  C   UNL A   1      38.931  34.601  38.795  1.00  0.00     0.059 A 
ATOM     95  C   UNL A   1      40.291  36.255  37.645  1.00  0.00     0.059 A 
ATOM     96  F   UNL A   1      41.154  35.773  35.517  1.00  0.00    -0.206 F 
ATOM     97  C   UNL A   1      39.531  35.860  38.747  1.00  0.00     0.060 A 
BRANCH  97  98
ATOM     98  S   UNL A   1      39.334  36.969  40.158  1.00  0.00     0.124 S 
ATOM     99  O   UNL A   1      38.451  36.191  41.021  1.00  0.00    -0.237 OA
ATOM    100  O   UNL A   1      40.706  37.125  40.630  1.00  0.00    -0.237 OA
ATOM    101  O   UNL A   1      38.742  38.166  39.568  1.00  0.00    -0.744 OA
ENDBRANCH  97  98
ENDBRANCH  65  90
ENDBRANCH  39  40
ENDBRANCH  32  34
ENDBRANCH  31  32
ENDBRANCH  30  31
ENDBRANCH   1  30
TORSDOF 21
ENDMDL
