MODEL 1
REMARK VINA RESULT:     -13.3      0.000      0.000
REMARK SMILES Cc1ccc(C(=O)OCCOC(=O)c2ccc(-c3c4nc(c(-c5c(F)cc(S(=O)(=O)[O-])cc5F)c5ccc([nH]5)c(-c5c(F)cc(S(=O)(=O)[O-])cc5F)c5nc(c(-c6c(F)cc(S(=O)(=O)[O-])cc6F)c6ccc3[nH]6)C=C5)C=C4)cc2)cc1N[C@H]1CCCc2cccnc21
REMARK SMILES IDX 10 1 9 2 8 3 6 4 7 5 5 6 1 7 2 8 3 9 81 10 4 11 80 12 82 13
REMARK SMILES IDX 83 15 84 16 92 17 85 18 87 19 91 20 86 21 88 22 90 23 89 24
REMARK SMILES IDX 11 25 12 26 13 27 14 28 15 29 79 30 16 31 78 32 17 33 18 34
REMARK SMILES IDX 19 35 72 36 20 37 77 38 71 39 73 40 21 41 76 42 70 43 69 44
REMARK SMILES IDX 22 46 56 47 35 48 55 49 36 50 39 51 54 52 74 53 37 54 38 55
REMARK SMILES IDX 53 57 75 58 40 59 23 60 24 61 33 62 25 63 26 64 32 65 34 66
REMARK SMILES IDX 27 67 28 68 29 69 30 70 31 71 57 72 58 73 67 74 59 75 60 76
REMARK SMILES IDX 66 77 68 78 61 79 62 80 63 81 64 82 65 83 41 84 42 85 51 86
REMARK SMILES IDX 43 87 44 88 50 89 52 90 45 91 46 92 47 93 48 94 49 95
REMARK H PARENT 82 14 73 45 39 56
REMARK Flexibility Score: inf
ROOT
ATOM      1  C   UNL A   1      34.005  30.643  27.574  1.00  0.00     0.275 C 
ENDROOT
BRANCH   1   2
ATOM      2  C   UNL A   1      32.679  29.934  27.256  1.00  0.00     0.275 C 
BRANCH   2   3
ATOM      3  O   UNL A   1      32.761  28.521  27.495  1.00  0.00    -0.458 OA
BRANCH   3   4
ATOM      4  C   UNL A   1      31.816  27.812  26.836  1.00  0.00     0.338 C 
ATOM      5  O   UNL A   1      30.992  27.064  27.346  1.00  0.00    -0.246 OA
BRANCH   4   6
ATOM      6  C   UNL A   1      32.049  27.768  25.387  1.00  0.00     0.062 A 
ATOM      7  C   UNL A   1      32.322  25.679  21.648  1.00  0.00     0.046 C 
ATOM      8  C   UNL A   1      32.314  26.428  22.951  1.00  0.00    -0.028 A 
ATOM      9  C   UNL A   1      31.224  27.296  23.188  1.00  0.00     0.006 A 
ATOM     10  C   UNL A   1      33.282  26.256  23.956  1.00  0.00     0.038 A 
ATOM     11  C   UNL A   1      31.057  27.915  24.429  1.00  0.00     0.016 A 
ATOM     12  C   UNL A   1      33.203  27.065  25.090  1.00  0.00     0.041 A 
BRANCH  10  13
ATOM     13  N   UNL A   1      34.158  25.176  23.989  1.00  0.00    -0.376 N 
ATOM     14  H   UNL A   1      34.813  25.046  23.265  1.00  0.00     0.161 HD
BRANCH  13  15
ATOM     15  C   UNL A   1      34.095  24.224  25.118  1.00  0.00     0.128 C 
ATOM     16  C   UNL A   1      32.833  23.340  25.045  1.00  0.00     0.032 C 
ATOM     17  C   UNL A   1      35.383  23.430  25.221  1.00  0.00     0.066 A 
ATOM     18  C   UNL A   1      33.031  22.175  24.090  1.00  0.00     0.007 C 
ATOM     19  C   UNL A   1      35.410  22.058  24.965  1.00  0.00    -0.024 A 
ATOM     20  N   UNL A   1      36.482  24.127  25.630  1.00  0.00    -0.259 NA
ATOM     21  C   UNL A   1      34.175  21.288  24.575  1.00  0.00     0.037 C 
ATOM     22  C   UNL A   1      36.617  21.386  25.171  1.00  0.00     0.007 A 
ATOM     23  C   UNL A   1      37.625  23.445  25.813  1.00  0.00     0.111 A 
ATOM     24  C   UNL A   1      37.741  22.086  25.601  1.00  0.00     0.020 A 
ENDBRANCH  13  15
ENDBRANCH  10  13
ENDBRANCH   4   6
ENDBRANCH   3   4
ENDBRANCH   2   3
ENDBRANCH   1   2
BRANCH   1  25
ATOM     25  O   UNL A   1      35.217  29.859  27.697  1.00  0.00    -0.458 OA
BRANCH  25  26
ATOM     26  C   UNL A   1      36.361  30.513  28.004  1.00  0.00     0.338 C 
ATOM     27  O   UNL A   1      36.386  31.679  28.408  1.00  0.00    -0.246 OA
BRANCH  26  28
ATOM     28  C   UNL A   1      37.487  29.550  28.031  1.00  0.00     0.060 A 
ATOM     29  C   UNL A   1      38.541  29.696  27.121  1.00  0.00     0.016 A 
ATOM     30  C   UNL A   1      37.629  28.734  29.159  1.00  0.00     0.016 A 
ATOM     31  C   UNL A   1      39.791  29.161  27.411  1.00  0.00     0.010 A 
ATOM     32  C   UNL A   1      38.879  28.292  29.504  1.00  0.00     0.010 A 
ATOM     33  C   UNL A   1      39.953  28.499  28.627  1.00  0.00    -0.014 A 
BRANCH  33  34
ATOM     34  C   UNL A   1      41.084  27.645  28.921  1.00  0.00     0.031 A 
ATOM     35  C   UNL A   1      41.177  26.250  28.464  1.00  0.00     0.074 A 
ATOM     36  C   UNL A   1      42.074  28.372  29.477  1.00  0.00     0.049 A 
ATOM     37  N   UNL A   1      41.920  25.359  29.025  1.00  0.00    -0.248 NA
ATOM     38  C   UNL A   1      40.410  25.715  27.339  1.00  0.00     0.031 C 
ATOM     39  C   UNL A   1      43.490  28.122  29.628  1.00  0.00     0.029 A 
ATOM     40  N   UNL A   1      41.878  29.565  30.170  1.00  0.00    -0.354 N 
ATOM     41  C   UNL A   1      42.004  24.289  28.153  1.00  0.00     0.074 A 
ATOM     42  C   UNL A   1      40.934  24.489  27.205  1.00  0.00     0.031 C 
ATOM     43  C   UNL A   1      43.969  28.956  30.575  1.00  0.00     0.029 A 
ATOM     44  C   UNL A   1      42.829  29.660  31.166  1.00  0.00     0.049 A 
ATOM     45  H   UNL A   1      41.177  30.230  29.980  1.00  0.00     0.167 HD
ATOM     46  C   UNL A   1      43.114  23.493  28.184  1.00  0.00     0.037 A 
ATOM     47  C   UNL A   1      42.392  29.519  32.455  1.00  0.00     0.037 A 
ATOM     48  C   UNL A   1      44.044  24.006  29.189  1.00  0.00     0.049 A 
ATOM     49  C   UNL A   1      42.931  28.236  33.038  1.00  0.00     0.074 A 
ATOM     50  C   UNL A   1      45.088  24.907  29.053  1.00  0.00     0.029 A 
ATOM     51  N   UNL A   1      43.726  23.967  30.543  1.00  0.00    -0.354 N 
ATOM     52  N   UNL A   1      43.090  27.125  32.368  1.00  0.00    -0.248 NA
ATOM     53  C   UNL A   1      43.463  28.171  34.394  1.00  0.00     0.031 C 
ATOM     54  C   UNL A   1      45.340  25.479  30.320  1.00  0.00     0.029 A 
ATOM     55  C   UNL A   1      44.453  24.926  31.227  1.00  0.00     0.049 A 
ATOM     56  H   UNL A   1      43.079  23.349  30.954  1.00  0.00     0.167 HD
ATOM     57  C   UNL A   1      43.833  26.258  33.128  1.00  0.00     0.074 A 
ATOM     58  C   UNL A   1      44.006  26.942  34.400  1.00  0.00     0.031 C 
ATOM     59  C   UNL A   1      44.340  25.077  32.665  1.00  0.00     0.037 A 
BRANCH  46  60
ATOM     60  C   UNL A   1      43.536  22.569  27.053  1.00  0.00     0.058 A 
ATOM     61  C   UNL A   1      42.893  21.322  26.866  1.00  0.00     0.135 A 
ATOM     62  C   UNL A   1      44.586  22.826  26.150  1.00  0.00     0.135 A 
ATOM     63  F   UNL A   1      41.809  20.973  27.570  1.00  0.00    -0.206 F 
ATOM     64  C   UNL A   1      43.328  20.364  25.951  1.00  0.00     0.059 A 
ATOM     65  C   UNL A   1      45.059  21.869  25.237  1.00  0.00     0.059 A 
ATOM     66  F   UNL A   1      45.174  24.032  26.102  1.00  0.00    -0.206 F 
ATOM     67  C   UNL A   1      44.433  20.630  25.159  1.00  0.00     0.060 A 
BRANCH  67  68
ATOM     68  S   UNL A   1      45.003  19.341  24.033  1.00  0.00     0.124 S 
ATOM     69  O   UNL A   1      46.455  19.466  24.134  1.00  0.00    -0.237 OA
ATOM     70  O   UNL A   1      44.430  18.138  24.627  1.00  0.00    -0.237 OA
ATOM     71  O   UNL A   1      44.435  19.734  22.747  1.00  0.00    -0.744 OA
ENDBRANCH  67  68
ENDBRANCH  46  60
BRANCH  47  72
ATOM     72  C   UNL A   1      41.035  30.109  32.735  1.00  0.00     0.058 A 
ATOM     73  C   UNL A   1      40.869  31.508  32.608  1.00  0.00     0.135 A 
ATOM     74  C   UNL A   1      39.859  29.355  32.869  1.00  0.00     0.135 A 
ATOM     75  F   UNL A   1      41.946  32.303  32.483  1.00  0.00    -0.206 F 
ATOM     76  C   UNL A   1      39.617  32.113  32.509  1.00  0.00     0.059 A 
ATOM     77  C   UNL A   1      38.585  29.945  32.788  1.00  0.00     0.059 A 
ATOM     78  F   UNL A   1      39.918  28.023  33.006  1.00  0.00    -0.206 F 
ATOM     79  C   UNL A   1      38.476  31.320  32.578  1.00  0.00     0.060 A 
BRANCH  79  80
ATOM     80  S   UNL A   1      36.874  32.086  32.203  1.00  0.00     0.124 S 
ATOM     81  O   UNL A   1      36.178  31.007  31.515  1.00  0.00    -0.237 OA
ATOM     82  O   UNL A   1      36.378  32.410  33.537  1.00  0.00    -0.237 OA
ATOM     83  O   UNL A   1      37.246  33.233  31.378  1.00  0.00    -0.744 OA
ENDBRANCH  79  80
ENDBRANCH  47  72
BRANCH  59  84
ATOM     84  C   UNL A   1      44.944  24.006  33.529  1.00  0.00     0.058 A 
ATOM     85  C   UNL A   1      46.303  23.984  33.873  1.00  0.00     0.135 A 
ATOM     86  C   UNL A   1      44.122  23.056  34.183  1.00  0.00     0.135 A 
ATOM     87  F   UNL A   1      47.157  24.905  33.403  1.00  0.00    -0.206 F 
ATOM     88  C   UNL A   1      46.829  23.037  34.747  1.00  0.00     0.059 A 
ATOM     89  C   UNL A   1      44.614  22.144  35.105  1.00  0.00     0.059 A 
ATOM     90  F   UNL A   1      42.800  22.988  33.960  1.00  0.00    -0.206 F 
ATOM     91  C   UNL A   1      45.977  22.123  35.358  1.00  0.00     0.060 A 
BRANCH  91  92
ATOM     92  S   UNL A   1      46.645  20.932  36.527  1.00  0.00     0.124 S 
ATOM     93  O   UNL A   1      48.017  21.406  36.667  1.00  0.00    -0.237 OA
ATOM     94  O   UNL A   1      45.789  21.116  37.697  1.00  0.00    -0.237 OA
ATOM     95  O   UNL A   1      46.482  19.657  35.836  1.00  0.00    -0.744 OA
ENDBRANCH  91  92
ENDBRANCH  59  84
ENDBRANCH  33  34
ENDBRANCH  26  28
ENDBRANCH  25  26
ENDBRANCH   1  25
TORSDOF 16
ENDMDL
MODEL 2
REMARK VINA RESULT:     -12.9      0.899      1.790
REMARK SMILES Cc1ccc(C(=O)OCCOC(=O)c2ccc(-c3c4nc(c(-c5c(F)cc(S(=O)(=O)[O-])cc5F)c5ccc([nH]5)c(-c5c(F)cc(S(=O)(=O)[O-])cc5F)c5nc(c(-c6c(F)cc(S(=O)(=O)[O-])cc6F)c6ccc3[nH]6)C=C5)C=C4)cc2)cc1N[C@H]1CCCc2cccnc21
REMARK SMILES IDX 10 1 9 2 8 3 6 4 7 5 5 6 1 7 2 8 3 9 81 10 4 11 80 12 82 13
REMARK SMILES IDX 83 15 84 16 92 17 85 18 87 19 91 20 86 21 88 22 90 23 89 24
REMARK SMILES IDX 11 25 12 26 13 27 14 28 15 29 79 30 16 31 78 32 17 33 18 34
REMARK SMILES IDX 19 35 72 36 20 37 77 38 71 39 73 40 21 41 76 42 70 43 69 44
REMARK SMILES IDX 22 46 56 47 35 48 55 49 36 50 39 51 54 52 74 53 37 54 38 55
REMARK SMILES IDX 53 57 75 58 40 59 23 60 24 61 33 62 25 63 26 64 32 65 34 66
REMARK SMILES IDX 27 67 28 68 29 69 30 70 31 71 57 72 58 73 67 74 59 75 60 76
REMARK SMILES IDX 66 77 68 78 61 79 62 80 63 81 64 82 65 83 41 84 42 85 51 86
REMARK SMILES IDX 43 87 44 88 50 89 52 90 45 91 46 92 47 93 48 94 49 95
REMARK H PARENT 82 14 73 45 39 56
REMARK Flexibility Score: inf
ROOT
ATOM      1  C   UNL A   1      34.172  30.600  27.321  1.00  0.00     0.275 C 
ENDROOT
BRANCH   1   2
ATOM      2  C   UNL A   1      33.060  29.860  26.564  1.00  0.00     0.275 C 
BRANCH   2   3
ATOM      3  O   UNL A   1      33.093  28.448  26.817  1.00  0.00    -0.458 OA
BRANCH   3   4
ATOM      4  C   UNL A   1      31.871  27.869  26.779  1.00  0.00     0.338 C 
ATOM      5  O   UNL A   1      31.096  27.762  27.721  1.00  0.00    -0.246 OA
BRANCH   4   6
ATOM      6  C   UNL A   1      31.655  27.082  25.559  1.00  0.00     0.062 A 
ATOM      7  C   UNL A   1      30.699  23.430  23.517  1.00  0.00     0.046 C 
ATOM      8  C   UNL A   1      31.116  24.704  24.197  1.00  0.00    -0.028 A 
ATOM      9  C   UNL A   1      30.186  25.768  24.196  1.00  0.00     0.006 A 
ATOM     10  C   UNL A   1      32.333  24.860  24.883  1.00  0.00     0.038 A 
ATOM     11  C   UNL A   1      30.427  26.932  24.930  1.00  0.00     0.016 A 
ATOM     12  C   UNL A   1      32.634  26.116  25.410  1.00  0.00     0.041 A 
BRANCH  10  13
ATOM     13  N   UNL A   1      33.131  23.787  25.266  1.00  0.00    -0.376 N 
ATOM     14  H   UNL A   1      33.073  23.426  26.181  1.00  0.00     0.161 HD
BRANCH  13  15
ATOM     15  C   UNL A   1      34.066  23.192  24.288  1.00  0.00     0.128 C 
ATOM     16  C   UNL A   1      35.448  23.875  24.340  1.00  0.00     0.032 C 
ATOM     17  C   UNL A   1      34.131  21.687  24.456  1.00  0.00     0.066 A 
ATOM     18  C   UNL A   1      36.297  23.319  25.471  1.00  0.00     0.007 C 
ATOM     19  C   UNL A   1      35.291  21.058  24.911  1.00  0.00    -0.024 A 
ATOM     20  N   UNL A   1      33.015  20.997  24.082  1.00  0.00    -0.259 NA
ATOM     21  C   UNL A   1      36.539  21.827  25.260  1.00  0.00     0.037 C 
ATOM     22  C   UNL A   1      35.296  19.661  24.949  1.00  0.00     0.007 A 
ATOM     23  C   UNL A   1      33.058  19.656  24.137  1.00  0.00     0.111 A 
ATOM     24  C   UNL A   1      34.166  18.948  24.557  1.00  0.00     0.020 A 
ENDBRANCH  13  15
ENDBRANCH  10  13
ENDBRANCH   4   6
ENDBRANCH   3   4
ENDBRANCH   2   3
ENDBRANCH   1   2
BRANCH   1  25
ATOM     25  O   UNL A   1      35.258  29.841  27.909  1.00  0.00    -0.458 OA
BRANCH  25  26
ATOM     26  C   UNL A   1      36.408  30.499  28.185  1.00  0.00     0.338 C 
ATOM     27  O   UNL A   1      36.442  31.670  28.571  1.00  0.00    -0.246 OA
BRANCH  26  28
ATOM     28  C   UNL A   1      37.533  29.534  28.203  1.00  0.00     0.060 A 
ATOM     29  C   UNL A   1      38.585  29.683  27.291  1.00  0.00     0.016 A 
ATOM     30  C   UNL A   1      37.678  28.713  29.327  1.00  0.00     0.016 A 
ATOM     31  C   UNL A   1      39.835  29.146  27.575  1.00  0.00     0.010 A 
ATOM     32  C   UNL A   1      38.928  28.269  29.667  1.00  0.00     0.010 A 
ATOM     33  C   UNL A   1      40.000  28.478  28.787  1.00  0.00    -0.014 A 
BRANCH  33  34
ATOM     34  C   UNL A   1      41.131  27.621  29.074  1.00  0.00     0.031 A 
ATOM     35  C   UNL A   1      41.229  26.233  28.597  1.00  0.00     0.074 A 
ATOM     36  C   UNL A   1      42.117  28.342  29.646  1.00  0.00     0.049 A 
ATOM     37  N   UNL A   1      41.970  25.336  29.148  1.00  0.00    -0.248 NA
ATOM     38  C   UNL A   1      40.468  25.715  27.460  1.00  0.00     0.031 C 
ATOM     39  C   UNL A   1      43.533  28.092  29.800  1.00  0.00     0.029 A 
ATOM     40  N   UNL A   1      41.915  29.524  30.355  1.00  0.00    -0.354 N 
ATOM     41  C   UNL A   1      42.060  24.280  28.261  1.00  0.00     0.074 A 
ATOM     42  C   UNL A   1      40.995  24.491  27.311  1.00  0.00     0.031 C 
ATOM     43  C   UNL A   1      44.005  28.913  30.762  1.00  0.00     0.029 A 
ATOM     44  C   UNL A   1      42.861  29.606  31.357  1.00  0.00     0.049 A 
ATOM     45  H   UNL A   1      41.214  30.191  30.172  1.00  0.00     0.167 HD
ATOM     46  C   UNL A   1      43.172  23.485  28.286  1.00  0.00     0.037 A 
ATOM     47  C   UNL A   1      42.418  29.446  32.642  1.00  0.00     0.037 A 
ATOM     48  C   UNL A   1      44.096  23.985  29.302  1.00  0.00     0.049 A 
ATOM     49  C   UNL A   1      42.957  28.154  33.209  1.00  0.00     0.074 A 
ATOM     50  C   UNL A   1      45.139  24.889  29.185  1.00  0.00     0.029 A 
ATOM     51  N   UNL A   1      43.772  23.924  30.654  1.00  0.00    -0.354 N 
ATOM     52  N   UNL A   1      43.121  27.054  32.523  1.00  0.00    -0.248 NA
ATOM     53  C   UNL A   1      43.482  28.070  34.565  1.00  0.00     0.031 C 
ATOM     54  C   UNL A   1      45.384  25.443  30.462  1.00  0.00     0.029 A 
ATOM     55  C   UNL A   1      44.494  24.874  31.356  1.00  0.00     0.049 A 
ATOM     56  H   UNL A   1      43.124  23.300  31.053  1.00  0.00     0.167 HD
ATOM     57  C   UNL A   1      43.863  26.177  33.273  1.00  0.00     0.074 A 
ATOM     58  C   UNL A   1      44.027  26.843  34.556  1.00  0.00     0.031 C 
ATOM     59  C   UNL A   1      44.373  25.004  32.795  1.00  0.00     0.037 A 
BRANCH  46  60
ATOM     60  C   UNL A   1      43.601  22.578  27.143  1.00  0.00     0.058 A 
ATOM     61  C   UNL A   1      42.883  21.392  26.858  1.00  0.00     0.135 A 
ATOM     62  C   UNL A   1      44.726  22.792  26.323  1.00  0.00     0.135 A 
ATOM     63  F   UNL A   1      41.731  21.099  27.474  1.00  0.00    -0.206 F 
ATOM     64  C   UNL A   1      43.308  20.443  25.930  1.00  0.00     0.059 A 
ATOM     65  C   UNL A   1      45.189  21.839  25.399  1.00  0.00     0.059 A 
ATOM     66  F   UNL A   1      45.402  23.950  26.368  1.00  0.00    -0.206 F 
ATOM     67  C   UNL A   1      44.481  20.656  25.224  1.00  0.00     0.060 A 
BRANCH  67  68
ATOM     68  S   UNL A   1      45.030  19.374  24.079  1.00  0.00     0.124 S 
ATOM     69  O   UNL A   1      44.492  19.849  22.807  1.00  0.00    -0.237 OA
ATOM     70  O   UNL A   1      46.481  19.441  24.216  1.00  0.00    -0.237 OA
ATOM     71  O   UNL A   1      44.408  18.161  24.602  1.00  0.00    -0.744 OA
ENDBRANCH  67  68
ENDBRANCH  46  60
BRANCH  47  72
ATOM     72  C   UNL A   1      41.059  30.029  32.924  1.00  0.00     0.058 A 
ATOM     73  C   UNL A   1      40.925  31.437  32.962  1.00  0.00     0.135 A 
ATOM     74  C   UNL A   1      39.864  29.292  32.905  1.00  0.00     0.135 A 
ATOM     75  F   UNL A   1      42.020  32.214  32.991  1.00  0.00    -0.206 F 
ATOM     76  C   UNL A   1      39.690  32.078  32.877  1.00  0.00     0.059 A 
ATOM     77  C   UNL A   1      38.608  29.917  32.833  1.00  0.00     0.059 A 
ATOM     78  F   UNL A   1      39.894  27.953  32.879  1.00  0.00    -0.206 F 
ATOM     79  C   UNL A   1      38.533  31.311  32.789  1.00  0.00     0.060 A 
BRANCH  79  80
ATOM     80  S   UNL A   1      36.968  32.154  32.432  1.00  0.00     0.124 S 
ATOM     81  O   UNL A   1      36.519  32.533  33.766  1.00  0.00    -0.237 OA
ATOM     82  O   UNL A   1      37.407  33.252  31.576  1.00  0.00    -0.237 OA
ATOM     83  O   UNL A   1      36.183  31.117  31.767  1.00  0.00    -0.744 OA
ENDBRANCH  79  80
ENDBRANCH  47  72
BRANCH  59  84
ATOM     84  C   UNL A   1      44.975  23.922  33.647  1.00  0.00     0.058 A 
ATOM     85  C   UNL A   1      44.255  22.793  34.062  1.00  0.00     0.135 A 
ATOM     86  C   UNL A   1      46.363  23.910  33.928  1.00  0.00     0.135 A 
ATOM     87  F   UNL A   1      42.958  22.641  33.754  1.00  0.00    -0.206 F 
ATOM     88  C   UNL A   1      44.850  21.757  34.774  1.00  0.00     0.059 A 
ATOM     89  C   UNL A   1      46.989  22.859  34.581  1.00  0.00     0.059 A 
ATOM     90  F   UNL A   1      47.169  24.919  33.562  1.00  0.00    -0.206 F 
ATOM     91  C   UNL A   1      46.217  21.798  35.027  1.00  0.00     0.060 A 
BRANCH  91  92
ATOM     92  S   UNL A   1      47.000  20.436  35.902  1.00  0.00     0.124 S 
ATOM     93  O   UNL A   1      46.396  19.285  35.239  1.00  0.00    -0.237 OA
ATOM     94  O   UNL A   1      48.418  20.652  35.627  1.00  0.00    -0.237 OA
ATOM     95  O   UNL A   1      46.598  20.653  37.288  1.00  0.00    -0.744 OA
ENDBRANCH  91  92
ENDBRANCH  59  84
ENDBRANCH  33  34
ENDBRANCH  26  28
ENDBRANCH  25  26
ENDBRANCH   1  25
TORSDOF 16
ENDMDL
MODEL 3
REMARK VINA RESULT:     -12.8      4.574     11.223
REMARK SMILES Cc1ccc(C(=O)OCCOC(=O)c2ccc(-c3c4nc(c(-c5c(F)cc(S(=O)(=O)[O-])cc5F)c5ccc([nH]5)c(-c5c(F)cc(S(=O)(=O)[O-])cc5F)c5nc(c(-c6c(F)cc(S(=O)(=O)[O-])cc6F)c6ccc3[nH]6)C=C5)C=C4)cc2)cc1N[C@H]1CCCc2cccnc21
REMARK SMILES IDX 10 1 9 2 8 3 6 4 7 5 5 6 1 7 2 8 3 9 81 10 4 11 80 12 82 13
REMARK SMILES IDX 83 15 84 16 92 17 85 18 87 19 91 20 86 21 88 22 90 23 89 24
REMARK SMILES IDX 11 25 12 26 13 27 14 28 15 29 79 30 16 31 78 32 17 33 18 34
REMARK SMILES IDX 19 35 72 36 20 37 77 38 71 39 73 40 21 41 76 42 70 43 69 44
REMARK SMILES IDX 22 46 56 47 35 48 55 49 36 50 39 51 54 52 74 53 37 54 38 55
REMARK SMILES IDX 53 57 75 58 40 59 23 60 24 61 33 62 25 63 26 64 32 65 34 66
REMARK SMILES IDX 27 67 28 68 29 69 30 70 31 71 57 72 58 73 67 74 59 75 60 76
REMARK SMILES IDX 66 77 68 78 61 79 62 80 63 81 64 82 65 83 41 84 42 85 51 86
REMARK SMILES IDX 43 87 44 88 50 89 52 90 45 91 46 92 47 93 48 94 49 95
REMARK H PARENT 82 14 73 45 39 56
REMARK Flexibility Score: inf
ROOT
ATOM      1  C   UNL A   1      38.290  22.620  26.123  1.00  0.00     0.275 C 
ENDROOT
BRANCH   1   2
ATOM      2  C   UNL A   1      37.351  22.244  24.967  1.00  0.00     0.275 C 
BRANCH   2   3
ATOM      3  O   UNL A   1      36.788  23.405  24.340  1.00  0.00    -0.458 OA
BRANCH   3   4
ATOM      4  C   UNL A   1      35.541  23.200  23.857  1.00  0.00     0.338 C 
ATOM      5  O   UNL A   1      35.155  23.466  22.725  1.00  0.00    -0.246 OA
BRANCH   4   6
ATOM      6  C   UNL A   1      34.566  22.903  24.913  1.00  0.00     0.062 A 
ATOM      7  C   UNL A   1      30.649  23.166  26.647  1.00  0.00     0.046 C 
ATOM      8  C   UNL A   1      32.052  23.121  26.109  1.00  0.00    -0.028 A 
ATOM      9  C   UNL A   1      32.496  21.892  25.571  1.00  0.00     0.006 A 
ATOM     10  C   UNL A   1      32.901  24.240  26.050  1.00  0.00     0.038 A 
ATOM     11  C   UNL A   1      33.726  21.799  24.916  1.00  0.00     0.016 A 
ATOM     12  C   UNL A   1      34.206  24.051  25.596  1.00  0.00     0.041 A 
BRANCH  10  13
ATOM     13  N   UNL A   1      32.445  25.546  26.191  1.00  0.00    -0.376 N 
ATOM     14  H   UNL A   1      31.856  25.789  26.942  1.00  0.00     0.161 HD
BRANCH  13  15
ATOM     15  C   UNL A   1      32.851  26.567  25.202  1.00  0.00     0.128 C 
ATOM     16  C   UNL A   1      31.939  26.546  23.959  1.00  0.00     0.032 C 
ATOM     17  C   UNL A   1      32.952  27.933  25.854  1.00  0.00     0.066 A 
ATOM     18  C   UNL A   1      30.652  27.316  24.206  1.00  0.00     0.007 C 
ATOM     19  C   UNL A   1      32.066  28.960  25.524  1.00  0.00    -0.024 A 
ATOM     20  N   UNL A   1      33.987  28.102  26.726  1.00  0.00    -0.259 NA
ATOM     21  C   UNL A   1      30.965  28.778  24.511  1.00  0.00     0.037 C 
ATOM     22  C   UNL A   1      32.285  30.213  26.102  1.00  0.00     0.007 A 
ATOM     23  C   UNL A   1      34.162  29.321  27.263  1.00  0.00     0.111 A 
ATOM     24  C   UNL A   1      33.347  30.399  26.983  1.00  0.00     0.020 A 
ENDBRANCH  13  15
ENDBRANCH  10  13
ENDBRANCH   4   6
ENDBRANCH   3   4
ENDBRANCH   2   3
ENDBRANCH   1   2
BRANCH   1  25
ATOM     25  O   UNL A   1      38.790  23.977  26.218  1.00  0.00    -0.458 OA
BRANCH  25  26
ATOM     26  C   UNL A   1      39.705  24.244  27.179  1.00  0.00     0.338 C 
ATOM     27  O   UNL A   1      40.691  23.533  27.391  1.00  0.00    -0.246 OA
BRANCH  26  28
ATOM     28  C   UNL A   1      39.474  25.607  27.713  1.00  0.00     0.060 A 
ATOM     29  C   UNL A   1      39.057  25.766  29.040  1.00  0.00     0.016 A 
ATOM     30  C   UNL A   1      39.989  26.692  26.995  1.00  0.00     0.016 A 
ATOM     31  C   UNL A   1      39.298  26.962  29.707  1.00  0.00     0.010 A 
ATOM     32  C   UNL A   1      40.324  27.836  27.670  1.00  0.00     0.010 A 
ATOM     33  C   UNL A   1      39.970  27.971  29.020  1.00  0.00    -0.014 A 
BRANCH  33  34
ATOM     34  C   UNL A   1      40.016  29.345  29.472  1.00  0.00     0.031 A 
ATOM     35  C   UNL A   1      38.901  30.287  29.292  1.00  0.00     0.074 A 
ATOM     36  C   UNL A   1      41.115  29.541  30.230  1.00  0.00     0.049 A 
ATOM     37  N   UNL A   1      39.037  31.568  29.290  1.00  0.00    -0.248 NA
ATOM     38  C   UNL A   1      37.518  29.868  29.064  1.00  0.00     0.031 C 
ATOM     39  C   UNL A   1      41.457  30.567  31.189  1.00  0.00     0.029 A 
ATOM     40  N   UNL A   1      42.277  28.777  30.140  1.00  0.00    -0.354 N 
ATOM     41  C   UNL A   1      37.774  32.114  29.424  1.00  0.00     0.074 A 
ATOM     42  C   UNL A   1      36.863  31.037  29.121  1.00  0.00     0.031 C 
ATOM     43  C   UNL A   1      42.793  30.537  31.382  1.00  0.00     0.029 A 
ATOM     44  C   UNL A   1      43.359  29.584  30.426  1.00  0.00     0.049 A 
ATOM     45  H   UNL A   1      42.318  27.820  29.911  1.00  0.00     0.167 HD
ATOM     46  C   UNL A   1      37.640  33.340  30.012  1.00  0.00     0.037 A 
ATOM     47  C   UNL A   1      44.187  29.903  29.384  1.00  0.00     0.037 A 
ATOM     48  C   UNL A   1      38.957  33.822  30.422  1.00  0.00     0.049 A 
ATOM     49  C   UNL A   1      44.070  31.375  29.074  1.00  0.00     0.074 A 
ATOM     50  C   UNL A   1      39.620  33.673  31.630  1.00  0.00     0.029 A 
ATOM     51  N   UNL A   1      39.923  34.154  29.477  1.00  0.00    -0.354 N 
ATOM     52  N   UNL A   1      42.962  32.064  29.151  1.00  0.00    -0.248 NA
ATOM     53  C   UNL A   1      45.240  32.197  28.792  1.00  0.00     0.031 C 
ATOM     54  C   UNL A   1      41.004  33.829  31.392  1.00  0.00     0.029 A 
ATOM     55  C   UNL A   1      41.184  34.075  30.042  1.00  0.00     0.049 A 
ATOM     56  H   UNL A   1      39.737  34.407  28.543  1.00  0.00     0.167 HD
ATOM     57  C   UNL A   1      43.269  33.398  29.058  1.00  0.00     0.074 A 
ATOM     58  C   UNL A   1      44.699  33.426  28.793  1.00  0.00     0.031 C 
ATOM     59  C   UNL A   1      42.374  34.406  29.282  1.00  0.00     0.037 A 
BRANCH  46  60
ATOM     60  C   UNL A   1      36.339  33.872  30.594  1.00  0.00     0.058 A 
ATOM     61  C   UNL A   1      35.325  34.377  29.745  1.00  0.00     0.135 A 
ATOM     62  C   UNL A   1      36.044  33.952  31.969  1.00  0.00     0.135 A 
ATOM     63  F   UNL A   1      35.404  34.276  28.413  1.00  0.00    -0.206 F 
ATOM     64  C   UNL A   1      34.180  35.017  30.216  1.00  0.00     0.059 A 
ATOM     65  C   UNL A   1      34.909  34.614  32.468  1.00  0.00     0.059 A 
ATOM     66  F   UNL A   1      36.836  33.364  32.879  1.00  0.00    -0.206 F 
ATOM     67  C   UNL A   1      33.990  35.161  31.580  1.00  0.00     0.060 A 
BRANCH  67  68
ATOM     68  S   UNL A   1      32.527  36.051  32.148  1.00  0.00     0.124 S 
ATOM     69  O   UNL A   1      32.105  36.750  30.936  1.00  0.00    -0.237 OA
ATOM     70  O   UNL A   1      31.658  34.965  32.586  1.00  0.00    -0.237 OA
ATOM     71  O   UNL A   1      33.041  36.909  33.211  1.00  0.00    -0.744 OA
ENDBRANCH  67  68
ENDBRANCH  46  60
BRANCH  47  72
ATOM     72  C   UNL A   1      44.389  28.806  28.373  1.00  0.00     0.058 A 
ATOM     73  C   UNL A   1      45.124  27.660  28.759  1.00  0.00     0.135 A 
ATOM     74  C   UNL A   1      43.695  28.716  27.156  1.00  0.00     0.135 A 
ATOM     75  F   UNL A   1      45.823  27.667  29.907  1.00  0.00    -0.206 F 
ATOM     76  C   UNL A   1      45.087  26.464  28.043  1.00  0.00     0.059 A 
ATOM     77  C   UNL A   1      43.655  27.525  26.410  1.00  0.00     0.059 A 
ATOM     78  F   UNL A   1      42.980  29.755  26.704  1.00  0.00    -0.206 F 
ATOM     79  C   UNL A   1      44.330  26.396  26.878  1.00  0.00     0.060 A 
BRANCH  79  80
ATOM     80  S   UNL A   1      44.097  24.775  26.099  1.00  0.00     0.124 S 
ATOM     81  O   UNL A   1      43.995  23.896  27.258  1.00  0.00    -0.237 OA
ATOM     82  O   UNL A   1      42.861  24.978  25.348  1.00  0.00    -0.237 OA
ATOM     83  O   UNL A   1      45.303  24.625  25.290  1.00  0.00    -0.744 OA
ENDBRANCH  79  80
ENDBRANCH  47  72
BRANCH  59  84
ATOM     84  C   UNL A   1      42.615  35.853  28.956  1.00  0.00     0.058 A 
ATOM     85  C   UNL A   1      42.038  36.487  27.846  1.00  0.00     0.135 A 
ATOM     86  C   UNL A   1      43.306  36.694  29.862  1.00  0.00     0.135 A 
ATOM     87  F   UNL A   1      41.268  35.813  26.979  1.00  0.00    -0.206 F 
ATOM     88  C   UNL A   1      42.198  37.849  27.607  1.00  0.00     0.059 A 
ATOM     89  C   UNL A   1      43.423  38.063  29.676  1.00  0.00     0.059 A 
ATOM     90  F   UNL A   1      43.882  36.215  30.975  1.00  0.00    -0.206 F 
ATOM     91  C   UNL A   1      42.890  38.628  28.528  1.00  0.00     0.060 A 
BRANCH  91  92
ATOM     92  S   UNL A   1      43.054  40.396  28.250  1.00  0.00     0.124 S 
ATOM     93  O   UNL A   1      42.023  40.624  27.243  1.00  0.00    -0.237 OA
ATOM     94  O   UNL A   1      42.783  40.956  29.571  1.00  0.00    -0.237 OA
ATOM     95  O   UNL A   1      44.432  40.537  27.789  1.00  0.00    -0.744 OA
ENDBRANCH  91  92
ENDBRANCH  59  84
ENDBRANCH  33  34
ENDBRANCH  26  28
ENDBRANCH  25  26
ENDBRANCH   1  25
TORSDOF 16
ENDMDL
