MODEL 1
REMARK VINA RESULT:     -10.1      0.000      0.000
REMARK SMILES CCCOc1cc(NC[C@H]2CC[C@@H](C(=O)OCCOC(=O)c3ccc(-c4c5nc(c(-c6c(F)cc(S(=O)(=O)[O-])cc6F)c6ccc([nH]6)c(-c6c(F)cc(S(=O)(=O)[O-])cc6F)c6nc(c(-c7c(F)cc(S(=O)(=O)[O-])cc7F)c7ccc4[nH]7)C=C6)C=C5)cc3)O2)ncn1
REMARK SMILES IDX 16 1 14 2 15 3 13 4 10 5 11 6 88 7 12 8 9 9 8 10 7 12 5 13
REMARK SMILES IDX 6 14 91 15 90 16 89 17 4 18 3 19 2 20 1 21 17 22 18 23 19 24
REMARK SMILES IDX 20 25 21 26 22 27 23 28 87 29 24 30 86 31 25 32 26 33 27 34
REMARK SMILES IDX 80 35 28 36 85 37 79 38 81 39 29 40 84 41 78 42 77 43 30 45
REMARK SMILES IDX 64 46 43 47 63 48 44 49 47 50 62 51 82 52 45 53 46 54 61 56
REMARK SMILES IDX 83 57 48 58 31 59 32 60 41 61 33 62 34 63 40 64 42 65 35 66
REMARK SMILES IDX 36 67 37 68 38 69 39 70 65 71 66 72 75 73 67 74 68 75 74 76
REMARK SMILES IDX 76 77 69 78 70 79 71 80 72 81 73 82 49 83 50 84 59 85 51 86
REMARK SMILES IDX 52 87 58 88 60 89 53 90 54 91 55 92 56 93 57 94
REMARK H PARENT 8 11 81 44 47 55
REMARK Flexibility Score: inf
ROOT
ATOM      1  O   UNL A   1      37.669  22.479  25.795  1.00  0.00    -0.460 OA
ENDROOT
BRANCH   1   2
ATOM      2  C   UNL A   1      36.714  22.118  24.890  1.00  0.00     0.335 C 
ATOM      3  O   UNL A   1      36.914  21.980  23.690  1.00  0.00    -0.249 OA
BRANCH   2   4
ATOM      4  C   UNL A   1      35.353  21.918  25.574  1.00  0.00     0.228 C 
ATOM      5  C   UNL A   1      33.861  23.686  25.187  1.00  0.00     0.138 C 
ATOM      6  C   UNL A   1      33.267  22.476  24.481  1.00  0.00     0.037 C 
ATOM      7  O   UNL A   1      34.842  23.152  26.093  1.00  0.00    -0.361 OA
ATOM      8  C   UNL A   1      34.298  21.372  24.627  1.00  0.00     0.047 C 
BRANCH   5   9
ATOM      9  C   UNL A   1      34.486  24.719  24.219  1.00  0.00     0.146 C 
BRANCH   9  10
ATOM     10  N   UNL A   1      33.476  25.380  23.409  1.00  0.00    -0.367 N 
ATOM     11  H   UNL A   1      33.295  25.062  22.495  1.00  0.00     0.162 HD
BRANCH  10  12
ATOM     12  C   UNL A   1      32.767  26.455  23.917  1.00  0.00     0.133 A 
ATOM     13  C   UNL A   1      32.696  28.522  24.997  1.00  0.00     0.218 A 
ATOM     14  C   UNL A   1      33.435  27.423  24.632  1.00  0.00     0.115 A 
ATOM     15  N   UNL A   1      31.377  28.654  24.810  1.00  0.00    -0.202 NA
ATOM     16  C   UNL A   1      30.809  27.612  24.202  1.00  0.00     0.228 A 
ATOM     17  N   UNL A   1      31.443  26.539  23.708  1.00  0.00    -0.219 NA
BRANCH  13  18
ATOM     18  O   UNL A   1      33.352  29.574  25.587  1.00  0.00    -0.478 OA
BRANCH  18  19
ATOM     19  C   UNL A   1      33.910  29.178  26.846  1.00  0.00     0.231 C 
BRANCH  19  20
ATOM     20  C   UNL A   1      35.002  30.163  27.277  1.00  0.00     0.038 C 
ATOM     21  C   UNL A   1      34.498  31.234  28.236  1.00  0.00     0.007 C 
ENDBRANCH  19  20
ENDBRANCH  18  19
ENDBRANCH  13  18
ENDBRANCH  10  12
ENDBRANCH   9  10
ENDBRANCH   5   9
ENDBRANCH   2   4
ENDBRANCH   1   2
BRANCH   1  22
ATOM     22  C   UNL A   1      38.835  21.631  25.841  1.00  0.00     0.274 C 
BRANCH  22  23
ATOM     23  C   UNL A   1      39.971  22.285  26.620  1.00  0.00     0.275 C 
BRANCH  23  24
ATOM     24  O   UNL A   1      39.796  23.712  26.641  1.00  0.00    -0.458 OA
BRANCH  24  25
ATOM     25  C   UNL A   1      40.931  24.435  26.765  1.00  0.00     0.338 C 
ATOM     26  O   UNL A   1      42.002  24.240  26.219  1.00  0.00    -0.246 OA
BRANCH  25  27
ATOM     27  C   UNL A   1      40.675  25.588  27.638  1.00  0.00     0.060 A 
ATOM     28  C   UNL A   1      41.575  26.651  27.616  1.00  0.00     0.016 A 
ATOM     29  C   UNL A   1      39.636  25.557  28.565  1.00  0.00     0.016 A 
ATOM     30  C   UNL A   1      41.494  27.651  28.579  1.00  0.00     0.010 A 
ATOM     31  C   UNL A   1      39.509  26.606  29.483  1.00  0.00     0.010 A 
ATOM     32  C   UNL A   1      40.458  27.643  29.524  1.00  0.00    -0.014 A 
BRANCH  32  33
ATOM     33  C   UNL A   1      40.406  28.687  30.583  1.00  0.00     0.031 A 
ATOM     34  C   UNL A   1      41.386  28.650  31.727  1.00  0.00     0.074 A 
ATOM     35  C   UNL A   1      39.503  29.685  30.510  1.00  0.00     0.049 A 
ATOM     36  N   UNL A   1      41.412  29.373  32.816  1.00  0.00    -0.248 NA
ATOM     37  C   UNL A   1      42.476  27.665  31.635  1.00  0.00     0.031 C 
ATOM     38  C   UNL A   1      38.525  29.869  29.436  1.00  0.00     0.029 A 
ATOM     39  N   UNL A   1      39.265  30.739  31.357  1.00  0.00    -0.354 N 
ATOM     40  C   UNL A   1      42.482  28.897  33.565  1.00  0.00     0.074 A 
ATOM     41  C   UNL A   1      43.086  27.825  32.801  1.00  0.00     0.031 C 
ATOM     42  C   UNL A   1      37.814  30.982  29.673  1.00  0.00     0.029 A 
ATOM     43  C   UNL A   1      38.235  31.552  30.949  1.00  0.00     0.049 A 
ATOM     44  H   UNL A   1      39.783  30.898  32.179  1.00  0.00     0.167 HD
ATOM     45  C   UNL A   1      42.919  29.311  34.778  1.00  0.00     0.037 A 
ATOM     46  C   UNL A   1      37.665  32.614  31.548  1.00  0.00     0.037 A 
ATOM     47  C   UNL A   1      42.350  30.410  35.513  1.00  0.00     0.049 A 
ATOM     48  C   UNL A   1      38.160  33.053  32.897  1.00  0.00     0.074 A 
ATOM     49  C   UNL A   1      42.724  30.908  36.749  1.00  0.00     0.029 A 
ATOM     50  N   UNL A   1      41.296  31.196  35.069  1.00  0.00    -0.354 N 
ATOM     51  N   UNL A   1      39.131  32.548  33.620  1.00  0.00    -0.248 NA
ATOM     52  C   UNL A   1      37.471  34.191  33.520  1.00  0.00     0.031 C 
ATOM     53  C   UNL A   1      41.885  31.985  37.061  1.00  0.00     0.029 A 
ATOM     54  C   UNL A   1      41.006  32.173  36.007  1.00  0.00     0.049 A 
ATOM     55  H   UNL A   1      40.824  31.077  34.214  1.00  0.00     0.167 HD
ATOM     56  C   UNL A   1      39.167  33.305  34.786  1.00  0.00     0.074 A 
ATOM     57  C   UNL A   1      38.137  34.316  34.661  1.00  0.00     0.031 C 
ATOM     58  C   UNL A   1      39.975  33.169  35.865  1.00  0.00     0.037 A 
BRANCH  45  59
ATOM     59  C   UNL A   1      44.052  28.549  35.403  1.00  0.00     0.058 A 
ATOM     60  C   UNL A   1      45.392  28.902  35.187  1.00  0.00     0.135 A 
ATOM     61  C   UNL A   1      43.787  27.458  36.247  1.00  0.00     0.135 A 
ATOM     62  F   UNL A   1      45.697  29.925  34.373  1.00  0.00    -0.206 F 
ATOM     63  C   UNL A   1      46.434  28.185  35.767  1.00  0.00     0.059 A 
ATOM     64  C   UNL A   1      44.812  26.738  36.854  1.00  0.00     0.059 A 
ATOM     65  F   UNL A   1      42.522  27.077  36.484  1.00  0.00    -0.206 F 
ATOM     66  C   UNL A   1      46.134  27.101  36.594  1.00  0.00     0.060 A 
BRANCH  66  67
ATOM     67  S   UNL A   1      47.492  26.170  37.338  1.00  0.00     0.124 S 
ATOM     68  O   UNL A   1      46.954  25.883  38.663  1.00  0.00    -0.237 OA
ATOM     69  O   UNL A   1      47.619  25.024  36.443  1.00  0.00    -0.237 OA
ATOM     70  O   UNL A   1      48.606  27.114  37.303  1.00  0.00    -0.744 OA
ENDBRANCH  66  67
ENDBRANCH  45  59
BRANCH  46  71
ATOM     71  C   UNL A   1      36.530  33.310  30.890  1.00  0.00     0.058 A 
ATOM     72  C   UNL A   1      35.228  33.211  31.401  1.00  0.00     0.135 A 
ATOM     73  C   UNL A   1      36.732  34.109  29.754  1.00  0.00     0.135 A 
ATOM     74  F   UNL A   1      34.988  32.449  32.480  1.00  0.00    -0.206 F 
ATOM     75  C   UNL A   1      34.162  33.877  30.806  1.00  0.00     0.059 A 
ATOM     76  C   UNL A   1      35.686  34.801  29.154  1.00  0.00     0.059 A 
ATOM     77  F   UNL A   1      37.963  34.244  29.238  1.00  0.00    -0.206 F 
ATOM     78  C   UNL A   1      34.401  34.672  29.683  1.00  0.00     0.060 A 
BRANCH  78  79
ATOM     79  S   UNL A   1      33.030  35.585  28.943  1.00  0.00     0.124 S 
ATOM     80  O   UNL A   1      32.422  34.563  28.099  1.00  0.00    -0.237 OA
ATOM     81  O   UNL A   1      32.255  35.992  30.110  1.00  0.00    -0.237 OA
ATOM     82  O   UNL A   1      33.701  36.673  28.236  1.00  0.00    -0.744 OA
ENDBRANCH  78  79
ENDBRANCH  46  71
BRANCH  58  83
ATOM     83  C   UNL A   1      39.784  34.146  36.987  1.00  0.00     0.058 A 
ATOM     84  C   UNL A   1      39.014  33.818  38.113  1.00  0.00     0.135 A 
ATOM     85  C   UNL A   1      40.406  35.403  36.954  1.00  0.00     0.135 A 
ATOM     86  F   UNL A   1      38.395  32.630  38.187  1.00  0.00    -0.206 F 
ATOM     87  C   UNL A   1      38.852  34.714  39.165  1.00  0.00     0.059 A 
ATOM     88  C   UNL A   1      40.270  36.308  38.001  1.00  0.00     0.059 A 
ATOM     89  F   UNL A   1      41.159  35.756  35.900  1.00  0.00    -0.206 F 
ATOM     90  C   UNL A   1      39.482  35.959  39.097  1.00  0.00     0.060 A 
BRANCH  90  91
ATOM     91  S   UNL A   1      39.290  37.109  40.477  1.00  0.00     0.124 S 
ATOM     92  O   UNL A   1      38.531  38.188  39.856  1.00  0.00    -0.237 OA
ATOM     93  O   UNL A   1      38.567  36.308  41.459  1.00  0.00    -0.237 OA
ATOM     94  O   UNL A   1      40.668  37.434  40.836  1.00  0.00    -0.744 OA
ENDBRANCH  90  91
ENDBRANCH  58  83
ENDBRANCH  32  33
ENDBRANCH  25  27
ENDBRANCH  24  25
ENDBRANCH  23  24
ENDBRANCH  22  23
ENDBRANCH   1  22
TORSDOF 20
ENDMDL
MODEL 2
REMARK VINA RESULT:     -10.0      6.606     12.241
REMARK SMILES CCCOc1cc(NC[C@H]2CC[C@@H](C(=O)OCCOC(=O)c3ccc(-c4c5nc(c(-c6c(F)cc(S(=O)(=O)[O-])cc6F)c6ccc([nH]6)c(-c6c(F)cc(S(=O)(=O)[O-])cc6F)c6nc(c(-c7c(F)cc(S(=O)(=O)[O-])cc7F)c7ccc4[nH]7)C=C6)C=C5)cc3)O2)ncn1
REMARK SMILES IDX 16 1 14 2 15 3 13 4 10 5 11 6 88 7 12 8 9 9 8 10 7 12 5 13
REMARK SMILES IDX 6 14 91 15 90 16 89 17 4 18 3 19 2 20 1 21 17 22 18 23 19 24
REMARK SMILES IDX 20 25 21 26 22 27 23 28 87 29 24 30 86 31 25 32 26 33 27 34
REMARK SMILES IDX 80 35 28 36 85 37 79 38 81 39 29 40 84 41 78 42 77 43 30 45
REMARK SMILES IDX 64 46 43 47 63 48 44 49 47 50 62 51 82 52 45 53 46 54 61 56
REMARK SMILES IDX 83 57 48 58 31 59 32 60 41 61 33 62 34 63 40 64 42 65 35 66
REMARK SMILES IDX 36 67 37 68 38 69 39 70 65 71 66 72 75 73 67 74 68 75 74 76
REMARK SMILES IDX 76 77 69 78 70 79 71 80 72 81 73 82 49 83 50 84 59 85 51 86
REMARK SMILES IDX 52 87 58 88 60 89 53 90 54 91 55 92 56 93 57 94
REMARK H PARENT 8 11 81 44 47 55
REMARK Flexibility Score: inf
ROOT
ATOM      1  O   UNL A   1      32.452  30.440  26.807  1.00  0.00    -0.460 OA
ENDROOT
BRANCH   1   2
ATOM      2  C   UNL A   1      31.828  29.340  26.295  1.00  0.00     0.335 C 
ATOM      3  O   UNL A   1      31.398  28.411  26.967  1.00  0.00    -0.249 OA
BRANCH   2   4
ATOM      4  C   UNL A   1      31.748  29.414  24.762  1.00  0.00     0.228 C 
ATOM      5  C   UNL A   1      31.793  27.306  23.735  1.00  0.00     0.138 C 
ATOM      6  C   UNL A   1      30.406  27.873  23.465  1.00  0.00     0.037 C 
ATOM      7  O   UNL A   1      32.590  28.431  24.146  1.00  0.00    -0.361 OA
ATOM      8  C   UNL A   1      30.342  29.177  24.239  1.00  0.00     0.047 C 
BRANCH   5   9
ATOM      9  C   UNL A   1      31.803  26.185  24.802  1.00  0.00     0.146 C 
BRANCH   9  10
ATOM     10  N   UNL A   1      33.155  25.837  25.207  1.00  0.00    -0.367 N 
ATOM     11  H   UNL A   1      33.711  26.499  25.680  1.00  0.00     0.162 HD
BRANCH  10  12
ATOM     12  C   UNL A   1      33.665  24.581  24.932  1.00  0.00     0.133 A 
ATOM     13  C   UNL A   1      35.455  23.174  24.421  1.00  0.00     0.218 A 
ATOM     14  C   UNL A   1      34.982  24.458  24.555  1.00  0.00     0.115 A 
ATOM     15  N   UNL A   1      34.706  22.068  24.517  1.00  0.00    -0.202 NA
ATOM     16  C   UNL A   1      33.421  22.306  24.782  1.00  0.00     0.228 A 
ATOM     17  N   UNL A   1      32.871  23.502  25.037  1.00  0.00    -0.219 NA
BRANCH  13  18
ATOM     18  O   UNL A   1      36.797  23.001  24.184  1.00  0.00    -0.478 OA
BRANCH  18  19
ATOM     19  C   UNL A   1      37.399  22.230  25.231  1.00  0.00     0.231 C 
BRANCH  19  20
ATOM     20  C   UNL A   1      38.445  23.068  25.973  1.00  0.00     0.038 C 
ATOM     21  C   UNL A   1      39.555  22.227  26.592  1.00  0.00     0.007 C 
ENDBRANCH  19  20
ENDBRANCH  18  19
ENDBRANCH  13  18
ENDBRANCH  10  12
ENDBRANCH   9  10
ENDBRANCH   5   9
ENDBRANCH   2   4
ENDBRANCH   1   2
BRANCH   1  22
ATOM     22  C   UNL A   1      33.853  30.277  27.109  1.00  0.00     0.274 C 
BRANCH  22  23
ATOM     23  C   UNL A   1      34.396  31.462  27.899  1.00  0.00     0.275 C 
BRANCH  23  24
ATOM     24  O   UNL A   1      35.826  31.365  28.011  1.00  0.00    -0.458 OA
BRANCH  24  25
ATOM     25  C   UNL A   1      36.284  30.856  29.177  1.00  0.00     0.338 C 
ATOM     26  O   UNL A   1      35.744  30.889  30.268  1.00  0.00    -0.246 OA
BRANCH  25  27
ATOM     27  C   UNL A   1      37.556  30.164  28.934  1.00  0.00     0.060 A 
ATOM     28  C   UNL A   1      38.384  29.892  30.020  1.00  0.00     0.016 A 
ATOM     29  C   UNL A   1      37.987  29.911  27.634  1.00  0.00     0.016 A 
ATOM     30  C   UNL A   1      39.684  29.445  29.811  1.00  0.00     0.010 A 
ATOM     31  C   UNL A   1      39.268  29.385  27.429  1.00  0.00     0.010 A 
ATOM     32  C   UNL A   1      40.143  29.183  28.512  1.00  0.00    -0.014 A 
BRANCH  32  33
ATOM     33  C   UNL A   1      41.550  28.754  28.290  1.00  0.00     0.031 A 
ATOM     34  C   UNL A   1      42.671  29.754  28.407  1.00  0.00     0.074 A 
ATOM     35  C   UNL A   1      41.831  27.465  28.012  1.00  0.00     0.049 A 
ATOM     36  N   UNL A   1      43.936  29.615  28.109  1.00  0.00    -0.248 NA
ATOM     37  C   UNL A   1      42.318  31.088  28.920  1.00  0.00     0.031 C 
ATOM     38  C   UNL A   1      40.850  26.383  27.914  1.00  0.00     0.029 A 
ATOM     39  N   UNL A   1      43.032  26.846  27.767  1.00  0.00    -0.354 N 
ATOM     40  C   UNL A   1      44.521  30.854  28.345  1.00  0.00     0.074 A 
ATOM     41  C   UNL A   1      43.472  31.732  28.817  1.00  0.00     0.031 C 
ATOM     42  C   UNL A   1      41.489  25.231  27.658  1.00  0.00     0.029 A 
ATOM     43  C   UNL A   1      42.914  25.502  27.504  1.00  0.00     0.049 A 
ATOM     44  H   UNL A   1      43.895  27.319  27.778  1.00  0.00     0.167 HD
ATOM     45  C   UNL A   1      45.813  31.226  28.178  1.00  0.00     0.037 A 
ATOM     46  C   UNL A   1      43.841  24.594  27.142  1.00  0.00     0.037 A 
ATOM     47  C   UNL A   1      46.865  30.339  27.759  1.00  0.00     0.049 A 
ATOM     48  C   UNL A   1      45.267  25.030  26.956  1.00  0.00     0.074 A 
ATOM     49  C   UNL A   1      48.206  30.621  27.563  1.00  0.00     0.029 A 
ATOM     50  N   UNL A   1      46.699  28.989  27.487  1.00  0.00    -0.354 N 
ATOM     51  N   UNL A   1      45.789  26.222  27.119  1.00  0.00    -0.248 NA
ATOM     52  C   UNL A   1      46.223  24.005  26.519  1.00  0.00     0.031 C 
ATOM     53  C   UNL A   1      48.847  29.444  27.157  1.00  0.00     0.029 A 
ATOM     54  C   UNL A   1      47.910  28.425  27.124  1.00  0.00     0.049 A 
ATOM     55  H   UNL A   1      45.844  28.503  27.543  1.00  0.00     0.167 HD
ATOM     56  C   UNL A   1      47.136  26.091  26.801  1.00  0.00     0.074 A 
ATOM     57  C   UNL A   1      47.352  24.699  26.459  1.00  0.00     0.031 C 
ATOM     58  C   UNL A   1      48.104  27.038  26.786  1.00  0.00     0.037 A 
BRANCH  45  59
ATOM     59  C   UNL A   1      46.154  32.668  28.422  1.00  0.00     0.058 A 
ATOM     60  C   UNL A   1      46.043  33.638  27.416  1.00  0.00     0.135 A 
ATOM     61  C   UNL A   1      46.582  33.087  29.694  1.00  0.00     0.135 A 
ATOM     62  F   UNL A   1      45.658  33.285  26.179  1.00  0.00    -0.206 F 
ATOM     63  C   UNL A   1      46.367  34.970  27.652  1.00  0.00     0.059 A 
ATOM     64  C   UNL A   1      46.892  34.417  29.959  1.00  0.00     0.059 A 
ATOM     65  F   UNL A   1      46.707  32.198  30.692  1.00  0.00    -0.206 F 
ATOM     66  C   UNL A   1      46.797  35.349  28.926  1.00  0.00     0.060 A 
BRANCH  66  67
ATOM     67  S   UNL A   1      47.222  37.079  29.223  1.00  0.00     0.124 S 
ATOM     68  O   UNL A   1      46.180  37.476  30.164  1.00  0.00    -0.237 OA
ATOM     69  O   UNL A   1      48.570  36.984  29.775  1.00  0.00    -0.237 OA
ATOM     70  O   UNL A   1      47.134  37.681  27.896  1.00  0.00    -0.744 OA
ENDBRANCH  66  67
ENDBRANCH  45  59
BRANCH  46  71
ATOM     71  C   UNL A   1      43.435  23.188  26.890  1.00  0.00     0.058 A 
ATOM     72  C   UNL A   1      43.349  22.684  25.585  1.00  0.00     0.135 A 
ATOM     73  C   UNL A   1      43.152  22.315  27.952  1.00  0.00     0.135 A 
ATOM     74  F   UNL A   1      43.602  23.487  24.538  1.00  0.00    -0.206 F 
ATOM     75  C   UNL A   1      42.993  21.362  25.338  1.00  0.00     0.059 A 
ATOM     76  C   UNL A   1      42.814  20.985  27.733  1.00  0.00     0.059 A 
ATOM     77  F   UNL A   1      43.234  22.750  29.219  1.00  0.00    -0.206 F 
ATOM     78  C   UNL A   1      42.728  20.520  26.420  1.00  0.00     0.060 A 
BRANCH  78  79
ATOM     79  S   UNL A   1      42.322  18.787  26.107  1.00  0.00     0.124 S 
ATOM     80  O   UNL A   1      42.636  18.179  27.395  1.00  0.00    -0.237 OA
ATOM     81  O   UNL A   1      40.907  18.852  25.760  1.00  0.00    -0.237 OA
ATOM     82  O   UNL A   1      43.213  18.433  25.006  1.00  0.00    -0.744 OA
ENDBRANCH  78  79
ENDBRANCH  46  71
BRANCH  58  83
ATOM     83  C   UNL A   1      49.485  26.597  26.399  1.00  0.00     0.058 A 
ATOM     84  C   UNL A   1      50.346  26.001  27.332  1.00  0.00     0.135 A 
ATOM     85  C   UNL A   1      49.935  26.736  25.078  1.00  0.00     0.135 A 
ATOM     86  F   UNL A   1      49.961  25.853  28.609  1.00  0.00    -0.206 F 
ATOM     87  C   UNL A   1      51.619  25.572  26.971  1.00  0.00     0.059 A 
ATOM     88  C   UNL A   1      51.198  26.299  24.691  1.00  0.00     0.059 A 
ATOM     89  F   UNL A   1      49.142  27.292  24.149  1.00  0.00    -0.206 F 
ATOM     90  C   UNL A   1      52.037  25.729  25.648  1.00  0.00     0.060 A 
BRANCH  90  91
ATOM     91  S   UNL A   1      53.681  25.147  25.178  1.00  0.00     0.124 S 
ATOM     92  O   UNL A   1      54.526  25.846  26.140  1.00  0.00    -0.237 OA
ATOM     93  O   UNL A   1      53.571  23.703  25.362  1.00  0.00    -0.237 OA
ATOM     94  O   UNL A   1      53.808  25.586  23.791  1.00  0.00    -0.744 OA
ENDBRANCH  90  91
ENDBRANCH  58  83
ENDBRANCH  32  33
ENDBRANCH  25  27
ENDBRANCH  24  25
ENDBRANCH  23  24
ENDBRANCH  22  23
ENDBRANCH   1  22
TORSDOF 20
ENDMDL
MODEL 3
REMARK VINA RESULT:     -10.0      3.323      5.579
REMARK SMILES CCCOc1cc(NC[C@H]2CC[C@@H](C(=O)OCCOC(=O)c3ccc(-c4c5nc(c(-c6c(F)cc(S(=O)(=O)[O-])cc6F)c6ccc([nH]6)c(-c6c(F)cc(S(=O)(=O)[O-])cc6F)c6nc(c(-c7c(F)cc(S(=O)(=O)[O-])cc7F)c7ccc4[nH]7)C=C6)C=C5)cc3)O2)ncn1
REMARK SMILES IDX 16 1 14 2 15 3 13 4 10 5 11 6 88 7 12 8 9 9 8 10 7 12 5 13
REMARK SMILES IDX 6 14 91 15 90 16 89 17 4 18 3 19 2 20 1 21 17 22 18 23 19 24
REMARK SMILES IDX 20 25 21 26 22 27 23 28 87 29 24 30 86 31 25 32 26 33 27 34
REMARK SMILES IDX 80 35 28 36 85 37 79 38 81 39 29 40 84 41 78 42 77 43 30 45
REMARK SMILES IDX 64 46 43 47 63 48 44 49 47 50 62 51 82 52 45 53 46 54 61 56
REMARK SMILES IDX 83 57 48 58 31 59 32 60 41 61 33 62 34 63 40 64 42 65 35 66
REMARK SMILES IDX 36 67 37 68 38 69 39 70 65 71 66 72 75 73 67 74 68 75 74 76
REMARK SMILES IDX 76 77 69 78 70 79 71 80 72 81 73 82 49 83 50 84 59 85 51 86
REMARK SMILES IDX 52 87 58 88 60 89 53 90 54 91 55 92 56 93 57 94
REMARK H PARENT 8 11 81 44 47 55
REMARK Flexibility Score: inf
ROOT
ATOM      1  O   UNL A   1      42.060  21.396  27.303  1.00  0.00    -0.460 OA
ENDROOT
BRANCH   1   2
ATOM      2  C   UNL A   1      42.261  20.059  27.125  1.00  0.00     0.335 C 
ATOM      3  O   UNL A   1      42.128  19.215  28.003  1.00  0.00    -0.249 OA
BRANCH   2   4
ATOM      4  C   UNL A   1      42.686  19.751  25.681  1.00  0.00     0.228 C 
ATOM      5  C   UNL A   1      44.507  21.043  24.964  1.00  0.00     0.138 C 
ATOM      6  C   UNL A   1      45.010  19.607  25.023  1.00  0.00     0.037 C 
ATOM      7  O   UNL A   1      43.072  20.943  24.985  1.00  0.00    -0.361 OA
ATOM      8  C   UNL A   1      43.867  18.799  25.609  1.00  0.00     0.047 C 
BRANCH   5   9
ATOM      9  C   UNL A   1      45.031  21.927  26.119  1.00  0.00     0.146 C 
BRANCH   9  10
ATOM     10  N   UNL A   1      44.182  23.087  26.339  1.00  0.00    -0.367 N 
ATOM     11  H   UNL A   1      43.311  23.150  25.884  1.00  0.00     0.162 HD
BRANCH  10  12
ATOM     12  C   UNL A   1      44.593  24.102  27.186  1.00  0.00     0.133 A 
ATOM     13  C   UNL A   1      45.089  24.900  29.322  1.00  0.00     0.218 A 
ATOM     14  C   UNL A   1      44.549  23.902  28.546  1.00  0.00     0.115 A 
ATOM     15  N   UNL A   1      45.536  26.073  28.857  1.00  0.00    -0.202 NA
ATOM     16  C   UNL A   1      45.436  26.205  27.534  1.00  0.00     0.228 A 
ATOM     17  N   UNL A   1      45.028  25.264  26.671  1.00  0.00    -0.219 NA
BRANCH  13  18
ATOM     18  O   UNL A   1      45.194  24.681  30.673  1.00  0.00    -0.478 OA
BRANCH  18  19
ATOM     19  C   UNL A   1      44.207  23.738  31.110  1.00  0.00     0.231 C 
BRANCH  19  20
ATOM     20  C   UNL A   1      43.974  23.874  32.618  1.00  0.00     0.038 C 
ATOM     21  C   UNL A   1      45.247  24.196  33.394  1.00  0.00     0.007 C 
ENDBRANCH  19  20
ENDBRANCH  18  19
ENDBRANCH  13  18
ENDBRANCH  10  12
ENDBRANCH   9  10
ENDBRANCH   5   9
ENDBRANCH   2   4
ENDBRANCH   1   2
BRANCH   1  22
ATOM     22  C   UNL A   1      40.717  21.782  27.662  1.00  0.00     0.274 C 
BRANCH  22  23
ATOM     23  C   UNL A   1      39.972  22.382  26.474  1.00  0.00     0.275 C 
BRANCH  23  24
ATOM     24  O   UNL A   1      39.662  23.761  26.735  1.00  0.00    -0.458 OA
BRANCH  24  25
ATOM     25  C   UNL A   1      40.686  24.628  26.574  1.00  0.00     0.338 C 
ATOM     26  O   UNL A   1      41.420  24.745  25.608  1.00  0.00    -0.246 OA
BRANCH  25  27
ATOM     27  C   UNL A   1      40.765  25.505  27.749  1.00  0.00     0.060 A 
ATOM     28  C   UNL A   1      39.658  25.594  28.588  1.00  0.00     0.016 A 
ATOM     29  C   UNL A   1      41.869  26.333  27.942  1.00  0.00     0.016 A 
ATOM     30  C   UNL A   1      39.608  26.572  29.576  1.00  0.00     0.010 A 
ATOM     31  C   UNL A   1      41.850  27.263  28.987  1.00  0.00     0.010 A 
ATOM     32  C   UNL A   1      40.705  27.418  29.791  1.00  0.00    -0.014 A 
BRANCH  32  33
ATOM     33  C   UNL A   1      40.628  28.495  30.814  1.00  0.00     0.031 A 
ATOM     34  C   UNL A   1      41.580  28.495  31.982  1.00  0.00     0.074 A 
ATOM     35  C   UNL A   1      39.726  29.489  30.689  1.00  0.00     0.049 A 
ATOM     36  N   UNL A   1      41.581  29.252  33.048  1.00  0.00    -0.248 NA
ATOM     37  C   UNL A   1      42.672  27.508  31.947  1.00  0.00     0.031 C 
ATOM     38  C   UNL A   1      38.774  29.639  29.586  1.00  0.00     0.029 A 
ATOM     39  N   UNL A   1      39.469  30.569  31.496  1.00  0.00    -0.354 N 
ATOM     40  C   UNL A   1      42.633  28.800  33.836  1.00  0.00     0.074 A 
ATOM     41  C   UNL A   1      43.255  27.705  33.121  1.00  0.00     0.031 C 
ATOM     42  C   UNL A   1      38.058  30.758  29.771  1.00  0.00     0.029 A 
ATOM     43  C   UNL A   1      38.449  31.368  31.038  1.00  0.00     0.049 A 
ATOM     44  H   UNL A   1      39.968  30.754  32.325  1.00  0.00     0.167 HD
ATOM     45  C   UNL A   1      43.041  29.252  35.046  1.00  0.00     0.037 A 
ATOM     46  C   UNL A   1      37.865  32.449  31.591  1.00  0.00     0.037 A 
ATOM     47  C   UNL A   1      42.455  30.373  35.732  1.00  0.00     0.049 A 
ATOM     48  C   UNL A   1      38.328  32.930  32.936  1.00  0.00     0.074 A 
ATOM     49  C   UNL A   1      42.800  30.910  36.961  1.00  0.00     0.029 A 
ATOM     50  N   UNL A   1      41.412  31.144  35.239  1.00  0.00    -0.354 N 
ATOM     51  N   UNL A   1      39.281  32.449  33.698  1.00  0.00    -0.248 NA
ATOM     52  C   UNL A   1      37.625  34.086  33.506  1.00  0.00     0.031 C 
ATOM     53  C   UNL A   1      41.953  31.995  37.218  1.00  0.00     0.029 A 
ATOM     54  C   UNL A   1      41.099  32.150  36.138  1.00  0.00     0.049 A 
ATOM     55  H   UNL A   1      40.960  30.997  34.377  1.00  0.00     0.167 HD
ATOM     56  C   UNL A   1      39.290  33.241  34.839  1.00  0.00     0.074 A 
ATOM     57  C   UNL A   1      38.263  34.247  34.658  1.00  0.00     0.031 C 
ATOM     58  C   UNL A   1      40.073  33.140  35.941  1.00  0.00     0.037 A 
BRANCH  45  59
ATOM     59  C   UNL A   1      44.159  28.511  35.721  1.00  0.00     0.058 A 
ATOM     60  C   UNL A   1      45.503  28.859  35.528  1.00  0.00     0.135 A 
ATOM     61  C   UNL A   1      43.874  27.445  36.591  1.00  0.00     0.135 A 
ATOM     62  F   UNL A   1      45.828  29.858  34.691  1.00  0.00    -0.206 F 
ATOM     63  C   UNL A   1      46.531  28.162  36.155  1.00  0.00     0.059 A 
ATOM     64  C   UNL A   1      44.885  26.745  37.244  1.00  0.00     0.059 A 
ATOM     65  F   UNL A   1      42.604  27.070  36.808  1.00  0.00    -0.206 F 
ATOM     66  C   UNL A   1      46.212  27.102  37.006  1.00  0.00     0.060 A 
BRANCH  66  67
ATOM     67  S   UNL A   1      47.552  26.196  37.810  1.00  0.00     0.124 S 
ATOM     68  O   UNL A   1      47.883  25.205  36.792  1.00  0.00    -0.237 OA
ATOM     69  O   UNL A   1      48.551  27.237  38.029  1.00  0.00    -0.237 OA
ATOM     70  O   UNL A   1      46.926  25.670  39.020  1.00  0.00    -0.744 OA
ENDBRANCH  66  67
ENDBRANCH  45  59
BRANCH  46  71
ATOM     71  C   UNL A   1      36.746  33.122  30.884  1.00  0.00     0.058 A 
ATOM     72  C   UNL A   1      35.415  32.901  31.264  1.00  0.00     0.135 A 
ATOM     73  C   UNL A   1      36.990  34.021  29.834  1.00  0.00     0.135 A 
ATOM     74  F   UNL A   1      35.135  32.042  32.257  1.00  0.00    -0.206 F 
ATOM     75  C   UNL A   1      34.360  33.546  30.625  1.00  0.00     0.059 A 
ATOM     76  C   UNL A   1      35.954  34.692  29.194  1.00  0.00     0.059 A 
ATOM     77  F   UNL A   1      38.249  34.274  29.445  1.00  0.00    -0.206 F 
ATOM     78  C   UNL A   1      34.641  34.440  29.591  1.00  0.00     0.060 A 
BRANCH  78  79
ATOM     79  S   UNL A   1      33.278  35.323  28.797  1.00  0.00     0.124 S 
ATOM     80  O   UNL A   1      33.998  36.304  27.993  1.00  0.00    -0.237 OA
ATOM     81  O   UNL A   1      32.604  34.262  28.057  1.00  0.00    -0.237 OA
ATOM     82  O   UNL A   1      32.529  35.860  29.930  1.00  0.00    -0.744 OA
ENDBRANCH  78  79
ENDBRANCH  46  71
BRANCH  58  83
ATOM     83  C   UNL A   1      39.855  34.151  37.027  1.00  0.00     0.058 A 
ATOM     84  C   UNL A   1      40.439  35.425  36.963  1.00  0.00     0.135 A 
ATOM     85  C   UNL A   1      39.026  33.858  38.120  1.00  0.00     0.135 A 
ATOM     86  F   UNL A   1      41.245  35.749  35.940  1.00  0.00    -0.206 F 
ATOM     87  C   UNL A   1      40.222  36.372  37.959  1.00  0.00     0.059 A 
ATOM     88  C   UNL A   1      38.782  34.795  39.119  1.00  0.00     0.059 A 
ATOM     89  F   UNL A   1      38.439  32.655  38.219  1.00  0.00    -0.206 F 
ATOM     90  C   UNL A   1      39.394  36.045  39.036  1.00  0.00     0.060 A 
BRANCH  90  91
ATOM     91  S   UNL A   1      39.094  37.286  40.313  1.00  0.00     0.124 S 
ATOM     92  O   UNL A   1      38.187  38.200  39.626  1.00  0.00    -0.237 OA
ATOM     93  O   UNL A   1      38.504  36.498  41.390  1.00  0.00    -0.237 OA
ATOM     94  O   UNL A   1      40.428  37.812  40.590  1.00  0.00    -0.744 OA
ENDBRANCH  90  91
ENDBRANCH  58  83
ENDBRANCH  32  33
ENDBRANCH  25  27
ENDBRANCH  24  25
ENDBRANCH  23  24
ENDBRANCH  22  23
ENDBRANCH   1  22
TORSDOF 20
ENDMDL
