MODEL 1
REMARK VINA RESULT:     -11.6      0.000      0.000
REMARK SMILES Cc1cc2c(c(C)c1Cl)C=C(C(=O)OCCOC(=O)c1ccc(-c3c4nc(c(-c5c(F)cc(S(=O)(=O)[O-])cc5F)c5ccc([nH]5)c(-c5c(F)cc(S(=O)(=O)[O-])cc5F)c5nc(c(-c6c(F)cc(S(=O)(=O)[O-])cc6F)c6ccc3[nH]6)C=C5)C=C4)cc1)[C@H](C(F)(F)F)O2
REMARK SMILES IDX 16 1 15 2 14 3 12 4 13 5 11 6 1 7 2 8 3 9 8 10 4 11 6 12
REMARK SMILES IDX 9 13 5 14 91 15 7 16 10 17 86 18 87 19 88 20 89 21 90 22
REMARK SMILES IDX 17 23 18 24 19 25 20 26 21 27 85 28 22 29 84 30 23 31 24 32
REMARK SMILES IDX 25 33 78 34 26 35 83 36 77 37 79 38 27 39 82 40 76 41 75 42
REMARK SMILES IDX 28 44 62 45 41 46 61 47 42 48 45 49 60 50 80 51 43 52 44 53
REMARK SMILES IDX 59 55 81 56 46 57 29 58 30 59 39 60 31 61 32 62 38 63 40 64
REMARK SMILES IDX 33 65 34 66 35 67 36 68 37 69 63 70 64 71 73 72 65 73 66 74
REMARK SMILES IDX 72 75 74 76 67 77 68 78 69 79 70 80 71 81 47 82 48 83 57 84
REMARK SMILES IDX 49 85 50 86 56 87 58 88 51 89 52 90 53 91 54 92 55 93
REMARK H PARENT 79 43 45 54
REMARK Flexibility Score: inf
ROOT
ATOM      1  C   UNL A   1      34.386  31.872  28.696  1.00  0.00     0.275 C 
ENDROOT
BRANCH   1   2
ATOM      2  C   UNL A   1      34.346  33.291  28.131  1.00  0.00     0.275 C 
BRANCH   2   3
ATOM      3  O   UNL A   1      34.825  34.233  29.113  1.00  0.00    -0.459 OA
BRANCH   3   4
ATOM      4  C   UNL A   1      33.951  34.585  30.084  1.00  0.00     0.338 C 
ATOM      5  O   UNL A   1      32.776  34.851  29.930  1.00  0.00    -0.246 OA
BRANCH   4   6
ATOM      6  C   UNL A   1      34.614  34.548  31.404  1.00  0.00     0.087 C 
ATOM      7  C   UNL A   1      38.181  33.195  36.653  1.00  0.00     0.046 C 
ATOM      8  C   UNL A   1      37.686  33.484  35.261  1.00  0.00    -0.028 A 
ATOM      9  C   UNL A   1      36.339  33.853  35.126  1.00  0.00     0.052 A 
ATOM     10  C   UNL A   1      38.480  33.371  34.102  1.00  0.00     0.047 A 
ATOM     11  C   UNL A   1      35.779  34.086  33.873  1.00  0.00     0.128 A 
ATOM     12  C   UNL A   1      37.930  33.612  32.821  1.00  0.00    -0.021 A 
ATOM     13  Cl  UNL A   1      40.148  32.908  34.264  1.00  0.00    -0.084 Cl
ATOM     14  C   UNL A   1      36.553  33.942  32.719  1.00  0.00     0.022 A 
ATOM     15  O   UNL A   1      34.446  34.394  33.870  1.00  0.00    -0.475 OA
ATOM     16  C   UNL A   1      38.776  33.533  31.569  1.00  0.00     0.047 C 
ATOM     17  C   UNL A   1      35.866  34.071  31.436  1.00  0.00     0.027 C 
ATOM     18  C   UNL A   1      33.853  34.912  32.646  1.00  0.00     0.316 C 
BRANCH  18  19
ATOM     19  C   UNL A   1      33.540  36.411  32.810  1.00  0.00     0.430 C 
ATOM     20  F   UNL A   1      33.647  36.799  34.107  1.00  0.00    -0.167 F 
ATOM     21  F   UNL A   1      34.358  37.202  32.086  1.00  0.00    -0.167 F 
ATOM     22  F   UNL A   1      32.262  36.692  32.450  1.00  0.00    -0.167 F 
ENDBRANCH  18  19
ENDBRANCH   4   6
ENDBRANCH   3   4
ENDBRANCH   2   3
ENDBRANCH   1   2
BRANCH   1  23
ATOM     23  O   UNL A   1      35.706  31.331  28.518  1.00  0.00    -0.458 OA
BRANCH  23  24
ATOM     24  C   UNL A   1      36.294  30.818  29.623  1.00  0.00     0.338 C 
ATOM     25  O   UNL A   1      35.861  30.821  30.763  1.00  0.00    -0.246 OA
BRANCH  24  26
ATOM     26  C   UNL A   1      37.584  30.213  29.249  1.00  0.00     0.060 A 
ATOM     27  C   UNL A   1      38.498  29.883  30.245  1.00  0.00     0.016 A 
ATOM     28  C   UNL A   1      37.929  30.061  27.908  1.00  0.00     0.016 A 
ATOM     29  C   UNL A   1      39.791  29.495  29.903  1.00  0.00     0.010 A 
ATOM     30  C   UNL A   1      39.196  29.563  27.569  1.00  0.00     0.010 A 
ATOM     31  C   UNL A   1      40.160  29.308  28.561  1.00  0.00    -0.014 A 
BRANCH  31  32
ATOM     32  C   UNL A   1      41.549  28.872  28.220  1.00  0.00     0.031 A 
ATOM     33  C   UNL A   1      42.709  29.837  28.315  1.00  0.00     0.074 A 
ATOM     34  C   UNL A   1      41.790  27.590  27.868  1.00  0.00     0.049 A 
ATOM     35  N   UNL A   1      43.955  29.667  27.951  1.00  0.00    -0.248 NA
ATOM     36  C   UNL A   1      42.432  31.168  28.879  1.00  0.00     0.031 C 
ATOM     37  C   UNL A   1      40.778  26.536  27.763  1.00  0.00     0.029 A 
ATOM     38  N   UNL A   1      42.964  26.941  27.566  1.00  0.00    -0.354 N 
ATOM     39  C   UNL A   1      44.596  30.879  28.190  1.00  0.00     0.074 A 
ATOM     40  C   UNL A   1      43.599  31.781  28.724  1.00  0.00     0.031 C 
ATOM     41  C   UNL A   1      41.380  25.365  27.513  1.00  0.00     0.029 A 
ATOM     42  C   UNL A   1      42.808  25.593  27.335  1.00  0.00     0.049 A 
ATOM     43  H   UNL A   1      43.835  27.397  27.520  1.00  0.00     0.167 HD
ATOM     44  C   UNL A   1      45.895  31.208  27.990  1.00  0.00     0.037 A 
ATOM     45  C   UNL A   1      43.702  24.643  26.989  1.00  0.00     0.037 A 
ATOM     46  C   UNL A   1      46.901  30.290  27.517  1.00  0.00     0.049 A 
ATOM     47  C   UNL A   1      45.134  25.036  26.757  1.00  0.00     0.074 A 
ATOM     48  C   UNL A   1      48.241  30.537  27.269  1.00  0.00     0.029 A 
ATOM     49  N   UNL A   1      46.687  28.946  27.252  1.00  0.00    -0.354 N 
ATOM     50  N   UNL A   1      45.697  26.210  26.904  1.00  0.00    -0.248 NA
ATOM     51  C   UNL A   1      46.044  23.985  26.280  1.00  0.00     0.031 C 
ATOM     52  C   UNL A   1      48.831  29.348  26.829  1.00  0.00     0.029 A 
ATOM     53  C   UNL A   1      47.868  28.352  26.840  1.00  0.00     0.049 A 
ATOM     54  H   UNL A   1      45.822  28.483  27.341  1.00  0.00     0.167 HD
ATOM     55  C   UNL A   1      47.028  26.040  26.542  1.00  0.00     0.074 A 
ATOM     56  C   UNL A   1      47.191  24.645  26.187  1.00  0.00     0.031 C 
ATOM     57  C   UNL A   1      48.020  26.961  26.498  1.00  0.00     0.037 A 
BRANCH  44  58
ATOM     58  C   UNL A   1      46.316  32.628  28.261  1.00  0.00     0.058 A 
ATOM     59  C   UNL A   1      46.864  33.017  29.494  1.00  0.00     0.135 A 
ATOM     60  C   UNL A   1      46.232  33.598  27.249  1.00  0.00     0.135 A 
ATOM     61  F   UNL A   1      46.953  32.134  30.501  1.00  0.00    -0.206 F 
ATOM     62  C   UNL A   1      47.299  34.319  29.718  1.00  0.00     0.059 A 
ATOM     63  C   UNL A   1      46.684  34.901  27.443  1.00  0.00     0.059 A 
ATOM     64  F   UNL A   1      45.719  33.281  26.050  1.00  0.00    -0.206 F 
ATOM     65  C   UNL A   1      47.207  35.254  28.685  1.00  0.00     0.060 A 
BRANCH  65  66
ATOM     66  S   UNL A   1      47.794  36.935  28.986  1.00  0.00     0.124 S 
ATOM     67  O   UNL A   1      47.173  37.664  27.884  1.00  0.00    -0.237 OA
ATOM     68  O   UNL A   1      47.261  37.220  30.314  1.00  0.00    -0.237 OA
ATOM     69  O   UNL A   1      49.247  36.808  28.912  1.00  0.00    -0.744 OA
ENDBRANCH  65  66
ENDBRANCH  44  58
BRANCH  45  70
ATOM     70  C   UNL A   1      43.258  23.234  26.821  1.00  0.00     0.058 A 
ATOM     71  C   UNL A   1      43.145  22.663  25.545  1.00  0.00     0.135 A 
ATOM     72  C   UNL A   1      42.978  22.418  27.928  1.00  0.00     0.135 A 
ATOM     73  F   UNL A   1      43.387  23.405  24.453  1.00  0.00    -0.206 F 
ATOM     74  C   UNL A   1      42.776  21.332  25.372  1.00  0.00     0.059 A 
ATOM     75  C   UNL A   1      42.634  21.077  27.782  1.00  0.00     0.059 A 
ATOM     76  F   UNL A   1      43.080  22.913  29.171  1.00  0.00    -0.206 F 
ATOM     77  C   UNL A   1      42.532  20.545  26.498  1.00  0.00     0.060 A 
BRANCH  77  78
ATOM     78  S   UNL A   1      42.132  18.798  26.268  1.00  0.00     0.124 S 
ATOM     79  O   UNL A   1      42.295  18.279  27.621  1.00  0.00    -0.237 OA
ATOM     80  O   UNL A   1      40.762  18.859  25.768  1.00  0.00    -0.237 OA
ATOM     81  O   UNL A   1      43.126  18.354  25.295  1.00  0.00    -0.744 OA
ENDBRANCH  77  78
ENDBRANCH  45  70
BRANCH  57  82
ATOM     82  C   UNL A   1      49.381  26.497  26.069  1.00  0.00     0.058 A 
ATOM     83  C   UNL A   1      49.859  26.733  24.773  1.00  0.00     0.135 A 
ATOM     84  C   UNL A   1      50.249  25.888  26.992  1.00  0.00     0.135 A 
ATOM     85  F   UNL A   1      49.064  27.304  23.853  1.00  0.00    -0.206 F 
ATOM     86  C   UNL A   1      51.152  26.380  24.401  1.00  0.00     0.059 A 
ATOM     87  C   UNL A   1      51.552  25.545  26.647  1.00  0.00     0.059 A 
ATOM     88  F   UNL A   1      49.839  25.646  28.246  1.00  0.00    -0.206 F 
ATOM     89  C   UNL A   1      51.994  25.794  25.347  1.00  0.00     0.060 A 
BRANCH  89  90
ATOM     90  S   UNL A   1      53.689  25.400  24.868  1.00  0.00     0.124 S 
ATOM     91  O   UNL A   1      53.623  23.951  24.711  1.00  0.00    -0.237 OA
ATOM     92  O   UNL A   1      53.849  26.164  23.634  1.00  0.00    -0.237 OA
ATOM     93  O   UNL A   1      54.482  25.874  25.998  1.00  0.00    -0.744 OA
ENDBRANCH  89  90
ENDBRANCH  57  82
ENDBRANCH  31  32
ENDBRANCH  24  26
ENDBRANCH  23  24
ENDBRANCH   1  23
TORSDOF 15
ENDMDL
MODEL 2
REMARK VINA RESULT:     -11.6      6.986     13.091
REMARK SMILES Cc1cc2c(c(C)c1Cl)C=C(C(=O)OCCOC(=O)c1ccc(-c3c4nc(c(-c5c(F)cc(S(=O)(=O)[O-])cc5F)c5ccc([nH]5)c(-c5c(F)cc(S(=O)(=O)[O-])cc5F)c5nc(c(-c6c(F)cc(S(=O)(=O)[O-])cc6F)c6ccc3[nH]6)C=C5)C=C4)cc1)[C@H](C(F)(F)F)O2
REMARK SMILES IDX 16 1 15 2 14 3 12 4 13 5 11 6 1 7 2 8 3 9 8 10 4 11 6 12
REMARK SMILES IDX 9 13 5 14 91 15 7 16 10 17 86 18 87 19 88 20 89 21 90 22
REMARK SMILES IDX 17 23 18 24 19 25 20 26 21 27 85 28 22 29 84 30 23 31 24 32
REMARK SMILES IDX 25 33 78 34 26 35 83 36 77 37 79 38 27 39 82 40 76 41 75 42
REMARK SMILES IDX 28 44 62 45 41 46 61 47 42 48 45 49 60 50 80 51 43 52 44 53
REMARK SMILES IDX 59 55 81 56 46 57 29 58 30 59 39 60 31 61 32 62 38 63 40 64
REMARK SMILES IDX 33 65 34 66 35 67 36 68 37 69 63 70 64 71 73 72 65 73 66 74
REMARK SMILES IDX 72 75 74 76 67 77 68 78 69 79 70 80 71 81 47 82 48 83 57 84
REMARK SMILES IDX 49 85 50 86 56 87 58 88 51 89 52 90 53 91 54 92 55 93
REMARK H PARENT 79 43 45 54
REMARK Flexibility Score: inf
ROOT
ATOM      1  C   UNL A   1      37.790  23.784  25.677  1.00  0.00     0.275 C 
ENDROOT
BRANCH   1   2
ATOM      2  C   UNL A   1      36.308  23.718  26.042  1.00  0.00     0.275 C 
BRANCH   2   3
ATOM      3  O   UNL A   1      35.549  24.620  25.211  1.00  0.00    -0.459 OA
BRANCH   3   4
ATOM      4  C   UNL A   1      34.202  24.530  25.301  1.00  0.00     0.338 C 
ATOM      5  O   UNL A   1      33.560  23.513  25.472  1.00  0.00    -0.246 OA
BRANCH   4   6
ATOM      6  C   UNL A   1      33.595  25.875  25.222  1.00  0.00     0.087 C 
ATOM      7  C   UNL A   1      31.201  31.806  26.314  1.00  0.00     0.046 C 
ATOM      8  C   UNL A   1      32.057  30.570  26.241  1.00  0.00    -0.028 A 
ATOM      9  C   UNL A   1      31.562  29.495  25.485  1.00  0.00     0.052 A 
ATOM     10  C   UNL A   1      33.290  30.423  26.906  1.00  0.00     0.047 A 
ATOM     11  C   UNL A   1      32.257  28.293  25.405  1.00  0.00     0.128 A 
ATOM     12  C   UNL A   1      34.015  29.210  26.829  1.00  0.00    -0.021 A 
ATOM     13  Cl  UNL A   1      33.904  31.749  27.848  1.00  0.00    -0.084 Cl
ATOM     14  C   UNL A   1      33.463  28.130  26.090  1.00  0.00     0.022 A 
ATOM     15  O   UNL A   1      31.650  27.307  24.676  1.00  0.00    -0.475 OA
ATOM     16  C   UNL A   1      35.358  29.046  27.505  1.00  0.00     0.047 C 
ATOM     17  C   UNL A   1      34.068  26.800  26.069  1.00  0.00     0.027 C 
ATOM     18  C   UNL A   1      32.423  26.127  24.319  1.00  0.00     0.316 C 
BRANCH  18  19
ATOM     19  C   UNL A   1      32.745  26.149  22.813  1.00  0.00     0.430 C 
ATOM     20  F   UNL A   1      32.921  24.894  22.326  1.00  0.00    -0.167 F 
ATOM     21  F   UNL A   1      31.776  26.732  22.077  1.00  0.00    -0.167 F 
ATOM     22  F   UNL A   1      33.907  26.803  22.564  1.00  0.00    -0.167 F 
ENDBRANCH  18  19
ENDBRANCH   4   6
ENDBRANCH   3   4
ENDBRANCH   2   3
ENDBRANCH   1   2
BRANCH   1  23
ATOM     23  O   UNL A   1      38.558  24.036  26.866  1.00  0.00    -0.458 OA
BRANCH  23  24
ATOM     24  C   UNL A   1      39.712  24.720  26.697  1.00  0.00     0.338 C 
ATOM     25  O   UNL A   1      40.508  24.617  25.779  1.00  0.00    -0.246 OA
BRANCH  24  26
ATOM     26  C   UNL A   1      39.884  25.664  27.815  1.00  0.00     0.060 A 
ATOM     27  C   UNL A   1      39.070  25.550  28.937  1.00  0.00     0.016 A 
ATOM     28  C   UNL A   1      40.784  26.723  27.711  1.00  0.00     0.016 A 
ATOM     29  C   UNL A   1      39.083  26.545  29.911  1.00  0.00     0.010 A 
ATOM     30  C   UNL A   1      40.873  27.662  28.749  1.00  0.00     0.010 A 
ATOM     31  C   UNL A   1      39.996  27.609  29.848  1.00  0.00    -0.014 A 
BRANCH  31  32
ATOM     32  C   UNL A   1      40.005  28.655  30.917  1.00  0.00     0.031 A 
ATOM     33  C   UNL A   1      41.048  28.635  32.011  1.00  0.00     0.074 A 
ATOM     34  C   UNL A   1      39.106  29.663  30.886  1.00  0.00     0.049 A 
ATOM     35  N   UNL A   1      41.139  29.389  33.077  1.00  0.00    -0.248 NA
ATOM     36  C   UNL A   1      42.118  27.630  31.902  1.00  0.00     0.031 C 
ATOM     37  C   UNL A   1      38.059  29.834  29.875  1.00  0.00     0.029 A 
ATOM     38  N   UNL A   1      38.945  30.755  31.705  1.00  0.00    -0.354 N 
ATOM     39  C   UNL A   1      42.238  28.920  33.790  1.00  0.00     0.074 A 
ATOM     40  C   UNL A   1      42.779  27.808  33.040  1.00  0.00     0.031 C 
ATOM     41  C   UNL A   1      37.431  31.001  30.079  1.00  0.00     0.029 A 
ATOM     42  C   UNL A   1      37.951  31.615  31.293  1.00  0.00     0.049 A 
ATOM     43  H   UNL A   1      39.489  30.909  32.511  1.00  0.00     0.167 HD
ATOM     44  C   UNL A   1      42.753  29.376  34.958  1.00  0.00     0.037 A 
ATOM     45  C   UNL A   1      37.485  32.757  31.839  1.00  0.00     0.037 A 
ATOM     46  C   UNL A   1      42.251  30.523  35.671  1.00  0.00     0.049 A 
ATOM     47  C   UNL A   1      38.061  33.234  33.142  1.00  0.00     0.074 A 
ATOM     48  C   UNL A   1      42.699  31.053  36.871  1.00  0.00     0.029 A 
ATOM     49  N   UNL A   1      41.214  31.336  35.240  1.00  0.00    -0.354 N 
ATOM     50  N   UNL A   1      39.042  32.721  33.843  1.00  0.00    -0.248 NA
ATOM     51  C   UNL A   1      37.445  34.425  33.746  1.00  0.00     0.031 C 
ATOM     52  C   UNL A   1      41.915  32.170  37.177  1.00  0.00     0.029 A 
ATOM     53  C   UNL A   1      41.006  32.359  36.149  1.00  0.00     0.049 A 
ATOM     54  H   UNL A   1      40.701  31.204  34.410  1.00  0.00     0.167 HD
ATOM     55  C   UNL A   1      39.166  33.526  34.968  1.00  0.00     0.074 A 
ATOM     56  C   UNL A   1      38.172  34.573  34.847  1.00  0.00     0.031 C 
ATOM     57  C   UNL A   1      40.019  33.400  36.012  1.00  0.00     0.037 A 
BRANCH  44  58
ATOM     58  C   UNL A   1      43.913  28.629  35.560  1.00  0.00     0.058 A 
ATOM     59  C   UNL A   1      45.243  28.953  35.252  1.00  0.00     0.135 A 
ATOM     60  C   UNL A   1      43.690  27.620  36.512  1.00  0.00     0.135 A 
ATOM     61  F   UNL A   1      45.514  29.898  34.338  1.00  0.00    -0.206 F 
ATOM     62  C   UNL A   1      46.311  28.293  35.853  1.00  0.00     0.059 A 
ATOM     63  C   UNL A   1      44.742  26.964  37.144  1.00  0.00     0.059 A 
ATOM     64  F   UNL A   1      42.437  27.273  36.846  1.00  0.00    -0.206 F 
ATOM     65  C   UNL A   1      46.049  27.301  36.801  1.00  0.00     0.060 A 
BRANCH  65  66
ATOM     66  S   UNL A   1      47.446  26.467  37.586  1.00  0.00     0.124 S 
ATOM     67  O   UNL A   1      47.393  25.152  36.955  1.00  0.00    -0.237 OA
ATOM     68  O   UNL A   1      48.571  27.311  37.200  1.00  0.00    -0.237 OA
ATOM     69  O   UNL A   1      47.105  26.493  39.005  1.00  0.00    -0.744 OA
ENDBRANCH  65  66
ENDBRANCH  44  58
BRANCH  45  70
ATOM     70  C   UNL A   1      36.398  33.513  31.160  1.00  0.00     0.058 A 
ATOM     71  C   UNL A   1      36.649  34.225  29.977  1.00  0.00     0.135 A 
ATOM     72  C   UNL A   1      35.084  33.507  31.651  1.00  0.00     0.135 A 
ATOM     73  F   UNL A   1      37.893  34.274  29.475  1.00  0.00    -0.206 F 
ATOM     74  C   UNL A   1      35.636  34.900  29.303  1.00  0.00     0.059 A 
ATOM     75  C   UNL A   1      34.048  34.150  30.980  1.00  0.00     0.059 A 
ATOM     76  F   UNL A   1      34.789  32.833  32.773  1.00  0.00    -0.206 F 
ATOM     77  C   UNL A   1      34.336  34.848  29.809  1.00  0.00     0.060 A 
BRANCH  77  78
ATOM     78  S   UNL A   1      33.011  35.658  28.885  1.00  0.00     0.124 S 
ATOM     79  O   UNL A   1      33.764  36.576  28.037  1.00  0.00    -0.237 OA
ATOM     80  O   UNL A   1      32.377  34.534  28.204  1.00  0.00    -0.237 OA
ATOM     81  O   UNL A   1      32.206  36.281  29.932  1.00  0.00    -0.744 OA
ENDBRANCH  77  78
ENDBRANCH  45  70
BRANCH  57  82
ATOM     82  C   UNL A   1      39.937  34.426  37.105  1.00  0.00     0.058 A 
ATOM     83  C   UNL A   1      40.657  35.627  37.035  1.00  0.00     0.135 A 
ATOM     84  C   UNL A   1      39.063  34.243  38.189  1.00  0.00     0.135 A 
ATOM     85  F   UNL A   1      41.512  35.844  36.022  1.00  0.00    -0.206 F 
ATOM     86  C   UNL A   1      40.516  36.614  38.004  1.00  0.00     0.059 A 
ATOM     87  C   UNL A   1      38.892  35.225  39.160  1.00  0.00     0.059 A 
ATOM     88  F   UNL A   1      38.348  33.112  38.297  1.00  0.00    -0.206 F 
ATOM     89  C   UNL A   1      39.625  36.408  39.058  1.00  0.00     0.060 A 
BRANCH  89  90
ATOM     90  S   UNL A   1      39.406  37.725  40.274  1.00  0.00     0.124 S 
ATOM     91  O   UNL A   1      39.083  36.966  41.477  1.00  0.00    -0.237 OA
ATOM     92  O   UNL A   1      40.713  38.375  40.267  1.00  0.00    -0.237 OA
ATOM     93  O   UNL A   1      38.313  38.520  39.721  1.00  0.00    -0.744 OA
ENDBRANCH  89  90
ENDBRANCH  57  82
ENDBRANCH  31  32
ENDBRANCH  24  26
ENDBRANCH  23  24
ENDBRANCH   1  23
TORSDOF 15
ENDMDL
MODEL 3
REMARK VINA RESULT:     -11.5      6.906     13.625
REMARK SMILES Cc1cc2c(c(C)c1Cl)C=C(C(=O)OCCOC(=O)c1ccc(-c3c4nc(c(-c5c(F)cc(S(=O)(=O)[O-])cc5F)c5ccc([nH]5)c(-c5c(F)cc(S(=O)(=O)[O-])cc5F)c5nc(c(-c6c(F)cc(S(=O)(=O)[O-])cc6F)c6ccc3[nH]6)C=C5)C=C4)cc1)[C@H](C(F)(F)F)O2
REMARK SMILES IDX 16 1 15 2 14 3 12 4 13 5 11 6 1 7 2 8 3 9 8 10 4 11 6 12
REMARK SMILES IDX 9 13 5 14 91 15 7 16 10 17 86 18 87 19 88 20 89 21 90 22
REMARK SMILES IDX 17 23 18 24 19 25 20 26 21 27 85 28 22 29 84 30 23 31 24 32
REMARK SMILES IDX 25 33 78 34 26 35 83 36 77 37 79 38 27 39 82 40 76 41 75 42
REMARK SMILES IDX 28 44 62 45 41 46 61 47 42 48 45 49 60 50 80 51 43 52 44 53
REMARK SMILES IDX 59 55 81 56 46 57 29 58 30 59 39 60 31 61 32 62 38 63 40 64
REMARK SMILES IDX 33 65 34 66 35 67 36 68 37 69 63 70 64 71 73 72 65 73 66 74
REMARK SMILES IDX 72 75 74 76 67 77 68 78 69 79 70 80 71 81 47 82 48 83 57 84
REMARK SMILES IDX 49 85 50 86 56 87 58 88 51 89 52 90 53 91 54 92 55 93
REMARK H PARENT 79 43 45 54
REMARK Flexibility Score: inf
ROOT
ATOM      1  C   UNL A   1      38.375  23.049  26.146  1.00  0.00     0.275 C 
ENDROOT
BRANCH   1   2
ATOM      2  C   UNL A   1      37.031  23.002  25.424  1.00  0.00     0.275 C 
BRANCH   2   3
ATOM      3  O   UNL A   1      36.023  23.686  26.198  1.00  0.00    -0.459 OA
BRANCH   3   4
ATOM      4  C   UNL A   1      34.873  23.010  26.417  1.00  0.00     0.338 C 
ATOM      5  O   UNL A   1      34.731  22.049  27.148  1.00  0.00    -0.246 OA
BRANCH   4   6
ATOM      6  C   UNL A   1      33.761  23.642  25.676  1.00  0.00     0.087 C 
ATOM      7  C   UNL A   1      28.883  27.355  23.549  1.00  0.00     0.046 C 
ATOM      8  C   UNL A   1      30.192  26.825  24.072  1.00  0.00    -0.028 A 
ATOM      9  C   UNL A   1      30.340  25.430  24.124  1.00  0.00     0.052 A 
ATOM     10  C   UNL A   1      31.245  27.639  24.535  1.00  0.00     0.047 A 
ATOM     11  C   UNL A   1      31.493  24.849  24.642  1.00  0.00     0.128 A 
ATOM     12  C   UNL A   1      32.427  27.065  25.059  1.00  0.00    -0.021 A 
ATOM     13  Cl  UNL A   1      31.063  29.367  24.479  1.00  0.00    -0.084 Cl
ATOM     14  C   UNL A   1      32.525  25.651  25.135  1.00  0.00     0.022 A 
ATOM     15  O   UNL A   1      31.499  23.481  24.681  1.00  0.00    -0.475 OA
ATOM     16  C   UNL A   1      33.583  27.922  25.526  1.00  0.00     0.047 C 
ATOM     17  C   UNL A   1      33.644  24.973  25.785  1.00  0.00     0.027 C 
ATOM     18  C   UNL A   1      32.754  22.797  24.951  1.00  0.00     0.316 C 
BRANCH  18  19
ATOM     19  C   UNL A   1      33.267  22.119  23.666  1.00  0.00     0.430 C 
ATOM     20  F   UNL A   1      33.821  20.909  23.933  1.00  0.00    -0.167 F 
ATOM     21  F   UNL A   1      32.294  21.921  22.752  1.00  0.00    -0.167 F 
ATOM     22  F   UNL A   1      34.248  22.848  23.079  1.00  0.00    -0.167 F 
ENDBRANCH  18  19
ENDBRANCH   4   6
ENDBRANCH   3   4
ENDBRANCH   2   3
ENDBRANCH   1   2
BRANCH   1  23
ATOM     23  O   UNL A   1      38.797  24.418  26.269  1.00  0.00    -0.458 OA
BRANCH  23  24
ATOM     24  C   UNL A   1      40.105  24.617  26.548  1.00  0.00     0.338 C 
ATOM     25  O   UNL A   1      41.068  24.133  25.976  1.00  0.00    -0.246 OA
BRANCH  24  26
ATOM     26  C   UNL A   1      40.223  25.551  27.681  1.00  0.00     0.060 A 
ATOM     27  C   UNL A   1      39.314  25.469  28.732  1.00  0.00     0.016 A 
ATOM     28  C   UNL A   1      41.171  26.572  27.657  1.00  0.00     0.016 A 
ATOM     29  C   UNL A   1      39.288  26.461  29.708  1.00  0.00     0.010 A 
ATOM     30  C   UNL A   1      41.213  27.505  28.704  1.00  0.00     0.010 A 
ATOM     31  C   UNL A   1      40.246  27.487  29.726  1.00  0.00    -0.014 A 
BRANCH  31  32
ATOM     32  C   UNL A   1      40.209  28.530  30.797  1.00  0.00     0.031 A 
ATOM     33  C   UNL A   1      41.243  28.544  31.900  1.00  0.00     0.074 A 
ATOM     34  C   UNL A   1      39.276  29.506  30.761  1.00  0.00     0.049 A 
ATOM     35  N   UNL A   1      41.299  29.299  32.968  1.00  0.00    -0.248 NA
ATOM     36  C   UNL A   1      42.349  27.578  31.798  1.00  0.00     0.031 C 
ATOM     37  C   UNL A   1      38.232  29.643  29.741  1.00  0.00     0.029 A 
ATOM     38  N   UNL A   1      39.070  30.590  31.581  1.00  0.00    -0.354 N 
ATOM     39  C   UNL A   1      42.408  28.867  33.689  1.00  0.00     0.074 A 
ATOM     40  C   UNL A   1      42.994  27.776  32.941  1.00  0.00     0.031 C 
ATOM     41  C   UNL A   1      37.562  30.786  29.943  1.00  0.00     0.029 A 
ATOM     42  C   UNL A   1      38.050  31.416  31.162  1.00  0.00     0.049 A 
ATOM     43  H   UNL A   1      39.601  30.760  32.391  1.00  0.00     0.167 HD
ATOM     44  C   UNL A   1      42.897  29.338  34.862  1.00  0.00     0.037 A 
ATOM     45  C   UNL A   1      37.539  32.539  31.707  1.00  0.00     0.037 A 
ATOM     46  C   UNL A   1      42.350  30.465  35.574  1.00  0.00     0.049 A 
ATOM     47  C   UNL A   1      38.087  33.033  33.015  1.00  0.00     0.074 A 
ATOM     48  C   UNL A   1      42.769  31.007  36.778  1.00  0.00     0.029 A 
ATOM     49  N   UNL A   1      41.288  31.242  35.135  1.00  0.00    -0.354 N 
ATOM     50  N   UNL A   1      39.080  32.553  33.723  1.00  0.00    -0.248 NA
ATOM     51  C   UNL A   1      37.426  34.200  33.617  1.00  0.00     0.031 C 
ATOM     52  C   UNL A   1      41.944  32.095  37.079  1.00  0.00     0.029 A 
ATOM     53  C   UNL A   1      41.037  32.255  36.045  1.00  0.00     0.049 A 
ATOM     54  H   UNL A   1      40.787  31.094  34.301  1.00  0.00     0.167 HD
ATOM     55  C   UNL A   1      39.166  33.360  34.851  1.00  0.00     0.074 A 
ATOM     56  C   UNL A   1      38.137  34.371  34.724  1.00  0.00     0.031 C 
ATOM     57  C   UNL A   1      40.015  33.261  35.902  1.00  0.00     0.037 A 
BRANCH  44  58
ATOM     58  C   UNL A   1      44.078  28.631  35.472  1.00  0.00     0.058 A 
ATOM     59  C   UNL A   1      45.398  29.004  35.178  1.00  0.00     0.135 A 
ATOM     60  C   UNL A   1      43.882  27.610  36.417  1.00  0.00     0.135 A 
ATOM     61  F   UNL A   1      45.643  29.962  34.270  1.00  0.00    -0.206 F 
ATOM     62  C   UNL A   1      46.483  28.380  35.787  1.00  0.00     0.059 A 
ATOM     63  C   UNL A   1      44.952  26.990  37.057  1.00  0.00     0.059 A 
ATOM     64  F   UNL A   1      42.641  27.216  36.738  1.00  0.00    -0.206 F 
ATOM     65  C   UNL A   1      46.250  27.375  36.728  1.00  0.00     0.060 A 
BRANCH  65  66
ATOM     66  S   UNL A   1      47.668  26.589  37.523  1.00  0.00     0.124 S 
ATOM     67  O   UNL A   1      48.460  27.749  37.920  1.00  0.00    -0.237 OA
ATOM     68  O   UNL A   1      47.044  25.845  38.612  1.00  0.00    -0.237 OA
ATOM     69  O   UNL A   1      48.245  25.772  36.460  1.00  0.00    -0.744 OA
ENDBRANCH  65  66
ENDBRANCH  44  58
BRANCH  45  70
ATOM     70  C   UNL A   1      36.432  33.258  31.020  1.00  0.00     0.058 A 
ATOM     71  C   UNL A   1      35.125  33.216  31.527  1.00  0.00     0.135 A 
ATOM     72  C   UNL A   1      36.663  34.031  29.872  1.00  0.00     0.135 A 
ATOM     73  F   UNL A   1      34.850  32.478  32.614  1.00  0.00    -0.206 F 
ATOM     74  C   UNL A   1      34.086  33.920  30.924  1.00  0.00     0.059 A 
ATOM     75  C   UNL A   1      35.647  34.766  29.268  1.00  0.00     0.059 A 
ATOM     76  F   UNL A   1      37.897  34.112  29.353  1.00  0.00    -0.206 F 
ATOM     77  C   UNL A   1      34.361  34.700  29.799  1.00  0.00     0.060 A 
BRANCH  77  78
ATOM     78  S   UNL A   1      33.024  35.674  29.071  1.00  0.00     0.124 S 
ATOM     79  O   UNL A   1      32.379  34.689  28.210  1.00  0.00    -0.237 OA
ATOM     80  O   UNL A   1      32.267  36.087  30.248  1.00  0.00    -0.237 OA
ATOM     81  O   UNL A   1      33.733  36.749  28.382  1.00  0.00    -0.744 OA
ENDBRANCH  77  78
ENDBRANCH  45  70
BRANCH  57  82
ATOM     82  C   UNL A   1      39.889  34.281  36.996  1.00  0.00     0.058 A 
ATOM     83  C   UNL A   1      40.392  35.581  36.845  1.00  0.00     0.135 A 
ATOM     84  C   UNL A   1      39.181  33.980  38.172  1.00  0.00     0.135 A 
ATOM     85  F   UNL A   1      41.083  35.914  35.743  1.00  0.00    -0.206 F 
ATOM     86  C   UNL A   1      40.199  36.550  37.823  1.00  0.00     0.059 A 
ATOM     87  C   UNL A   1      38.960  34.939  39.154  1.00  0.00     0.059 A 
ATOM     88  F   UNL A   1      38.676  32.750  38.360  1.00  0.00    -0.206 F 
ATOM     89  C   UNL A   1      39.475  36.223  38.971  1.00  0.00     0.060 A 
BRANCH  89  90
ATOM     90  S   UNL A   1      39.180  37.510  40.202  1.00  0.00     0.124 S 
ATOM     91  O   UNL A   1      38.247  38.383  39.499  1.00  0.00    -0.237 OA
ATOM     92  O   UNL A   1      38.621  36.751  41.317  1.00  0.00    -0.237 OA
ATOM     93  O   UNL A   1      40.508  38.069  40.436  1.00  0.00    -0.744 OA
ENDBRANCH  89  90
ENDBRANCH  57  82
ENDBRANCH  31  32
ENDBRANCH  24  26
ENDBRANCH  23  24
ENDBRANCH   1  23
TORSDOF 15
ENDMDL
