MODEL 1
REMARK VINA RESULT:     -11.3      0.000      0.000
REMARK SMILES O=C(Cc1cccc(-c2ccn(C(F)F)c(=O)c2)c1)OCCOC(=O)c1ccc(-c2c3nc(c(-c4c(F)cc(S(=O)(=O)[O-])cc4F)c4ccc([nH]4)c(-c4c(F)cc(S(=O)(=O)[O-])cc4F)c4nc(c(-c5c(F)cc(S(=O)(=O)[O-])cc5F)c5ccc2[nH]5)C=C4)C=C3)cc1
REMARK SMILES IDX 21 1 20 2 2 3 1 4 3 5 4 6 5 7 19 8 6 9 8 10 7 11 9 12 10 13
REMARK SMILES IDX 18 14 11 15 16 16 12 17 17 18 13 19 14 20 15 21 22 22 23 23
REMARK SMILES IDX 24 24 25 25 26 26 27 27 91 28 28 29 90 30 29 31 30 32 31 33
REMARK SMILES IDX 84 34 32 35 89 36 83 37 85 38 33 39 88 40 82 41 81 42 34 44
REMARK SMILES IDX 68 45 47 46 67 47 48 48 51 49 66 50 86 51 49 52 50 53 65 55
REMARK SMILES IDX 87 56 52 57 35 58 36 59 45 60 37 61 38 62 44 63 46 64 39 65
REMARK SMILES IDX 40 66 41 67 42 68 43 69 69 70 70 71 79 72 71 73 72 74 78 75
REMARK SMILES IDX 80 76 73 77 74 78 75 79 76 80 77 81 53 82 54 83 63 84 55 85
REMARK SMILES IDX 56 86 62 87 64 88 57 89 58 90 59 91 60 92 61 93
REMARK H PARENT 85 43 51 54
REMARK Flexibility Score: inf
ROOT
ATOM      1  C   UNL A   1      43.635  22.247  25.762  1.00  0.00     0.274 C 
ENDROOT
BRANCH   1   2
ATOM      2  O   UNL A   1      42.522  21.411  25.365  1.00  0.00    -0.462 OA
BRANCH   2   3
ATOM      3  C   UNL A   1      41.942  20.427  26.098  1.00  0.00     0.310 C 
ATOM      4  O   UNL A   1      42.375  19.278  26.027  1.00  0.00    -0.252 OA
BRANCH   3   5
ATOM      5  C   UNL A   1      40.773  20.764  26.994  1.00  0.00     0.158 C 
BRANCH   5   6
ATOM      6  C   UNL A   1      39.788  21.792  26.498  1.00  0.00    -0.036 A 
ATOM      7  C   UNL A   1      39.893  23.116  26.952  1.00  0.00     0.004 A 
ATOM      8  C   UNL A   1      38.679  21.441  25.726  1.00  0.00     0.013 A 
ATOM      9  C   UNL A   1      38.891  24.049  26.668  1.00  0.00     0.001 A 
ATOM     10  C   UNL A   1      37.637  22.350  25.504  1.00  0.00    -0.018 A 
ATOM     11  C   UNL A   1      37.749  23.661  25.965  1.00  0.00     0.009 A 
BRANCH  10  12
ATOM     12  C   UNL A   1      36.399  21.802  24.935  1.00  0.00    -0.011 A 
ATOM     13  C   UNL A   1      35.325  22.682  24.516  1.00  0.00     0.027 A 
ATOM     14  C   UNL A   1      36.197  20.475  24.973  1.00  0.00     0.080 A 
ATOM     15  C   UNL A   1      34.111  22.189  24.253  1.00  0.00     0.095 A 
ATOM     16  C   UNL A   1      34.861  19.908  24.631  1.00  0.00     0.255 A 
ATOM     17  N   UNL A   1      33.869  20.831  24.327  1.00  0.00    -0.258 N 
ATOM     18  O   UNL A   1      34.709  18.692  24.672  1.00  0.00    -0.269 OA
BRANCH  17  19
ATOM     19  C   UNL A   1      32.542  20.318  24.109  1.00  0.00     0.451 C 
ATOM     20  F   UNL A   1      31.742  20.543  25.178  1.00  0.00    -0.185 F 
ATOM     21  F   UNL A   1      31.970  20.895  23.024  1.00  0.00    -0.185 F 
ENDBRANCH  17  19
ENDBRANCH  10  12
ENDBRANCH   5   6
ENDBRANCH   3   5
ENDBRANCH   2   3
ENDBRANCH   1   2
BRANCH   1  22
ATOM     22  C   UNL A   1      43.433  23.696  25.329  1.00  0.00     0.275 C 
BRANCH  22  23
ATOM     23  O   UNL A   1      42.768  24.411  26.383  1.00  0.00    -0.458 OA
BRANCH  23  24
ATOM     24  C   UNL A   1      42.366  25.666  26.062  1.00  0.00     0.338 C 
ATOM     25  O   UNL A   1      41.983  26.048  24.974  1.00  0.00    -0.246 OA
BRANCH  24  26
ATOM     26  C   UNL A   1      42.261  26.466  27.305  1.00  0.00     0.060 A 
ATOM     27  C   UNL A   1      41.394  26.001  28.301  1.00  0.00     0.016 A 
ATOM     28  C   UNL A   1      43.024  27.621  27.514  1.00  0.00     0.016 A 
ATOM     29  C   UNL A   1      41.243  26.722  29.484  1.00  0.00     0.010 A 
ATOM     30  C   UNL A   1      42.874  28.340  28.701  1.00  0.00     0.010 A 
ATOM     31  C   UNL A   1      41.952  27.916  29.671  1.00  0.00    -0.014 A 
BRANCH  31  32
ATOM     32  C   UNL A   1      41.567  28.823  30.777  1.00  0.00     0.031 A 
ATOM     33  C   UNL A   1      42.388  28.791  32.036  1.00  0.00     0.074 A 
ATOM     34  C   UNL A   1      40.532  29.671  30.659  1.00  0.00     0.049 A 
ATOM     35  N   UNL A   1      42.279  29.517  33.117  1.00  0.00    -0.248 NA
ATOM     36  C   UNL A   1      43.478  27.802  32.082  1.00  0.00     0.031 C 
ATOM     37  C   UNL A   1      39.672  29.803  29.484  1.00  0.00     0.029 A 
ATOM     38  N   UNL A   1      40.033  30.587  31.549  1.00  0.00    -0.354 N 
ATOM     39  C   UNL A   1      43.288  29.081  33.966  1.00  0.00     0.074 A 
ATOM     40  C   UNL A   1      43.968  27.994  33.295  1.00  0.00     0.031 C 
ATOM     41  C   UNL A   1      38.748  30.750  29.727  1.00  0.00     0.029 A 
ATOM     42  C   UNL A   1      38.945  31.279  31.076  1.00  0.00     0.049 A 
ATOM     43  H   UNL A   1      40.417  30.734  32.444  1.00  0.00     0.167 HD
ATOM     44  C   UNL A   1      43.630  29.550  35.189  1.00  0.00     0.037 A 
ATOM     45  C   UNL A   1      38.199  32.234  31.667  1.00  0.00     0.037 A 
ATOM     46  C   UNL A   1      42.944  30.620  35.860  1.00  0.00     0.049 A 
ATOM     47  C   UNL A   1      38.563  32.708  33.050  1.00  0.00     0.074 A 
ATOM     48  C   UNL A   1      43.221  31.182  37.093  1.00  0.00     0.029 A 
ATOM     49  N   UNL A   1      41.833  31.282  35.358  1.00  0.00    -0.354 N 
ATOM     50  N   UNL A   1      39.552  32.322  33.823  1.00  0.00    -0.248 NA
ATOM     51  C   UNL A   1      37.717  33.757  33.638  1.00  0.00     0.031 C 
ATOM     52  C   UNL A   1      42.250  32.156  37.355  1.00  0.00     0.029 A 
ATOM     53  C   UNL A   1      41.399  32.233  36.265  1.00  0.00     0.049 A 
ATOM     54  H   UNL A   1      41.415  31.102  34.485  1.00  0.00     0.167 HD
ATOM     55  C   UNL A   1      39.470  33.108  34.969  1.00  0.00     0.074 A 
ATOM     56  C   UNL A   1      38.334  33.988  34.790  1.00  0.00     0.031 C 
ATOM     57  C   UNL A   1      40.270  33.109  36.065  1.00  0.00     0.037 A 
BRANCH  44  58
ATOM     58  C   UNL A   1      44.783  28.877  35.878  1.00  0.00     0.058 A 
ATOM     59  C   UNL A   1      44.590  27.782  36.736  1.00  0.00     0.135 A 
ATOM     60  C   UNL A   1      46.091  29.352  35.703  1.00  0.00     0.135 A 
ATOM     61  F   UNL A   1      43.356  27.304  36.955  1.00  0.00    -0.206 F 
ATOM     62  C   UNL A   1      45.650  27.208  37.429  1.00  0.00     0.059 A 
ATOM     63  C   UNL A   1      47.170  28.777  36.366  1.00  0.00     0.059 A 
ATOM     64  F   UNL A   1      46.329  30.400  34.897  1.00  0.00    -0.206 F 
ATOM     65  C   UNL A   1      46.936  27.720  37.246  1.00  0.00     0.060 A 
BRANCH  65  66
ATOM     66  S   UNL A   1      48.298  26.998  38.184  1.00  0.00     0.124 S 
ATOM     67  O   UNL A   1      49.042  26.312  37.132  1.00  0.00    -0.237 OA
ATOM     68  O   UNL A   1      48.946  28.174  38.755  1.00  0.00    -0.237 OA
ATOM     69  O   UNL A   1      47.623  26.129  39.145  1.00  0.00    -0.744 OA
ENDBRANCH  65  66
ENDBRANCH  44  58
BRANCH  45  70
ATOM     70  C   UNL A   1      37.051  32.832  30.937  1.00  0.00     0.058 A 
ATOM     71  C   UNL A   1      35.747  32.354  31.130  1.00  0.00     0.135 A 
ATOM     72  C   UNL A   1      37.233  33.897  30.043  1.00  0.00     0.135 A 
ATOM     73  F   UNL A   1      35.525  31.330  31.968  1.00  0.00    -0.206 F 
ATOM     74  C   UNL A   1      34.662  32.905  30.457  1.00  0.00     0.059 A 
ATOM     75  C   UNL A   1      36.162  34.478  29.371  1.00  0.00     0.059 A 
ATOM     76  F   UNL A   1      38.461  34.396  29.831  1.00  0.00    -0.206 F 
ATOM     77  C   UNL A   1      34.880  33.970  29.581  1.00  0.00     0.060 A 
BRANCH  77  78
ATOM     78  S   UNL A   1      33.458  34.720  28.757  1.00  0.00     0.124 S 
ATOM     79  O   UNL A   1      32.551  34.939  29.878  1.00  0.00    -0.237 OA
ATOM     80  O   UNL A   1      34.044  35.920  28.166  1.00  0.00    -0.237 OA
ATOM     81  O   UNL A   1      33.047  33.697  27.801  1.00  0.00    -0.744 OA
ENDBRANCH  77  78
ENDBRANCH  45  70
BRANCH  57  82
ATOM     82  C   UNL A   1      39.980  34.123  37.138  1.00  0.00     0.058 A 
ATOM     83  C   UNL A   1      40.420  35.451  37.040  1.00  0.00     0.135 A 
ATOM     84  C   UNL A   1      39.202  33.769  38.253  1.00  0.00     0.135 A 
ATOM     85  F   UNL A   1      41.169  35.841  35.997  1.00  0.00    -0.206 F 
ATOM     86  C   UNL A   1      40.118  36.389  38.024  1.00  0.00     0.059 A 
ATOM     87  C   UNL A   1      38.868  34.695  39.234  1.00  0.00     0.059 A 
ATOM     88  F   UNL A   1      38.745  32.513  38.387  1.00  0.00    -0.206 F 
ATOM     89  C   UNL A   1      39.341  36.001  39.118  1.00  0.00     0.060 A 
BRANCH  89  90
ATOM     90  S   UNL A   1      38.929  37.233  40.372  1.00  0.00     0.124 S 
ATOM     91  O   UNL A   1      38.161  36.437  41.323  1.00  0.00    -0.237 OA
ATOM     92  O   UNL A   1      40.244  37.672  40.827  1.00  0.00    -0.237 OA
ATOM     93  O   UNL A   1      38.166  38.232  39.627  1.00  0.00    -0.744 OA
ENDBRANCH  89  90
ENDBRANCH  57  82
ENDBRANCH  31  32
ENDBRANCH  24  26
ENDBRANCH  23  24
ENDBRANCH  22  23
ENDBRANCH   1  22
TORSDOF 17
ENDMDL
MODEL 2
REMARK VINA RESULT:     -11.1      1.627      2.777
REMARK SMILES O=C(Cc1cccc(-c2ccn(C(F)F)c(=O)c2)c1)OCCOC(=O)c1ccc(-c2c3nc(c(-c4c(F)cc(S(=O)(=O)[O-])cc4F)c4ccc([nH]4)c(-c4c(F)cc(S(=O)(=O)[O-])cc4F)c4nc(c(-c5c(F)cc(S(=O)(=O)[O-])cc5F)c5ccc2[nH]5)C=C4)C=C3)cc1
REMARK SMILES IDX 21 1 20 2 2 3 1 4 3 5 4 6 5 7 19 8 6 9 8 10 7 11 9 12 10 13
REMARK SMILES IDX 18 14 11 15 16 16 12 17 17 18 13 19 14 20 15 21 22 22 23 23
REMARK SMILES IDX 24 24 25 25 26 26 27 27 91 28 28 29 90 30 29 31 30 32 31 33
REMARK SMILES IDX 84 34 32 35 89 36 83 37 85 38 33 39 88 40 82 41 81 42 34 44
REMARK SMILES IDX 68 45 47 46 67 47 48 48 51 49 66 50 86 51 49 52 50 53 65 55
REMARK SMILES IDX 87 56 52 57 35 58 36 59 45 60 37 61 38 62 44 63 46 64 39 65
REMARK SMILES IDX 40 66 41 67 42 68 43 69 69 70 70 71 79 72 71 73 72 74 78 75
REMARK SMILES IDX 80 76 73 77 74 78 75 79 76 80 77 81 53 82 54 83 63 84 55 85
REMARK SMILES IDX 56 86 62 87 64 88 57 89 58 90 59 91 60 92 61 93
REMARK H PARENT 85 43 51 54
REMARK Flexibility Score: inf
ROOT
ATOM      1  C   UNL A   1      45.628  24.746  25.042  1.00  0.00     0.274 C 
ENDROOT
BRANCH   1   2
ATOM      2  O   UNL A   1      45.377  23.770  24.003  1.00  0.00    -0.462 OA
BRANCH   2   3
ATOM      3  C   UNL A   1      44.779  22.561  24.151  1.00  0.00     0.310 C 
ATOM      4  O   UNL A   1      44.271  22.010  23.176  1.00  0.00    -0.252 OA
BRANCH   3   5
ATOM      5  C   UNL A   1      44.753  21.910  25.514  1.00  0.00     0.158 C 
BRANCH   5   6
ATOM      6  C   UNL A   1      43.543  21.081  25.867  1.00  0.00    -0.036 A 
ATOM      7  C   UNL A   1      43.612  19.685  25.751  1.00  0.00     0.004 A 
ATOM      8  C   UNL A   1      42.306  21.662  26.153  1.00  0.00     0.013 A 
ATOM      9  C   UNL A   1      42.463  18.900  25.882  1.00  0.00     0.001 A 
ATOM     10  C   UNL A   1      41.141  20.889  26.210  1.00  0.00    -0.018 A 
ATOM     11  C   UNL A   1      41.221  19.502  26.086  1.00  0.00     0.009 A 
BRANCH  10  12
ATOM     12  C   UNL A   1      39.868  21.621  26.227  1.00  0.00    -0.011 A 
ATOM     13  C   UNL A   1      38.698  21.085  25.559  1.00  0.00     0.027 A 
ATOM     14  C   UNL A   1      39.844  22.874  26.710  1.00  0.00     0.080 A 
ATOM     15  C   UNL A   1      37.629  21.858  25.344  1.00  0.00     0.095 A 
ATOM     16  C   UNL A   1      38.637  23.729  26.522  1.00  0.00     0.255 A 
ATOM     17  N   UNL A   1      37.598  23.163  25.795  1.00  0.00    -0.258 N 
ATOM     18  O   UNL A   1      38.645  24.868  26.978  1.00  0.00    -0.269 OA
BRANCH  17  19
ATOM     19  C   UNL A   1      36.471  24.007  25.498  1.00  0.00     0.451 C 
ATOM     20  F   UNL A   1      36.061  23.853  24.217  1.00  0.00    -0.185 F 
ATOM     21  F   UNL A   1      35.425  23.726  26.313  1.00  0.00    -0.185 F 
ENDBRANCH  17  19
ENDBRANCH  10  12
ENDBRANCH   5   6
ENDBRANCH   3   5
ENDBRANCH   2   3
ENDBRANCH   1   2
BRANCH   1  22
ATOM     22  C   UNL A   1      44.494  25.761  25.148  1.00  0.00     0.275 C 
BRANCH  22  23
ATOM     23  O   UNL A   1      43.433  25.195  25.935  1.00  0.00    -0.458 OA
BRANCH  23  24
ATOM     24  C   UNL A   1      42.272  25.896  25.925  1.00  0.00     0.338 C 
ATOM     25  O   UNL A   1      41.376  25.802  25.109  1.00  0.00    -0.246 OA
BRANCH  24  26
ATOM     26  C   UNL A   1      42.162  26.658  27.191  1.00  0.00     0.060 A 
ATOM     27  C   UNL A   1      41.311  26.148  28.179  1.00  0.00     0.016 A 
ATOM     28  C   UNL A   1      42.906  27.819  27.430  1.00  0.00     0.016 A 
ATOM     29  C   UNL A   1      41.156  26.830  29.384  1.00  0.00     0.010 A 
ATOM     30  C   UNL A   1      42.752  28.501  28.639  1.00  0.00     0.010 A 
ATOM     31  C   UNL A   1      41.844  28.031  29.601  1.00  0.00    -0.014 A 
BRANCH  31  32
ATOM     32  C   UNL A   1      41.452  28.898  30.736  1.00  0.00     0.031 A 
ATOM     33  C   UNL A   1      42.263  28.819  32.000  1.00  0.00     0.074 A 
ATOM     34  C   UNL A   1      40.418  29.751  30.641  1.00  0.00     0.049 A 
ATOM     35  N   UNL A   1      42.146  29.506  33.105  1.00  0.00    -0.248 NA
ATOM     36  C   UNL A   1      43.351  27.828  32.018  1.00  0.00     0.031 C 
ATOM     37  C   UNL A   1      39.567  29.926  29.465  1.00  0.00     0.029 A 
ATOM     38  N   UNL A   1      39.912  30.634  31.560  1.00  0.00    -0.354 N 
ATOM     39  C   UNL A   1      43.147  29.038  33.947  1.00  0.00     0.074 A 
ATOM     40  C   UNL A   1      43.832  27.976  33.242  1.00  0.00     0.031 C 
ATOM     41  C   UNL A   1      38.642  30.865  29.734  1.00  0.00     0.029 A 
ATOM     42  C   UNL A   1      38.828  31.345  31.103  1.00  0.00     0.049 A 
ATOM     43  H   UNL A   1      40.289  30.748  32.462  1.00  0.00     0.167 HD
ATOM     44  C   UNL A   1      43.479  29.463  35.188  1.00  0.00     0.037 A 
ATOM     45  C   UNL A   1      38.079  32.278  31.723  1.00  0.00     0.037 A 
ATOM     46  C   UNL A   1      42.789  30.508  35.892  1.00  0.00     0.049 A 
ATOM     47  C   UNL A   1      38.432  32.701  33.125  1.00  0.00     0.074 A 
ATOM     48  C   UNL A   1      43.057  31.026  37.147  1.00  0.00     0.029 A 
ATOM     49  N   UNL A   1      41.682  31.189  35.405  1.00  0.00    -0.354 N 
ATOM     50  N   UNL A   1      39.414  32.286  33.891  1.00  0.00    -0.248 NA
ATOM     51  C   UNL A   1      37.582  33.729  33.744  1.00  0.00     0.031 C 
ATOM     52  C   UNL A   1      42.084  31.990  37.436  1.00  0.00     0.029 A 
ATOM     53  C   UNL A   1      41.242  32.107  36.343  1.00  0.00     0.049 A 
ATOM     54  H   UNL A   1      41.272  31.041  34.523  1.00  0.00     0.167 HD
ATOM     55  C   UNL A   1      39.324  33.031  35.064  1.00  0.00     0.074 A 
ATOM     56  C   UNL A   1      38.190  33.918  34.908  1.00  0.00     0.031 C 
ATOM     57  C   UNL A   1      40.116  32.991  36.166  1.00  0.00     0.037 A 
BRANCH  44  58
ATOM     58  C   UNL A   1      44.626  28.764  35.862  1.00  0.00     0.058 A 
ATOM     59  C   UNL A   1      45.955  29.173  35.666  1.00  0.00     0.135 A 
ATOM     60  C   UNL A   1      44.395  27.654  36.688  1.00  0.00     0.135 A 
ATOM     61  F   UNL A   1      46.231  30.215  34.866  1.00  0.00    -0.206 F 
ATOM     62  C   UNL A   1      47.019  28.478  36.231  1.00  0.00     0.059 A 
ATOM     63  C   UNL A   1      45.443  26.960  37.285  1.00  0.00     0.059 A 
ATOM     64  F   UNL A   1      43.144  27.219  36.904  1.00  0.00    -0.206 F 
ATOM     65  C   UNL A   1      46.753  27.366  37.031  1.00  0.00     0.060 A 
BRANCH  65  66
ATOM     66  S   UNL A   1      48.142  26.445  37.724  1.00  0.00     0.124 S 
ATOM     67  O   UNL A   1      48.283  27.077  39.032  1.00  0.00    -0.237 OA
ATOM     68  O   UNL A   1      47.639  25.075  37.732  1.00  0.00    -0.237 OA
ATOM     69  O   UNL A   1      49.225  26.706  36.780  1.00  0.00    -0.744 OA
ENDBRANCH  65  66
ENDBRANCH  44  58
BRANCH  45  70
ATOM     70  C   UNL A   1      36.937  32.903  31.006  1.00  0.00     0.058 A 
ATOM     71  C   UNL A   1      35.616  32.527  31.288  1.00  0.00     0.135 A 
ATOM     72  C   UNL A   1      37.143  33.893  30.034  1.00  0.00     0.135 A 
ATOM     73  F   UNL A   1      35.371  31.577  32.203  1.00  0.00    -0.206 F 
ATOM     74  C   UNL A   1      34.536  33.105  30.629  1.00  0.00     0.059 A 
ATOM     75  C   UNL A   1      36.080  34.500  29.373  1.00  0.00     0.059 A 
ATOM     76  F   UNL A   1      38.388  34.293  29.735  1.00  0.00    -0.206 F 
ATOM     77  C   UNL A   1      34.779  34.094  29.674  1.00  0.00     0.060 A 
BRANCH  77  78
ATOM     78  S   UNL A   1      33.370  34.883  28.865  1.00  0.00     0.124 S 
ATOM     79  O   UNL A   1      33.993  36.060  28.271  1.00  0.00    -0.237 OA
ATOM     80  O   UNL A   1      32.935  33.849  27.929  1.00  0.00    -0.237 OA
ATOM     81  O   UNL A   1      32.452  35.143  29.970  1.00  0.00    -0.744 OA
ENDBRANCH  77  78
ENDBRANCH  45  70
BRANCH  57  82
ATOM     82  C   UNL A   1      39.817  33.965  37.273  1.00  0.00     0.058 A 
ATOM     83  C   UNL A   1      39.053  33.603  38.392  1.00  0.00     0.135 A 
ATOM     84  C   UNL A   1      40.352  35.264  37.234  1.00  0.00     0.135 A 
ATOM     85  F   UNL A   1      38.517  32.376  38.477  1.00  0.00    -0.206 F 
ATOM     86  C   UNL A   1      38.810  34.503  39.426  1.00  0.00     0.059 A 
ATOM     87  C   UNL A   1      40.142  36.171  38.267  1.00  0.00     0.059 A 
ATOM     88  F   UNL A   1      41.101  35.656  36.191  1.00  0.00    -0.206 F 
ATOM     89  C   UNL A   1      39.359  35.786  39.354  1.00  0.00     0.060 A 
BRANCH  89  90
ATOM     90  S   UNL A   1      39.064  36.935  40.715  1.00  0.00     0.124 S 
ATOM     91  O   UNL A   1      38.271  37.969  40.059  1.00  0.00    -0.237 OA
ATOM     92  O   UNL A   1      38.350  36.104  41.680  1.00  0.00    -0.237 OA
ATOM     93  O   UNL A   1      40.409  37.335  41.118  1.00  0.00    -0.744 OA
ENDBRANCH  89  90
ENDBRANCH  57  82
ENDBRANCH  31  32
ENDBRANCH  24  26
ENDBRANCH  23  24
ENDBRANCH  22  23
ENDBRANCH   1  22
TORSDOF 17
ENDMDL
MODEL 3
REMARK VINA RESULT:     -11.0      5.624      7.822
REMARK SMILES O=C(Cc1cccc(-c2ccn(C(F)F)c(=O)c2)c1)OCCOC(=O)c1ccc(-c2c3nc(c(-c4c(F)cc(S(=O)(=O)[O-])cc4F)c4ccc([nH]4)c(-c4c(F)cc(S(=O)(=O)[O-])cc4F)c4nc(c(-c5c(F)cc(S(=O)(=O)[O-])cc5F)c5ccc2[nH]5)C=C4)C=C3)cc1
REMARK SMILES IDX 21 1 20 2 2 3 1 4 3 5 4 6 5 7 19 8 6 9 8 10 7 11 9 12 10 13
REMARK SMILES IDX 18 14 11 15 16 16 12 17 17 18 13 19 14 20 15 21 22 22 23 23
REMARK SMILES IDX 24 24 25 25 26 26 27 27 91 28 28 29 90 30 29 31 30 32 31 33
REMARK SMILES IDX 84 34 32 35 89 36 83 37 85 38 33 39 88 40 82 41 81 42 34 44
REMARK SMILES IDX 68 45 47 46 67 47 48 48 51 49 66 50 86 51 49 52 50 53 65 55
REMARK SMILES IDX 87 56 52 57 35 58 36 59 45 60 37 61 38 62 44 63 46 64 39 65
REMARK SMILES IDX 40 66 41 67 42 68 43 69 69 70 70 71 79 72 71 73 72 74 78 75
REMARK SMILES IDX 80 76 73 77 74 78 75 79 76 80 77 81 53 82 54 83 63 84 55 85
REMARK SMILES IDX 56 86 62 87 64 88 57 89 58 90 59 91 60 92 61 93
REMARK H PARENT 85 43 51 54
REMARK Flexibility Score: inf
ROOT
ATOM      1  C   UNL A   1      35.177  23.324  23.971  1.00  0.00     0.274 C 
ENDROOT
BRANCH   1   2
ATOM      2  O   UNL A   1      34.850  24.026  22.748  1.00  0.00    -0.462 OA
BRANCH   2   3
ATOM      3  C   UNL A   1      33.699  24.692  22.476  1.00  0.00     0.310 C 
ATOM      4  O   UNL A   1      33.720  25.656  21.713  1.00  0.00    -0.252 OA
BRANCH   3   5
ATOM      5  C   UNL A   1      32.409  24.233  23.114  1.00  0.00     0.158 C 
BRANCH   5   6
ATOM      6  C   UNL A   1      31.942  24.966  24.347  1.00  0.00    -0.036 A 
ATOM      7  C   UNL A   1      30.682  24.667  24.885  1.00  0.00     0.004 A 
ATOM      8  C   UNL A   1      32.652  26.044  24.880  1.00  0.00     0.013 A 
ATOM      9  C   UNL A   1      30.136  25.453  25.904  1.00  0.00     0.001 A 
ATOM     10  C   UNL A   1      32.080  26.878  25.846  1.00  0.00    -0.018 A 
ATOM     11  C   UNL A   1      30.823  26.576  26.369  1.00  0.00     0.009 A 
BRANCH  10  12
ATOM     12  C   UNL A   1      32.784  28.137  26.126  1.00  0.00    -0.011 A 
ATOM     13  C   UNL A   1      34.193  28.136  26.466  1.00  0.00     0.027 A 
ATOM     14  C   UNL A   1      32.071  29.269  26.241  1.00  0.00     0.080 A 
ATOM     15  C   UNL A   1      34.766  29.231  26.976  1.00  0.00     0.095 A 
ATOM     16  C   UNL A   1      32.712  30.511  26.760  1.00  0.00     0.255 A 
ATOM     17  N   UNL A   1      34.041  30.395  27.143  1.00  0.00    -0.258 N 
ATOM     18  O   UNL A   1      32.035  31.530  26.850  1.00  0.00    -0.269 OA
BRANCH  17  19
ATOM     19  C   UNL A   1      34.649  31.546  27.756  1.00  0.00     0.451 C 
ATOM     20  F   UNL A   1      34.373  31.606  29.081  1.00  0.00    -0.185 F 
ATOM     21  F   UNL A   1      35.996  31.523  27.606  1.00  0.00    -0.185 F 
ENDBRANCH  17  19
ENDBRANCH  10  12
ENDBRANCH   5   6
ENDBRANCH   3   5
ENDBRANCH   2   3
ENDBRANCH   1   2
BRANCH   1  22
ATOM     22  C   UNL A   1      36.685  23.246  24.189  1.00  0.00     0.275 C 
BRANCH  22  23
ATOM     23  O   UNL A   1      36.999  23.786  25.482  1.00  0.00    -0.458 OA
BRANCH  23  24
ATOM     24  C   UNL A   1      38.068  23.222  26.098  1.00  0.00     0.338 C 
ATOM     25  O   UNL A   1      38.366  22.043  26.096  1.00  0.00    -0.246 OA
BRANCH  24  26
ATOM     26  C   UNL A   1      38.950  24.298  26.607  1.00  0.00     0.060 A 
ATOM     27  C   UNL A   1      38.921  24.559  27.983  1.00  0.00     0.016 A 
ATOM     28  C   UNL A   1      39.820  25.007  25.771  1.00  0.00     0.016 A 
ATOM     29  C   UNL A   1      39.718  25.570  28.515  1.00  0.00     0.010 A 
ATOM     30  C   UNL A   1      40.620  26.018  26.307  1.00  0.00     0.010 A 
ATOM     31  C   UNL A   1      40.539  26.331  27.673  1.00  0.00    -0.014 A 
BRANCH  31  32
ATOM     32  C   UNL A   1      41.143  27.583  28.184  1.00  0.00     0.031 A 
ATOM     33  C   UNL A   1      42.637  27.732  28.104  1.00  0.00     0.074 A 
ATOM     34  C   UNL A   1      40.385  28.573  28.685  1.00  0.00     0.049 A 
ATOM     35  N   UNL A   1      43.390  28.745  28.441  1.00  0.00    -0.248 NA
ATOM     36  C   UNL A   1      43.382  26.578  27.575  1.00  0.00     0.031 C 
ATOM     37  C   UNL A   1      38.928  28.550  28.802  1.00  0.00     0.029 A 
ATOM     38  N   UNL A   1      40.746  29.796  29.188  1.00  0.00    -0.354 N 
ATOM     39  C   UNL A   1      44.693  28.356  28.158  1.00  0.00     0.074 A 
ATOM     40  C   UNL A   1      44.634  26.997  27.667  1.00  0.00     0.031 C 
ATOM     41  C   UNL A   1      38.518  29.711  29.343  1.00  0.00     0.029 A 
ATOM     42  C   UNL A   1      39.683  30.550  29.621  1.00  0.00     0.049 A 
ATOM     43  H   UNL A   1      41.680  30.105  29.235  1.00  0.00     0.167 HD
ATOM     44  C   UNL A   1      45.837  29.070  28.280  1.00  0.00     0.037 A 
ATOM     45  C   UNL A   1      39.659  31.779  30.175  1.00  0.00     0.037 A 
ATOM     46  C   UNL A   1      45.895  30.415  28.782  1.00  0.00     0.049 A 
ATOM     47  C   UNL A   1      40.948  32.538  30.351  1.00  0.00     0.074 A 
ATOM     48  C   UNL A   1      47.002  31.233  28.930  1.00  0.00     0.029 A 
ATOM     49  N   UNL A   1      44.799  31.138  29.232  1.00  0.00    -0.354 N 
ATOM     50  N   UNL A   1      42.170  32.178  30.032  1.00  0.00    -0.248 NA
ATOM     51  C   UNL A   1      40.855  33.876  30.953  1.00  0.00     0.031 C 
ATOM     52  C   UNL A   1      46.579  32.435  29.509  1.00  0.00     0.029 A 
ATOM     53  C   UNL A   1      45.205  32.384  29.677  1.00  0.00     0.049 A 
ATOM     54  H   UNL A   1      43.871  30.812  29.233  1.00  0.00     0.167 HD
ATOM     55  C   UNL A   1      42.983  33.261  30.356  1.00  0.00     0.074 A 
ATOM     56  C   UNL A   1      42.116  34.285  30.899  1.00  0.00     0.031 C 
ATOM     57  C   UNL A   1      44.325  33.397  30.206  1.00  0.00     0.037 A 
BRANCH  44  58
ATOM     58  C   UNL A   1      47.113  28.382  27.887  1.00  0.00     0.058 A 
ATOM     59  C   UNL A   1      47.590  28.413  26.566  1.00  0.00     0.135 A 
ATOM     60  C   UNL A   1      47.851  27.657  28.835  1.00  0.00     0.135 A 
ATOM     61  F   UNL A   1      46.908  29.073  25.617  1.00  0.00    -0.206 F 
ATOM     62  C   UNL A   1      48.731  27.714  26.190  1.00  0.00     0.059 A 
ATOM     63  C   UNL A   1      49.011  26.971  28.486  1.00  0.00     0.059 A 
ATOM     64  F   UNL A   1      47.437  27.591  30.110  1.00  0.00    -0.206 F 
ATOM     65  C   UNL A   1      49.429  26.986  27.156  1.00  0.00     0.060 A 
BRANCH  65  66
ATOM     66  S   UNL A   1      50.883  26.046  26.649  1.00  0.00     0.124 S 
ATOM     67  O   UNL A   1      51.962  26.872  27.182  1.00  0.00    -0.237 OA
ATOM     68  O   UNL A   1      50.678  24.764  27.315  1.00  0.00    -0.237 OA
ATOM     69  O   UNL A   1      50.777  26.017  25.193  1.00  0.00    -0.744 OA
ENDBRANCH  65  66
ENDBRANCH  44  58
BRANCH  45  70
ATOM     70  C   UNL A   1      38.361  32.384  30.572  1.00  0.00     0.058 A 
ATOM     71  C   UNL A   1      37.705  33.298  29.735  1.00  0.00     0.135 A 
ATOM     72  C   UNL A   1      37.747  32.055  31.790  1.00  0.00     0.135 A 
ATOM     73  F   UNL A   1      38.259  33.652  28.565  1.00  0.00    -0.206 F 
ATOM     74  C   UNL A   1      36.489  33.871  30.091  1.00  0.00     0.059 A 
ATOM     75  C   UNL A   1      36.522  32.599  32.161  1.00  0.00     0.059 A 
ATOM     76  F   UNL A   1      38.331  31.178  32.621  1.00  0.00    -0.206 F 
ATOM     77  C   UNL A   1      35.903  33.512  31.306  1.00  0.00     0.060 A 
BRANCH  77  78
ATOM     78  S   UNL A   1      34.295  34.213  31.734  1.00  0.00     0.124 S 
ATOM     79  O   UNL A   1      33.750  33.183  32.612  1.00  0.00    -0.237 OA
ATOM     80  O   UNL A   1      34.669  35.469  32.379  1.00  0.00    -0.237 OA
ATOM     81  O   UNL A   1      33.636  34.354  30.440  1.00  0.00    -0.744 OA
ENDBRANCH  77  78
ENDBRANCH  45  70
BRANCH  57  82
ATOM     82  C   UNL A   1      44.937  34.717  30.589  1.00  0.00     0.058 A 
ATOM     83  C   UNL A   1      45.034  35.780  29.679  1.00  0.00     0.135 A 
ATOM     84  C   UNL A   1      45.382  34.935  31.904  1.00  0.00     0.135 A 
ATOM     85  F   UNL A   1      44.627  35.624  28.409  1.00  0.00    -0.206 F 
ATOM     86  C   UNL A   1      45.573  37.008  30.053  1.00  0.00     0.059 A 
ATOM     87  C   UNL A   1      45.901  36.161  32.305  1.00  0.00     0.059 A 
ATOM     88  F   UNL A   1      45.300  33.954  32.817  1.00  0.00    -0.206 F 
ATOM     89  C   UNL A   1      46.004  37.189  31.369  1.00  0.00     0.060 A 
BRANCH  89  90
ATOM     90  S   UNL A   1      46.673  38.795  31.853  1.00  0.00     0.124 S 
ATOM     91  O   UNL A   1      47.279  38.484  33.143  1.00  0.00    -0.237 OA
ATOM     92  O   UNL A   1      47.604  39.088  30.768  1.00  0.00    -0.237 OA
ATOM     93  O   UNL A   1      45.491  39.652  31.903  1.00  0.00    -0.744 OA
ENDBRANCH  89  90
ENDBRANCH  57  82
ENDBRANCH  31  32
ENDBRANCH  24  26
ENDBRANCH  23  24
ENDBRANCH  22  23
ENDBRANCH   1  22
TORSDOF 17
ENDMDL
