MODEL 1
REMARK VINA RESULT:     -11.9      0.000      0.000
REMARK SMILES C[C@@]1(C(=O)OCCOC(=O)c2ccc(-c3c4nc(c(-c5c(F)cc(S(=O)(=O)[O-])cc5F)c5ccc([nH]5)c(-c5c(F)cc(S(=O)(=O)[O-])cc5F)c5nc(c(-c6c(F)cc(S(=O)(=O)[O-])cc6F)c6ccc3[nH]6)C=C5)C=C4)cc2)[C@@H]2C=C[C@@]3(CN(c4ccccc4)C(=O)[C@H]13)O2
REMARK SMILES IDX 7 1 6 2 5 3 3 4 4 5 2 6 1 7 77 8 91 9 78 10 92 11 80 12
REMARK SMILES IDX 89 13 79 14 81 15 82 16 90 17 83 18 84 19 88 20 85 21 87 22
REMARK SMILES IDX 86 23 8 24 9 25 10 26 11 27 12 28 76 29 13 30 75 31 14 32
REMARK SMILES IDX 15 33 16 34 69 35 17 36 74 37 68 38 70 39 18 40 73 41 67 42
REMARK SMILES IDX 66 43 19 45 53 46 32 47 52 48 33 49 36 50 51 51 71 52 34 53
REMARK SMILES IDX 35 54 50 56 72 57 37 58 20 59 21 60 30 61 22 62 23 63 29 64
REMARK SMILES IDX 31 65 24 66 25 67 26 68 27 69 28 70 54 71 55 72 64 73 56 74
REMARK SMILES IDX 57 75 63 76 65 77 58 78 59 79 60 80 61 81 62 82 38 83 39 84
REMARK SMILES IDX 48 85 40 86 41 87 47 88 49 89 42 90 43 91 44 92 45 93 46 94
REMARK H PARENT 70 44 36 55
REMARK Flexibility Score: inf
ROOT
ATOM      1  C   UNL A   1      33.268  30.553  26.692  1.00  0.00     0.275 C 
ENDROOT
BRANCH   1   2
ATOM      2  C   UNL A   1      31.838  30.024  26.619  1.00  0.00     0.274 C 
BRANCH   2   3
ATOM      3  O   UNL A   1      31.617  29.386  25.345  1.00  0.00    -0.462 OA
BRANCH   3   4
ATOM      4  C   UNL A   1      31.913  28.073  25.246  1.00  0.00     0.315 C 
ATOM      5  O   UNL A   1      31.841  27.278  26.178  1.00  0.00    -0.251 OA
BRANCH   4   6
ATOM      6  C   UNL A   1      32.386  27.667  23.863  1.00  0.00     0.110 C 
ATOM      7  C   UNL A   1      33.096  28.867  23.199  1.00  0.00     0.028 C 
ATOM      8  C   UNL A   1      31.175  27.273  22.969  1.00  0.00     0.160 C 
ATOM      9  C   UNL A   1      33.276  26.423  23.687  1.00  0.00     0.137 C 
ATOM     10  C   UNL A   1      30.356  26.205  23.630  1.00  0.00     0.004 C 
ATOM     11  O   UNL A   1      31.846  26.443  21.937  1.00  0.00    -0.360 OA
ATOM     12  C   UNL A   1      32.374  25.493  22.864  1.00  0.00     0.118 C 
ATOM     13  C   UNL A   1      33.872  25.392  24.615  1.00  0.00     0.234 C 
ATOM     14  C   UNL A   1      31.109  25.102  23.593  1.00  0.00     0.009 C 
ATOM     15  C   UNL A   1      33.344  24.391  22.514  1.00  0.00     0.166 C 
ATOM     16  N   UNL A   1      34.033  24.234  23.796  1.00  0.00    -0.309 N 
ATOM     17  O   UNL A   1      34.273  25.580  25.748  1.00  0.00    -0.274 OA
BRANCH  16  18
ATOM     18  C   UNL A   1      34.758  23.075  24.137  1.00  0.00     0.044 A 
ATOM     19  C   UNL A   1      36.136  23.011  23.892  1.00  0.00     0.026 A 
ATOM     20  C   UNL A   1      34.130  21.977  24.731  1.00  0.00     0.026 A 
ATOM     21  C   UNL A   1      36.873  21.883  24.260  1.00  0.00     0.002 A 
ATOM     22  C   UNL A   1      34.860  20.832  25.061  1.00  0.00     0.002 A 
ATOM     23  C   UNL A   1      36.234  20.789  24.836  1.00  0.00     0.000 A 
ENDBRANCH  16  18
ENDBRANCH   4   6
ENDBRANCH   3   4
ENDBRANCH   2   3
ENDBRANCH   1   2
BRANCH   1  24
ATOM     24  O   UNL A   1      33.934  29.924  27.801  1.00  0.00    -0.458 OA
BRANCH  24  25
ATOM     25  C   UNL A   1      34.758  30.722  28.517  1.00  0.00     0.338 C 
ATOM     26  O   UNL A   1      34.493  31.788  29.042  1.00  0.00    -0.246 OA
BRANCH  25  27
ATOM     27  C   UNL A   1      36.105  30.128  28.558  1.00  0.00     0.060 A 
ATOM     28  C   UNL A   1      36.650  29.687  29.762  1.00  0.00     0.016 A 
ATOM     29  C   UNL A   1      36.875  30.125  27.396  1.00  0.00     0.016 A 
ATOM     30  C   UNL A   1      38.003  29.359  29.832  1.00  0.00     0.010 A 
ATOM     31  C   UNL A   1      38.200  29.686  27.446  1.00  0.00     0.010 A 
ATOM     32  C   UNL A   1      38.794  29.341  28.673  1.00  0.00    -0.014 A 
BRANCH  32  33
ATOM     33  C   UNL A   1      40.241  28.992  28.734  1.00  0.00     0.031 A 
ATOM     34  C   UNL A   1      41.255  30.029  29.148  1.00  0.00     0.074 A 
ATOM     35  C   UNL A   1      40.653  27.749  28.412  1.00  0.00     0.049 A 
ATOM     36  N   UNL A   1      42.561  29.988  29.066  1.00  0.00    -0.248 NA
ATOM     37  C   UNL A   1      40.732  31.284  29.712  1.00  0.00     0.031 C 
ATOM     38  C   UNL A   1      39.780  26.640  28.024  1.00  0.00     0.029 A 
ATOM     39  N   UNL A   1      41.914  27.208  28.363  1.00  0.00    -0.354 N 
ATOM     40  C   UNL A   1      43.010  31.230  29.501  1.00  0.00     0.074 A 
ATOM     41  C   UNL A   1      41.838  32.000  29.859  1.00  0.00     0.031 C 
ATOM     42  C   UNL A   1      40.523  25.541  27.821  1.00  0.00     0.029 A 
ATOM     43  C   UNL A   1      41.931  25.889  27.976  1.00  0.00     0.049 A 
ATOM     44  H   UNL A   1      42.728  27.715  28.584  1.00  0.00     0.167 HD
ATOM     45  C   UNL A   1      44.283  31.687  29.585  1.00  0.00     0.037 A 
ATOM     46  C   UNL A   1      42.962  25.058  27.731  1.00  0.00     0.037 A 
ATOM     47  C   UNL A   1      45.447  30.893  29.286  1.00  0.00     0.049 A 
ATOM     48  C   UNL A   1      44.364  25.578  27.847  1.00  0.00     0.074 A 
ATOM     49  C   UNL A   1      46.781  31.261  29.340  1.00  0.00     0.029 A 
ATOM     50  N   UNL A   1      45.416  29.562  28.898  1.00  0.00    -0.354 N 
ATOM     51  N   UNL A   1      44.768  26.780  28.182  1.00  0.00    -0.248 NA
ATOM     52  C   UNL A   1      45.449  24.640  27.530  1.00  0.00     0.031 C 
ATOM     53  C   UNL A   1      47.556  30.154  28.968  1.00  0.00     0.029 A 
ATOM     54  C   UNL A   1      46.705  29.092  28.711  1.00  0.00     0.049 A 
ATOM     55  H   UNL A   1      44.597  29.029  28.774  1.00  0.00     0.167 HD
ATOM     56  C   UNL A   1      46.155  26.747  28.106  1.00  0.00     0.074 A 
ATOM     57  C   UNL A   1      46.521  25.398  27.721  1.00  0.00     0.031 C 
ATOM     58  C   UNL A   1      47.045  27.747  28.323  1.00  0.00     0.037 A 
BRANCH  45  59
ATOM     59  C   UNL A   1      44.484  33.123  29.985  1.00  0.00     0.058 A 
ATOM     60  C   UNL A   1      44.698  33.502  31.319  1.00  0.00     0.135 A 
ATOM     61  C   UNL A   1      44.491  34.132  29.007  1.00  0.00     0.135 A 
ATOM     62  F   UNL A   1      44.684  32.580  32.294  1.00  0.00    -0.206 F 
ATOM     63  C   UNL A   1      44.888  34.836  31.673  1.00  0.00     0.059 A 
ATOM     64  C   UNL A   1      44.699  35.468  29.337  1.00  0.00     0.059 A 
ATOM     65  F   UNL A   1      44.292  33.823  27.716  1.00  0.00    -0.206 F 
ATOM     66  C   UNL A   1      44.882  35.812  30.675  1.00  0.00     0.060 A 
BRANCH  66  67
ATOM     67  S   UNL A   1      45.129  37.539  31.143  1.00  0.00     0.124 S 
ATOM     68  O   UNL A   1      45.949  38.025  30.037  1.00  0.00    -0.237 OA
ATOM     69  O   UNL A   1      43.764  38.053  31.191  1.00  0.00    -0.237 OA
ATOM     70  O   UNL A   1      45.805  37.447  32.434  1.00  0.00    -0.744 OA
ENDBRANCH  66  67
ENDBRANCH  45  59
BRANCH  46  71
ATOM     71  C   UNL A   1      42.691  23.659  27.311  1.00  0.00     0.058 A 
ATOM     72  C   UNL A   1      42.733  23.292  25.959  1.00  0.00     0.135 A 
ATOM     73  C   UNL A   1      42.442  22.652  28.257  1.00  0.00     0.135 A 
ATOM     74  F   UNL A   1      42.958  24.223  25.019  1.00  0.00    -0.206 F 
ATOM     75  C   UNL A   1      42.543  21.974  25.557  1.00  0.00     0.059 A 
ATOM     76  C   UNL A   1      42.272  21.324  27.882  1.00  0.00     0.059 A 
ATOM     77  F   UNL A   1      42.406  22.952  29.565  1.00  0.00    -0.206 F 
ATOM     78  C   UNL A   1      42.321  20.995  26.527  1.00  0.00     0.060 A 
BRANCH  78  79
ATOM     79  S   UNL A   1      42.166  19.271  26.014  1.00  0.00     0.124 S 
ATOM     80  O   UNL A   1      40.736  19.170  25.749  1.00  0.00    -0.237 OA
ATOM     81  O   UNL A   1      43.037  19.213  24.842  1.00  0.00    -0.237 OA
ATOM     82  O   UNL A   1      42.649  18.534  27.176  1.00  0.00    -0.744 OA
ENDBRANCH  78  79
ENDBRANCH  46  71
BRANCH  58  83
ATOM     83  C   UNL A   1      48.496  27.410  28.156  1.00  0.00     0.058 A 
ATOM     84  C   UNL A   1      49.266  26.952  29.235  1.00  0.00     0.135 A 
ATOM     85  C   UNL A   1      49.115  27.522  26.902  1.00  0.00     0.135 A 
ATOM     86  F   UNL A   1      48.719  26.837  30.456  1.00  0.00    -0.206 F 
ATOM     87  C   UNL A   1      50.611  26.633  29.081  1.00  0.00     0.059 A 
ATOM     88  C   UNL A   1      50.455  27.193  26.721  1.00  0.00     0.059 A 
ATOM     89  F   UNL A   1      48.416  27.951  25.839  1.00  0.00    -0.206 F 
ATOM     90  C   UNL A   1      51.197  26.761  27.821  1.00  0.00     0.060 A 
BRANCH  90  91
ATOM     91  S   UNL A   1      52.939  26.329  27.623  1.00  0.00     0.124 S 
ATOM     92  O   UNL A   1      53.324  26.026  28.997  1.00  0.00    -0.237 OA
ATOM     93  O   UNL A   1      52.881  25.187  26.714  1.00  0.00    -0.237 OA
ATOM     94  O   UNL A   1      53.525  27.540  27.058  1.00  0.00    -0.744 OA
ENDBRANCH  90  91
ENDBRANCH  58  83
ENDBRANCH  32  33
ENDBRANCH  25  27
ENDBRANCH  24  25
ENDBRANCH   1  24
TORSDOF 15
ENDMDL
MODEL 2
REMARK VINA RESULT:     -11.8      1.400      1.800
REMARK SMILES C[C@@]1(C(=O)OCCOC(=O)c2ccc(-c3c4nc(c(-c5c(F)cc(S(=O)(=O)[O-])cc5F)c5ccc([nH]5)c(-c5c(F)cc(S(=O)(=O)[O-])cc5F)c5nc(c(-c6c(F)cc(S(=O)(=O)[O-])cc6F)c6ccc3[nH]6)C=C5)C=C4)cc2)[C@@H]2C=C[C@@]3(CN(c4ccccc4)C(=O)[C@H]13)O2
REMARK SMILES IDX 7 1 6 2 5 3 3 4 4 5 2 6 1 7 77 8 91 9 78 10 92 11 80 12
REMARK SMILES IDX 89 13 79 14 81 15 82 16 90 17 83 18 84 19 88 20 85 21 87 22
REMARK SMILES IDX 86 23 8 24 9 25 10 26 11 27 12 28 76 29 13 30 75 31 14 32
REMARK SMILES IDX 15 33 16 34 69 35 17 36 74 37 68 38 70 39 18 40 73 41 67 42
REMARK SMILES IDX 66 43 19 45 53 46 32 47 52 48 33 49 36 50 51 51 71 52 34 53
REMARK SMILES IDX 35 54 50 56 72 57 37 58 20 59 21 60 30 61 22 62 23 63 29 64
REMARK SMILES IDX 31 65 24 66 25 67 26 68 27 69 28 70 54 71 55 72 64 73 56 74
REMARK SMILES IDX 57 75 63 76 65 77 58 78 59 79 60 80 61 81 62 82 38 83 39 84
REMARK SMILES IDX 48 85 40 86 41 87 47 88 49 89 42 90 43 91 44 92 45 93 46 94
REMARK H PARENT 70 44 36 55
REMARK Flexibility Score: inf
ROOT
ATOM      1  C   UNL A   1      34.157  31.032  27.517  1.00  0.00     0.275 C 
ENDROOT
BRANCH   1   2
ATOM      2  C   UNL A   1      32.908  30.304  27.027  1.00  0.00     0.274 C 
BRANCH   2   3
ATOM      3  O   UNL A   1      33.162  29.713  25.737  1.00  0.00    -0.462 OA
BRANCH   3   4
ATOM      4  C   UNL A   1      33.115  28.366  25.649  1.00  0.00     0.315 C 
ATOM      5  O   UNL A   1      33.139  27.611  26.615  1.00  0.00    -0.251 OA
BRANCH   4   6
ATOM      6  C   UNL A   1      33.065  27.859  24.220  1.00  0.00     0.110 C 
ATOM      7  C   UNL A   1      34.029  28.698  23.352  1.00  0.00     0.028 C 
ATOM      8  C   UNL A   1      31.632  28.023  23.636  1.00  0.00     0.160 C 
ATOM      9  C   UNL A   1      33.318  26.371  23.920  1.00  0.00     0.137 C 
ATOM     10  C   UNL A   1      30.623  27.350  24.518  1.00  0.00     0.004 C 
ATOM     11  O   UNL A   1      31.666  27.035  22.528  1.00  0.00    -0.360 OA
ATOM     12  C   UNL A   1      31.960  25.916  23.367  1.00  0.00     0.118 C 
ATOM     13  C   UNL A   1      33.641  25.151  24.750  1.00  0.00     0.234 C 
ATOM     14  C   UNL A   1      30.842  26.039  24.376  1.00  0.00     0.009 C 
ATOM     15  C   UNL A   1      32.303  24.532  22.873  1.00  0.00     0.166 C 
ATOM     16  N   UNL A   1      33.137  24.060  23.979  1.00  0.00    -0.309 N 
ATOM     17  O   UNL A   1      34.324  25.117  25.755  1.00  0.00    -0.274 OA
BRANCH  16  18
ATOM     18  C   UNL A   1      33.393  22.695  24.215  1.00  0.00     0.044 A 
ATOM     19  C   UNL A   1      34.711  22.241  24.355  1.00  0.00     0.026 A 
ATOM     20  C   UNL A   1      32.350  21.771  24.324  1.00  0.00     0.026 A 
ATOM     21  C   UNL A   1      34.976  20.897  24.628  1.00  0.00     0.002 A 
ATOM     22  C   UNL A   1      32.616  20.419  24.554  1.00  0.00     0.002 A 
ATOM     23  C   UNL A   1      33.929  19.984  24.717  1.00  0.00     0.000 A 
ENDBRANCH  16  18
ENDBRANCH   4   6
ENDBRANCH   3   4
ENDBRANCH   2   3
ENDBRANCH   1   2
BRANCH   1  24
ATOM     24  O   UNL A   1      34.993  30.090  28.214  1.00  0.00    -0.458 OA
BRANCH  24  25
ATOM     25  C   UNL A   1      35.879  30.627  29.083  1.00  0.00     0.338 C 
ATOM     26  O   UNL A   1      35.690  31.527  29.881  1.00  0.00    -0.246 OA
BRANCH  25  27
ATOM     27  C   UNL A   1      37.189  29.975  28.914  1.00  0.00     0.060 A 
ATOM     28  C   UNL A   1      37.934  29.580  30.024  1.00  0.00     0.016 A 
ATOM     29  C   UNL A   1      37.728  29.871  27.633  1.00  0.00     0.016 A 
ATOM     30  C   UNL A   1      39.265  29.196  29.864  1.00  0.00     0.010 A 
ATOM     31  C   UNL A   1      39.023  29.375  27.467  1.00  0.00     0.010 A 
ATOM     32  C   UNL A   1      39.824  29.076  28.583  1.00  0.00    -0.014 A 
BRANCH  32  33
ATOM     33  C   UNL A   1      41.244  28.665  28.399  1.00  0.00     0.031 A 
ATOM     34  C   UNL A   1      42.351  29.680  28.541  1.00  0.00     0.074 A 
ATOM     35  C   UNL A   1      41.547  27.387  28.096  1.00  0.00     0.049 A 
ATOM     36  N   UNL A   1      43.616  29.573  28.222  1.00  0.00    -0.248 NA
ATOM     37  C   UNL A   1      41.985  30.991  29.101  1.00  0.00     0.031 C 
ATOM     38  C   UNL A   1      40.580  26.296  27.958  1.00  0.00     0.029 A 
ATOM     39  N   UNL A   1      42.757  26.786  27.854  1.00  0.00    -0.354 N 
ATOM     40  C   UNL A   1      44.180  30.819  28.475  1.00  0.00     0.074 A 
ATOM     41  C   UNL A   1      43.122  31.664  28.987  1.00  0.00     0.031 C 
ATOM     42  C   UNL A   1      41.236  25.154  27.701  1.00  0.00     0.029 A 
ATOM     43  C   UNL A   1      42.658  25.445  27.566  1.00  0.00     0.049 A 
ATOM     44  H   UNL A   1      43.615  27.269  27.882  1.00  0.00     0.167 HD
ATOM     45  C   UNL A   1      45.460  31.221  28.288  1.00  0.00     0.037 A 
ATOM     46  C   UNL A   1      43.597  24.554  27.194  1.00  0.00     0.037 A 
ATOM     47  C   UNL A   1      46.521  30.357  27.835  1.00  0.00     0.049 A 
ATOM     48  C   UNL A   1      45.012  25.016  27.010  1.00  0.00     0.074 A 
ATOM     49  C   UNL A   1      47.852  30.667  27.614  1.00  0.00     0.029 A 
ATOM     50  N   UNL A   1      46.373  29.007  27.557  1.00  0.00    -0.354 N 
ATOM     51  N   UNL A   1      45.511  26.217  27.176  1.00  0.00    -0.248 NA
ATOM     52  C   UNL A   1      45.986  24.011  26.565  1.00  0.00     0.031 C 
ATOM     53  C   UNL A   1      48.506  29.504  27.185  1.00  0.00     0.029 A 
ATOM     54  C   UNL A   1      47.588  28.467  27.168  1.00  0.00     0.049 A 
ATOM     55  H   UNL A   1      45.529  28.505  27.627  1.00  0.00     0.167 HD
ATOM     56  C   UNL A   1      46.857  26.116  26.846  1.00  0.00     0.074 A 
ATOM     57  C   UNL A   1      47.099  24.729  26.498  1.00  0.00     0.031 C 
ATOM     58  C   UNL A   1      47.804  27.086  26.822  1.00  0.00     0.037 A 
BRANCH  45  59
ATOM     59  C   UNL A   1      45.781  32.670  28.538  1.00  0.00     0.058 A 
ATOM     60  C   UNL A   1      46.243  33.126  29.782  1.00  0.00     0.135 A 
ATOM     61  C   UNL A   1      45.648  33.611  27.503  1.00  0.00     0.135 A 
ATOM     62  F   UNL A   1      46.372  32.273  30.809  1.00  0.00    -0.206 F 
ATOM     63  C   UNL A   1      46.541  34.470  29.997  1.00  0.00     0.059 A 
ATOM     64  C   UNL A   1      45.958  34.954  27.691  1.00  0.00     0.059 A 
ATOM     65  F   UNL A   1      45.209  33.226  26.294  1.00  0.00    -0.206 F 
ATOM     66  C   UNL A   1      46.390  35.377  28.947  1.00  0.00     0.060 A 
BRANCH  66  67
ATOM     67  S   UNL A   1      46.778  37.118  29.235  1.00  0.00     0.124 S 
ATOM     68  O   UNL A   1      46.094  37.756  28.115  1.00  0.00    -0.237 OA
ATOM     69  O   UNL A   1      46.195  37.358  30.552  1.00  0.00    -0.237 OA
ATOM     70  O   UNL A   1      48.236  37.152  29.184  1.00  0.00    -0.744 OA
ENDBRANCH  66  67
ENDBRANCH  45  59
BRANCH  46  71
ATOM     71  C   UNL A   1      43.206  23.145  26.934  1.00  0.00     0.058 A 
ATOM     72  C   UNL A   1      43.116  22.652  25.624  1.00  0.00     0.135 A 
ATOM     73  C   UNL A   1      42.969  22.250  27.989  1.00  0.00     0.135 A 
ATOM     74  F   UNL A   1      43.325  23.473  24.584  1.00  0.00    -0.206 F 
ATOM     75  C   UNL A   1      42.813  21.319  25.368  1.00  0.00     0.059 A 
ATOM     76  C   UNL A   1      42.686  20.908  27.759  1.00  0.00     0.059 A 
ATOM     77  F   UNL A   1      43.056  22.671  29.261  1.00  0.00    -0.206 F 
ATOM     78  C   UNL A   1      42.607  20.453  26.444  1.00  0.00     0.060 A 
BRANCH  78  79
ATOM     79  S   UNL A   1      42.304  18.703  26.114  1.00  0.00     0.124 S 
ATOM     80  O   UNL A   1      43.241  18.443  25.027  1.00  0.00    -0.237 OA
ATOM     81  O   UNL A   1      42.626  18.081  27.396  1.00  0.00    -0.237 OA
ATOM     82  O   UNL A   1      40.890  18.674  25.753  1.00  0.00    -0.744 OA
ENDBRANCH  78  79
ENDBRANCH  46  71
BRANCH  58  83
ATOM     83  C   UNL A   1      49.186  26.673  26.413  1.00  0.00     0.058 A 
ATOM     84  C   UNL A   1      50.097  26.157  27.345  1.00  0.00     0.135 A 
ATOM     85  C   UNL A   1      49.593  26.770  25.073  1.00  0.00     0.135 A 
ATOM     86  F   UNL A   1      49.755  26.053  28.639  1.00  0.00    -0.206 F 
ATOM     87  C   UNL A   1      51.378  25.768  26.967  1.00  0.00     0.059 A 
ATOM     88  C   UNL A   1      50.863  26.371  24.670  1.00  0.00     0.059 A 
ATOM     89  F   UNL A   1      48.752  27.253  24.145  1.00  0.00    -0.206 F 
ATOM     90  C   UNL A   1      51.752  25.883  25.627  1.00  0.00     0.060 A 
BRANCH  90  91
ATOM     91  S   UNL A   1      53.410  25.359  25.139  1.00  0.00     0.124 S 
ATOM     92  O   UNL A   1      53.444  25.764  23.738  1.00  0.00    -0.237 OA
ATOM     93  O   UNL A   1      54.264  26.126  26.042  1.00  0.00    -0.237 OA
ATOM     94  O   UNL A   1      53.392  23.919  25.377  1.00  0.00    -0.744 OA
ENDBRANCH  90  91
ENDBRANCH  58  83
ENDBRANCH  32  33
ENDBRANCH  25  27
ENDBRANCH  24  25
ENDBRANCH   1  24
TORSDOF 15
ENDMDL
MODEL 3
REMARK VINA RESULT:     -11.7      0.773      1.947
REMARK SMILES C[C@@]1(C(=O)OCCOC(=O)c2ccc(-c3c4nc(c(-c5c(F)cc(S(=O)(=O)[O-])cc5F)c5ccc([nH]5)c(-c5c(F)cc(S(=O)(=O)[O-])cc5F)c5nc(c(-c6c(F)cc(S(=O)(=O)[O-])cc6F)c6ccc3[nH]6)C=C5)C=C4)cc2)[C@@H]2C=C[C@@]3(CN(c4ccccc4)C(=O)[C@H]13)O2
REMARK SMILES IDX 7 1 6 2 5 3 3 4 4 5 2 6 1 7 77 8 91 9 78 10 92 11 80 12
REMARK SMILES IDX 89 13 79 14 81 15 82 16 90 17 83 18 84 19 88 20 85 21 87 22
REMARK SMILES IDX 86 23 8 24 9 25 10 26 11 27 12 28 76 29 13 30 75 31 14 32
REMARK SMILES IDX 15 33 16 34 69 35 17 36 74 37 68 38 70 39 18 40 73 41 67 42
REMARK SMILES IDX 66 43 19 45 53 46 32 47 52 48 33 49 36 50 51 51 71 52 34 53
REMARK SMILES IDX 35 54 50 56 72 57 37 58 20 59 21 60 30 61 22 62 23 63 29 64
REMARK SMILES IDX 31 65 24 66 25 67 26 68 27 69 28 70 54 71 55 72 64 73 56 74
REMARK SMILES IDX 57 75 63 76 65 77 58 78 59 79 60 80 61 81 62 82 38 83 39 84
REMARK SMILES IDX 48 85 40 86 41 87 47 88 49 89 42 90 43 91 44 92 45 93 46 94
REMARK H PARENT 70 44 36 55
REMARK Flexibility Score: inf
ROOT
ATOM      1  C   UNL A   1      32.525  30.213  27.088  1.00  0.00     0.275 C 
ENDROOT
BRANCH   1   2
ATOM      2  C   UNL A   1      32.335  29.962  25.595  1.00  0.00     0.274 C 
BRANCH   2   3
ATOM      3  O   UNL A   1      32.845  28.658  25.250  1.00  0.00    -0.462 OA
BRANCH   3   4
ATOM      4  C   UNL A   1      31.985  27.782  24.687  1.00  0.00     0.315 C 
ATOM      5  O   UNL A   1      30.934  27.418  25.204  1.00  0.00    -0.251 OA
BRANCH   4   6
ATOM      6  C   UNL A   1      32.460  27.251  23.348  1.00  0.00     0.110 C 
ATOM      7  C   UNL A   1      33.113  28.402  22.551  1.00  0.00     0.028 C 
ATOM      8  C   UNL A   1      31.257  26.717  22.518  1.00  0.00     0.160 C 
ATOM      9  C   UNL A   1      33.399  26.033  23.291  1.00  0.00     0.137 C 
ATOM     10  C   UNL A   1      30.490  25.693  23.299  1.00  0.00     0.004 C 
ATOM     11  O   UNL A   1      31.952  25.810  21.569  1.00  0.00    -0.360 OA
ATOM     12  C   UNL A   1      32.528  24.985  22.584  1.00  0.00     0.118 C 
ATOM     13  C   UNL A   1      34.046  25.130  24.314  1.00  0.00     0.234 C 
ATOM     14  C   UNL A   1      31.287  24.623  23.368  1.00  0.00     0.009 C 
ATOM     15  C   UNL A   1      33.539  23.892  22.338  1.00  0.00     0.166 C 
ATOM     16  N   UNL A   1      34.247  23.899  23.619  1.00  0.00    -0.309 N 
ATOM     17  O   UNL A   1      34.450  25.453  25.414  1.00  0.00    -0.274 OA
BRANCH  16  18
ATOM     18  C   UNL A   1      35.022  22.813  24.070  1.00  0.00     0.044 A 
ATOM     19  C   UNL A   1      34.398  21.686  24.621  1.00  0.00     0.026 A 
ATOM     20  C   UNL A   1      36.416  22.827  23.970  1.00  0.00     0.026 A 
ATOM     21  C   UNL A   1      35.154  20.586  25.037  1.00  0.00     0.002 A 
ATOM     22  C   UNL A   1      37.174  21.745  24.425  1.00  0.00     0.002 A 
ATOM     23  C   UNL A   1      36.542  20.620  24.948  1.00  0.00     0.000 A 
ENDBRANCH  16  18
ENDBRANCH   4   6
ENDBRANCH   3   4
ENDBRANCH   2   3
ENDBRANCH   1   2
BRANCH   1  24
ATOM     24  O   UNL A   1      33.820  29.720  27.475  1.00  0.00    -0.458 OA
BRANCH  24  25
ATOM     25  C   UNL A   1      34.571  30.567  28.213  1.00  0.00     0.338 C 
ATOM     26  O   UNL A   1      34.243  31.643  28.678  1.00  0.00    -0.246 OA
BRANCH  25  27
ATOM     27  C   UNL A   1      35.928  30.014  28.367  1.00  0.00     0.060 A 
ATOM     28  C   UNL A   1      36.365  29.539  29.601  1.00  0.00     0.016 A 
ATOM     29  C   UNL A   1      36.810  30.087  27.290  1.00  0.00     0.016 A 
ATOM     30  C   UNL A   1      37.716  29.252  29.795  1.00  0.00     0.010 A 
ATOM     31  C   UNL A   1      38.138  29.688  27.457  1.00  0.00     0.010 A 
ATOM     32  C   UNL A   1      38.618  29.309  28.722  1.00  0.00    -0.014 A 
BRANCH  32  33
ATOM     33  C   UNL A   1      40.063  29.003  28.916  1.00  0.00     0.031 A 
ATOM     34  C   UNL A   1      40.996  30.059  29.457  1.00  0.00     0.074 A 
ATOM     35  C   UNL A   1      40.547  27.785  28.600  1.00  0.00     0.049 A 
ATOM     36  N   UNL A   1      42.305  30.060  29.503  1.00  0.00    -0.248 NA
ATOM     37  C   UNL A   1      40.378  31.278  30.002  1.00  0.00     0.031 C 
ATOM     38  C   UNL A   1      39.755  26.662  28.097  1.00  0.00     0.029 A 
ATOM     39  N   UNL A   1      41.824  27.285  28.661  1.00  0.00    -0.354 N 
ATOM     40  C   UNL A   1      42.666  31.302  30.015  1.00  0.00     0.074 A 
ATOM     41  C   UNL A   1      41.439  32.023  30.277  1.00  0.00     0.031 C 
ATOM     42  C   UNL A   1      40.552  25.594  27.937  1.00  0.00     0.029 A 
ATOM     43  C   UNL A   1      41.924  25.980  28.240  1.00  0.00     0.049 A 
ATOM     44  H   UNL A   1      42.595  27.810  28.975  1.00  0.00     0.167 HD
ATOM     45  C   UNL A   1      43.909  31.795  30.237  1.00  0.00     0.037 A 
ATOM     46  C   UNL A   1      43.003  25.190  28.074  1.00  0.00     0.037 A 
ATOM     47  C   UNL A   1      45.123  31.047  30.031  1.00  0.00     0.049 A 
ATOM     48  C   UNL A   1      44.368  25.750  28.343  1.00  0.00     0.074 A 
ATOM     49  C   UNL A   1      46.432  31.455  30.227  1.00  0.00     0.029 A 
ATOM     50  N   UNL A   1      45.175  29.729  29.605  1.00  0.00    -0.354 N 
ATOM     51  N   UNL A   1      44.696  26.953  28.750  1.00  0.00    -0.248 NA
ATOM     52  C   UNL A   1      45.510  24.857  28.107  1.00  0.00     0.031 C 
ATOM     53  C   UNL A   1      47.277  30.386  29.902  1.00  0.00     0.029 A 
ATOM     54  C   UNL A   1      46.492  29.306  29.532  1.00  0.00     0.049 A 
ATOM     55  H   UNL A   1      44.391  29.175  29.386  1.00  0.00     0.167 HD
ATOM     56  C   UNL A   1      46.084  26.965  28.810  1.00  0.00     0.074 A 
ATOM     57  C   UNL A   1      46.532  25.641  28.425  1.00  0.00     0.031 C 
ATOM     58  C   UNL A   1      46.913  27.985  29.142  1.00  0.00     0.037 A 
BRANCH  45  59
ATOM     59  C   UNL A   1      44.021  33.223  30.695  1.00  0.00     0.058 A 
ATOM     60  C   UNL A   1      44.077  34.294  29.791  1.00  0.00     0.135 A 
ATOM     61  C   UNL A   1      44.044  33.524  32.068  1.00  0.00     0.135 A 
ATOM     62  F   UNL A   1      44.076  34.061  28.469  1.00  0.00    -0.206 F 
ATOM     63  C   UNL A   1      44.176  35.612  30.230  1.00  0.00     0.059 A 
ATOM     64  C   UNL A   1      44.122  34.835  32.529  1.00  0.00     0.059 A 
ATOM     65  F   UNL A   1      43.993  32.536  32.976  1.00  0.00    -0.206 F 
ATOM     66  C   UNL A   1      44.203  35.872  31.601  1.00  0.00     0.060 A 
BRANCH  66  67
ATOM     67  S   UNL A   1      44.332  37.584  32.162  1.00  0.00     0.124 S 
ATOM     68  O   UNL A   1      43.376  37.600  33.265  1.00  0.00    -0.237 OA
ATOM     69  O   UNL A   1      45.737  37.688  32.542  1.00  0.00    -0.237 OA
ATOM     70  O   UNL A   1      43.947  38.356  30.985  1.00  0.00    -0.744 OA
ENDBRANCH  66  67
ENDBRANCH  45  59
BRANCH  46  71
ATOM     71  C   UNL A   1      42.822  23.797  27.590  1.00  0.00     0.058 A 
ATOM     72  C   UNL A   1      42.658  22.737  28.492  1.00  0.00     0.135 A 
ATOM     73  C   UNL A   1      42.753  23.509  26.218  1.00  0.00     0.135 A 
ATOM     74  F   UNL A   1      42.726  22.964  29.812  1.00  0.00    -0.206 F 
ATOM     75  C   UNL A   1      42.425  21.438  28.053  1.00  0.00     0.059 A 
ATOM     76  C   UNL A   1      42.499  22.222  25.754  1.00  0.00     0.059 A 
ATOM     77  F   UNL A   1      42.891  24.493  25.315  1.00  0.00    -0.206 F 
ATOM     78  C   UNL A   1      42.340  21.192  26.681  1.00  0.00     0.060 A 
BRANCH  78  79
ATOM     79  S   UNL A   1      41.946  19.524  26.112  1.00  0.00     0.124 S 
ATOM     80  O   UNL A   1      42.323  18.722  27.271  1.00  0.00    -0.237 OA
ATOM     81  O   UNL A   1      40.514  19.615  25.838  1.00  0.00    -0.237 OA
ATOM     82  O   UNL A   1      42.789  19.368  24.932  1.00  0.00    -0.744 OA
ENDBRANCH  78  79
ENDBRANCH  46  71
BRANCH  58  83
ATOM     83  C   UNL A   1      48.385  27.699  29.109  1.00  0.00     0.058 A 
ATOM     84  C   UNL A   1      49.144  27.921  27.951  1.00  0.00     0.135 A 
ATOM     85  C   UNL A   1      49.045  27.224  30.252  1.00  0.00     0.135 A 
ATOM     86  F   UNL A   1      48.553  28.368  26.831  1.00  0.00    -0.206 F 
ATOM     87  C   UNL A   1      50.510  27.662  27.920  1.00  0.00     0.059 A 
ATOM     88  C   UNL A   1      50.414  26.974  30.248  1.00  0.00     0.059 A 
ATOM     89  F   UNL A   1      48.361  27.001  31.385  1.00  0.00    -0.206 F 
ATOM     90  C   UNL A   1      51.135  27.185  29.073  1.00  0.00     0.060 A 
BRANCH  90  91
ATOM     91  S   UNL A   1      52.912  26.868  29.032  1.00  0.00     0.124 S 
ATOM     92  O   UNL A   1      53.031  26.015  27.855  1.00  0.00    -0.237 OA
ATOM     93  O   UNL A   1      53.471  28.211  28.901  1.00  0.00    -0.237 OA
ATOM     94  O   UNL A   1      53.167  26.214  30.312  1.00  0.00    -0.744 OA
ENDBRANCH  90  91
ENDBRANCH  58  83
ENDBRANCH  32  33
ENDBRANCH  25  27
ENDBRANCH  24  25
ENDBRANCH   1  24
TORSDOF 15
ENDMDL
