MODEL 1
REMARK VINA RESULT:     -12.1      0.000      0.000
REMARK SMILES O=C(CCCN1C(=O)c2ccc3c4c(ccc(c24)C1=O)C(=O)NC3=O)OCCOC(=O)c1ccc(-c2c3nc(c(-c4c(F)cc(S(=O)(=O)[O-])cc4F)c4ccc([nH]4)c(-c4c(F)cc(S(=O)(=O)[O-])cc4F)c4nc(c(-c5c(F)cc(S(=O)(=O)[O-])cc5F)c5ccc2[nH]5)C=C4)C=C3)cc1
REMARK SMILES IDX 27 1 26 2 2 3 1 4 3 5 4 6 5 7 6 8 19 9 7 10 20 11 17 12 9 13
REMARK SMILES IDX 8 14 16 15 18 16 10 17 15 18 13 19 11 20 14 21 12 22 21 23
REMARK SMILES IDX 24 24 23 25 22 26 25 27 28 29 29 30 30 31 31 32 32 33 33 34
REMARK SMILES IDX 97 35 34 36 96 37 35 38 36 39 37 40 90 41 38 42 95 43 89 44
REMARK SMILES IDX 91 45 39 46 94 47 88 48 87 49 40 51 74 52 53 53 73 54 54 55
REMARK SMILES IDX 57 56 72 57 92 58 55 59 56 60 71 62 93 63 58 64 41 65 42 66
REMARK SMILES IDX 51 67 43 68 44 69 50 70 52 71 45 72 46 73 47 74 48 75 49 76
REMARK SMILES IDX 75 77 76 78 85 79 77 80 78 81 84 82 86 83 79 84 80 85 81 86
REMARK SMILES IDX 82 87 83 88 59 89 60 90 69 91 61 92 62 93 68 94 70 95 63 96
REMARK SMILES IDX 64 97 65 98 66 99 67 100
REMARK H PARENT 23 28 91 50 57 61
REMARK Flexibility Score: inf
ROOT
ATOM      1  C   UNL A   1      44.469  21.771  25.860  1.00  0.00     0.274 C 
ENDROOT
BRANCH   1   2
ATOM      2  O   UNL A   1      43.257  21.255  25.291  1.00  0.00    -0.462 OA
BRANCH   2   3
ATOM      3  C   UNL A   1      42.597  20.235  25.900  1.00  0.00     0.305 C 
ATOM      4  O   UNL A   1      42.341  19.206  25.283  1.00  0.00    -0.252 OA
BRANCH   3   5
ATOM      5  C   UNL A   1      42.072  20.470  27.306  1.00  0.00     0.124 C 
BRANCH   5   6
ATOM      6  C   UNL A   1      40.635  20.985  27.368  1.00  0.00     0.034 C 
BRANCH   6   7
ATOM      7  C   UNL A   1      40.180  21.865  26.187  1.00  0.00     0.130 C 
BRANCH   7   8
ATOM      8  N   UNL A   1      38.749  21.804  25.844  1.00  0.00    -0.274 N 
ATOM      9  C   UNL A   1      38.004  22.985  25.868  1.00  0.00     0.261 C 
ATOM     10  C   UNL A   1      38.264  20.618  25.293  1.00  0.00     0.261 C 
ATOM     11  O   UNL A   1      38.473  24.085  26.133  1.00  0.00    -0.269 OA
ATOM     12  C   UNL A   1      36.559  22.883  25.530  1.00  0.00     0.049 A 
ATOM     13  C   UNL A   1      36.799  20.495  25.138  1.00  0.00     0.049 A 
ATOM     14  O   UNL A   1      38.962  19.668  24.953  1.00  0.00    -0.269 OA
ATOM     15  C   UNL A   1      35.754  24.030  25.540  1.00  0.00     0.015 A 
ATOM     16  C   UNL A   1      36.002  21.634  25.236  1.00  0.00     0.009 A 
ATOM     17  C   UNL A   1      36.233  19.235  24.895  1.00  0.00     0.015 A 
ATOM     18  C   UNL A   1      34.388  23.931  25.265  1.00  0.00     0.015 A 
ATOM     19  C   UNL A   1      34.605  21.519  25.016  1.00  0.00     0.009 A 
ATOM     20  C   UNL A   1      34.853  19.107  24.752  1.00  0.00     0.015 A 
ATOM     21  C   UNL A   1      33.817  22.679  25.016  1.00  0.00     0.048 A 
ATOM     22  C   UNL A   1      34.048  20.247  24.799  1.00  0.00     0.048 A 
ATOM     23  C   UNL A   1      32.368  22.567  24.729  1.00  0.00     0.258 C 
ATOM     24  C   UNL A   1      32.584  20.118  24.617  1.00  0.00     0.258 C 
ATOM     25  N   UNL A   1      31.871  21.291  24.591  1.00  0.00    -0.288 N 
ATOM     26  O   UNL A   1      31.657  23.556  24.608  1.00  0.00    -0.269 OA
ATOM     27  O   UNL A   1      32.049  19.024  24.485  1.00  0.00    -0.269 OA
ATOM     28  H   UNL A   1      30.898  21.212  24.460  1.00  0.00     0.173 HD
ENDBRANCH   7   8
ENDBRANCH   6   7
ENDBRANCH   5   6
ENDBRANCH   3   5
ENDBRANCH   2   3
ENDBRANCH   1   2
BRANCH   1  29
ATOM     29  C   UNL A   1      44.482  23.294  26.006  1.00  0.00     0.275 C 
BRANCH  29  30
ATOM     30  O   UNL A   1      43.413  23.740  26.849  1.00  0.00    -0.458 OA
BRANCH  30  31
ATOM     31  C   UNL A   1      42.619  24.674  26.253  1.00  0.00     0.338 C 
ATOM     32  O   UNL A   1      42.200  24.648  25.117  1.00  0.00    -0.246 OA
BRANCH  31  33
ATOM     33  C   UNL A   1      42.171  25.650  27.267  1.00  0.00     0.060 A 
ATOM     34  C   UNL A   1      42.859  26.867  27.327  1.00  0.00     0.016 A 
ATOM     35  C   UNL A   1      41.114  25.386  28.141  1.00  0.00     0.016 A 
ATOM     36  C   UNL A   1      42.519  27.811  28.294  1.00  0.00     0.010 A 
ATOM     37  C   UNL A   1      40.774  26.334  29.110  1.00  0.00     0.010 A 
ATOM     38  C   UNL A   1      41.493  27.538  29.209  1.00  0.00    -0.014 A 
BRANCH  38  39
ATOM     39  C   UNL A   1      41.247  28.469  30.333  1.00  0.00     0.031 A 
ATOM     40  C   UNL A   1      42.070  28.333  31.585  1.00  0.00     0.074 A 
ATOM     41  C   UNL A   1      40.306  29.425  30.231  1.00  0.00     0.049 A 
ATOM     42  N   UNL A   1      42.009  29.026  32.691  1.00  0.00    -0.248 NA
ATOM     43  C   UNL A   1      43.095  27.275  31.593  1.00  0.00     0.031 C 
ATOM     44  C   UNL A   1      39.458  29.653  29.059  1.00  0.00     0.029 A 
ATOM     45  N   UNL A   1      39.893  30.375  31.132  1.00  0.00    -0.354 N 
ATOM     46  C   UNL A   1      42.981  28.488  33.527  1.00  0.00     0.074 A 
ATOM     47  C   UNL A   1      43.602  27.396  32.811  1.00  0.00     0.031 C 
ATOM     48  C   UNL A   1      38.611  30.664  29.323  1.00  0.00     0.029 A 
ATOM     49  C   UNL A   1      38.839  31.137  30.687  1.00  0.00     0.049 A 
ATOM     50  H   UNL A   1      40.313  30.497  32.014  1.00  0.00     0.167 HD
ATOM     51  C   UNL A   1      43.325  28.879  34.776  1.00  0.00     0.037 A 
ATOM     52  C   UNL A   1      38.124  32.089  31.321  1.00  0.00     0.037 A 
ATOM     53  C   UNL A   1      42.710  29.978  35.473  1.00  0.00     0.049 A 
ATOM     54  C   UNL A   1      38.497  32.466  32.733  1.00  0.00     0.074 A 
ATOM     55  C   UNL A   1      43.034  30.494  36.715  1.00  0.00     0.029 A 
ATOM     56  N   UNL A   1      41.637  30.716  34.999  1.00  0.00    -0.354 N 
ATOM     57  N   UNL A   1      39.473  32.005  33.480  1.00  0.00    -0.248 NA
ATOM     58  C   UNL A   1      37.675  33.493  33.390  1.00  0.00     0.031 C 
ATOM     59  C   UNL A   1      42.118  31.505  37.019  1.00  0.00     0.029 A 
ATOM     60  C   UNL A   1      41.255  31.653  35.943  1.00  0.00     0.049 A 
ATOM     61  H   UNL A   1      41.210  30.592  34.120  1.00  0.00     0.167 HD
ATOM     62  C   UNL A   1      39.389  32.695  34.685  1.00  0.00     0.074 A 
ATOM     63  C   UNL A   1      38.284  33.622  34.561  1.00  0.00     0.031 C 
ATOM     64  C   UNL A   1      40.155  32.571  35.798  1.00  0.00     0.037 A 
BRANCH  51  65
ATOM     65  C   UNL A   1      44.406  28.117  35.487  1.00  0.00     0.058 A 
ATOM     66  C   UNL A   1      45.754  28.496  35.406  1.00  0.00     0.135 A 
ATOM     67  C   UNL A   1      44.074  27.047  36.335  1.00  0.00     0.135 A 
ATOM     68  F   UNL A   1      46.127  29.499  34.595  1.00  0.00    -0.206 F 
ATOM     69  C   UNL A   1      46.737  27.842  36.143  1.00  0.00     0.059 A 
ATOM     70  C   UNL A   1      45.037  26.394  37.097  1.00  0.00     0.059 A 
ATOM     71  F   UNL A   1      42.800  26.640  36.441  1.00  0.00    -0.206 F 
ATOM     72  C   UNL A   1      46.368  26.799  36.993  1.00  0.00     0.060 A 
BRANCH  72  73
ATOM     73  S   UNL A   1      47.648  25.998  37.982  1.00  0.00     0.124 S 
ATOM     74  O   UNL A   1      48.319  27.149  38.578  1.00  0.00    -0.237 OA
ATOM     75  O   UNL A   1      46.863  25.177  38.898  1.00  0.00    -0.237 OA
ATOM     76  O   UNL A   1      48.430  25.259  36.995  1.00  0.00    -0.744 OA
ENDBRANCH  72  73
ENDBRANCH  51  65
BRANCH  52  77
ATOM     77  C   UNL A   1      36.954  32.723  30.653  1.00  0.00     0.058 A 
ATOM     78  C   UNL A   1      37.110  33.814  29.786  1.00  0.00     0.135 A 
ATOM     79  C   UNL A   1      35.648  32.275  30.908  1.00  0.00     0.135 A 
ATOM     80  F   UNL A   1      38.337  34.288  29.519  1.00  0.00    -0.206 F 
ATOM     81  C   UNL A   1      36.014  34.462  29.224  1.00  0.00     0.059 A 
ATOM     82  C   UNL A   1      34.538  32.886  30.334  1.00  0.00     0.059 A 
ATOM     83  F   UNL A   1      35.442  31.226  31.721  1.00  0.00    -0.206 F 
ATOM     84  C   UNL A   1      34.730  33.993  29.509  1.00  0.00     0.060 A 
BRANCH  84  85
ATOM     85  S   UNL A   1      33.311  34.837  28.777  1.00  0.00     0.124 S 
ATOM     86  O   UNL A   1      33.959  35.925  28.055  1.00  0.00    -0.237 OA
ATOM     87  O   UNL A   1      32.720  33.787  27.954  1.00  0.00    -0.237 OA
ATOM     88  O   UNL A   1      32.520  35.233  29.939  1.00  0.00    -0.744 OA
ENDBRANCH  84  85
ENDBRANCH  52  77
BRANCH  64  89
ATOM     89  C   UNL A   1      39.834  33.459  36.967  1.00  0.00     0.058 A 
ATOM     90  C   UNL A   1      38.841  33.113  37.898  1.00  0.00     0.135 A 
ATOM     91  C   UNL A   1      40.577  34.627  37.205  1.00  0.00     0.135 A 
ATOM     92  F   UNL A   1      38.097  32.011  37.713  1.00  0.00    -0.206 F 
ATOM     93  C   UNL A   1      38.588  33.901  39.016  1.00  0.00     0.059 A 
ATOM     94  C   UNL A   1      40.360  35.415  38.331  1.00  0.00     0.059 A 
ATOM     95  F   UNL A   1      41.546  34.996  36.351  1.00  0.00    -0.206 F 
ATOM     96  C   UNL A   1      39.358  35.046  39.228  1.00  0.00     0.060 A 
BRANCH  96  97
ATOM     97  S   UNL A   1      39.055  36.028  40.712  1.00  0.00     0.124 S 
ATOM     98  O   UNL A   1      38.625  37.300  40.141  1.00  0.00    -0.237 OA
ATOM     99  O   UNL A   1      38.018  35.255  41.391  1.00  0.00    -0.237 OA
ATOM    100  O   UNL A   1      40.353  36.045  41.380  1.00  0.00    -0.744 OA
ENDBRANCH  96  97
ENDBRANCH  64  89
ENDBRANCH  38  39
ENDBRANCH  31  33
ENDBRANCH  30  31
ENDBRANCH  29  30
ENDBRANCH   1  29
TORSDOF 17
ENDMDL
MODEL 2
REMARK VINA RESULT:     -12.1      2.285      8.846
REMARK SMILES O=C(CCCN1C(=O)c2ccc3c4c(ccc(c24)C1=O)C(=O)NC3=O)OCCOC(=O)c1ccc(-c2c3nc(c(-c4c(F)cc(S(=O)(=O)[O-])cc4F)c4ccc([nH]4)c(-c4c(F)cc(S(=O)(=O)[O-])cc4F)c4nc(c(-c5c(F)cc(S(=O)(=O)[O-])cc5F)c5ccc2[nH]5)C=C4)C=C3)cc1
REMARK SMILES IDX 27 1 26 2 2 3 1 4 3 5 4 6 5 7 6 8 19 9 7 10 20 11 17 12 9 13
REMARK SMILES IDX 8 14 16 15 18 16 10 17 15 18 13 19 11 20 14 21 12 22 21 23
REMARK SMILES IDX 24 24 23 25 22 26 25 27 28 29 29 30 30 31 31 32 32 33 33 34
REMARK SMILES IDX 97 35 34 36 96 37 35 38 36 39 37 40 90 41 38 42 95 43 89 44
REMARK SMILES IDX 91 45 39 46 94 47 88 48 87 49 40 51 74 52 53 53 73 54 54 55
REMARK SMILES IDX 57 56 72 57 92 58 55 59 56 60 71 62 93 63 58 64 41 65 42 66
REMARK SMILES IDX 51 67 43 68 44 69 50 70 52 71 45 72 46 73 47 74 48 75 49 76
REMARK SMILES IDX 75 77 76 78 85 79 77 80 78 81 84 82 86 83 79 84 80 85 81 86
REMARK SMILES IDX 82 87 83 88 59 89 60 90 69 91 61 92 62 93 68 94 70 95 63 96
REMARK SMILES IDX 64 97 65 98 66 99 67 100
REMARK H PARENT 23 28 91 50 57 61
REMARK Flexibility Score: inf
ROOT
ATOM      1  C   UNL A   1      39.824  22.476  26.569  1.00  0.00     0.274 C 
ENDROOT
BRANCH   1   2
ATOM      2  O   UNL A   1      39.255  21.328  25.922  1.00  0.00    -0.462 OA
BRANCH   2   3
ATOM      3  C   UNL A   1      38.047  21.420  25.308  1.00  0.00     0.305 C 
ATOM      4  O   UNL A   1      37.435  20.406  24.987  1.00  0.00    -0.252 OA
BRANCH   3   5
ATOM      5  C   UNL A   1      37.556  22.803  24.911  1.00  0.00     0.124 C 
BRANCH   5   6
ATOM      6  C   UNL A   1      36.679  22.829  23.660  1.00  0.00     0.034 C 
BRANCH   6   7
ATOM      7  C   UNL A   1      35.168  22.625  23.887  1.00  0.00     0.130 C 
BRANCH   7   8
ATOM      8  N   UNL A   1      34.340  23.842  23.884  1.00  0.00    -0.274 N 
ATOM      9  C   UNL A   1      33.610  24.152  22.735  1.00  0.00     0.261 C 
ATOM     10  C   UNL A   1      34.146  24.499  25.099  1.00  0.00     0.261 C 
ATOM     11  O   UNL A   1      33.592  23.456  21.728  1.00  0.00    -0.269 OA
ATOM     12  C   UNL A   1      32.796  25.397  22.763  1.00  0.00     0.049 A 
ATOM     13  C   UNL A   1      33.486  25.820  25.056  1.00  0.00     0.049 A 
ATOM     14  O   UNL A   1      34.506  24.070  26.192  1.00  0.00    -0.269 OA
ATOM     15  C   UNL A   1      32.043  25.768  21.640  1.00  0.00     0.015 A 
ATOM     16  C   UNL A   1      32.812  26.212  23.899  1.00  0.00     0.009 A 
ATOM     17  C   UNL A   1      33.545  26.662  26.176  1.00  0.00     0.015 A 
ATOM     18  C   UNL A   1      31.311  26.957  21.647  1.00  0.00     0.015 A 
ATOM     19  C   UNL A   1      32.121  27.450  23.890  1.00  0.00     0.009 A 
ATOM     20  C   UNL A   1      32.930  27.911  26.145  1.00  0.00     0.015 A 
ATOM     21  C   UNL A   1      31.362  27.798  22.764  1.00  0.00     0.048 A 
ATOM     22  C   UNL A   1      32.210  28.294  25.010  1.00  0.00     0.048 A 
ATOM     23  C   UNL A   1      30.593  29.065  22.775  1.00  0.00     0.258 C 
ATOM     24  C   UNL A   1      31.530  29.609  24.985  1.00  0.00     0.258 C 
ATOM     25  N   UNL A   1      30.773  29.877  23.870  1.00  0.00    -0.288 N 
ATOM     26  O   UNL A   1      29.829  29.363  21.866  1.00  0.00    -0.269 OA
ATOM     27  O   UNL A   1      31.630  30.400  25.914  1.00  0.00    -0.269 OA
ATOM     28  H   UNL A   1      30.310  30.747  23.853  1.00  0.00     0.173 HD
ENDBRANCH   7   8
ENDBRANCH   6   7
ENDBRANCH   5   6
ENDBRANCH   3   5
ENDBRANCH   2   3
ENDBRANCH   1   2
BRANCH   1  29
ATOM     29  C   UNL A   1      41.317  22.665  26.289  1.00  0.00     0.275 C 
BRANCH  29  30
ATOM     30  O   UNL A   1      41.880  23.663  27.149  1.00  0.00    -0.458 OA
BRANCH  30  31
ATOM     31  C   UNL A   1      41.839  24.915  26.610  1.00  0.00     0.338 C 
ATOM     32  O   UNL A   1      41.919  25.199  25.436  1.00  0.00    -0.246 OA
BRANCH  31  33
ATOM     33  C   UNL A   1      41.483  25.886  27.664  1.00  0.00     0.060 A 
ATOM     34  C   UNL A   1      42.340  26.977  27.841  1.00  0.00     0.016 A 
ATOM     35  C   UNL A   1      40.347  25.737  28.464  1.00  0.00     0.016 A 
ATOM     36  C   UNL A   1      42.089  27.903  28.850  1.00  0.00     0.010 A 
ATOM     37  C   UNL A   1      40.096  26.666  29.476  1.00  0.00     0.010 A 
ATOM     38  C   UNL A   1      40.980  27.738  29.692  1.00  0.00    -0.014 A 
BRANCH  38  39
ATOM     39  C   UNL A   1      40.810  28.627  30.863  1.00  0.00     0.031 A 
ATOM     40  C   UNL A   1      39.740  29.683  30.827  1.00  0.00     0.074 A 
ATOM     41  C   UNL A   1      41.597  28.484  31.946  1.00  0.00     0.049 A 
ATOM     42  N   UNL A   1      39.431  30.576  31.729  1.00  0.00    -0.248 NA
ATOM     43  C   UNL A   1      38.910  29.744  29.611  1.00  0.00     0.031 C 
ATOM     44  C   UNL A   1      42.657  27.486  32.092  1.00  0.00     0.029 A 
ATOM     45  N   UNL A   1      41.636  29.190  33.122  1.00  0.00    -0.354 N 
ATOM     46  C   UNL A   1      38.377  31.306  31.193  1.00  0.00     0.074 A 
ATOM     47  C   UNL A   1      38.113  30.770  29.876  1.00  0.00     0.031 C 
ATOM     48  C   UNL A   1      43.258  27.659  33.283  1.00  0.00     0.029 A 
ATOM     49  C   UNL A   1      42.643  28.792  33.971  1.00  0.00     0.049 A 
ATOM     50  H   UNL A   1      41.005  29.913  33.337  1.00  0.00     0.167 HD
ATOM     51  C   UNL A   1      37.689  32.327  31.755  1.00  0.00     0.037 A 
ATOM     52  C   UNL A   1      43.037  29.305  35.154  1.00  0.00     0.037 A 
ATOM     53  C   UNL A   1      37.951  32.844  33.073  1.00  0.00     0.049 A 
ATOM     54  C   UNL A   1      42.285  30.478  35.731  1.00  0.00     0.074 A 
ATOM     55  C   UNL A   1      37.266  33.832  33.757  1.00  0.00     0.029 A 
ATOM     56  N   UNL A   1      38.985  32.427  33.896  1.00  0.00    -0.354 N 
ATOM     57  N   UNL A   1      41.237  31.104  35.249  1.00  0.00    -0.248 NA
ATOM     58  C   UNL A   1      42.765  31.015  37.014  1.00  0.00     0.031 C 
ATOM     59  C   UNL A   1      37.924  34.056  34.971  1.00  0.00     0.029 A 
ATOM     60  C   UNL A   1      38.987  33.171  35.063  1.00  0.00     0.049 A 
ATOM     61  H   UNL A   1      39.625  31.710  33.682  1.00  0.00     0.167 HD
ATOM     62  C   UNL A   1      40.927  32.096  36.174  1.00  0.00     0.074 A 
ATOM     63  C   UNL A   1      41.881  31.973  37.256  1.00  0.00     0.031 C 
ATOM     64  C   UNL A   1      39.944  33.029  36.131  1.00  0.00     0.037 A 
BRANCH  51  65
ATOM     65  C   UNL A   1      36.594  32.972  30.956  1.00  0.00     0.058 A 
ATOM     66  C   UNL A   1      35.239  32.753  31.247  1.00  0.00     0.135 A 
ATOM     67  C   UNL A   1      36.907  33.894  29.943  1.00  0.00     0.135 A 
ATOM     68  F   UNL A   1      34.885  31.868  32.191  1.00  0.00    -0.206 F 
ATOM     69  C   UNL A   1      34.232  33.428  30.563  1.00  0.00     0.059 A 
ATOM     70  C   UNL A   1      35.918  34.595  29.262  1.00  0.00     0.059 A 
ATOM     71  F   UNL A   1      38.189  34.132  29.621  1.00  0.00    -0.206 F 
ATOM     72  C   UNL A   1      34.581  34.354  29.579  1.00  0.00     0.060 A 
BRANCH  72  73
ATOM     73  S   UNL A   1      33.264  35.259  28.740  1.00  0.00     0.124 S 
ATOM     74  O   UNL A   1      32.466  35.726  29.869  1.00  0.00    -0.237 OA
ATOM     75  O   UNL A   1      34.006  36.289  28.020  1.00  0.00    -0.237 OA
ATOM     76  O   UNL A   1      32.632  34.245  27.902  1.00  0.00    -0.744 OA
ENDBRANCH  72  73
ENDBRANCH  51  65
BRANCH  52  77
ATOM     77  C   UNL A   1      44.226  28.750  35.857  1.00  0.00     0.058 A 
ATOM     78  C   UNL A   1      44.104  27.715  36.797  1.00  0.00     0.135 A 
ATOM     79  C   UNL A   1      45.508  29.279  35.634  1.00  0.00     0.135 A 
ATOM     80  F   UNL A   1      42.900  27.183  37.054  1.00  0.00    -0.206 F 
ATOM     81  C   UNL A   1      45.201  27.249  37.515  1.00  0.00     0.059 A 
ATOM     82  C   UNL A   1      46.624  28.810  36.318  1.00  0.00     0.059 A 
ATOM     83  F   UNL A   1      45.684  30.262  34.737  1.00  0.00    -0.206 F 
ATOM     84  C   UNL A   1      46.457  27.808  37.272  1.00  0.00     0.060 A 
BRANCH  84  85
ATOM     85  S   UNL A   1      47.877  27.200  38.208  1.00  0.00     0.124 S 
ATOM     86  O   UNL A   1      47.589  25.773  38.282  1.00  0.00    -0.237 OA
ATOM     87  O   UNL A   1      48.996  27.582  37.353  1.00  0.00    -0.237 OA
ATOM     88  O   UNL A   1      47.784  27.929  39.470  1.00  0.00    -0.744 OA
ENDBRANCH  84  85
ENDBRANCH  52  77
BRANCH  64  89
ATOM     89  C   UNL A   1      39.840  33.986  37.286  1.00  0.00     0.058 A 
ATOM     90  C   UNL A   1      40.512  35.219  37.276  1.00  0.00     0.135 A 
ATOM     91  C   UNL A   1      39.001  33.705  38.376  1.00  0.00     0.135 A 
ATOM     92  F   UNL A   1      41.332  35.533  36.261  1.00  0.00    -0.206 F 
ATOM     93  C   UNL A   1      40.365  36.134  38.314  1.00  0.00     0.059 A 
ATOM     94  C   UNL A   1      38.818  34.616  39.411  1.00  0.00     0.059 A 
ATOM     95  F   UNL A   1      38.327  32.545  38.428  1.00  0.00    -0.206 F 
ATOM     96  C   UNL A   1      39.510  35.827  39.373  1.00  0.00     0.060 A 
BRANCH  96  97
ATOM     97  S   UNL A   1      39.288  37.047  40.685  1.00  0.00     0.124 S 
ATOM     98  O   UNL A   1      38.325  37.960  40.078  1.00  0.00    -0.237 OA
ATOM     99  O   UNL A   1      38.782  36.232  41.786  1.00  0.00    -0.237 OA
ATOM    100  O   UNL A   1      40.630  37.587  40.879  1.00  0.00    -0.744 OA
ENDBRANCH  96  97
ENDBRANCH  64  89
ENDBRANCH  38  39
ENDBRANCH  31  33
ENDBRANCH  30  31
ENDBRANCH  29  30
ENDBRANCH   1  29
TORSDOF 17
ENDMDL
MODEL 3
REMARK VINA RESULT:     -12.0      2.166      3.700
REMARK SMILES O=C(CCCN1C(=O)c2ccc3c4c(ccc(c24)C1=O)C(=O)NC3=O)OCCOC(=O)c1ccc(-c2c3nc(c(-c4c(F)cc(S(=O)(=O)[O-])cc4F)c4ccc([nH]4)c(-c4c(F)cc(S(=O)(=O)[O-])cc4F)c4nc(c(-c5c(F)cc(S(=O)(=O)[O-])cc5F)c5ccc2[nH]5)C=C4)C=C3)cc1
REMARK SMILES IDX 27 1 26 2 2 3 1 4 3 5 4 6 5 7 6 8 19 9 7 10 20 11 17 12 9 13
REMARK SMILES IDX 8 14 16 15 18 16 10 17 15 18 13 19 11 20 14 21 12 22 21 23
REMARK SMILES IDX 24 24 23 25 22 26 25 27 28 29 29 30 30 31 31 32 32 33 33 34
REMARK SMILES IDX 97 35 34 36 96 37 35 38 36 39 37 40 90 41 38 42 95 43 89 44
REMARK SMILES IDX 91 45 39 46 94 47 88 48 87 49 40 51 74 52 53 53 73 54 54 55
REMARK SMILES IDX 57 56 72 57 92 58 55 59 56 60 71 62 93 63 58 64 41 65 42 66
REMARK SMILES IDX 51 67 43 68 44 69 50 70 52 71 45 72 46 73 47 74 48 75 49 76
REMARK SMILES IDX 75 77 76 78 85 79 77 80 78 81 84 82 86 83 79 84 80 85 81 86
REMARK SMILES IDX 82 87 83 88 59 89 60 90 69 91 61 92 62 93 68 94 70 95 63 96
REMARK SMILES IDX 64 97 65 98 66 99 67 100
REMARK H PARENT 23 28 91 50 57 61
REMARK Flexibility Score: inf
ROOT
ATOM      1  C   UNL A   1      39.700  21.664  26.227  1.00  0.00     0.274 C 
ENDROOT
BRANCH   1   2
ATOM      2  O   UNL A   1      38.674  22.597  26.597  1.00  0.00    -0.462 OA
BRANCH   2   3
ATOM      3  C   UNL A   1      37.654  22.865  25.739  1.00  0.00     0.305 C 
ATOM      4  O   UNL A   1      37.426  24.018  25.388  1.00  0.00    -0.252 OA
BRANCH   3   5
ATOM      5  C   UNL A   1      36.734  21.719  25.352  1.00  0.00     0.124 C 
BRANCH   5   6
ATOM      6  C   UNL A   1      35.877  21.986  24.116  1.00  0.00     0.034 C 
BRANCH   6   7
ATOM      7  C   UNL A   1      34.361  22.124  24.359  1.00  0.00     0.130 C 
BRANCH   7   8
ATOM      8  N   UNL A   1      33.808  23.485  24.261  1.00  0.00    -0.274 N 
ATOM      9  C   UNL A   1      33.838  24.303  25.392  1.00  0.00     0.261 C 
ATOM     10  C   UNL A   1      33.491  23.968  22.991  1.00  0.00     0.261 C 
ATOM     11  O   UNL A   1      34.325  23.969  26.465  1.00  0.00    -0.269 OA
ATOM     12  C   UNL A   1      33.256  25.666  25.260  1.00  0.00     0.049 A 
ATOM     13  C   UNL A   1      32.755  25.247  22.919  1.00  0.00     0.049 A 
ATOM     14  O   UNL A   1      33.758  23.395  21.939  1.00  0.00    -0.269 OA
ATOM     15  C   UNL A   1      33.251  26.535  26.360  1.00  0.00     0.015 A 
ATOM     16  C   UNL A   1      32.686  26.063  24.047  1.00  0.00     0.009 A 
ATOM     17  C   UNL A   1      32.137  25.623  21.717  1.00  0.00     0.015 A 
ATOM     18  C   UNL A   1      32.669  27.800  26.252  1.00  0.00     0.015 A 
ATOM     19  C   UNL A   1      32.039  27.321  23.949  1.00  0.00     0.009 A 
ATOM     20  C   UNL A   1      31.436  26.825  21.638  1.00  0.00     0.015 A 
ATOM     21  C   UNL A   1      32.055  28.183  25.055  1.00  0.00     0.048 A 
ATOM     22  C   UNL A   1      31.402  27.674  22.748  1.00  0.00     0.048 A 
ATOM     23  C   UNL A   1      31.430  29.522  24.936  1.00  0.00     0.258 C 
ATOM     24  C   UNL A   1      30.684  28.966  22.658  1.00  0.00     0.258 C 
ATOM     25  N   UNL A   1      30.767  29.782  23.760  1.00  0.00    -0.288 N 
ATOM     26  O   UNL A   1      31.513  30.353  25.831  1.00  0.00    -0.269 OA
ATOM     27  O   UNL A   1      30.065  29.286  21.650  1.00  0.00    -0.269 OA
ATOM     28  H   UNL A   1      30.299  30.647  23.701  1.00  0.00     0.173 HD
ENDBRANCH   7   8
ENDBRANCH   6   7
ENDBRANCH   5   6
ENDBRANCH   3   5
ENDBRANCH   2   3
ENDBRANCH   1   2
BRANCH   1  29
ATOM     29  C   UNL A   1      41.109  22.260  26.237  1.00  0.00     0.275 C 
BRANCH  29  30
ATOM     30  O   UNL A   1      41.063  23.691  26.173  1.00  0.00    -0.458 OA
BRANCH  30  31
ATOM     31  C   UNL A   1      42.204  24.281  26.630  1.00  0.00     0.338 C 
ATOM     32  O   UNL A   1      43.329  24.086  26.228  1.00  0.00    -0.246 OA
BRANCH  31  33
ATOM     33  C   UNL A   1      41.848  25.359  27.576  1.00  0.00     0.060 A 
ATOM     34  C   UNL A   1      42.738  26.433  27.680  1.00  0.00     0.016 A 
ATOM     35  C   UNL A   1      40.682  25.323  28.344  1.00  0.00     0.016 A 
ATOM     36  C   UNL A   1      42.487  27.459  28.588  1.00  0.00     0.010 A 
ATOM     37  C   UNL A   1      40.431  26.352  29.255  1.00  0.00     0.010 A 
ATOM     38  C   UNL A   1      41.346  27.410  29.402  1.00  0.00    -0.014 A 
BRANCH  38  39
ATOM     39  C   UNL A   1      41.169  28.412  30.477  1.00  0.00     0.031 A 
ATOM     40  C   UNL A   1      42.042  28.331  31.699  1.00  0.00     0.074 A 
ATOM     41  C   UNL A   1      40.245  29.383  30.357  1.00  0.00     0.049 A 
ATOM     42  N   UNL A   1      42.044  29.089  32.763  1.00  0.00    -0.248 NA
ATOM     43  C   UNL A   1      43.043  27.251  31.728  1.00  0.00     0.031 C 
ATOM     44  C   UNL A   1      39.353  29.562  29.210  1.00  0.00     0.029 A 
ATOM     45  N   UNL A   1      39.893  30.394  31.216  1.00  0.00    -0.354 N 
ATOM     46  C   UNL A   1      43.040  28.579  33.589  1.00  0.00     0.074 A 
ATOM     47  C   UNL A   1      43.605  27.431  32.915  1.00  0.00     0.031 C 
ATOM     48  C   UNL A   1      38.540  30.606  29.448  1.00  0.00     0.029 A 
ATOM     49  C   UNL A   1      38.837  31.154  30.770  1.00  0.00     0.049 A 
ATOM     50  H   UNL A   1      40.353  30.559  32.070  1.00  0.00     0.167 HD
ATOM     51  C   UNL A   1      43.446  29.035  34.796  1.00  0.00     0.037 A 
ATOM     52  C   UNL A   1      38.171  32.158  31.374  1.00  0.00     0.037 A 
ATOM     53  C   UNL A   1      42.886  30.188  35.451  1.00  0.00     0.049 A 
ATOM     54  C   UNL A   1      38.613  32.610  32.744  1.00  0.00     0.074 A 
ATOM     55  C   UNL A   1      43.274  30.768  36.645  1.00  0.00     0.029 A 
ATOM     56  N   UNL A   1      41.810  30.922  34.978  1.00  0.00    -0.354 N 
ATOM     57  N   UNL A   1      39.610  32.171  33.476  1.00  0.00    -0.248 NA
ATOM     58  C   UNL A   1      37.843  33.694  33.372  1.00  0.00     0.031 C 
ATOM     59  C   UNL A   1      42.394  31.818  36.925  1.00  0.00     0.029 A 
ATOM     60  C   UNL A   1      41.490  31.923  35.879  1.00  0.00     0.049 A 
ATOM     61  H   UNL A   1      41.342  30.757  34.127  1.00  0.00     0.167 HD
ATOM     62  C   UNL A   1      39.594  32.933  34.640  1.00  0.00     0.074 A 
ATOM     63  C   UNL A   1      38.505  33.877  34.506  1.00  0.00     0.031 C 
ATOM     64  C   UNL A   1      40.404  32.857  35.725  1.00  0.00     0.037 A 
BRANCH  51  65
ATOM     65  C   UNL A   1      44.540  28.290  35.506  1.00  0.00     0.058 A 
ATOM     66  C   UNL A   1      45.892  28.624  35.338  1.00  0.00     0.135 A 
ATOM     67  C   UNL A   1      44.222  27.288  36.438  1.00  0.00     0.135 A 
ATOM     68  F   UNL A   1      46.251  29.561  34.446  1.00  0.00    -0.206 F 
ATOM     69  C   UNL A   1      46.892  27.992  36.071  1.00  0.00     0.059 A 
ATOM     70  C   UNL A   1      45.203  26.658  37.196  1.00  0.00     0.059 A 
ATOM     71  F   UNL A   1      42.944  26.925  36.629  1.00  0.00    -0.206 F 
ATOM     72  C   UNL A   1      46.537  27.017  37.005  1.00  0.00     0.060 A 
BRANCH  72  73
ATOM     73  S   UNL A   1      47.842  26.247  37.985  1.00  0.00     0.124 S 
ATOM     74  O   UNL A   1      48.908  26.112  36.997  1.00  0.00    -0.237 OA
ATOM     75  O   UNL A   1      48.070  27.238  39.032  1.00  0.00    -0.237 OA
ATOM     76  O   UNL A   1      47.240  24.994  38.431  1.00  0.00    -0.744 OA
ENDBRANCH  72  73
ENDBRANCH  51  65
BRANCH  52  77
ATOM     77  C   UNL A   1      36.988  32.781  30.719  1.00  0.00     0.058 A 
ATOM     78  C   UNL A   1      37.130  33.806  29.772  1.00  0.00     0.135 A 
ATOM     79  C   UNL A   1      35.684  32.389  31.065  1.00  0.00     0.135 A 
ATOM     80  F   UNL A   1      38.355  34.223  29.416  1.00  0.00    -0.206 F 
ATOM     81  C   UNL A   1      36.026  34.445  29.218  1.00  0.00     0.059 A 
ATOM     82  C   UNL A   1      34.565  32.992  30.502  1.00  0.00     0.059 A 
ATOM     83  F   UNL A   1      35.490  31.404  31.956  1.00  0.00    -0.206 F 
ATOM     84  C   UNL A   1      34.746  34.034  29.594  1.00  0.00     0.060 A 
BRANCH  84  85
ATOM     85  S   UNL A   1      33.316  34.869  28.872  1.00  0.00     0.124 S 
ATOM     86  O   UNL A   1      32.491  35.108  30.049  1.00  0.00    -0.237 OA
ATOM     87  O   UNL A   1      33.922  36.050  28.267  1.00  0.00    -0.237 OA
ATOM     88  O   UNL A   1      32.796  33.886  27.926  1.00  0.00    -0.744 OA
ENDBRANCH  84  85
ENDBRANCH  52  77
BRANCH  64  89
ATOM     89  C   UNL A   1      40.153  33.820  36.851  1.00  0.00     0.058 A 
ATOM     90  C   UNL A   1      40.802  35.063  36.907  1.00  0.00     0.135 A 
ATOM     91  C   UNL A   1      39.198  33.533  37.840  1.00  0.00     0.135 A 
ATOM     92  F   UNL A   1      41.729  35.384  35.991  1.00  0.00    -0.206 F 
ATOM     93  C   UNL A   1      40.523  35.983  37.913  1.00  0.00     0.059 A 
ATOM     94  C   UNL A   1      38.883  34.449  38.838  1.00  0.00     0.059 A 
ATOM     95  F   UNL A   1      38.540  32.363  37.824  1.00  0.00    -0.206 F 
ATOM     96  C   UNL A   1      39.556  35.670  38.870  1.00  0.00     0.060 A 
BRANCH  96  97
ATOM     97  S   UNL A   1      39.164  36.896  40.136  1.00  0.00     0.124 S 
ATOM     98  O   UNL A   1      40.486  37.194  40.676  1.00  0.00    -0.237 OA
ATOM     99  O   UNL A   1      38.543  37.963  39.355  1.00  0.00    -0.237 OA
ATOM    100  O   UNL A   1      38.264  36.181  41.035  1.00  0.00    -0.744 OA
ENDBRANCH  96  97
ENDBRANCH  64  89
ENDBRANCH  38  39
ENDBRANCH  31  33
ENDBRANCH  30  31
ENDBRANCH  29  30
ENDBRANCH   1  29
TORSDOF 17
ENDMDL
