MODEL 1
REMARK VINA RESULT:     -10.6      0.000      0.000
REMARK SMILES C[C@H](CNC(=O)c1ccc(Br)nc1)C(=O)OCCOC(=O)c1ccc(-c2c3nc(c(-c4c(F)cc(S(=O)(=O)[O-])cc4F)c4ccc([nH]4)c(-c4c(F)cc(S(=O)(=O)[O-])cc4F)c4nc(c(-c5c(F)cc(S(=O)(=O)[O-])cc5F)c5ccc2[nH]5)C=C4)C=C3)cc1
REMARK SMILES IDX 17 1 16 2 14 3 15 4 2 5 1 6 3 7 4 8 5 9 6 11 7 12 8 13 13 14
REMARK SMILES IDX 9 15 12 16 10 17 11 18 18 19 19 20 20 21 21 22 22 23 23 24
REMARK SMILES IDX 87 25 24 26 86 27 25 28 26 29 27 30 80 31 28 32 85 33 79 34
REMARK SMILES IDX 81 35 29 36 84 37 78 38 77 39 30 41 64 42 43 43 63 44 44 45
REMARK SMILES IDX 47 46 62 47 82 48 45 49 46 50 61 52 83 53 48 54 31 55 32 56
REMARK SMILES IDX 41 57 33 58 34 59 40 60 42 61 35 62 36 63 37 64 38 65 39 66
REMARK SMILES IDX 65 67 66 68 75 69 67 70 68 71 74 72 76 73 69 74 70 75 71 76
REMARK SMILES IDX 72 77 73 78 49 79 50 80 59 81 51 82 52 83 58 84 60 85 53 86
REMARK SMILES IDX 54 87 55 88 56 89 57 90
REMARK H PARENT 4 10 81 40 47 51
REMARK Flexibility Score: inf
ROOT
ATOM      1  C   UNL A   1      40.190  21.174  26.103  1.00  0.00     0.274 C 
ENDROOT
BRANCH   1   2
ATOM      2  O   UNL A   1      38.874  21.764  26.172  1.00  0.00    -0.462 OA
BRANCH   2   3
ATOM      3  C   UNL A   1      37.926  21.172  25.400  1.00  0.00     0.310 C 
ATOM      4  O   UNL A   1      38.053  20.080  24.859  1.00  0.00    -0.252 OA
BRANCH   3   5
ATOM      5  C   UNL A   1      36.667  22.004  25.242  1.00  0.00     0.115 C 
ATOM      6  C   UNL A   1      36.957  23.477  25.510  1.00  0.00     0.022 C 
BRANCH   5   7
ATOM      7  C   UNL A   1      35.431  21.464  25.971  1.00  0.00     0.131 C 
BRANCH   7   8
ATOM      8  N   UNL A   1      34.800  20.326  25.318  1.00  0.00    -0.351 N 
ATOM      9  C   UNL A   1      33.575  20.259  24.701  1.00  0.00     0.252 C 
ATOM     10  H   UNL A   1      35.322  19.491  25.318  1.00  0.00     0.163 HD
ATOM     11  O   UNL A   1      33.092  19.176  24.384  1.00  0.00    -0.269 OA
BRANCH   9  12
ATOM     12  C   UNL A   1      32.821  21.492  24.424  1.00  0.00     0.058 A 
ATOM     13  C   UNL A   1      33.044  22.262  23.282  1.00  0.00     0.018 A 
ATOM     14  C   UNL A   1      31.815  21.879  25.296  1.00  0.00     0.126 A 
ATOM     15  C   UNL A   1      32.286  23.416  23.085  1.00  0.00     0.037 A 
ATOM     16  N   UNL A   1      31.065  22.996  25.129  1.00  0.00    -0.249 NA
ATOM     17  C   UNL A   1      31.321  23.743  24.030  1.00  0.00     0.106 A 
ATOM     18  Br  UNL A   1      30.289  25.314  23.777  1.00  0.00    -0.029 Br
ENDBRANCH   9  12
ENDBRANCH   7   8
ENDBRANCH   5   7
ENDBRANCH   3   5
ENDBRANCH   2   3
ENDBRANCH   1   2
BRANCH   1  19
ATOM     19  C   UNL A   1      41.288  22.209  26.362  1.00  0.00     0.275 C 
BRANCH  19  20
ATOM     20  O   UNL A   1      40.746  23.524  26.589  1.00  0.00    -0.458 OA
BRANCH  20  21
ATOM     21  C   UNL A   1      41.624  24.542  26.425  1.00  0.00     0.338 C 
ATOM     22  O   UNL A   1      42.470  24.654  25.556  1.00  0.00    -0.246 OA
BRANCH  21  23
ATOM     23  C   UNL A   1      41.345  25.609  27.398  1.00  0.00     0.060 A 
ATOM     24  C   UNL A   1      42.260  26.659  27.498  1.00  0.00     0.016 A 
ATOM     25  C   UNL A   1      40.261  25.523  28.273  1.00  0.00     0.016 A 
ATOM     26  C   UNL A   1      42.100  27.631  28.483  1.00  0.00     0.010 A 
ATOM     27  C   UNL A   1      40.101  26.503  29.260  1.00  0.00     0.010 A 
ATOM     28  C   UNL A   1      41.026  27.555  29.379  1.00  0.00    -0.014 A 
BRANCH  28  29
ATOM     29  C   UNL A   1      40.902  28.559  30.463  1.00  0.00     0.031 A 
ATOM     30  C   UNL A   1      41.837  28.516  31.639  1.00  0.00     0.074 A 
ATOM     31  C   UNL A   1      39.967  29.524  30.376  1.00  0.00     0.049 A 
ATOM     32  N   UNL A   1      41.846  29.261  32.714  1.00  0.00    -0.248 NA
ATOM     33  C   UNL A   1      42.902  27.501  31.599  1.00  0.00     0.031 C 
ATOM     34  C   UNL A   1      39.029  29.692  29.266  1.00  0.00     0.029 A 
ATOM     35  N   UNL A   1      39.651  30.542  31.239  1.00  0.00    -0.354 N 
ATOM     36  C   UNL A   1      42.902  28.796  33.488  1.00  0.00     0.074 A 
ATOM     37  C   UNL A   1      43.505  27.697  32.763  1.00  0.00     0.031 C 
ATOM     38  C   UNL A   1      38.243  30.752  29.515  1.00  0.00     0.029 A 
ATOM     39  C   UNL A   1      38.592  31.310  30.818  1.00  0.00     0.049 A 
ATOM     40  H   UNL A   1      40.136  30.708  32.079  1.00  0.00     0.167 HD
ATOM     41  C   UNL A   1      43.328  29.247  34.693  1.00  0.00     0.037 A 
ATOM     42  C   UNL A   1      37.959  32.333  31.425  1.00  0.00     0.037 A 
ATOM     43  C   UNL A   1      42.734  30.348  35.404  1.00  0.00     0.049 A 
ATOM     44  C   UNL A   1      38.425  32.788  32.780  1.00  0.00     0.074 A 
ATOM     45  C   UNL A   1      43.099  30.882  36.628  1.00  0.00     0.029 A 
ATOM     46  N   UNL A   1      41.650  31.088  34.955  1.00  0.00    -0.354 N 
ATOM     47  N   UNL A   1      39.416  32.329  33.506  1.00  0.00    -0.248 NA
ATOM     48  C   UNL A   1      37.683  33.893  33.402  1.00  0.00     0.031 C 
ATOM     49  C   UNL A   1      42.217  31.925  36.932  1.00  0.00     0.029 A 
ATOM     50  C   UNL A   1      41.324  32.064  35.883  1.00  0.00     0.049 A 
ATOM     51  H   UNL A   1      41.181  30.941  34.102  1.00  0.00     0.167 HD
ATOM     52  C   UNL A   1      39.425  33.098  34.665  1.00  0.00     0.074 A 
ATOM     53  C   UNL A   1      38.350  34.059  34.537  1.00  0.00     0.031 C 
ATOM     54  C   UNL A   1      40.249  33.012  35.739  1.00  0.00     0.037 A 
BRANCH  41  55
ATOM     55  C   UNL A   1      44.482  28.527  35.332  1.00  0.00     0.058 A 
ATOM     56  C   UNL A   1      45.809  28.934  35.130  1.00  0.00     0.135 A 
ATOM     57  C   UNL A   1      44.253  27.427  36.175  1.00  0.00     0.135 A 
ATOM     58  F   UNL A   1      46.082  29.967  34.317  1.00  0.00    -0.206 F 
ATOM     59  C   UNL A   1      46.873  28.263  35.724  1.00  0.00     0.059 A 
ATOM     60  C   UNL A   1      45.300  26.753  36.795  1.00  0.00     0.059 A 
ATOM     61  F   UNL A   1      43.001  26.997  36.399  1.00  0.00    -0.206 F 
ATOM     62  C   UNL A   1      46.608  27.169  36.551  1.00  0.00     0.060 A 
BRANCH  62  63
ATOM     63  S   UNL A   1      47.997  26.297  37.308  1.00  0.00     0.124 S 
ATOM     64  O   UNL A   1      48.365  27.217  38.379  1.00  0.00    -0.237 OA
ATOM     65  O   UNL A   1      47.385  25.042  37.734  1.00  0.00    -0.237 OA
ATOM     66  O   UNL A   1      48.960  26.183  36.218  1.00  0.00    -0.744 OA
ENDBRANCH  62  63
ENDBRANCH  41  55
BRANCH  42  67
ATOM     67  C   UNL A   1      36.798  32.978  30.762  1.00  0.00     0.058 A 
ATOM     68  C   UNL A   1      35.483  32.647  31.121  1.00  0.00     0.135 A 
ATOM     69  C   UNL A   1      36.981  33.952  29.769  1.00  0.00     0.135 A 
ATOM     70  F   UNL A   1      35.259  31.714  32.059  1.00  0.00    -0.206 F 
ATOM     71  C   UNL A   1      34.389  33.255  30.515  1.00  0.00     0.059 A 
ATOM     72  C   UNL A   1      35.904  34.589  29.163  1.00  0.00     0.059 A 
ATOM     73  F   UNL A   1      38.221  34.309  29.399  1.00  0.00    -0.206 F 
ATOM     74  C   UNL A   1      34.610  34.228  29.538  1.00  0.00     0.060 A 
BRANCH  74  75
ATOM     75  S   UNL A   1      33.189  35.061  28.798  1.00  0.00     0.124 S 
ATOM     76  O   UNL A   1      32.383  35.364  29.974  1.00  0.00    -0.237 OA
ATOM     77  O   UNL A   1      33.808  36.205  28.136  1.00  0.00    -0.237 OA
ATOM     78  O   UNL A   1      32.641  34.049  27.899  1.00  0.00    -0.744 OA
ENDBRANCH  74  75
ENDBRANCH  42  67
BRANCH  54  79
ATOM     79  C   UNL A   1      40.032  33.998  36.850  1.00  0.00     0.058 A 
ATOM     80  C   UNL A   1      40.649  35.258  36.842  1.00  0.00     0.135 A 
ATOM     81  C   UNL A   1      39.164  33.697  37.910  1.00  0.00     0.135 A 
ATOM     82  F   UNL A   1      41.494  35.590  35.852  1.00  0.00    -0.206 F 
ATOM     83  C   UNL A   1      40.427  36.181  37.858  1.00  0.00     0.059 A 
ATOM     84  C   UNL A   1      38.912  34.612  38.928  1.00  0.00     0.059 A 
ATOM     85  F   UNL A   1      38.544  32.507  37.959  1.00  0.00    -0.206 F 
ATOM     86  C   UNL A   1      39.557  35.848  38.898  1.00  0.00     0.060 A 
BRANCH  86  87
ATOM     87  S   UNL A   1      39.248  37.063  40.197  1.00  0.00     0.124 S 
ATOM     88  O   UNL A   1      38.490  38.079  39.475  1.00  0.00    -0.237 OA
ATOM     89  O   UNL A   1      38.495  36.291  41.181  1.00  0.00    -0.237 OA
ATOM     90  O   UNL A   1      40.590  37.458  40.616  1.00  0.00    -0.744 OA
ENDBRANCH  86  87
ENDBRANCH  54  79
ENDBRANCH  28  29
ENDBRANCH  21  23
ENDBRANCH  20  21
ENDBRANCH  19  20
ENDBRANCH   1  19
TORSDOF 17
ENDMDL
MODEL 2
REMARK VINA RESULT:     -10.6      1.502      2.511
REMARK SMILES C[C@H](CNC(=O)c1ccc(Br)nc1)C(=O)OCCOC(=O)c1ccc(-c2c3nc(c(-c4c(F)cc(S(=O)(=O)[O-])cc4F)c4ccc([nH]4)c(-c4c(F)cc(S(=O)(=O)[O-])cc4F)c4nc(c(-c5c(F)cc(S(=O)(=O)[O-])cc5F)c5ccc2[nH]5)C=C4)C=C3)cc1
REMARK SMILES IDX 17 1 16 2 14 3 15 4 2 5 1 6 3 7 4 8 5 9 6 11 7 12 8 13 13 14
REMARK SMILES IDX 9 15 12 16 10 17 11 18 18 19 19 20 20 21 21 22 22 23 23 24
REMARK SMILES IDX 87 25 24 26 86 27 25 28 26 29 27 30 80 31 28 32 85 33 79 34
REMARK SMILES IDX 81 35 29 36 84 37 78 38 77 39 30 41 64 42 43 43 63 44 44 45
REMARK SMILES IDX 47 46 62 47 82 48 45 49 46 50 61 52 83 53 48 54 31 55 32 56
REMARK SMILES IDX 41 57 33 58 34 59 40 60 42 61 35 62 36 63 37 64 38 65 39 66
REMARK SMILES IDX 65 67 66 68 75 69 67 70 68 71 74 72 76 73 69 74 70 75 71 76
REMARK SMILES IDX 72 77 73 78 49 79 50 80 59 81 51 82 52 83 58 84 60 85 53 86
REMARK SMILES IDX 54 87 55 88 56 89 57 90
REMARK H PARENT 4 10 81 40 47 51
REMARK Flexibility Score: inf
ROOT
ATOM      1  C   UNL A   1      39.259  21.543  25.842  1.00  0.00     0.274 C 
ENDROOT
BRANCH   1   2
ATOM      2  O   UNL A   1      37.849  21.838  25.758  1.00  0.00    -0.462 OA
BRANCH   2   3
ATOM      3  C   UNL A   1      37.113  20.974  25.012  1.00  0.00     0.310 C 
ATOM      4  O   UNL A   1      37.306  19.765  24.958  1.00  0.00    -0.252 OA
BRANCH   3   5
ATOM      5  C   UNL A   1      36.013  21.646  24.212  1.00  0.00     0.115 C 
ATOM      6  C   UNL A   1      36.549  22.875  23.486  1.00  0.00     0.022 C 
BRANCH   5   7
ATOM      7  C   UNL A   1      34.706  21.888  24.976  1.00  0.00     0.131 C 
BRANCH   7   8
ATOM      8  N   UNL A   1      33.558  22.167  24.125  1.00  0.00    -0.351 N 
ATOM      9  C   UNL A   1      32.674  21.283  23.555  1.00  0.00     0.252 C 
ATOM     10  H   UNL A   1      33.391  23.118  23.932  1.00  0.00     0.163 HD
ATOM     11  O   UNL A   1      31.886  21.656  22.692  1.00  0.00    -0.269 OA
BRANCH   9  12
ATOM     12  C   UNL A   1      32.675  19.871  23.970  1.00  0.00     0.058 A 
ATOM     13  C   UNL A   1      32.868  18.829  23.064  1.00  0.00     0.018 A 
ATOM     14  C   UNL A   1      32.533  19.562  25.314  1.00  0.00     0.126 A 
ATOM     15  C   UNL A   1      32.861  17.514  23.533  1.00  0.00     0.037 A 
ATOM     16  N   UNL A   1      32.521  18.295  25.795  1.00  0.00    -0.249 NA
ATOM     17  C   UNL A   1      32.680  17.298  24.893  1.00  0.00     0.106 A 
ATOM     18  Br  UNL A   1      32.660  15.516  25.541  1.00  0.00    -0.029 Br
ENDBRANCH   9  12
ENDBRANCH   7   8
ENDBRANCH   5   7
ENDBRANCH   3   5
ENDBRANCH   2   3
ENDBRANCH   1   2
BRANCH   1  19
ATOM     19  C   UNL A   1      39.951  22.391  26.914  1.00  0.00     0.275 C 
BRANCH  19  20
ATOM     20  O   UNL A   1      39.798  23.801  26.667  1.00  0.00    -0.458 OA
BRANCH  20  21
ATOM     21  C   UNL A   1      40.931  24.532  26.798  1.00  0.00     0.338 C 
ATOM     22  O   UNL A   1      41.968  24.404  26.171  1.00  0.00    -0.246 OA
BRANCH  21  23
ATOM     23  C   UNL A   1      40.714  25.631  27.750  1.00  0.00     0.060 A 
ATOM     24  C   UNL A   1      41.721  26.589  27.885  1.00  0.00     0.016 A 
ATOM     25  C   UNL A   1      39.590  25.659  28.577  1.00  0.00     0.016 A 
ATOM     26  C   UNL A   1      41.613  27.582  28.855  1.00  0.00     0.010 A 
ATOM     27  C   UNL A   1      39.481  26.660  29.549  1.00  0.00     0.010 A 
ATOM     28  C   UNL A   1      40.498  27.620  29.702  1.00  0.00    -0.014 A 
BRANCH  28  29
ATOM     29  C   UNL A   1      40.424  28.643  30.774  1.00  0.00     0.031 A 
ATOM     30  C   UNL A   1      41.340  28.556  31.961  1.00  0.00     0.074 A 
ATOM     31  C   UNL A   1      39.551  29.662  30.665  1.00  0.00     0.049 A 
ATOM     32  N   UNL A   1      41.383  29.312  33.028  1.00  0.00    -0.248 NA
ATOM     33  C   UNL A   1      42.341  27.477  31.946  1.00  0.00     0.031 C 
ATOM     34  C   UNL A   1      38.638  29.874  29.541  1.00  0.00     0.029 A 
ATOM     35  N   UNL A   1      39.289  30.708  31.512  1.00  0.00    -0.354 N 
ATOM     36  C   UNL A   1      42.399  28.792  33.820  1.00  0.00     0.074 A 
ATOM     37  C   UNL A   1      42.942  27.649  33.115  1.00  0.00     0.031 C 
ATOM     38  C   UNL A   1      37.915  30.983  29.769  1.00  0.00     0.029 A 
ATOM     39  C   UNL A   1      38.284  31.535  31.069  1.00  0.00     0.049 A 
ATOM     40  H   UNL A   1      39.774  30.854  32.356  1.00  0.00     0.167 HD
ATOM     41  C   UNL A   1      42.840  29.230  35.024  1.00  0.00     0.037 A 
ATOM     42  C   UNL A   1      37.708  32.601  31.658  1.00  0.00     0.037 A 
ATOM     43  C   UNL A   1      42.306  30.375  35.716  1.00  0.00     0.049 A 
ATOM     44  C   UNL A   1      38.186  33.043  33.013  1.00  0.00     0.074 A 
ATOM     45  C   UNL A   1      42.690  30.900  36.938  1.00  0.00     0.029 A 
ATOM     46  N   UNL A   1      41.275  31.175  35.245  1.00  0.00    -0.354 N 
ATOM     47  N   UNL A   1      39.139  32.533  33.756  1.00  0.00    -0.248 NA
ATOM     48  C   UNL A   1      37.507  34.200  33.613  1.00  0.00     0.031 C 
ATOM     49  C   UNL A   1      41.870  31.999  37.220  1.00  0.00     0.029 A 
ATOM     50  C   UNL A   1      41.000  32.179  36.158  1.00  0.00     0.049 A 
ATOM     51  H   UNL A   1      40.808  31.046  34.389  1.00  0.00     0.167 HD
ATOM     52  C   UNL A   1      39.182  33.314  34.906  1.00  0.00     0.074 A 
ATOM     53  C   UNL A   1      38.170  34.338  34.754  1.00  0.00     0.031 C 
ATOM     54  C   UNL A   1      39.987  33.191  35.990  1.00  0.00     0.037 A 
BRANCH  41  55
ATOM     55  C   UNL A   1      43.939  28.448  35.685  1.00  0.00     0.058 A 
ATOM     56  C   UNL A   1      43.666  27.379  36.550  1.00  0.00     0.135 A 
ATOM     57  C   UNL A   1      45.285  28.760  35.430  1.00  0.00     0.135 A 
ATOM     58  F   UNL A   1      42.397  27.053  36.842  1.00  0.00    -0.206 F 
ATOM     59  C   UNL A   1      44.688  26.658  37.160  1.00  0.00     0.059 A 
ATOM     60  C   UNL A   1      46.324  28.041  36.013  1.00  0.00     0.059 A 
ATOM     61  F   UNL A   1      45.599  29.776  34.611  1.00  0.00    -0.206 F 
ATOM     62  C   UNL A   1      46.015  27.002  36.889  1.00  0.00     0.060 A 
BRANCH  62  63
ATOM     63  S   UNL A   1      47.334  26.068  37.694  1.00  0.00     0.124 S 
ATOM     64  O   UNL A   1      47.554  24.992  36.734  1.00  0.00    -0.237 OA
ATOM     65  O   UNL A   1      48.404  27.057  37.793  1.00  0.00    -0.237 OA
ATOM     66  O   UNL A   1      46.739  25.666  38.964  1.00  0.00    -0.744 OA
ENDBRANCH  62  63
ENDBRANCH  41  55
BRANCH  42  67
ATOM     67  C   UNL A   1      36.596  33.308  30.973  1.00  0.00     0.058 A 
ATOM     68  C   UNL A   1      36.844  34.189  29.911  1.00  0.00     0.135 A 
ATOM     69  C   UNL A   1      35.263  33.102  31.356  1.00  0.00     0.135 A 
ATOM     70  F   UNL A   1      38.104  34.425  29.515  1.00  0.00    -0.206 F 
ATOM     71  C   UNL A   1      35.808  34.846  29.254  1.00  0.00     0.059 A 
ATOM     72  C   UNL A   1      34.209  33.730  30.702  1.00  0.00     0.059 A 
ATOM     73  F   UNL A   1      34.975  32.260  32.362  1.00  0.00    -0.206 F 
ATOM     74  C   UNL A   1      34.493  34.608  29.656  1.00  0.00     0.060 A 
BRANCH  74  75
ATOM     75  S   UNL A   1      33.147  35.413  28.762  1.00  0.00     0.124 S 
ATOM     76  O   UNL A   1      32.537  34.282  28.071  1.00  0.00    -0.237 OA
ATOM     77  O   UNL A   1      32.361  35.999  29.843  1.00  0.00    -0.237 OA
ATOM     78  O   UNL A   1      33.841  36.375  27.911  1.00  0.00    -0.744 OA
ENDBRANCH  74  75
ENDBRANCH  42  67
BRANCH  54  79
ATOM     79  C   UNL A   1      39.818  34.201  37.087  1.00  0.00     0.058 A 
ATOM     80  C   UNL A   1      39.048  33.924  38.226  1.00  0.00     0.135 A 
ATOM     81  C   UNL A   1      40.469  35.443  37.019  1.00  0.00     0.135 A 
ATOM     82  F   UNL A   1      38.400  32.752  38.334  1.00  0.00    -0.206 F 
ATOM     83  C   UNL A   1      38.913  34.850  39.254  1.00  0.00     0.059 A 
ATOM     84  C   UNL A   1      40.364  36.378  38.045  1.00  0.00     0.059 A 
ATOM     85  F   UNL A   1      41.224  35.752  35.953  1.00  0.00    -0.206 F 
ATOM     86  C   UNL A   1      39.575  36.076  39.154  1.00  0.00     0.060 A 
BRANCH  86  87
ATOM     87  S   UNL A   1      39.422  37.261  40.507  1.00  0.00     0.124 S 
ATOM     88  O   UNL A   1      38.670  36.490  41.490  1.00  0.00    -0.237 OA
ATOM     89  O   UNL A   1      40.815  37.536  40.847  1.00  0.00    -0.237 OA
ATOM     90  O   UNL A   1      38.703  38.377  39.899  1.00  0.00    -0.744 OA
ENDBRANCH  86  87
ENDBRANCH  54  79
ENDBRANCH  28  29
ENDBRANCH  21  23
ENDBRANCH  20  21
ENDBRANCH  19  20
ENDBRANCH   1  19
TORSDOF 17
ENDMDL
MODEL 3
REMARK VINA RESULT:     -10.5      4.919     10.579
REMARK SMILES C[C@H](CNC(=O)c1ccc(Br)nc1)C(=O)OCCOC(=O)c1ccc(-c2c3nc(c(-c4c(F)cc(S(=O)(=O)[O-])cc4F)c4ccc([nH]4)c(-c4c(F)cc(S(=O)(=O)[O-])cc4F)c4nc(c(-c5c(F)cc(S(=O)(=O)[O-])cc5F)c5ccc2[nH]5)C=C4)C=C3)cc1
REMARK SMILES IDX 17 1 16 2 14 3 15 4 2 5 1 6 3 7 4 8 5 9 6 11 7 12 8 13 13 14
REMARK SMILES IDX 9 15 12 16 10 17 11 18 18 19 19 20 20 21 21 22 22 23 23 24
REMARK SMILES IDX 87 25 24 26 86 27 25 28 26 29 27 30 80 31 28 32 85 33 79 34
REMARK SMILES IDX 81 35 29 36 84 37 78 38 77 39 30 41 64 42 43 43 63 44 44 45
REMARK SMILES IDX 47 46 62 47 82 48 45 49 46 50 61 52 83 53 48 54 31 55 32 56
REMARK SMILES IDX 41 57 33 58 34 59 40 60 42 61 35 62 36 63 37 64 38 65 39 66
REMARK SMILES IDX 65 67 66 68 75 69 67 70 68 71 74 72 76 73 69 74 70 75 71 76
REMARK SMILES IDX 72 77 73 78 49 79 50 80 59 81 51 82 52 83 58 84 60 85 53 86
REMARK SMILES IDX 54 87 55 88 56 89 57 90
REMARK H PARENT 4 10 81 40 47 51
REMARK Flexibility Score: inf
ROOT
ATOM      1  C   UNL A   1      33.012  29.205  25.072  1.00  0.00     0.274 C 
ENDROOT
BRANCH   1   2
ATOM      2  O   UNL A   1      31.699  28.719  25.422  1.00  0.00    -0.462 OA
BRANCH   2   3
ATOM      3  C   UNL A   1      30.885  28.422  24.375  1.00  0.00     0.310 C 
ATOM      4  O   UNL A   1      30.574  29.212  23.492  1.00  0.00    -0.252 OA
BRANCH   3   5
ATOM      5  C   UNL A   1      30.362  26.998  24.398  1.00  0.00     0.115 C 
ATOM      6  C   UNL A   1      30.731  26.309  25.708  1.00  0.00     0.022 C 
BRANCH   5   7
ATOM      7  C   UNL A   1      30.669  26.170  23.144  1.00  0.00     0.131 C 
BRANCH   7   8
ATOM      8  N   UNL A   1      31.718  26.726  22.302  1.00  0.00    -0.351 N 
ATOM      9  C   UNL A   1      33.057  26.419  22.280  1.00  0.00     0.252 C 
ATOM     10  H   UNL A   1      31.430  27.414  21.660  1.00  0.00     0.163 HD
ATOM     11  O   UNL A   1      33.850  27.123  21.662  1.00  0.00    -0.269 OA
BRANCH   9  12
ATOM     12  C   UNL A   1      33.555  25.244  23.013  1.00  0.00     0.058 A 
ATOM     13  C   UNL A   1      34.115  25.341  24.286  1.00  0.00     0.018 A 
ATOM     14  C   UNL A   1      33.416  23.986  22.446  1.00  0.00     0.126 A 
ATOM     15  C   UNL A   1      34.561  24.181  24.920  1.00  0.00     0.037 A 
ATOM     16  N   UNL A   1      33.842  22.844  23.039  1.00  0.00    -0.249 NA
ATOM     17  C   UNL A   1      34.410  22.967  24.262  1.00  0.00     0.106 A 
ATOM     18  Br  UNL A   1      35.019  21.384  25.110  1.00  0.00    -0.029 Br
ENDBRANCH   9  12
ENDBRANCH   7   8
ENDBRANCH   5   7
ENDBRANCH   3   5
ENDBRANCH   2   3
ENDBRANCH   1   2
BRANCH   1  19
ATOM     19  C   UNL A   1      34.100  28.573  25.945  1.00  0.00     0.275 C 
BRANCH  19  20
ATOM     20  O   UNL A   1      33.915  28.879  27.340  1.00  0.00    -0.458 OA
BRANCH  20  21
ATOM     21  C   UNL A   1      34.433  30.064  27.741  1.00  0.00     0.338 C 
ATOM     22  O   UNL A   1      33.844  31.123  27.864  1.00  0.00    -0.246 OA
BRANCH  21  23
ATOM     23  C   UNL A   1      35.836  29.889  28.146  1.00  0.00     0.060 A 
ATOM     24  C   UNL A   1      36.827  30.115  27.189  1.00  0.00     0.016 A 
ATOM     25  C   UNL A   1      36.167  29.404  29.413  1.00  0.00     0.016 A 
ATOM     26  C   UNL A   1      38.161  29.851  27.491  1.00  0.00     0.010 A 
ATOM     27  C   UNL A   1      37.508  29.143  29.715  1.00  0.00     0.010 A 
ATOM     28  C   UNL A   1      38.512  29.353  28.752  1.00  0.00    -0.014 A 
BRANCH  28  29
ATOM     29  C   UNL A   1      39.927  29.014  29.040  1.00  0.00     0.031 A 
ATOM     30  C   UNL A   1      40.824  30.027  29.695  1.00  0.00     0.074 A 
ATOM     31  C   UNL A   1      40.396  27.789  28.737  1.00  0.00     0.049 A 
ATOM     32  N   UNL A   1      42.101  29.944  29.967  1.00  0.00    -0.248 NA
ATOM     33  C   UNL A   1      40.202  31.298  30.098  1.00  0.00     0.031 C 
ATOM     34  C   UNL A   1      39.611  26.711  28.135  1.00  0.00     0.029 A 
ATOM     35  N   UNL A   1      41.647  27.248  28.890  1.00  0.00    -0.354 N 
ATOM     36  C   UNL A   1      42.441  31.156  30.555  1.00  0.00     0.074 A 
ATOM     37  C   UNL A   1      41.238  31.961  30.591  1.00  0.00     0.031 C 
ATOM     38  C   UNL A   1      40.400  25.636  27.971  1.00  0.00     0.029 A 
ATOM     39  C   UNL A   1      41.751  25.963  28.417  1.00  0.00     0.049 A 
ATOM     40  H   UNL A   1      42.398  27.734  29.302  1.00  0.00     0.167 HD
ATOM     41  C   UNL A   1      43.648  31.559  31.022  1.00  0.00     0.037 A 
ATOM     42  C   UNL A   1      42.821  25.149  28.328  1.00  0.00     0.037 A 
ATOM     43  C   UNL A   1      44.839  30.751  30.995  1.00  0.00     0.049 A 
ATOM     44  C   UNL A   1      44.158  25.634  28.815  1.00  0.00     0.074 A 
ATOM     45  C   UNL A   1      46.108  31.069  31.450  1.00  0.00     0.029 A 
ATOM     46  N   UNL A   1      44.910  29.461  30.488  1.00  0.00    -0.354 N 
ATOM     47  N   UNL A   1      44.468  26.788  29.355  1.00  0.00    -0.248 NA
ATOM     48  C   UNL A   1      45.292  24.710  28.674  1.00  0.00     0.031 C 
ATOM     49  C   UNL A   1      46.951  29.983  31.190  1.00  0.00     0.029 A 
ATOM     50  C   UNL A   1      46.202  28.976  30.606  1.00  0.00     0.049 A 
ATOM     51  H   UNL A   1      44.153  28.965  30.102  1.00  0.00     0.167 HD
ATOM     52  C   UNL A   1      45.830  26.725  29.631  1.00  0.00     0.074 A 
ATOM     53  C   UNL A   1      46.280  25.414  29.210  1.00  0.00     0.031 C 
ATOM     54  C   UNL A   1      46.633  27.668  30.181  1.00  0.00     0.037 A 
BRANCH  41  55
ATOM     55  C   UNL A   1      43.745  32.951  31.578  1.00  0.00     0.058 A 
ATOM     56  C   UNL A   1      43.896  34.069  30.745  1.00  0.00     0.135 A 
ATOM     57  C   UNL A   1      43.662  33.170  32.963  1.00  0.00     0.135 A 
ATOM     58  F   UNL A   1      44.001  33.912  29.416  1.00  0.00    -0.206 F 
ATOM     59  C   UNL A   1      43.986  35.356  31.266  1.00  0.00     0.059 A 
ATOM     60  C   UNL A   1      43.729  34.449  33.505  1.00  0.00     0.059 A 
ATOM     61  F   UNL A   1      43.518  32.132  33.803  1.00  0.00    -0.206 F 
ATOM     62  C   UNL A   1      43.907  35.535  32.649  1.00  0.00     0.060 A 
BRANCH  62  63
ATOM     63  S   UNL A   1      44.037  37.208  33.316  1.00  0.00     0.124 S 
ATOM     64  O   UNL A   1      42.729  37.371  33.942  1.00  0.00    -0.237 OA
ATOM     65  O   UNL A   1      45.168  37.095  34.232  1.00  0.00    -0.237 OA
ATOM     66  O   UNL A   1      44.273  38.028  32.132  1.00  0.00    -0.744 OA
ENDBRANCH  62  63
ENDBRANCH  41  55
BRANCH  42  67
ATOM     67  C   UNL A   1      42.671  23.798  27.729  1.00  0.00     0.058 A 
ATOM     68  C   UNL A   1      42.779  23.604  26.345  1.00  0.00     0.135 A 
ATOM     69  C   UNL A   1      42.436  22.673  28.533  1.00  0.00     0.135 A 
ATOM     70  F   UNL A   1      42.995  24.652  25.536  1.00  0.00    -0.206 F 
ATOM     71  C   UNL A   1      42.654  22.341  25.776  1.00  0.00     0.059 A 
ATOM     72  C   UNL A   1      42.327  21.397  27.990  1.00  0.00     0.059 A 
ATOM     73  F   UNL A   1      42.335  22.807  29.865  1.00  0.00    -0.206 F 
ATOM     74  C   UNL A   1      42.430  21.242  26.608  1.00  0.00     0.060 A 
BRANCH  74  75
ATOM     75  S   UNL A   1      42.331  19.596  25.873  1.00  0.00     0.124 S 
ATOM     76  O   UNL A   1      42.678  18.748  27.007  1.00  0.00    -0.237 OA
ATOM     77  O   UNL A   1      40.940  19.535  25.433  1.00  0.00    -0.237 OA
ATOM     78  O   UNL A   1      43.317  19.651  24.798  1.00  0.00    -0.744 OA
ENDBRANCH  74  75
ENDBRANCH  42  67
BRANCH  54  79
ATOM     79  C   UNL A   1      48.077  27.309  30.377  1.00  0.00     0.058 A 
ATOM     80  C   UNL A   1      49.053  27.656  29.430  1.00  0.00     0.135 A 
ATOM     81  C   UNL A   1      48.496  26.651  31.543  1.00  0.00     0.135 A 
ATOM     82  F   UNL A   1      48.700  28.281  28.295  1.00  0.00    -0.206 F 
ATOM     83  C   UNL A   1      50.394  27.347  29.624  1.00  0.00     0.059 A 
ATOM     84  C   UNL A   1      49.836  26.348  31.767  1.00  0.00     0.059 A 
ATOM     85  F   UNL A   1      47.601  26.305  32.482  1.00  0.00    -0.206 F 
ATOM     86  C   UNL A   1      50.776  26.691  30.796  1.00  0.00     0.060 A 
BRANCH  86  87
ATOM     87  S   UNL A   1      52.524  26.320  31.057  1.00  0.00     0.124 S 
ATOM     88  O   UNL A   1      53.023  26.279  29.688  1.00  0.00    -0.237 OA
ATOM     89  O   UNL A   1      52.972  27.454  31.861  1.00  0.00    -0.237 OA
ATOM     90  O   UNL A   1      52.497  25.039  31.757  1.00  0.00    -0.744 OA
ENDBRANCH  86  87
ENDBRANCH  54  79
ENDBRANCH  28  29
ENDBRANCH  21  23
ENDBRANCH  20  21
ENDBRANCH  19  20
ENDBRANCH   1  19
TORSDOF 17
ENDMDL
