MODEL 1
REMARK VINA RESULT:     -10.3      0.000      0.000
REMARK SMILES Cc1ccc(C(=O)N[C@@H](CC(=O)OCCOC(=O)c2ccc(-c3c4nc(c(-c5c(F)cc(S(=O)(=O)[O-])cc5F)c5ccc([nH]5)c(-c5c(F)cc(S(=O)(=O)[O-])cc5F)c5nc(c(-c6c(F)cc(S(=O)(=O)[O-])cc6F)c6ccc3[nH]6)C=C5)C=C4)cc2)c2cccs2)o1
REMARK SMILES IDX 14 1 13 2 11 3 12 4 10 5 9 6 8 7 6 8 7 9 5 11 1 12 2 13 3 14
REMARK SMILES IDX 90 15 4 16 85 17 86 18 89 19 87 20 88 21 15 22 16 23 17 24
REMARK SMILES IDX 18 25 19 26 20 27 84 28 21 29 83 30 22 31 23 32 24 33 77 34
REMARK SMILES IDX 25 35 82 36 76 37 78 38 26 39 81 40 75 41 74 42 27 44 61 45
REMARK SMILES IDX 40 46 60 47 41 48 44 49 59 50 79 51 42 52 43 53 58 55 80 56
REMARK SMILES IDX 45 57 28 58 29 59 38 60 30 61 31 62 37 63 39 64 32 65 33 66
REMARK SMILES IDX 34 67 35 68 36 69 62 70 63 71 72 72 64 73 65 74 71 75 73 76
REMARK SMILES IDX 66 77 67 78 68 79 69 80 70 81 46 82 47 83 56 84 48 85 49 86
REMARK SMILES IDX 55 87 57 88 50 89 51 90 52 91 53 92 54 93
REMARK H PARENT 8 10 78 43 44 54
REMARK Flexibility Score: inf
ROOT
ATOM      1  C   UNL A   1      33.646  27.114  26.128  1.00  0.00     0.274 C 
ENDROOT
BRANCH   1   2
ATOM      2  O   UNL A   1      33.309  26.753  24.771  1.00  0.00    -0.462 OA
BRANCH   2   3
ATOM      3  C   UNL A   1      33.507  25.444  24.484  1.00  0.00     0.308 C 
ATOM      4  O   UNL A   1      32.645  24.690  24.040  1.00  0.00    -0.252 OA
BRANCH   3   5
ATOM      5  C   UNL A   1      34.871  24.918  24.824  1.00  0.00     0.153 C 
BRANCH   5   6
ATOM      6  C   UNL A   1      35.060  23.506  25.360  1.00  0.00     0.134 C 
BRANCH   6   7
ATOM      7  N   UNL A   1      34.172  23.189  26.461  1.00  0.00    -0.341 N 
ATOM      8  C   UNL A   1      33.231  22.197  26.609  1.00  0.00     0.287 C 
ATOM      9  O   UNL A   1      32.575  22.238  27.654  1.00  0.00    -0.266 OA
ATOM     10  H   UNL A   1      34.257  23.787  27.237  1.00  0.00     0.164 HD
BRANCH   8  11
ATOM     11  C   UNL A   1      33.013  21.189  25.584  1.00  0.00     0.191 A 
ATOM     12  C   UNL A   1      34.295  18.033  24.454  1.00  0.00     0.087 C 
ATOM     13  C   UNL A   1      33.493  19.263  24.599  1.00  0.00     0.101 A 
ATOM     14  C   UNL A   1      32.453  19.806  23.885  1.00  0.00     0.046 A 
ATOM     15  O   UNL A   1      33.834  20.085  25.627  1.00  0.00    -0.456 OA
ATOM     16  C   UNL A   1      32.178  21.059  24.485  1.00  0.00     0.056 A 
ENDBRANCH   8  11
ENDBRANCH   6   7
BRANCH   6  17
ATOM     17  C   UNL A   1      36.480  23.077  25.662  1.00  0.00     0.028 A 
ATOM     18  C   UNL A   1      37.510  23.874  26.136  1.00  0.00     0.017 A 
ATOM     19  S   UNL A   1      37.052  21.486  25.338  1.00  0.00    -0.147 S 
ATOM     20  C   UNL A   1      38.760  23.192  26.191  1.00  0.00     0.012 A 
ATOM     21  C   UNL A   1      38.655  21.891  25.762  1.00  0.00     0.065 A 
ENDBRANCH   6  17
ENDBRANCH   5   6
ENDBRANCH   3   5
ENDBRANCH   2   3
ENDBRANCH   1   2
BRANCH   1  22
ATOM     22  C   UNL A   1      33.525  28.621  26.352  1.00  0.00     0.275 C 
BRANCH  22  23
ATOM     23  O   UNL A   1      33.728  28.936  27.739  1.00  0.00    -0.458 OA
BRANCH  23  24
ATOM     24  C   UNL A   1      34.348  30.114  27.983  1.00  0.00     0.338 C 
ATOM     25  O   UNL A   1      33.839  31.222  27.974  1.00  0.00    -0.246 OA
BRANCH  24  26
ATOM     26  C   UNL A   1      35.792  29.893  28.211  1.00  0.00     0.060 A 
ATOM     27  C   UNL A   1      36.737  30.044  27.193  1.00  0.00     0.016 A 
ATOM     28  C   UNL A   1      36.192  29.455  29.474  1.00  0.00     0.016 A 
ATOM     29  C   UNL A   1      38.073  29.704  27.422  1.00  0.00     0.010 A 
ATOM     30  C   UNL A   1      37.538  29.186  29.722  1.00  0.00     0.010 A 
ATOM     31  C   UNL A   1      38.490  29.285  28.695  1.00  0.00    -0.014 A 
BRANCH  31  32
ATOM     32  C   UNL A   1      39.912  28.961  28.984  1.00  0.00     0.031 A 
ATOM     33  C   UNL A   1      40.842  30.027  29.501  1.00  0.00     0.074 A 
ATOM     34  C   UNL A   1      40.385  27.728  28.718  1.00  0.00     0.049 A 
ATOM     35  N   UNL A   1      42.144  30.000  29.620  1.00  0.00    -0.248 NA
ATOM     36  C   UNL A   1      40.225  31.293  29.927  1.00  0.00     0.031 C 
ATOM     37  C   UNL A   1      39.588  26.601  28.229  1.00  0.00     0.029 A 
ATOM     38  N   UNL A   1      41.658  27.222  28.800  1.00  0.00    -0.354 N 
ATOM     39  C   UNL A   1      42.509  31.254  30.099  1.00  0.00     0.074 A 
ATOM     40  C   UNL A   1      41.289  32.020  30.245  1.00  0.00     0.031 C 
ATOM     41  C   UNL A   1      40.387  25.538  28.056  1.00  0.00     0.029 A 
ATOM     42  C   UNL A   1      41.762  25.924  28.357  1.00  0.00     0.049 A 
ATOM     43  H   UNL A   1      42.424  27.738  29.143  1.00  0.00     0.167 HD
ATOM     44  C   UNL A   1      43.747  31.722  30.389  1.00  0.00     0.037 A 
ATOM     45  C   UNL A   1      42.844  25.144  28.168  1.00  0.00     0.037 A 
ATOM     46  C   UNL A   1      44.955  30.947  30.264  1.00  0.00     0.049 A 
ATOM     47  C   UNL A   1      44.210  25.696  28.461  1.00  0.00     0.074 A 
ATOM     48  C   UNL A   1      46.255  31.324  30.558  1.00  0.00     0.029 A 
ATOM     49  N   UNL A   1      45.013  29.638  29.809  1.00  0.00    -0.354 N 
ATOM     50  N   UNL A   1      44.538  26.887  28.900  1.00  0.00    -0.248 NA
ATOM     51  C   UNL A   1      45.352  24.804  28.219  1.00  0.00     0.031 C 
ATOM     52  C   UNL A   1      47.103  30.252  30.252  1.00  0.00     0.029 A 
ATOM     53  C   UNL A   1      46.327  29.196  29.801  1.00  0.00     0.049 A 
ATOM     54  H   UNL A   1      44.236  29.101  29.534  1.00  0.00     0.167 HD
ATOM     55  C   UNL A   1      45.925  26.885  28.996  1.00  0.00     0.074 A 
ATOM     56  C   UNL A   1      46.371  25.570  28.584  1.00  0.00     0.031 C 
ATOM     57  C   UNL A   1      46.754  27.885  29.385  1.00  0.00     0.037 A 
BRANCH  44  58
ATOM     58  C   UNL A   1      43.866  33.147  30.850  1.00  0.00     0.058 A 
ATOM     59  C   UNL A   1      43.982  34.210  29.942  1.00  0.00     0.135 A 
ATOM     60  C   UNL A   1      43.818  33.457  32.219  1.00  0.00     0.135 A 
ATOM     61  F   UNL A   1      44.048  33.968  28.623  1.00  0.00    -0.206 F 
ATOM     62  C   UNL A   1      44.068  35.529  30.376  1.00  0.00     0.059 A 
ATOM     63  C   UNL A   1      43.882  34.771  32.675  1.00  0.00     0.059 A 
ATOM     64  F   UNL A   1      43.708  32.476  33.130  1.00  0.00    -0.206 F 
ATOM     65  C   UNL A   1      44.020  35.800  31.745  1.00  0.00     0.060 A 
BRANCH  65  66
ATOM     66  S   UNL A   1      44.130  37.516  32.294  1.00  0.00     0.124 S 
ATOM     67  O   UNL A   1      43.801  38.234  31.067  1.00  0.00    -0.237 OA
ATOM     68  O   UNL A   1      43.123  37.574  33.350  1.00  0.00    -0.237 OA
ATOM     69  O   UNL A   1      45.512  37.642  32.744  1.00  0.00    -0.744 OA
ENDBRANCH  65  66
ENDBRANCH  44  58
BRANCH  45  70
ATOM     70  C   UNL A   1      42.674  23.765  27.642  1.00  0.00     0.058 A 
ATOM     71  C   UNL A   1      42.598  23.526  26.263  1.00  0.00     0.135 A 
ATOM     72  C   UNL A   1      42.617  22.660  28.505  1.00  0.00     0.135 A 
ATOM     73  F   UNL A   1      42.641  24.554  25.401  1.00  0.00    -0.206 F 
ATOM     74  C   UNL A   1      42.468  22.238  25.756  1.00  0.00     0.059 A 
ATOM     75  C   UNL A   1      42.509  21.361  28.021  1.00  0.00     0.059 A 
ATOM     76  F   UNL A   1      42.698  22.838  29.833  1.00  0.00    -0.206 F 
ATOM     77  C   UNL A   1      42.428  21.161  26.643  1.00  0.00     0.060 A 
BRANCH  77  78
ATOM     78  S   UNL A   1      42.326  19.486  25.975  1.00  0.00     0.124 S 
ATOM     79  O   UNL A   1      43.333  19.529  24.922  1.00  0.00    -0.237 OA
ATOM     80  O   UNL A   1      42.653  18.668  27.139  1.00  0.00    -0.237 OA
ATOM     81  O   UNL A   1      40.940  19.391  25.524  1.00  0.00    -0.744 OA
ENDBRANCH  77  78
ENDBRANCH  45  70
BRANCH  57  82
ATOM     82  C   UNL A   1      48.225  27.585  29.404  1.00  0.00     0.058 A 
ATOM     83  C   UNL A   1      49.054  27.925  28.324  1.00  0.00     0.135 A 
ATOM     84  C   UNL A   1      48.815  26.984  30.526  1.00  0.00     0.135 A 
ATOM     85  F   UNL A   1      48.534  28.493  27.225  1.00  0.00    -0.206 F 
ATOM     86  C   UNL A   1      50.420  27.662  28.349  1.00  0.00     0.059 A 
ATOM     87  C   UNL A   1      50.182  26.729  30.580  1.00  0.00     0.059 A 
ATOM     88  F   UNL A   1      48.065  26.647  31.586  1.00  0.00    -0.206 F 
ATOM     89  C   UNL A   1      50.974  27.061  29.482  1.00  0.00     0.060 A 
BRANCH  89  90
ATOM     90  S   UNL A   1      52.752  26.747  29.517  1.00  0.00     0.124 S 
ATOM     91  O   UNL A   1      52.877  25.901  30.698  1.00  0.00    -0.237 OA
ATOM     92  O   UNL A   1      52.981  26.084  28.236  1.00  0.00    -0.237 OA
ATOM     93  O   UNL A   1      53.329  28.083  29.635  1.00  0.00    -0.744 OA
ENDBRANCH  89  90
ENDBRANCH  57  82
ENDBRANCH  31  32
ENDBRANCH  24  26
ENDBRANCH  23  24
ENDBRANCH  22  23
ENDBRANCH   1  22
TORSDOF 18
ENDMDL
MODEL 2
REMARK VINA RESULT:     -10.1      2.218      3.799
REMARK SMILES Cc1ccc(C(=O)N[C@@H](CC(=O)OCCOC(=O)c2ccc(-c3c4nc(c(-c5c(F)cc(S(=O)(=O)[O-])cc5F)c5ccc([nH]5)c(-c5c(F)cc(S(=O)(=O)[O-])cc5F)c5nc(c(-c6c(F)cc(S(=O)(=O)[O-])cc6F)c6ccc3[nH]6)C=C5)C=C4)cc2)c2cccs2)o1
REMARK SMILES IDX 14 1 13 2 11 3 12 4 10 5 9 6 8 7 6 8 7 9 5 11 1 12 2 13 3 14
REMARK SMILES IDX 90 15 4 16 85 17 86 18 89 19 87 20 88 21 15 22 16 23 17 24
REMARK SMILES IDX 18 25 19 26 20 27 84 28 21 29 83 30 22 31 23 32 24 33 77 34
REMARK SMILES IDX 25 35 82 36 76 37 78 38 26 39 81 40 75 41 74 42 27 44 61 45
REMARK SMILES IDX 40 46 60 47 41 48 44 49 59 50 79 51 42 52 43 53 58 55 80 56
REMARK SMILES IDX 45 57 28 58 29 59 38 60 30 61 31 62 37 63 39 64 32 65 33 66
REMARK SMILES IDX 34 67 35 68 36 69 62 70 63 71 72 72 64 73 65 74 71 75 73 76
REMARK SMILES IDX 66 77 67 78 68 79 69 80 70 81 46 82 47 83 56 84 48 85 49 86
REMARK SMILES IDX 55 87 57 88 50 89 51 90 52 91 53 92 54 93
REMARK H PARENT 8 10 78 43 44 54
REMARK Flexibility Score: inf
ROOT
ATOM      1  C   UNL A   1      31.765  28.591  27.290  1.00  0.00     0.274 C 
ENDROOT
BRANCH   1   2
ATOM      2  O   UNL A   1      31.075  27.353  27.018  1.00  0.00    -0.462 OA
BRANCH   2   3
ATOM      3  C   UNL A   1      30.959  27.065  25.698  1.00  0.00     0.308 C 
ATOM      4  O   UNL A   1      30.696  25.952  25.249  1.00  0.00    -0.252 OA
BRANCH   3   5
ATOM      5  C   UNL A   1      31.257  28.206  24.771  1.00  0.00     0.153 C 
BRANCH   5   6
ATOM      6  C   UNL A   1      31.037  28.079  23.269  1.00  0.00     0.134 C 
BRANCH   6   7
ATOM      7  N   UNL A   1      32.229  28.356  22.492  1.00  0.00    -0.341 N 
ATOM      8  C   UNL A   1      33.392  27.641  22.332  1.00  0.00     0.287 C 
ATOM      9  O   UNL A   1      34.264  28.189  21.651  1.00  0.00    -0.266 OA
ATOM     10  H   UNL A   1      32.199  29.202  21.991  1.00  0.00     0.164 HD
BRANCH   8  11
ATOM     11  C   UNL A   1      33.584  26.341  22.953  1.00  0.00     0.191 A 
ATOM     12  C   UNL A   1      33.040  22.846  22.341  1.00  0.00     0.087 C 
ATOM     13  C   UNL A   1      33.435  24.130  22.952  1.00  0.00     0.101 A 
ATOM     14  C   UNL A   1      33.993  24.472  24.160  1.00  0.00     0.046 A 
ATOM     15  O   UNL A   1      33.190  25.247  22.217  1.00  0.00    -0.456 OA
ATOM     16  C   UNL A   1      34.044  25.888  24.180  1.00  0.00     0.056 A 
ENDBRANCH   8  11
ENDBRANCH   6   7
BRANCH   6  17
ATOM     17  C   UNL A   1      29.832  28.791  22.695  1.00  0.00     0.028 A 
ATOM     18  C   UNL A   1      29.836  29.887  21.846  1.00  0.00     0.017 A 
ATOM     19  S   UNL A   1      28.219  28.375  23.131  1.00  0.00    -0.147 S 
ATOM     20  C   UNL A   1      28.530  30.399  21.593  1.00  0.00     0.012 A 
ATOM     21  C   UNL A   1      27.560  29.681  22.250  1.00  0.00     0.065 A 
ENDBRANCH   6  17
ENDBRANCH   5   6
ENDBRANCH   3   5
ENDBRANCH   2   3
ENDBRANCH   1   2
BRANCH   1  22
ATOM     22  C   UNL A   1      33.277  28.381  27.376  1.00  0.00     0.275 C 
BRANCH  22  23
ATOM     23  O   UNL A   1      33.969  29.543  26.894  1.00  0.00    -0.458 OA
BRANCH  23  24
ATOM     24  C   UNL A   1      34.490  30.347  27.851  1.00  0.00     0.338 C 
ATOM     25  O   UNL A   1      33.956  31.322  28.354  1.00  0.00    -0.246 OA
BRANCH  24  26
ATOM     26  C   UNL A   1      35.865  29.922  28.182  1.00  0.00     0.060 A 
ATOM     27  C   UNL A   1      36.216  29.462  29.455  1.00  0.00     0.016 A 
ATOM     28  C   UNL A   1      36.844  30.055  27.196  1.00  0.00     0.016 A 
ATOM     29  C   UNL A   1      37.553  29.190  29.757  1.00  0.00     0.010 A 
ATOM     30  C   UNL A   1      38.167  29.714  27.479  1.00  0.00     0.010 A 
ATOM     31  C   UNL A   1      38.540  29.299  28.767  1.00  0.00    -0.014 A 
BRANCH  31  32
ATOM     32  C   UNL A   1      39.964  28.972  29.044  1.00  0.00     0.031 A 
ATOM     33  C   UNL A   1      40.894  30.028  29.579  1.00  0.00     0.074 A 
ATOM     34  C   UNL A   1      40.438  27.745  28.752  1.00  0.00     0.049 A 
ATOM     35  N   UNL A   1      42.197  30.002  29.694  1.00  0.00    -0.248 NA
ATOM     36  C   UNL A   1      40.276  31.285  30.034  1.00  0.00     0.031 C 
ATOM     37  C   UNL A   1      39.641  26.627  28.243  1.00  0.00     0.029 A 
ATOM     38  N   UNL A   1      41.712  27.240  28.819  1.00  0.00    -0.354 N 
ATOM     39  C   UNL A   1      42.561  31.246  30.197  1.00  0.00     0.074 A 
ATOM     40  C   UNL A   1      41.340  32.006  30.363  1.00  0.00     0.031 C 
ATOM     41  C   UNL A   1      40.442  25.569  28.044  1.00  0.00     0.029 A 
ATOM     42  C   UNL A   1      41.817  25.951  28.348  1.00  0.00     0.049 A 
ATOM     43  H   UNL A   1      42.479  27.750  29.170  1.00  0.00     0.167 HD
ATOM     44  C   UNL A   1      43.800  31.710  30.492  1.00  0.00     0.037 A 
ATOM     45  C   UNL A   1      42.900  25.178  28.140  1.00  0.00     0.037 A 
ATOM     46  C   UNL A   1      45.009  30.940  30.347  1.00  0.00     0.049 A 
ATOM     47  C   UNL A   1      44.266  25.726  28.439  1.00  0.00     0.074 A 
ATOM     48  C   UNL A   1      46.308  31.313  30.644  1.00  0.00     0.029 A 
ATOM     49  N   UNL A   1      45.067  29.640  29.865  1.00  0.00    -0.354 N 
ATOM     50  N   UNL A   1      44.593  26.908  28.902  1.00  0.00    -0.248 NA
ATOM     51  C   UNL A   1      45.408  24.841  28.175  1.00  0.00     0.031 C 
ATOM     52  C   UNL A   1      47.157  30.250  30.313  1.00  0.00     0.029 A 
ATOM     53  C   UNL A   1      46.382  29.202  29.843  1.00  0.00     0.049 A 
ATOM     54  H   UNL A   1      44.290  29.108  29.582  1.00  0.00     0.167 HD
ATOM     55  C   UNL A   1      45.981  26.907  28.992  1.00  0.00     0.074 A 
ATOM     56  C   UNL A   1      46.428  25.601  28.552  1.00  0.00     0.031 C 
ATOM     57  C   UNL A   1      46.809  27.900  29.399  1.00  0.00     0.037 A 
BRANCH  44  58
ATOM     58  C   UNL A   1      43.917  33.126  30.982  1.00  0.00     0.058 A 
ATOM     59  C   UNL A   1      43.896  34.217  30.100  1.00  0.00     0.135 A 
ATOM     60  C   UNL A   1      44.008  33.396  32.358  1.00  0.00     0.135 A 
ATOM     61  F   UNL A   1      43.827  34.014  28.775  1.00  0.00    -0.206 F 
ATOM     62  C   UNL A   1      43.982  35.526  30.563  1.00  0.00     0.059 A 
ATOM     63  C   UNL A   1      44.074  34.699  32.844  1.00  0.00     0.059 A 
ATOM     64  F   UNL A   1      44.033  32.388  33.244  1.00  0.00    -0.206 F 
ATOM     65  C   UNL A   1      44.074  35.758  31.937  1.00  0.00     0.060 A 
BRANCH  65  66
ATOM     66  S   UNL A   1      44.183  37.461  32.524  1.00  0.00     0.124 S 
ATOM     67  O   UNL A   1      43.059  37.518  33.455  1.00  0.00    -0.237 OA
ATOM     68  O   UNL A   1      45.510  37.500  33.132  1.00  0.00    -0.237 OA
ATOM     69  O   UNL A   1      44.032  38.251  31.307  1.00  0.00    -0.744 OA
ENDBRANCH  65  66
ENDBRANCH  44  58
BRANCH  45  70
ATOM     70  C   UNL A   1      42.730  23.809  27.586  1.00  0.00     0.058 A 
ATOM     71  C   UNL A   1      42.844  23.572  26.210  1.00  0.00     0.135 A 
ATOM     72  C   UNL A   1      42.483  22.711  28.425  1.00  0.00     0.135 A 
ATOM     73  F   UNL A   1      43.072  24.593  25.370  1.00  0.00    -0.206 F 
ATOM     74  C   UNL A   1      42.716  22.292  25.681  1.00  0.00     0.059 A 
ATOM     75  C   UNL A   1      42.374  21.419  27.922  1.00  0.00     0.059 A 
ATOM     76  F   UNL A   1      42.379  22.888  29.751  1.00  0.00    -0.206 F 
ATOM     77  C   UNL A   1      42.485  21.221  26.546  1.00  0.00     0.060 A 
BRANCH  77  78
ATOM     78  S   UNL A   1      42.387  19.553  25.861  1.00  0.00     0.124 S 
ATOM     79  O   UNL A   1      40.990  19.487  25.450  1.00  0.00    -0.237 OA
ATOM     80  O   UNL A   1      43.368  19.603  24.782  1.00  0.00    -0.237 OA
ATOM     81  O   UNL A   1      42.756  18.706  26.992  1.00  0.00    -0.744 OA
ENDBRANCH  77  78
ENDBRANCH  45  70
BRANCH  57  82
ATOM     82  C   UNL A   1      48.280  27.602  29.407  1.00  0.00     0.058 A 
ATOM     83  C   UNL A   1      48.876  26.882  30.454  1.00  0.00     0.135 A 
ATOM     84  C   UNL A   1      49.095  28.011  28.340  1.00  0.00     0.135 A 
ATOM     85  F   UNL A   1      48.139  26.478  31.501  1.00  0.00    -0.206 F 
ATOM     86  C   UNL A   1      50.236  26.593  30.452  1.00  0.00     0.059 A 
ATOM     87  C   UNL A   1      50.455  27.716  28.308  1.00  0.00     0.059 A 
ATOM     88  F   UNL A   1      48.571  28.697  27.313  1.00  0.00    -0.206 F 
ATOM     89  C   UNL A   1      51.018  27.017  29.375  1.00  0.00     0.060 A 
BRANCH  89  90
ATOM     90  S   UNL A   1      52.779  26.614  29.368  1.00  0.00     0.124 S 
ATOM     91  O   UNL A   1      52.873  25.733  28.210  1.00  0.00    -0.237 OA
ATOM     92  O   UNL A   1      53.402  27.926  29.218  1.00  0.00    -0.237 OA
ATOM     93  O   UNL A   1      52.984  25.976  30.665  1.00  0.00    -0.744 OA
ENDBRANCH  89  90
ENDBRANCH  57  82
ENDBRANCH  31  32
ENDBRANCH  24  26
ENDBRANCH  23  24
ENDBRANCH  22  23
ENDBRANCH   1  22
TORSDOF 18
ENDMDL
MODEL 3
REMARK VINA RESULT:     -10.1      5.053     10.605
REMARK SMILES Cc1ccc(C(=O)N[C@@H](CC(=O)OCCOC(=O)c2ccc(-c3c4nc(c(-c5c(F)cc(S(=O)(=O)[O-])cc5F)c5ccc([nH]5)c(-c5c(F)cc(S(=O)(=O)[O-])cc5F)c5nc(c(-c6c(F)cc(S(=O)(=O)[O-])cc6F)c6ccc3[nH]6)C=C5)C=C4)cc2)c2cccs2)o1
REMARK SMILES IDX 14 1 13 2 11 3 12 4 10 5 9 6 8 7 6 8 7 9 5 11 1 12 2 13 3 14
REMARK SMILES IDX 90 15 4 16 85 17 86 18 89 19 87 20 88 21 15 22 16 23 17 24
REMARK SMILES IDX 18 25 19 26 20 27 84 28 21 29 83 30 22 31 23 32 24 33 77 34
REMARK SMILES IDX 25 35 82 36 76 37 78 38 26 39 81 40 75 41 74 42 27 44 61 45
REMARK SMILES IDX 40 46 60 47 41 48 44 49 59 50 79 51 42 52 43 53 58 55 80 56
REMARK SMILES IDX 45 57 28 58 29 59 38 60 30 61 31 62 37 63 39 64 32 65 33 66
REMARK SMILES IDX 34 67 35 68 36 69 62 70 63 71 72 72 64 73 65 74 71 75 73 76
REMARK SMILES IDX 66 77 67 78 68 79 69 80 70 81 46 82 47 83 56 84 48 85 49 86
REMARK SMILES IDX 55 87 57 88 50 89 51 90 52 91 53 92 54 93
REMARK H PARENT 8 10 78 43 44 54
REMARK Flexibility Score: inf
ROOT
ATOM      1  C   UNL A   1      36.808  22.704  25.706  1.00  0.00     0.274 C 
ENDROOT
BRANCH   1   2
ATOM      2  O   UNL A   1      36.220  24.022  25.687  1.00  0.00    -0.462 OA
BRANCH   2   3
ATOM      3  C   UNL A   1      34.879  24.025  25.491  1.00  0.00     0.308 C 
ATOM      4  O   UNL A   1      34.281  24.826  24.777  1.00  0.00    -0.252 OA
BRANCH   3   5
ATOM      5  C   UNL A   1      34.119  23.003  26.284  1.00  0.00     0.153 C 
BRANCH   5   6
ATOM      6  C   UNL A   1      32.951  22.241  25.675  1.00  0.00     0.134 C 
BRANCH   6   7
ATOM      7  N   UNL A   1      31.766  22.247  26.511  1.00  0.00    -0.341 N 
ATOM      8  C   UNL A   1      30.845  23.233  26.770  1.00  0.00     0.287 C 
ATOM      9  O   UNL A   1      29.976  22.945  27.599  1.00  0.00    -0.266 OA
ATOM     10  H   UNL A   1      31.592  21.396  26.973  1.00  0.00     0.164 HD
BRANCH   8  11
ATOM     11  C   UNL A   1      30.915  24.536  26.127  1.00  0.00     0.191 A 
ATOM     12  C   UNL A   1      31.714  27.961  26.840  1.00  0.00     0.087 C 
ATOM     13  C   UNL A   1      31.329  26.712  26.155  1.00  0.00     0.101 A 
ATOM     14  C   UNL A   1      30.924  26.419  24.876  1.00  0.00     0.046 A 
ATOM     15  O   UNL A   1      31.332  25.584  26.915  1.00  0.00    -0.456 OA
ATOM     16  C   UNL A   1      30.613  25.037  24.871  1.00  0.00     0.056 A 
ENDBRANCH   8  11
ENDBRANCH   6   7
BRANCH   6  17
ATOM     17  C   UNL A   1      33.242  20.853  25.149  1.00  0.00     0.028 A 
ATOM     18  C   UNL A   1      34.396  20.110  25.348  1.00  0.00     0.017 A 
ATOM     19  S   UNL A   1      32.167  20.021  24.093  1.00  0.00    -0.147 S 
ATOM     20  C   UNL A   1      34.407  18.892  24.609  1.00  0.00     0.012 A 
ATOM     21  C   UNL A   1      33.262  18.731  23.866  1.00  0.00     0.065 A 
ENDBRANCH   6  17
ENDBRANCH   5   6
ENDBRANCH   3   5
ENDBRANCH   2   3
ENDBRANCH   1   2
BRANCH   1  22
ATOM     22  C   UNL A   1      38.306  22.764  26.003  1.00  0.00     0.275 C 
BRANCH  22  23
ATOM     23  O   UNL A   1      38.705  24.117  26.274  1.00  0.00    -0.458 OA
BRANCH  23  24
ATOM     24  C   UNL A   1      39.967  24.268  26.739  1.00  0.00     0.338 C 
ATOM     25  O   UNL A   1      40.918  23.536  26.519  1.00  0.00    -0.246 OA
BRANCH  24  26
ATOM     26  C   UNL A   1      40.045  25.442  27.633  1.00  0.00     0.060 A 
ATOM     27  C   UNL A   1      41.004  26.444  27.463  1.00  0.00     0.016 A 
ATOM     28  C   UNL A   1      39.165  25.496  28.714  1.00  0.00     0.016 A 
ATOM     29  C   UNL A   1      41.119  27.470  28.406  1.00  0.00     0.010 A 
ATOM     30  C   UNL A   1      39.234  26.560  29.614  1.00  0.00     0.010 A 
ATOM     31  C   UNL A   1      40.225  27.546  29.484  1.00  0.00    -0.014 A 
BRANCH  31  32
ATOM     32  C   UNL A   1      40.291  28.650  30.477  1.00  0.00     0.031 A 
ATOM     33  C   UNL A   1      41.255  28.574  31.631  1.00  0.00     0.074 A 
ATOM     34  C   UNL A   1      39.439  29.689  30.381  1.00  0.00     0.049 A 
ATOM     35  N   UNL A   1      41.325  29.324  32.701  1.00  0.00    -0.248 NA
ATOM     36  C   UNL A   1      42.266  27.505  31.579  1.00  0.00     0.031 C 
ATOM     37  C   UNL A   1      38.466  29.891  29.306  1.00  0.00     0.029 A 
ATOM     38  N   UNL A   1      39.237  30.760  31.216  1.00  0.00    -0.354 N 
ATOM     39  C   UNL A   1      42.359  28.798  33.468  1.00  0.00     0.074 A 
ATOM     40  C   UNL A   1      42.886  27.662  32.742  1.00  0.00     0.031 C 
ATOM     41  C   UNL A   1      37.773  31.015  29.543  1.00  0.00     0.029 A 
ATOM     42  C   UNL A   1      38.204  31.578  30.819  1.00  0.00     0.049 A 
ATOM     43  H   UNL A   1      39.780  30.928  32.021  1.00  0.00     0.167 HD
ATOM     44  C   UNL A   1      42.824  29.224  34.668  1.00  0.00     0.037 A 
ATOM     45  C   UNL A   1      37.635  32.633  31.432  1.00  0.00     0.037 A 
ATOM     46  C   UNL A   1      42.310  30.370  35.375  1.00  0.00     0.049 A 
ATOM     47  C   UNL A   1      38.142  33.065  32.778  1.00  0.00     0.074 A 
ATOM     48  C   UNL A   1      42.732  30.897  36.583  1.00  0.00     0.029 A 
ATOM     49  N   UNL A   1      41.263  31.167  34.937  1.00  0.00    -0.354 N 
ATOM     50  N   UNL A   1      39.111  32.550  33.495  1.00  0.00    -0.248 NA
ATOM     51  C   UNL A   1      37.470  34.212  33.403  1.00  0.00     0.031 C 
ATOM     52  C   UNL A   1      41.920  31.994  36.892  1.00  0.00     0.029 A 
ATOM     53  C   UNL A   1      41.014  32.172  35.858  1.00  0.00     0.049 A 
ATOM     54  H   UNL A   1      40.769  31.038  34.095  1.00  0.00     0.167 HD
ATOM     55  C   UNL A   1      39.171  33.315  34.655  1.00  0.00     0.074 A 
ATOM     56  C   UNL A   1      38.152  34.338  34.534  1.00  0.00     0.031 C 
ATOM     57  C   UNL A   1      39.994  33.180  35.724  1.00  0.00     0.037 A 
BRANCH  44  58
ATOM     58  C   UNL A   1      43.932  28.436  35.308  1.00  0.00     0.058 A 
ATOM     59  C   UNL A   1      43.671  27.372  36.184  1.00  0.00     0.135 A 
ATOM     60  C   UNL A   1      45.273  28.724  35.006  1.00  0.00     0.135 A 
ATOM     61  F   UNL A   1      42.408  27.067  36.519  1.00  0.00    -0.206 F 
ATOM     62  C   UNL A   1      44.702  26.633  36.755  1.00  0.00     0.059 A 
ATOM     63  C   UNL A   1      46.320  27.983  35.549  1.00  0.00     0.059 A 
ATOM     64  F   UNL A   1      45.578  29.732  34.173  1.00  0.00    -0.206 F 
ATOM     65  C   UNL A   1      46.024  26.947  36.434  1.00  0.00     0.060 A 
BRANCH  65  66
ATOM     66  S   UNL A   1      47.352  25.978  37.180  1.00  0.00     0.124 S 
ATOM     67  O   UNL A   1      47.114  24.663  36.594  1.00  0.00    -0.237 OA
ATOM     68  O   UNL A   1      48.549  26.672  36.712  1.00  0.00    -0.237 OA
ATOM     69  O   UNL A   1      47.090  26.086  38.611  1.00  0.00    -0.744 OA
ENDBRANCH  65  66
ENDBRANCH  44  58
BRANCH  45  70
ATOM     70  C   UNL A   1      36.495  33.332  30.785  1.00  0.00     0.058 A 
ATOM     71  C   UNL A   1      35.193  33.202  31.288  1.00  0.00     0.135 A 
ATOM     72  C   UNL A   1      36.690  34.167  29.674  1.00  0.00     0.135 A 
ATOM     73  F   UNL A   1      34.959  32.407  32.344  1.00  0.00    -0.206 F 
ATOM     74  C   UNL A   1      34.121  33.872  30.710  1.00  0.00     0.059 A 
ATOM     75  C   UNL A   1      35.637  34.866  29.093  1.00  0.00     0.059 A 
ATOM     76  F   UNL A   1      37.920  34.334  29.165  1.00  0.00    -0.206 F 
ATOM     77  C   UNL A   1      34.354  34.705  29.614  1.00  0.00     0.060 A 
BRANCH  77  78
ATOM     78  S   UNL A   1      32.969  35.626  28.910  1.00  0.00     0.124 S 
ATOM     79  O   UNL A   1      33.653  36.744  28.275  1.00  0.00    -0.237 OA
ATOM     80  O   UNL A   1      32.372  34.646  28.008  1.00  0.00    -0.237 OA
ATOM     81  O   UNL A   1      32.161  35.959  30.081  1.00  0.00    -0.744 OA
ENDBRANCH  77  78
ENDBRANCH  45  70
BRANCH  57  82
ATOM     82  C   UNL A   1      39.837  34.175  36.837  1.00  0.00     0.058 A 
ATOM     83  C   UNL A   1      39.186  33.837  38.033  1.00  0.00     0.135 A 
ATOM     84  C   UNL A   1      40.374  35.466  36.720  1.00  0.00     0.135 A 
ATOM     85  F   UNL A   1      38.648  32.617  38.189  1.00  0.00    -0.206 F 
ATOM     86  C   UNL A   1      39.055  34.754  39.071  1.00  0.00     0.059 A 
ATOM     87  C   UNL A   1      40.272  36.393  37.752  1.00  0.00     0.059 A 
ATOM     88  F   UNL A   1      41.012  35.833  35.598  1.00  0.00    -0.206 F 
ATOM     89  C   UNL A   1      39.601  36.031  38.919  1.00  0.00     0.060 A 
BRANCH  89  90
ATOM     90  S   UNL A   1      39.450  37.208  40.281  1.00  0.00     0.124 S 
ATOM     91  O   UNL A   1      38.475  36.541  41.138  1.00  0.00    -0.237 OA
ATOM     92  O   UNL A   1      40.814  37.266  40.800  1.00  0.00    -0.237 OA
ATOM     93  O   UNL A   1      38.984  38.426  39.625  1.00  0.00    -0.744 OA
ENDBRANCH  89  90
ENDBRANCH  57  82
ENDBRANCH  31  32
ENDBRANCH  24  26
ENDBRANCH  23  24
ENDBRANCH  22  23
ENDBRANCH   1  22
TORSDOF 18
ENDMDL
