MODEL 1
REMARK VINA RESULT:     -10.4      0.000      0.000
REMARK SMILES CN(CC(=O)OCCOC(=O)c1ccc(-c2c3nc(c(-c4c(F)cc(S(=O)(=O)[O-])cc4F)c4ccc([nH]4)c(-c4c(F)cc(S(=O)(=O)[O-])cc4F)c4nc(c(-c5c(F)cc(S(=O)(=O)[O-])cc5F)c5ccc2[nH]5)C=C4)C=C3)cc1)c1nc2cc(N)ccc2[nH]1
REMARK SMILES IDX 7 1 6 2 4 3 5 4 3 5 2 6 1 7 78 8 79 9 87 10 80 11 86 12
REMARK SMILES IDX 81 14 85 15 82 16 84 17 83 18 8 21 9 22 10 23 11 24 12 25
REMARK SMILES IDX 13 26 77 27 14 28 76 29 15 30 16 31 17 32 70 33 18 34 75 35
REMARK SMILES IDX 69 36 71 37 19 38 74 39 68 40 67 41 20 43 54 44 33 45 53 46
REMARK SMILES IDX 34 47 37 48 52 49 72 50 35 51 36 52 51 54 73 55 38 56 21 57
REMARK SMILES IDX 22 58 31 59 23 60 24 61 30 62 32 63 25 64 26 65 27 66 28 67
REMARK SMILES IDX 29 68 55 69 56 70 65 71 57 72 58 73 64 74 66 75 59 76 60 77
REMARK SMILES IDX 61 78 62 79 63 80 39 81 40 82 49 83 41 84 42 85 48 86 50 87
REMARK SMILES IDX 43 88 44 89 45 90 46 91 47 92
REMARK H PARENT 87 13 83 19 83 20 71 42 37 53
REMARK Flexibility Score: inf
ROOT
ATOM      1  C   UNL A   1      33.162  33.809  27.954  1.00  0.00     0.274 C 
ENDROOT
BRANCH   1   2
ATOM      2  O   UNL A   1      32.773  34.255  29.266  1.00  0.00    -0.461 OA
BRANCH   2   3
ATOM      3  C   UNL A   1      32.946  35.588  29.486  1.00  0.00     0.325 C 
ATOM      4  O   UNL A   1      33.404  36.368  28.650  1.00  0.00    -0.250 OA
BRANCH   3   5
ATOM      5  C   UNL A   1      32.599  36.063  30.889  1.00  0.00     0.241 C 
BRANCH   5   6
ATOM      6  N   UNL A   1      33.713  36.260  31.830  1.00  0.00    -0.334 N 
ATOM      7  C   UNL A   1      33.813  37.530  32.515  1.00  0.00     0.147 C 
BRANCH   6   8
ATOM      8  C   UNL A   1      34.511  35.205  32.125  1.00  0.00     0.204 A 
ATOM      9  N   UNL A   1      34.154  33.985  32.458  1.00  0.00    -0.213 NA
ATOM     10  N   UNL A   1      35.881  35.320  32.135  1.00  0.00    -0.324 N 
ATOM     11  C   UNL A   1      35.327  33.275  32.602  1.00  0.00     0.093 A 
ATOM     12  C   UNL A   1      36.429  34.100  32.430  1.00  0.00     0.067 A 
ATOM     13  H   UNL A   1      36.387  36.146  31.957  1.00  0.00     0.170 HD
ATOM     14  C   UNL A   1      35.543  31.912  32.862  1.00  0.00     0.056 A 
ATOM     15  C   UNL A   1      37.747  33.656  32.536  1.00  0.00     0.030 A 
ATOM     16  C   UNL A   1      36.850  31.421  32.984  1.00  0.00     0.034 A 
ATOM     17  C   UNL A   1      37.929  32.291  32.803  1.00  0.00     0.028 A 
BRANCH  16  18
ATOM     18  N   UNL A   1      37.067  30.056  33.133  1.00  0.00    -0.399 N 
ATOM     19  H   UNL A   1      37.404  29.525  32.377  1.00  0.00     0.156 HD
ATOM     20  H   UNL A   1      36.883  29.621  33.997  1.00  0.00     0.156 HD
ENDBRANCH  16  18
ENDBRANCH   6   8
ENDBRANCH   5   6
ENDBRANCH   3   5
ENDBRANCH   2   3
ENDBRANCH   1   2
BRANCH   1  21
ATOM     21  C   UNL A   1      34.322  32.816  28.030  1.00  0.00     0.275 C 
BRANCH  21  22
ATOM     22  O   UNL A   1      33.893  31.599  28.656  1.00  0.00    -0.458 OA
BRANCH  22  23
ATOM     23  C   UNL A   1      34.260  30.471  28.000  1.00  0.00     0.338 C 
ATOM     24  O   UNL A   1      33.532  29.784  27.299  1.00  0.00    -0.246 OA
BRANCH  23  25
ATOM     25  C   UNL A   1      35.688  30.141  28.249  1.00  0.00     0.060 A 
ATOM     26  C   UNL A   1      36.646  30.118  27.230  1.00  0.00     0.016 A 
ATOM     27  C   UNL A   1      36.057  29.762  29.546  1.00  0.00     0.016 A 
ATOM     28  C   UNL A   1      37.953  29.698  27.496  1.00  0.00     0.010 A 
ATOM     29  C   UNL A   1      37.370  29.380  29.821  1.00  0.00     0.010 A 
ATOM     30  C   UNL A   1      38.330  29.346  28.800  1.00  0.00    -0.014 A 
BRANCH  30  31
ATOM     31  C   UNL A   1      39.743  29.055  29.151  1.00  0.00     0.031 A 
ATOM     32  C   UNL A   1      40.666  30.142  29.620  1.00  0.00     0.074 A 
ATOM     33  C   UNL A   1      40.217  27.816  28.920  1.00  0.00     0.049 A 
ATOM     34  N   UNL A   1      41.969  30.114  29.752  1.00  0.00    -0.248 NA
ATOM     35  C   UNL A   1      40.051  31.428  29.983  1.00  0.00     0.031 C 
ATOM     36  C   UNL A   1      39.415  26.679  28.461  1.00  0.00     0.029 A 
ATOM     37  N   UNL A   1      41.492  27.315  28.998  1.00  0.00    -0.354 N 
ATOM     38  C   UNL A   1      42.336  31.380  30.191  1.00  0.00     0.074 A 
ATOM     39  C   UNL A   1      41.117  32.156  30.299  1.00  0.00     0.031 C 
ATOM     40  C   UNL A   1      40.219  25.621  28.274  1.00  0.00     0.029 A 
ATOM     41  C   UNL A   1      41.595  26.021  28.544  1.00  0.00     0.049 A 
ATOM     42  H   UNL A   1      42.256  27.829  29.343  1.00  0.00     0.167 HD
ATOM     43  C   UNL A   1      43.578  31.845  30.474  1.00  0.00     0.037 A 
ATOM     44  C   UNL A   1      42.678  25.253  28.321  1.00  0.00     0.037 A 
ATOM     45  C   UNL A   1      44.784  31.061  30.371  1.00  0.00     0.049 A 
ATOM     46  C   UNL A   1      44.045  25.806  28.599  1.00  0.00     0.074 A 
ATOM     47  C   UNL A   1      46.083  31.436  30.675  1.00  0.00     0.029 A 
ATOM     48  N   UNL A   1      44.846  29.748  29.925  1.00  0.00    -0.354 N 
ATOM     49  N   UNL A   1      44.377  27.000  29.027  1.00  0.00    -0.248 NA
ATOM     50  C   UNL A   1      45.185  24.911  28.360  1.00  0.00     0.031 C 
ATOM     51  C   UNL A   1      46.933  30.364  30.378  1.00  0.00     0.029 A 
ATOM     52  C   UNL A   1      46.160  29.306  29.928  1.00  0.00     0.049 A 
ATOM     53  H   UNL A   1      44.070  29.209  29.648  1.00  0.00     0.167 HD
ATOM     54  C   UNL A   1      45.763  26.994  29.128  1.00  0.00     0.074 A 
ATOM     55  C   UNL A   1      46.206  25.674  28.725  1.00  0.00     0.031 C 
ATOM     56  C   UNL A   1      46.590  27.990  29.523  1.00  0.00     0.037 A 
BRANCH  43  57
ATOM     57  C   UNL A   1      43.714  33.277  30.911  1.00  0.00     0.058 A 
ATOM     58  C   UNL A   1      43.768  33.632  32.268  1.00  0.00     0.135 A 
ATOM     59  C   UNL A   1      43.881  34.298  29.961  1.00  0.00     0.135 A 
ATOM     60  F   UNL A   1      43.606  32.697  33.217  1.00  0.00    -0.206 F 
ATOM     61  C   UNL A   1      43.972  34.949  32.667  1.00  0.00     0.059 A 
ATOM     62  C   UNL A   1      44.106  35.620  30.338  1.00  0.00     0.059 A 
ATOM     63  F   UNL A   1      43.842  34.014  28.650  1.00  0.00    -0.206 F 
ATOM     64  C   UNL A   1      44.142  35.937  31.696  1.00  0.00     0.060 A 
BRANCH  64  65
ATOM     65  S   UNL A   1      44.432  37.637  32.229  1.00  0.00     0.124 S 
ATOM     66  O   UNL A   1      44.240  38.370  30.982  1.00  0.00    -0.237 OA
ATOM     67  O   UNL A   1      43.398  37.830  33.242  1.00  0.00    -0.237 OA
ATOM     68  O   UNL A   1      45.801  37.606  32.735  1.00  0.00    -0.744 OA
ENDBRANCH  64  65
ENDBRANCH  43  57
BRANCH  44  69
ATOM     69  C   UNL A   1      42.502  23.883  27.779  1.00  0.00     0.058 A 
ATOM     70  C   UNL A   1      42.376  23.666  26.400  1.00  0.00     0.135 A 
ATOM     71  C   UNL A   1      42.493  22.763  28.625  1.00  0.00     0.135 A 
ATOM     72  F   UNL A   1      42.373  24.708  25.556  1.00  0.00    -0.206 F 
ATOM     73  C   UNL A   1      42.240  22.386  25.877  1.00  0.00     0.059 A 
ATOM     74  C   UNL A   1      42.383  21.471  28.124  1.00  0.00     0.059 A 
ATOM     75  F   UNL A   1      42.628  22.921  29.952  1.00  0.00    -0.206 F 
ATOM     76  C   UNL A   1      42.248  21.293  26.748  1.00  0.00     0.060 A 
BRANCH  76  77
ATOM     77  S   UNL A   1      42.132  19.629  26.055  1.00  0.00     0.124 S 
ATOM     78  O   UNL A   1      40.724  19.567  25.681  1.00  0.00    -0.237 OA
ATOM     79  O   UNL A   1      43.084  19.685  24.950  1.00  0.00    -0.237 OA
ATOM     80  O   UNL A   1      42.530  18.776  27.170  1.00  0.00    -0.744 OA
ENDBRANCH  76  77
ENDBRANCH  44  69
BRANCH  56  81
ATOM     81  C   UNL A   1      48.060  27.681  29.570  1.00  0.00     0.058 A 
ATOM     82  C   UNL A   1      48.897  27.918  28.468  1.00  0.00     0.135 A 
ATOM     83  C   UNL A   1      48.641  27.163  30.739  1.00  0.00     0.135 A 
ATOM     84  F   UNL A   1      48.389  28.402  27.325  1.00  0.00    -0.206 F 
ATOM     85  C   UNL A   1      50.258  27.630  28.516  1.00  0.00     0.059 A 
ATOM     86  C   UNL A   1      50.002  26.887  30.815  1.00  0.00     0.059 A 
ATOM     87  F   UNL A   1      47.884  26.925  31.821  1.00  0.00    -0.206 F 
ATOM     88  C   UNL A   1      50.801  27.112  29.694  1.00  0.00     0.060 A 
BRANCH  88  89
ATOM     89  S   UNL A   1      52.571  26.761  29.754  1.00  0.00     0.124 S 
ATOM     90  O   UNL A   1      53.125  28.091  29.985  1.00  0.00    -0.237 OA
ATOM     91  O   UNL A   1      52.671  25.829  30.872  1.00  0.00    -0.237 OA
ATOM     92  O   UNL A   1      52.847  26.186  28.441  1.00  0.00    -0.744 OA
ENDBRANCH  88  89
ENDBRANCH  56  81
ENDBRANCH  30  31
ENDBRANCH  23  25
ENDBRANCH  22  23
ENDBRANCH  21  22
ENDBRANCH   1  21
TORSDOF 17
ENDMDL
MODEL 2
REMARK VINA RESULT:     -10.3      2.208      2.760
REMARK SMILES CN(CC(=O)OCCOC(=O)c1ccc(-c2c3nc(c(-c4c(F)cc(S(=O)(=O)[O-])cc4F)c4ccc([nH]4)c(-c4c(F)cc(S(=O)(=O)[O-])cc4F)c4nc(c(-c5c(F)cc(S(=O)(=O)[O-])cc5F)c5ccc2[nH]5)C=C4)C=C3)cc1)c1nc2cc(N)ccc2[nH]1
REMARK SMILES IDX 7 1 6 2 4 3 5 4 3 5 2 6 1 7 78 8 79 9 87 10 80 11 86 12
REMARK SMILES IDX 81 14 85 15 82 16 84 17 83 18 8 21 9 22 10 23 11 24 12 25
REMARK SMILES IDX 13 26 77 27 14 28 76 29 15 30 16 31 17 32 70 33 18 34 75 35
REMARK SMILES IDX 69 36 71 37 19 38 74 39 68 40 67 41 20 43 54 44 33 45 53 46
REMARK SMILES IDX 34 47 37 48 52 49 72 50 35 51 36 52 51 54 73 55 38 56 21 57
REMARK SMILES IDX 22 58 31 59 23 60 24 61 30 62 32 63 25 64 26 65 27 66 28 67
REMARK SMILES IDX 29 68 55 69 56 70 65 71 57 72 58 73 64 74 66 75 59 76 60 77
REMARK SMILES IDX 61 78 62 79 63 80 39 81 40 82 49 83 41 84 42 85 48 86 50 87
REMARK SMILES IDX 43 88 44 89 45 90 46 91 47 92
REMARK H PARENT 87 13 83 19 83 20 71 42 37 53
REMARK Flexibility Score: inf
ROOT
ATOM      1  C   UNL A   1      34.809  33.699  28.426  1.00  0.00     0.274 C 
ENDROOT
BRANCH   1   2
ATOM      2  O   UNL A   1      33.558  34.405  28.322  1.00  0.00    -0.461 OA
BRANCH   2   3
ATOM      3  C   UNL A   1      33.552  35.636  28.905  1.00  0.00     0.325 C 
ATOM      4  O   UNL A   1      34.129  36.619  28.438  1.00  0.00    -0.250 OA
BRANCH   3   5
ATOM      5  C   UNL A   1      32.833  35.715  30.243  1.00  0.00     0.241 C 
BRANCH   5   6
ATOM      6  N   UNL A   1      33.650  35.999  31.433  1.00  0.00    -0.334 N 
ATOM      7  C   UNL A   1      33.430  37.246  32.132  1.00  0.00     0.147 C 
BRANCH   6   8
ATOM      8  C   UNL A   1      34.468  35.028  31.908  1.00  0.00     0.204 A 
ATOM      9  N   UNL A   1      34.260  33.731  31.934  1.00  0.00    -0.213 NA
ATOM     10  N   UNL A   1      35.681  35.327  32.483  1.00  0.00    -0.324 N 
ATOM     11  C   UNL A   1      35.406  33.175  32.461  1.00  0.00     0.093 A 
ATOM     12  C   UNL A   1      36.305  34.162  32.839  1.00  0.00     0.067 A 
ATOM     13  H   UNL A   1      36.042  36.234  32.616  1.00  0.00     0.170 HD
ATOM     14  C   UNL A   1      35.772  31.831  32.636  1.00  0.00     0.056 A 
ATOM     15  C   UNL A   1      37.544  33.892  33.419  1.00  0.00     0.030 A 
ATOM     16  C   UNL A   1      37.005  31.511  33.220  1.00  0.00     0.034 A 
ATOM     17  C   UNL A   1      37.877  32.540  33.586  1.00  0.00     0.028 A 
BRANCH  16  18
ATOM     18  N   UNL A   1      37.413  30.185  33.295  1.00  0.00    -0.399 N 
ATOM     19  H   UNL A   1      36.871  29.477  32.877  1.00  0.00     0.156 HD
ATOM     20  H   UNL A   1      38.247  29.953  33.765  1.00  0.00     0.156 HD
ENDBRANCH  16  18
ENDBRANCH   6   8
ENDBRANCH   5   6
ENDBRANCH   3   5
ENDBRANCH   2   3
ENDBRANCH   1   2
BRANCH   1  21
ATOM     21  C   UNL A   1      34.583  32.190  28.530  1.00  0.00     0.275 C 
BRANCH  21  22
ATOM     22  O   UNL A   1      35.745  31.551  29.075  1.00  0.00    -0.458 OA
BRANCH  22  23
ATOM     23  C   UNL A   1      35.940  30.281  28.644  1.00  0.00     0.338 C 
ATOM     24  O   UNL A   1      35.066  29.506  28.285  1.00  0.00    -0.246 OA
BRANCH  23  25
ATOM     25  C   UNL A   1      37.382  29.915  28.673  1.00  0.00     0.060 A 
ATOM     26  C   UNL A   1      38.141  29.932  29.848  1.00  0.00     0.016 A 
ATOM     27  C   UNL A   1      38.008  29.623  27.456  1.00  0.00     0.016 A 
ATOM     28  C   UNL A   1      39.517  29.684  29.806  1.00  0.00     0.010 A 
ATOM     29  C   UNL A   1      39.373  29.336  27.417  1.00  0.00     0.010 A 
ATOM     30  C   UNL A   1      40.139  29.362  28.591  1.00  0.00    -0.014 A 
BRANCH  30  31
ATOM     31  C   UNL A   1      41.559  28.933  28.532  1.00  0.00     0.031 A 
ATOM     32  C   UNL A   1      42.675  29.936  28.561  1.00  0.00     0.074 A 
ATOM     33  C   UNL A   1      41.825  27.629  28.326  1.00  0.00     0.049 A 
ATOM     34  N   UNL A   1      43.945  29.760  28.296  1.00  0.00    -0.248 NA
ATOM     35  C   UNL A   1      42.322  31.316  28.929  1.00  0.00     0.031 C 
ATOM     36  C   UNL A   1      40.821  26.562  28.277  1.00  0.00     0.029 A 
ATOM     37  N   UNL A   1      43.009  26.983  28.078  1.00  0.00    -0.354 N 
ATOM     38  C   UNL A   1      44.543  31.006  28.442  1.00  0.00     0.074 A 
ATOM     39  C   UNL A   1      43.494  31.932  28.815  1.00  0.00     0.031 C 
ATOM     40  C   UNL A   1      41.429  25.401  27.990  1.00  0.00     0.029 A 
ATOM     41  C   UNL A   1      42.850  25.651  27.780  1.00  0.00     0.049 A 
ATOM     42  H   UNL A   1      43.886  27.429  28.109  1.00  0.00     0.167 HD
ATOM     43  C   UNL A   1      45.847  31.338  28.276  1.00  0.00     0.037 A 
ATOM     44  C   UNL A   1      43.735  24.738  27.338  1.00  0.00     0.037 A 
ATOM     45  C   UNL A   1      46.886  30.405  27.913  1.00  0.00     0.049 A 
ATOM     46  C   UNL A   1      45.164  25.142  27.119  1.00  0.00     0.074 A 
ATOM     47  C   UNL A   1      48.242  30.643  27.760  1.00  0.00     0.029 A 
ATOM     48  N   UNL A   1      46.688  29.059  27.637  1.00  0.00    -0.354 N 
ATOM     49  N   UNL A   1      45.718  26.320  27.274  1.00  0.00    -0.248 NA
ATOM     50  C   UNL A   1      46.086  24.095  26.660  1.00  0.00     0.031 C 
ATOM     51  C   UNL A   1      48.857  29.452  27.357  1.00  0.00     0.029 A 
ATOM     52  C   UNL A   1      47.891  28.461  27.298  1.00  0.00     0.049 A 
ATOM     53  H   UNL A   1      45.819  28.597  27.677  1.00  0.00     0.167 HD
ATOM     54  C   UNL A   1      47.059  26.152  26.951  1.00  0.00     0.074 A 
ATOM     55  C   UNL A   1      47.234  24.756  26.602  1.00  0.00     0.031 C 
ATOM     56  C   UNL A   1      48.054  27.071  26.951  1.00  0.00     0.037 A 
BRANCH  43  57
ATOM     57  C   UNL A   1      46.241  32.777  28.469  1.00  0.00     0.058 A 
ATOM     58  C   UNL A   1      46.693  33.257  29.707  1.00  0.00     0.135 A 
ATOM     59  C   UNL A   1      46.248  33.664  27.380  1.00  0.00     0.135 A 
ATOM     60  F   UNL A   1      46.699  32.454  30.782  1.00  0.00    -0.206 F 
ATOM     61  C   UNL A   1      47.130  34.569  29.862  1.00  0.00     0.059 A 
ATOM     62  C   UNL A   1      46.698  34.976  27.508  1.00  0.00     0.059 A 
ATOM     63  F   UNL A   1      45.828  33.255  26.173  1.00  0.00    -0.206 F 
ATOM     64  C   UNL A   1      47.131  35.422  28.756  1.00  0.00     0.060 A 
BRANCH  64  65
ATOM     65  S   UNL A   1      47.724  37.114  28.966  1.00  0.00     0.124 S 
ATOM     66  O   UNL A   1      47.204  37.756  27.764  1.00  0.00    -0.237 OA
ATOM     67  O   UNL A   1      47.095  37.515  30.221  1.00  0.00    -0.237 OA
ATOM     68  O   UNL A   1      49.175  36.961  29.019  1.00  0.00    -0.744 OA
ENDBRANCH  64  65
ENDBRANCH  43  57
BRANCH  44  69
ATOM     69  C   UNL A   1      43.277  23.356  27.051  1.00  0.00     0.058 A 
ATOM     70  C   UNL A   1      43.112  22.914  25.731  1.00  0.00     0.135 A 
ATOM     71  C   UNL A   1      43.031  22.443  28.087  1.00  0.00     0.135 A 
ATOM     72  F   UNL A   1      43.330  23.755  24.710  1.00  0.00    -0.206 F 
ATOM     73  C   UNL A   1      42.712  21.613  25.447  1.00  0.00     0.059 A 
ATOM     74  C   UNL A   1      42.654  21.130  27.828  1.00  0.00     0.059 A 
ATOM     75  F   UNL A   1      43.192  22.817  29.366  1.00  0.00    -0.206 F 
ATOM     76  C   UNL A   1      42.488  20.727  26.504  1.00  0.00     0.060 A 
BRANCH  76  77
ATOM     77  S   UNL A   1      42.027  19.022  26.125  1.00  0.00     0.124 S 
ATOM     78  O   UNL A   1      42.296  18.359  27.396  1.00  0.00    -0.237 OA
ATOM     79  O   UNL A   1      40.620  19.154  25.758  1.00  0.00    -0.237 OA
ATOM     80  O   UNL A   1      42.921  18.672  25.026  1.00  0.00    -0.744 OA
ENDBRANCH  76  77
ENDBRANCH  44  69
BRANCH  56  81
ATOM     81  C   UNL A   1      49.431  26.588  26.589  1.00  0.00     0.058 A 
ATOM     82  C   UNL A   1      49.893  26.605  25.264  1.00  0.00     0.135 A 
ATOM     83  C   UNL A   1      50.305  26.124  27.585  1.00  0.00     0.135 A 
ATOM     84  F   UNL A   1      49.091  27.030  24.275  1.00  0.00    -0.206 F 
ATOM     85  C   UNL A   1      51.168  26.158  24.934  1.00  0.00     0.059 A 
ATOM     86  C   UNL A   1      51.592  25.692  27.281  1.00  0.00     0.059 A 
ATOM     87  F   UNL A   1      49.914  26.094  28.868  1.00  0.00    -0.206 F 
ATOM     88  C   UNL A   1      52.010  25.699  25.950  1.00  0.00     0.060 A 
BRANCH  88  89
ATOM     89  S   UNL A   1      53.671  25.140  25.516  1.00  0.00     0.124 S 
ATOM     90  O   UNL A   1      54.429  25.528  26.701  1.00  0.00    -0.237 OA
ATOM     91  O   UNL A   1      53.483  23.706  25.325  1.00  0.00    -0.237 OA
ATOM     92  O   UNL A   1      53.975  25.893  24.303  1.00  0.00    -0.744 OA
ENDBRANCH  88  89
ENDBRANCH  56  81
ENDBRANCH  30  31
ENDBRANCH  23  25
ENDBRANCH  22  23
ENDBRANCH  21  22
ENDBRANCH   1  21
TORSDOF 17
ENDMDL
MODEL 3
REMARK VINA RESULT:     -10.2      4.865     12.834
REMARK SMILES CN(CC(=O)OCCOC(=O)c1ccc(-c2c3nc(c(-c4c(F)cc(S(=O)(=O)[O-])cc4F)c4ccc([nH]4)c(-c4c(F)cc(S(=O)(=O)[O-])cc4F)c4nc(c(-c5c(F)cc(S(=O)(=O)[O-])cc5F)c5ccc2[nH]5)C=C4)C=C3)cc1)c1nc2cc(N)ccc2[nH]1
REMARK SMILES IDX 7 1 6 2 4 3 5 4 3 5 2 6 1 7 78 8 79 9 87 10 80 11 86 12
REMARK SMILES IDX 81 14 85 15 82 16 84 17 83 18 8 21 9 22 10 23 11 24 12 25
REMARK SMILES IDX 13 26 77 27 14 28 76 29 15 30 16 31 17 32 70 33 18 34 75 35
REMARK SMILES IDX 69 36 71 37 19 38 74 39 68 40 67 41 20 43 54 44 33 45 53 46
REMARK SMILES IDX 34 47 37 48 52 49 72 50 35 51 36 52 51 54 73 55 38 56 21 57
REMARK SMILES IDX 22 58 31 59 23 60 24 61 30 62 32 63 25 64 26 65 27 66 28 67
REMARK SMILES IDX 29 68 55 69 56 70 65 71 57 72 58 73 64 74 66 75 59 76 60 77
REMARK SMILES IDX 61 78 62 79 63 80 39 81 40 82 49 83 41 84 42 85 48 86 50 87
REMARK SMILES IDX 43 88 44 89 45 90 46 91 47 92
REMARK H PARENT 87 13 83 19 83 20 71 42 37 53
REMARK Flexibility Score: inf
ROOT
ATOM      1  C   UNL A   1      40.809  21.535  27.515  1.00  0.00     0.274 C 
ENDROOT
BRANCH   1   2
ATOM      2  O   UNL A   1      41.224  20.787  26.357  1.00  0.00    -0.461 OA
BRANCH   2   3
ATOM      3  C   UNL A   1      42.061  19.747  26.623  1.00  0.00     0.325 C 
ATOM      4  O   UNL A   1      42.185  19.233  27.736  1.00  0.00    -0.250 OA
BRANCH   3   5
ATOM      5  C   UNL A   1      42.915  19.288  25.451  1.00  0.00     0.241 C 
BRANCH   5   6
ATOM      6  N   UNL A   1      44.298  19.784  25.389  1.00  0.00    -0.334 N 
ATOM      7  C   UNL A   1      45.358  18.829  25.144  1.00  0.00     0.147 C 
BRANCH   6   8
ATOM      8  C   UNL A   1      44.512  21.122  25.417  1.00  0.00     0.204 A 
ATOM      9  N   UNL A   1      43.948  22.051  24.679  1.00  0.00    -0.213 NA
ATOM     10  N   UNL A   1      45.434  21.685  26.268  1.00  0.00    -0.324 N 
ATOM     11  C   UNL A   1      44.458  23.251  25.126  1.00  0.00     0.093 A 
ATOM     12  C   UNL A   1      45.415  23.045  26.109  1.00  0.00     0.067 A 
ATOM     13  H   UNL A   1      46.013  21.190  26.892  1.00  0.00     0.170 HD
ATOM     14  C   UNL A   1      44.144  24.570  24.760  1.00  0.00     0.056 A 
ATOM     15  C   UNL A   1      46.112  24.080  26.732  1.00  0.00     0.030 A 
ATOM     16  C   UNL A   1      44.822  25.642  25.355  1.00  0.00     0.034 A 
ATOM     17  C   UNL A   1      45.781  25.385  26.339  1.00  0.00     0.028 A 
BRANCH  16  18
ATOM     18  N   UNL A   1      44.438  26.947  25.073  1.00  0.00    -0.399 N 
ATOM     19  H   UNL A   1      43.624  27.119  24.548  1.00  0.00     0.156 HD
ATOM     20  H   UNL A   1      44.981  27.701  25.400  1.00  0.00     0.156 HD
ENDBRANCH  16  18
ENDBRANCH   6   8
ENDBRANCH   5   6
ENDBRANCH   3   5
ENDBRANCH   2   3
ENDBRANCH   1   2
BRANCH   1  21
ATOM     21  C   UNL A   1      41.692  22.766  27.721  1.00  0.00     0.275 C 
BRANCH  21  22
ATOM     22  O   UNL A   1      41.447  23.731  26.689  1.00  0.00    -0.458 OA
BRANCH  22  23
ATOM     23  C   UNL A   1      40.240  24.343  26.769  1.00  0.00     0.338 C 
ATOM     24  O   UNL A   1      39.253  24.066  26.104  1.00  0.00    -0.246 OA
BRANCH  23  25
ATOM     25  C   UNL A   1      40.254  25.437  27.777  1.00  0.00     0.060 A 
ATOM     26  C   UNL A   1      39.317  25.522  28.812  1.00  0.00     0.016 A 
ATOM     27  C   UNL A   1      41.199  26.458  27.622  1.00  0.00     0.016 A 
ATOM     28  C   UNL A   1      39.306  26.626  29.669  1.00  0.00     0.010 A 
ATOM     29  C   UNL A   1      41.215  27.542  28.501  1.00  0.00     0.010 A 
ATOM     30  C   UNL A   1      40.271  27.635  29.533  1.00  0.00    -0.014 A 
BRANCH  30  31
ATOM     31  C   UNL A   1      40.394  28.735  30.523  1.00  0.00     0.031 A 
ATOM     32  C   UNL A   1      41.319  28.620  31.700  1.00  0.00     0.074 A 
ATOM     33  C   UNL A   1      39.563  29.789  30.413  1.00  0.00     0.049 A 
ATOM     34  N   UNL A   1      41.386  29.373  32.768  1.00  0.00    -0.248 NA
ATOM     35  C   UNL A   1      42.291  27.516  31.679  1.00  0.00     0.031 C 
ATOM     36  C   UNL A   1      38.619  30.007  29.314  1.00  0.00     0.029 A 
ATOM     37  N   UNL A   1      39.348  30.852  31.253  1.00  0.00    -0.354 N 
ATOM     38  C   UNL A   1      42.389  28.827  33.559  1.00  0.00     0.074 A 
ATOM     39  C   UNL A   1      42.901  27.673  32.849  1.00  0.00     0.031 C 
ATOM     40  C   UNL A   1      37.909  31.119  29.560  1.00  0.00     0.029 A 
ATOM     41  C   UNL A   1      38.308  31.657  30.855  1.00  0.00     0.049 A 
ATOM     42  H   UNL A   1      39.885  31.021  32.061  1.00  0.00     0.167 HD
ATOM     43  C   UNL A   1      42.834  29.253  34.767  1.00  0.00     0.037 A 
ATOM     44  C   UNL A   1      37.703  32.684  31.482  1.00  0.00     0.037 A 
ATOM     45  C   UNL A   1      42.323  30.409  35.463  1.00  0.00     0.049 A 
ATOM     46  C   UNL A   1      38.185  33.108  32.837  1.00  0.00     0.074 A 
ATOM     47  C   UNL A   1      42.740  30.940  36.673  1.00  0.00     0.029 A 
ATOM     48  N   UNL A   1      41.281  31.210  35.018  1.00  0.00    -0.354 N 
ATOM     49  N   UNL A   1      39.144  32.591  33.568  1.00  0.00    -0.248 NA
ATOM     50  C   UNL A   1      37.502  34.251  33.457  1.00  0.00     0.031 C 
ATOM     51  C   UNL A   1      41.926  32.038  36.977  1.00  0.00     0.029 A 
ATOM     52  C   UNL A   1      41.029  32.216  35.937  1.00  0.00     0.049 A 
ATOM     53  H   UNL A   1      40.791  31.082  34.173  1.00  0.00     0.167 HD
ATOM     54  C   UNL A   1      39.192  33.358  34.726  1.00  0.00     0.074 A 
ATOM     55  C   UNL A   1      38.173  34.380  34.594  1.00  0.00     0.031 C 
ATOM     56  C   UNL A   1      40.011  33.228  35.797  1.00  0.00     0.037 A 
BRANCH  43  57
ATOM     57  C   UNL A   1      43.925  28.463  35.438  1.00  0.00     0.058 A 
ATOM     58  C   UNL A   1      43.637  27.396  36.302  1.00  0.00     0.135 A 
ATOM     59  C   UNL A   1      45.274  28.722  35.143  1.00  0.00     0.135 A 
ATOM     60  F   UNL A   1      42.365  27.111  36.623  1.00  0.00    -0.206 F 
ATOM     61  C   UNL A   1      44.648  26.619  36.859  1.00  0.00     0.059 A 
ATOM     62  C   UNL A   1      46.300  27.945  35.674  1.00  0.00     0.059 A 
ATOM     63  F   UNL A   1      45.605  29.729  34.320  1.00  0.00    -0.206 F 
ATOM     64  C   UNL A   1      45.977  26.899  36.538  1.00  0.00     0.060 A 
BRANCH  64  65
ATOM     65  S   UNL A   1      47.277  25.866  37.248  1.00  0.00     0.124 S 
ATOM     66  O   UNL A   1      48.387  26.809  37.329  1.00  0.00    -0.237 OA
ATOM     67  O   UNL A   1      46.696  25.461  38.524  1.00  0.00    -0.237 OA
ATOM     68  O   UNL A   1      47.434  24.795  36.267  1.00  0.00    -0.744 OA
ENDBRANCH  64  65
ENDBRANCH  43  57
BRANCH  44  69
ATOM     69  C   UNL A   1      36.555  33.362  30.830  1.00  0.00     0.058 A 
ATOM     70  C   UNL A   1      35.248  33.169  31.298  1.00  0.00     0.135 A 
ATOM     71  C   UNL A   1      36.746  34.242  29.754  1.00  0.00     0.135 A 
ATOM     72  F   UNL A   1      35.018  32.332  32.319  1.00  0.00    -0.206 F 
ATOM     73  C   UNL A   1      34.166  33.820  30.716  1.00  0.00     0.059 A 
ATOM     74  C   UNL A   1      35.684  34.924  29.171  1.00  0.00     0.059 A 
ATOM     75  F   UNL A   1      37.983  34.471  29.284  1.00  0.00    -0.206 F 
ATOM     76  C   UNL A   1      34.395  34.699  29.654  1.00  0.00     0.060 A 
BRANCH  76  77
ATOM     77  S   UNL A   1      32.992  35.587  28.944  1.00  0.00     0.124 S 
ATOM     78  O   UNL A   1      33.665  36.652  28.208  1.00  0.00    -0.237 OA
ATOM     79  O   UNL A   1      32.351  34.558  28.132  1.00  0.00    -0.237 OA
ATOM     80  O   UNL A   1      32.236  36.008  30.118  1.00  0.00    -0.744 OA
ENDBRANCH  76  77
ENDBRANCH  44  69
BRANCH  56  81
ATOM     81  C   UNL A   1      39.859  34.238  36.900  1.00  0.00     0.058 A 
ATOM     82  C   UNL A   1      40.432  35.516  36.812  1.00  0.00     0.135 A 
ATOM     83  C   UNL A   1      39.112  33.929  38.048  1.00  0.00     0.135 A 
ATOM     84  F   UNL A   1      41.164  35.856  35.740  1.00  0.00    -0.206 F 
ATOM     85  C   UNL A   1      40.289  36.448  37.835  1.00  0.00     0.059 A 
ATOM     86  C   UNL A   1      38.938  34.853  39.073  1.00  0.00     0.059 A 
ATOM     87  F   UNL A   1      38.538  32.723  38.177  1.00  0.00    -0.206 F 
ATOM     88  C   UNL A   1      39.542  36.105  38.964  1.00  0.00     0.060 A 
BRANCH  88  89
ATOM     89  S   UNL A   1      39.342  37.328  40.278  1.00  0.00     0.124 S 
ATOM     90  O   UNL A   1      38.555  36.582  41.255  1.00  0.00    -0.237 OA
ATOM     91  O   UNL A   1      40.722  37.611  40.659  1.00  0.00    -0.237 OA
ATOM     92  O   UNL A   1      38.644  38.425  39.616  1.00  0.00    -0.744 OA
ENDBRANCH  88  89
ENDBRANCH  56  81
ENDBRANCH  30  31
ENDBRANCH  23  25
ENDBRANCH  22  23
ENDBRANCH  21  22
ENDBRANCH   1  21
TORSDOF 17
ENDMDL
