MODEL 1
REMARK VINA RESULT:     -12.1      0.000      0.000
REMARK SMILES CC(C)Cc1cc2c(cc1Cl)C=C(C(=O)OCCOC(=O)c1ccc(-c3c4nc(c(-c5c(F)cc(S(=O)(=O)[O-])cc5F)c5ccc([nH]5)c(-c5c(F)cc(S(=O)(=O)[O-])cc5F)c5nc(c(-c6c(F)cc(S(=O)(=O)[O-])cc6F)c6ccc3[nH]6)C=C5)C=C4)cc1)[C@H](C(F)(F)F)O2
REMARK SMILES IDX 18 1 17 2 16 3 14 4 15 5 13 6 5 7 6 8 10 9 7 10 9 11 11 12
REMARK SMILES IDX 8 13 93 14 12 15 88 16 4 17 2 18 1 19 3 20 89 21 90 22 91 23
REMARK SMILES IDX 92 24 19 25 20 26 21 27 22 28 23 29 87 30 24 31 86 32 25 33
REMARK SMILES IDX 26 34 27 35 80 36 28 37 85 38 79 39 81 40 29 41 84 42 78 43
REMARK SMILES IDX 77 44 30 46 64 47 43 48 63 49 44 50 47 51 62 52 82 53 45 54
REMARK SMILES IDX 46 55 61 57 83 58 48 59 31 60 32 61 41 62 33 63 34 64 40 65
REMARK SMILES IDX 42 66 35 67 36 68 37 69 38 70 39 71 65 72 66 73 75 74 67 75
REMARK SMILES IDX 68 76 74 77 76 78 69 79 70 80 71 81 72 82 73 83 49 84 50 85
REMARK SMILES IDX 59 86 51 87 52 88 58 89 60 90 53 91 54 92 55 93 56 94 57 95
REMARK H PARENT 81 45 47 56
REMARK Flexibility Score: inf
ROOT
ATOM      1  C   UNL A   1      40.667  22.888  26.464  1.00  0.00     0.275 C 
ENDROOT
BRANCH   1   2
ATOM      2  C   UNL A   1      39.588  21.835  26.195  1.00  0.00     0.275 C 
BRANCH   2   3
ATOM      3  O   UNL A   1      38.316  22.458  25.909  1.00  0.00    -0.459 OA
BRANCH   3   4
ATOM      4  C   UNL A   1      37.408  21.687  25.268  1.00  0.00     0.338 C 
ATOM      5  O   UNL A   1      37.617  20.591  24.785  1.00  0.00    -0.246 OA
BRANCH   4   6
ATOM      6  C   UNL A   1      36.066  22.300  25.336  1.00  0.00     0.087 C 
ATOM      7  C   UNL A   1      32.438  25.763  25.342  1.00  0.00    -0.025 A 
ATOM      8  C   UNL A   1      32.694  24.624  26.143  1.00  0.00     0.052 A 
ATOM      9  C   UNL A   1      33.237  25.984  24.206  1.00  0.00     0.045 A 
ATOM     10  C   UNL A   1      33.783  23.798  25.872  1.00  0.00     0.128 A 
ATOM     11  C   UNL A   1      34.382  25.224  24.004  1.00  0.00     0.032 A 
ATOM     12  Cl  UNL A   1      32.885  27.202  23.033  1.00  0.00    -0.084 Cl
ATOM     13  C   UNL A   1      34.675  24.179  24.876  1.00  0.00     0.019 A 
ATOM     14  O   UNL A   1      33.999  22.677  26.640  1.00  0.00    -0.475 OA
ATOM     15  C   UNL A   1      35.964  23.534  24.833  1.00  0.00     0.027 C 
ATOM     16  C   UNL A   1      34.908  21.666  26.055  1.00  0.00     0.316 C 
BRANCH   7  17
ATOM     17  C   UNL A   1      31.385  26.760  25.776  1.00  0.00     0.040 C 
BRANCH  17  18
ATOM     18  C   UNL A   1      31.981  28.053  26.389  1.00  0.00    -0.013 C 
ATOM     19  C   UNL A   1      31.644  29.332  25.612  1.00  0.00     0.008 C 
ATOM     20  C   UNL A   1      31.489  28.217  27.829  1.00  0.00     0.008 C 
ENDBRANCH  17  18
ENDBRANCH   7  17
BRANCH  16  21
ATOM     21  C   UNL A   1      34.104  20.633  25.244  1.00  0.00     0.430 C 
ATOM     22  F   UNL A   1      34.807  19.509  24.981  1.00  0.00    -0.167 F 
ATOM     23  F   UNL A   1      33.013  20.234  25.951  1.00  0.00    -0.167 F 
ATOM     24  F   UNL A   1      33.660  21.121  24.066  1.00  0.00    -0.167 F 
ENDBRANCH  16  21
ENDBRANCH   4   6
ENDBRANCH   3   4
ENDBRANCH   2   3
ENDBRANCH   1   2
BRANCH   1  25
ATOM     25  O   UNL A   1      40.125  24.218  26.341  1.00  0.00    -0.458 OA
BRANCH  25  26
ATOM     26  C   UNL A   1      41.031  25.214  26.209  1.00  0.00     0.338 C 
ATOM     27  O   UNL A   1      41.694  25.487  25.221  1.00  0.00    -0.246 OA
BRANCH  26  28
ATOM     28  C   UNL A   1      41.016  26.053  27.416  1.00  0.00     0.060 A 
ATOM     29  C   UNL A   1      41.863  27.139  27.595  1.00  0.00     0.016 A 
ATOM     30  C   UNL A   1      40.013  25.803  28.343  1.00  0.00     0.016 A 
ATOM     31  C   UNL A   1      41.699  27.949  28.730  1.00  0.00     0.010 A 
ATOM     32  C   UNL A   1      39.768  26.677  29.398  1.00  0.00     0.010 A 
ATOM     33  C   UNL A   1      40.633  27.746  29.634  1.00  0.00    -0.014 A 
BRANCH  33  34
ATOM     34  C   UNL A   1      40.427  28.637  30.816  1.00  0.00     0.031 A 
ATOM     35  C   UNL A   1      41.308  28.530  32.044  1.00  0.00     0.074 A 
ATOM     36  C   UNL A   1      39.418  29.534  30.808  1.00  0.00     0.049 A 
ATOM     37  N   UNL A   1      41.294  29.257  33.134  1.00  0.00    -0.248 NA
ATOM     38  C   UNL A   1      42.303  27.446  32.075  1.00  0.00     0.031 C 
ATOM     39  C   UNL A   1      38.416  29.670  29.749  1.00  0.00     0.029 A 
ATOM     40  N   UNL A   1      39.079  30.517  31.706  1.00  0.00    -0.354 N 
ATOM     41  C   UNL A   1      42.256  28.707  33.976  1.00  0.00     0.074 A 
ATOM     42  C   UNL A   1      42.781  27.541  33.307  1.00  0.00     0.031 C 
ATOM     43  C   UNL A   1      37.632  30.726  30.013  1.00  0.00     0.029 A 
ATOM     44  C   UNL A   1      38.051  31.326  31.276  1.00  0.00     0.049 A 
ATOM     45  H   UNL A   1      39.528  30.632  32.575  1.00  0.00     0.167 HD
ATOM     46  C   UNL A   1      42.704  29.157  35.175  1.00  0.00     0.037 A 
ATOM     47  C   UNL A   1      37.524  32.441  31.819  1.00  0.00     0.037 A 
ATOM     48  C   UNL A   1      42.235  30.358  35.810  1.00  0.00     0.049 A 
ATOM     49  C   UNL A   1      38.081  32.966  33.112  1.00  0.00     0.074 A 
ATOM     50  C   UNL A   1      42.694  30.953  36.973  1.00  0.00     0.029 A 
ATOM     51  N   UNL A   1      41.209  31.157  35.329  1.00  0.00    -0.354 N 
ATOM     52  N   UNL A   1      39.057  32.484  33.844  1.00  0.00    -0.248 NA
ATOM     53  C   UNL A   1      37.468  34.186  33.657  1.00  0.00     0.031 C 
ATOM     54  C   UNL A   1      41.927  32.099  37.209  1.00  0.00     0.029 A 
ATOM     55  C   UNL A   1      41.012  32.234  36.176  1.00  0.00     0.049 A 
ATOM     56  H   UNL A   1      40.697  30.984  34.507  1.00  0.00     0.167 HD
ATOM     57  C   UNL A   1      39.179  33.344  34.929  1.00  0.00     0.074 A 
ATOM     58  C   UNL A   1      38.194  34.390  34.748  1.00  0.00     0.031 C 
ATOM     59  C   UNL A   1      40.027  33.268  35.983  1.00  0.00     0.037 A 
BRANCH  46  60
ATOM     60  C   UNL A   1      43.799  28.376  35.854  1.00  0.00     0.058 A 
ATOM     61  C   UNL A   1      45.153  28.665  35.620  1.00  0.00     0.135 A 
ATOM     62  C   UNL A   1      43.500  27.365  36.783  1.00  0.00     0.135 A 
ATOM     63  F   UNL A   1      45.499  29.615  34.735  1.00  0.00    -0.206 F 
ATOM     64  C   UNL A   1      46.171  27.960  36.253  1.00  0.00     0.059 A 
ATOM     65  C   UNL A   1      44.503  26.666  37.451  1.00  0.00     0.059 A 
ATOM     66  F   UNL A   1      42.223  27.051  37.052  1.00  0.00    -0.206 F 
ATOM     67  C   UNL A   1      45.835  26.962  37.168  1.00  0.00     0.060 A 
BRANCH  67  68
ATOM     68  S   UNL A   1      47.172  26.065  37.987  1.00  0.00     0.124 S 
ATOM     69  O   UNL A   1      46.789  26.190  39.391  1.00  0.00    -0.237 OA
ATOM     70  O   UNL A   1      47.050  24.729  37.414  1.00  0.00    -0.237 OA
ATOM     71  O   UNL A   1      48.368  26.805  37.597  1.00  0.00    -0.744 OA
ENDBRANCH  67  68
ENDBRANCH  46  60
BRANCH  47  72
ATOM     72  C   UNL A   1      36.456  33.178  31.093  1.00  0.00     0.058 A 
ATOM     73  C   UNL A   1      35.127  33.133  31.543  1.00  0.00     0.135 A 
ATOM     74  C   UNL A   1      36.740  33.970  29.971  1.00  0.00     0.135 A 
ATOM     75  F   UNL A   1      34.805  32.385  32.608  1.00  0.00    -0.206 F 
ATOM     76  C   UNL A   1      34.117  33.846  30.906  1.00  0.00     0.059 A 
ATOM     77  C   UNL A   1      35.749  34.710  29.329  1.00  0.00     0.059 A 
ATOM     78  F   UNL A   1      37.997  34.058  29.510  1.00  0.00    -0.206 F 
ATOM     79  C   UNL A   1      34.440  34.637  29.801  1.00  0.00     0.060 A 
BRANCH  79  80
ATOM     80  S   UNL A   1      33.130  35.612  29.027  1.00  0.00     0.124 S 
ATOM     81  O   UNL A   1      33.901  36.594  28.274  1.00  0.00    -0.237 OA
ATOM     82  O   UNL A   1      32.430  34.607  28.234  1.00  0.00    -0.237 OA
ATOM     83  O   UNL A   1      32.382  36.133  30.166  1.00  0.00    -0.744 OA
ENDBRANCH  79  80
ENDBRANCH  47  72
BRANCH  59  84
ATOM     84  C   UNL A   1      39.931  34.334  37.036  1.00  0.00     0.058 A 
ATOM     85  C   UNL A   1      40.632  35.543  36.910  1.00  0.00     0.135 A 
ATOM     86  C   UNL A   1      39.059  34.188  38.126  1.00  0.00     0.135 A 
ATOM     87  F   UNL A   1      41.481  35.727  35.887  1.00  0.00    -0.206 F 
ATOM     88  C   UNL A   1      40.472  36.572  37.830  1.00  0.00     0.059 A 
ATOM     89  C   UNL A   1      38.868  35.214  39.048  1.00  0.00     0.059 A 
ATOM     90  F   UNL A   1      38.361  33.053  38.287  1.00  0.00    -0.206 F 
ATOM     91  C   UNL A   1      39.581  36.402  38.891  1.00  0.00     0.060 A 
BRANCH  91  92
ATOM     92  S   UNL A   1      39.334  37.775  40.037  1.00  0.00     0.124 S 
ATOM     93  O   UNL A   1      39.175  37.074  41.306  1.00  0.00    -0.237 OA
ATOM     94  O   UNL A   1      40.570  38.535  39.883  1.00  0.00    -0.237 OA
ATOM     95  O   UNL A   1      38.133  38.431  39.528  1.00  0.00    -0.744 OA
ENDBRANCH  91  92
ENDBRANCH  59  84
ENDBRANCH  33  34
ENDBRANCH  26  28
ENDBRANCH  25  26
ENDBRANCH   1  25
TORSDOF 17
ENDMDL
MODEL 2
REMARK VINA RESULT:     -11.7      5.381     10.163
REMARK SMILES CC(C)Cc1cc2c(cc1Cl)C=C(C(=O)OCCOC(=O)c1ccc(-c3c4nc(c(-c5c(F)cc(S(=O)(=O)[O-])cc5F)c5ccc([nH]5)c(-c5c(F)cc(S(=O)(=O)[O-])cc5F)c5nc(c(-c6c(F)cc(S(=O)(=O)[O-])cc6F)c6ccc3[nH]6)C=C5)C=C4)cc1)[C@H](C(F)(F)F)O2
REMARK SMILES IDX 18 1 17 2 16 3 14 4 15 5 13 6 5 7 6 8 10 9 7 10 9 11 11 12
REMARK SMILES IDX 8 13 93 14 12 15 88 16 4 17 2 18 1 19 3 20 89 21 90 22 91 23
REMARK SMILES IDX 92 24 19 25 20 26 21 27 22 28 23 29 87 30 24 31 86 32 25 33
REMARK SMILES IDX 26 34 27 35 80 36 28 37 85 38 79 39 81 40 29 41 84 42 78 43
REMARK SMILES IDX 77 44 30 46 64 47 43 48 63 49 44 50 47 51 62 52 82 53 45 54
REMARK SMILES IDX 46 55 61 57 83 58 48 59 31 60 32 61 41 62 33 63 34 64 40 65
REMARK SMILES IDX 42 66 35 67 36 68 37 69 38 70 39 71 65 72 66 73 75 74 67 75
REMARK SMILES IDX 68 76 74 77 76 78 69 79 70 80 71 81 72 82 73 83 49 84 50 85
REMARK SMILES IDX 59 86 51 87 52 88 58 89 60 90 53 91 54 92 55 93 56 94 57 95
REMARK H PARENT 81 45 47 56
REMARK Flexibility Score: inf
ROOT
ATOM      1  C   UNL A   1      33.336  28.578  26.284  1.00  0.00     0.275 C 
ENDROOT
BRANCH   1   2
ATOM      2  C   UNL A   1      32.687  27.200  26.123  1.00  0.00     0.275 C 
BRANCH   2   3
ATOM      3  O   UNL A   1      33.672  26.199  25.781  1.00  0.00    -0.459 OA
BRANCH   3   4
ATOM      4  C   UNL A   1      33.433  25.493  24.652  1.00  0.00     0.338 C 
ATOM      5  O   UNL A   1      33.181  25.959  23.558  1.00  0.00    -0.246 OA
BRANCH   4   6
ATOM      6  C   UNL A   1      33.644  24.051  24.888  1.00  0.00     0.087 C 
ATOM      7  C   UNL A   1      32.830  19.103  24.999  1.00  0.00    -0.025 A 
ATOM      8  C   UNL A   1      33.370  20.019  25.934  1.00  0.00     0.052 A 
ATOM      9  C   UNL A   1      32.551  19.552  23.696  1.00  0.00     0.045 A 
ATOM     10  C   UNL A   1      33.522  21.363  25.601  1.00  0.00     0.128 A 
ATOM     11  C   UNL A   1      32.601  20.909  23.404  1.00  0.00     0.032 A 
ATOM     12  Cl  UNL A   1      32.105  18.487  22.411  1.00  0.00    -0.084 Cl
ATOM     13  C   UNL A   1      33.026  21.806  24.380  1.00  0.00     0.019 A 
ATOM     14  O   UNL A   1      34.078  22.234  26.510  1.00  0.00    -0.475 OA
ATOM     15  C   UNL A   1      32.861  23.226  24.187  1.00  0.00     0.027 C 
ATOM     16  C   UNL A   1      34.563  23.517  25.952  1.00  0.00     0.316 C 
BRANCH   7  17
ATOM     17  C   UNL A   1      32.477  17.701  25.447  1.00  0.00     0.040 C 
BRANCH  17  18
ATOM     18  C   UNL A   1      33.268  16.600  24.695  1.00  0.00    -0.013 C 
ATOM     19  C   UNL A   1      34.789  16.804  24.697  1.00  0.00     0.008 C 
ATOM     20  C   UNL A   1      32.962  15.232  25.311  1.00  0.00     0.008 C 
ENDBRANCH  17  18
ENDBRANCH   7  17
BRANCH  16  21
ATOM     21  C   UNL A   1      36.046  23.398  25.555  1.00  0.00     0.430 C 
ATOM     22  F   UNL A   1      36.769  24.489  25.893  1.00  0.00    -0.167 F 
ATOM     23  F   UNL A   1      36.620  22.353  26.209  1.00  0.00    -0.167 F 
ATOM     24  F   UNL A   1      36.220  23.187  24.233  1.00  0.00    -0.167 F 
ENDBRANCH  16  21
ENDBRANCH   4   6
ENDBRANCH   3   4
ENDBRANCH   2   3
ENDBRANCH   1   2
BRANCH   1  25
ATOM     25  O   UNL A   1      33.886  28.732  27.607  1.00  0.00    -0.458 OA
BRANCH  25  26
ATOM     26  C   UNL A   1      34.391  29.953  27.898  1.00  0.00     0.338 C 
ATOM     27  O   UNL A   1      33.781  31.007  27.978  1.00  0.00    -0.246 OA
BRANCH  26  28
ATOM     28  C   UNL A   1      35.810  29.823  28.259  1.00  0.00     0.060 A 
ATOM     29  C   UNL A   1      36.237  29.365  29.499  1.00  0.00     0.016 A 
ATOM     30  C   UNL A   1      36.738  30.052  27.252  1.00  0.00     0.016 A 
ATOM     31  C   UNL A   1      37.610  29.167  29.713  1.00  0.00     0.010 A 
ATOM     32  C   UNL A   1      38.083  29.736  27.422  1.00  0.00     0.010 A 
ATOM     33  C   UNL A   1      38.551  29.323  28.671  1.00  0.00    -0.014 A 
BRANCH  33  34
ATOM     34  C   UNL A   1      40.007  29.065  28.883  1.00  0.00     0.031 A 
ATOM     35  C   UNL A   1      40.630  27.730  28.528  1.00  0.00     0.074 A 
ATOM     36  C   UNL A   1      40.781  30.025  29.432  1.00  0.00     0.049 A 
ATOM     37  N   UNL A   1      41.884  27.359  28.605  1.00  0.00    -0.248 NA
ATOM     38  C   UNL A   1      39.728  26.661  28.068  1.00  0.00     0.031 C 
ATOM     39  C   UNL A   1      40.301  31.314  29.934  1.00  0.00     0.029 A 
ATOM     40  N   UNL A   1      42.139  30.079  29.640  1.00  0.00    -0.354 N 
ATOM     41  C   UNL A   1      41.914  26.021  28.224  1.00  0.00     0.074 A 
ATOM     42  C   UNL A   1      40.546  25.621  27.992  1.00  0.00     0.031 C 
ATOM     43  C   UNL A   1      41.350  32.062  30.310  1.00  0.00     0.029 A 
ATOM     44  C   UNL A   1      42.577  31.297  30.108  1.00  0.00     0.049 A 
ATOM     45  H   UNL A   1      42.741  29.318  29.470  1.00  0.00     0.167 HD
ATOM     46  C   UNL A   1      42.982  25.208  28.033  1.00  0.00     0.037 A 
ATOM     47  C   UNL A   1      43.825  31.760  30.322  1.00  0.00     0.037 A 
ATOM     48  C   UNL A   1      44.349  25.624  28.193  1.00  0.00     0.049 A 
ATOM     49  C   UNL A   1      45.001  30.868  30.036  1.00  0.00     0.074 A 
ATOM     50  C   UNL A   1      45.503  24.908  27.927  1.00  0.00     0.029 A 
ATOM     51  N   UNL A   1      44.746  26.872  28.647  1.00  0.00    -0.354 N 
ATOM     52  N   UNL A   1      45.010  29.638  29.584  1.00  0.00    -0.248 NA
ATOM     53  C   UNL A   1      46.338  31.426  30.287  1.00  0.00     0.031 C 
ATOM     54  C   UNL A   1      46.601  25.715  28.245  1.00  0.00     0.029 A 
ATOM     55  C   UNL A   1      46.129  26.944  28.680  1.00  0.00     0.049 A 
ATOM     56  H   UNL A   1      44.137  27.599  28.908  1.00  0.00     0.167 HD
ATOM     57  C   UNL A   1      46.348  29.276  29.491  1.00  0.00     0.074 A 
ATOM     58  C   UNL A   1      47.123  30.426  29.910  1.00  0.00     0.031 C 
ATOM     59  C   UNL A   1      46.886  28.095  29.100  1.00  0.00     0.037 A 
BRANCH  46  60
ATOM     60  C   UNL A   1      42.718  23.797  27.571  1.00  0.00     0.058 A 
ATOM     61  C   UNL A   1      42.627  23.482  26.206  1.00  0.00     0.135 A 
ATOM     62  C   UNL A   1      42.606  22.743  28.492  1.00  0.00     0.135 A 
ATOM     63  F   UNL A   1      42.717  24.452  25.281  1.00  0.00    -0.206 F 
ATOM     64  C   UNL A   1      42.399  22.181  25.770  1.00  0.00     0.059 A 
ATOM     65  C   UNL A   1      42.407  21.427  28.077  1.00  0.00     0.059 A 
ATOM     66  F   UNL A   1      42.693  22.984  29.810  1.00  0.00    -0.206 F 
ATOM     67  C   UNL A   1      42.290  21.161  26.714  1.00  0.00     0.060 A 
BRANCH  67  68
ATOM     68  S   UNL A   1      42.004  19.477  26.126  1.00  0.00     0.124 S 
ATOM     69  O   UNL A   1      40.572  19.507  25.842  1.00  0.00    -0.237 OA
ATOM     70  O   UNL A   1      42.879  19.400  24.962  1.00  0.00    -0.237 OA
ATOM     71  O   UNL A   1      42.400  18.648  27.260  1.00  0.00    -0.744 OA
ENDBRANCH  67  68
ENDBRANCH  46  60
BRANCH  47  72
ATOM     72  C   UNL A   1      44.022  33.167  30.762  1.00  0.00     0.058 A 
ATOM     73  C   UNL A   1      44.091  34.205  29.820  1.00  0.00     0.135 A 
ATOM     74  C   UNL A   1      44.102  33.509  32.120  1.00  0.00     0.135 A 
ATOM     75  F   UNL A   1      44.025  33.927  28.510  1.00  0.00    -0.206 F 
ATOM     76  C   UNL A   1      44.235  35.533  30.208  1.00  0.00     0.059 A 
ATOM     77  C   UNL A   1      44.224  34.833  32.533  1.00  0.00     0.059 A 
ATOM     78  F   UNL A   1      44.026  32.554  33.060  1.00  0.00    -0.206 F 
ATOM     79  C   UNL A   1      44.294  35.838  31.569  1.00  0.00     0.060 A 
BRANCH  79  80
ATOM     80  S   UNL A   1      44.409  37.573  32.060  1.00  0.00     0.124 S 
ATOM     81  O   UNL A   1      45.806  37.671  32.468  1.00  0.00    -0.237 OA
ATOM     82  O   UNL A   1      44.057  38.264  30.823  1.00  0.00    -0.237 OA
ATOM     83  O   UNL A   1      43.427  37.684  33.133  1.00  0.00    -0.744 OA
ENDBRANCH  79  80
ENDBRANCH  47  72
BRANCH  59  84
ATOM     84  C   UNL A   1      48.382  27.970  29.112  1.00  0.00     0.058 A 
ATOM     85  C   UNL A   1      49.053  27.395  30.201  1.00  0.00     0.135 A 
ATOM     86  C   UNL A   1      49.140  28.337  27.989  1.00  0.00     0.135 A 
ATOM     87  F   UNL A   1      48.372  27.035  31.300  1.00  0.00    -0.206 F 
ATOM     88  C   UNL A   1      50.428  27.187  30.178  1.00  0.00     0.059 A 
ATOM     89  C   UNL A   1      50.514  28.118  27.936  1.00  0.00     0.059 A 
ATOM     90  F   UNL A   1      48.543  28.883  26.918  1.00  0.00    -0.206 F 
ATOM     91  C   UNL A   1      51.148  27.544  29.037  1.00  0.00     0.060 A 
BRANCH  91  92
ATOM     92  S   UNL A   1      52.921  27.204  28.997  1.00  0.00     0.124 S 
ATOM     93  O   UNL A   1      53.194  26.896  30.397  1.00  0.00    -0.237 OA
ATOM     94  O   UNL A   1      53.000  26.078  28.072  1.00  0.00    -0.237 OA
ATOM     95  O   UNL A   1      53.496  28.452  28.506  1.00  0.00    -0.744 OA
ENDBRANCH  91  92
ENDBRANCH  59  84
ENDBRANCH  33  34
ENDBRANCH  26  28
ENDBRANCH  25  26
ENDBRANCH   1  25
TORSDOF 17
ENDMDL
MODEL 3
REMARK VINA RESULT:     -11.7      5.354     10.162
REMARK SMILES CC(C)Cc1cc2c(cc1Cl)C=C(C(=O)OCCOC(=O)c1ccc(-c3c4nc(c(-c5c(F)cc(S(=O)(=O)[O-])cc5F)c5ccc([nH]5)c(-c5c(F)cc(S(=O)(=O)[O-])cc5F)c5nc(c(-c6c(F)cc(S(=O)(=O)[O-])cc6F)c6ccc3[nH]6)C=C5)C=C4)cc1)[C@H](C(F)(F)F)O2
REMARK SMILES IDX 18 1 17 2 16 3 14 4 15 5 13 6 5 7 6 8 10 9 7 10 9 11 11 12
REMARK SMILES IDX 8 13 93 14 12 15 88 16 4 17 2 18 1 19 3 20 89 21 90 22 91 23
REMARK SMILES IDX 92 24 19 25 20 26 21 27 22 28 23 29 87 30 24 31 86 32 25 33
REMARK SMILES IDX 26 34 27 35 80 36 28 37 85 38 79 39 81 40 29 41 84 42 78 43
REMARK SMILES IDX 77 44 30 46 64 47 43 48 63 49 44 50 47 51 62 52 82 53 45 54
REMARK SMILES IDX 46 55 61 57 83 58 48 59 31 60 32 61 41 62 33 63 34 64 40 65
REMARK SMILES IDX 42 66 35 67 36 68 37 69 38 70 39 71 65 72 66 73 75 74 67 75
REMARK SMILES IDX 68 76 74 77 76 78 69 79 70 80 71 81 72 82 73 83 49 84 50 85
REMARK SMILES IDX 59 86 51 87 52 88 58 89 60 90 53 91 54 92 55 93 56 94 57 95
REMARK H PARENT 81 45 47 56
REMARK Flexibility Score: inf
ROOT
ATOM      1  C   UNL A   1      32.810  28.929  27.065  1.00  0.00     0.275 C 
ENDROOT
BRANCH   1   2
ATOM      2  C   UNL A   1      32.898  29.310  25.585  1.00  0.00     0.275 C 
BRANCH   2   3
ATOM      3  O   UNL A   1      33.994  28.626  24.937  1.00  0.00    -0.459 OA
BRANCH   3   4
ATOM      4  C   UNL A   1      33.757  28.178  23.683  1.00  0.00     0.338 C 
ATOM      5  O   UNL A   1      33.716  28.861  22.677  1.00  0.00    -0.246 OA
BRANCH   4   6
ATOM      6  C   UNL A   1      33.676  26.704  23.664  1.00  0.00     0.087 C 
ATOM      7  C   UNL A   1      34.510  21.902  24.846  1.00  0.00    -0.025 A 
ATOM      8  C   UNL A   1      34.397  22.593  23.616  1.00  0.00     0.052 A 
ATOM      9  C   UNL A   1      34.220  22.590  26.038  1.00  0.00     0.045 A 
ATOM     10  C   UNL A   1      34.108  23.956  23.594  1.00  0.00     0.128 A 
ATOM     11  C   UNL A   1      34.041  23.967  26.018  1.00  0.00     0.032 A 
ATOM     12  Cl  UNL A   1      34.103  21.805  27.572  1.00  0.00    -0.084 Cl
ATOM     13  C   UNL A   1      34.050  24.643  24.801  1.00  0.00     0.019 A 
ATOM     14  O   UNL A   1      33.970  24.606  22.388  1.00  0.00    -0.475 OA
ATOM     15  C   UNL A   1      34.106  26.083  24.767  1.00  0.00     0.027 C 
ATOM     16  C   UNL A   1      33.286  25.917  22.444  1.00  0.00     0.316 C 
BRANCH   7  17
ATOM     17  C   UNL A   1      35.030  20.480  24.859  1.00  0.00     0.040 C 
BRANCH  17  18
ATOM     18  C   UNL A   1      33.904  19.416  24.924  1.00  0.00    -0.013 C 
ATOM     19  C   UNL A   1      32.633  19.795  24.153  1.00  0.00     0.008 C 
ATOM     20  C   UNL A   1      34.422  18.082  24.380  1.00  0.00     0.008 C 
ENDBRANCH  17  18
ENDBRANCH   7  17
BRANCH  16  21
ATOM     21  C   UNL A   1      31.773  25.738  22.221  1.00  0.00     0.430 C 
ATOM     22  F   UNL A   1      31.027  26.326  23.182  1.00  0.00    -0.167 F 
ATOM     23  F   UNL A   1      31.402  26.323  21.051  1.00  0.00    -0.167 F 
ATOM     24  F   UNL A   1      31.402  24.441  22.154  1.00  0.00    -0.167 F 
ENDBRANCH  16  21
ENDBRANCH   4   6
ENDBRANCH   3   4
ENDBRANCH   2   3
ENDBRANCH   1   2
BRANCH   1  25
ATOM     25  O   UNL A   1      34.122  28.887  27.661  1.00  0.00    -0.458 OA
BRANCH  25  26
ATOM     26  C   UNL A   1      34.624  30.076  28.068  1.00  0.00     0.338 C 
ATOM     27  O   UNL A   1      34.013  31.120  28.235  1.00  0.00    -0.246 OA
BRANCH  26  28
ATOM     28  C   UNL A   1      36.037  29.911  28.437  1.00  0.00     0.060 A 
ATOM     29  C   UNL A   1      36.447  29.473  29.689  1.00  0.00     0.016 A 
ATOM     30  C   UNL A   1      36.974  30.084  27.427  1.00  0.00     0.016 A 
ATOM     31  C   UNL A   1      37.813  29.237  29.912  1.00  0.00     0.010 A 
ATOM     32  C   UNL A   1      38.308  29.730  27.609  1.00  0.00     0.010 A 
ATOM     33  C   UNL A   1      38.760  29.336  28.869  1.00  0.00    -0.014 A 
BRANCH  33  34
ATOM     34  C   UNL A   1      40.207  29.038  29.092  1.00  0.00     0.031 A 
ATOM     35  C   UNL A   1      40.804  27.701  28.705  1.00  0.00     0.074 A 
ATOM     36  C   UNL A   1      40.995  29.963  29.680  1.00  0.00     0.049 A 
ATOM     37  N   UNL A   1      42.048  27.298  28.787  1.00  0.00    -0.248 NA
ATOM     38  C   UNL A   1      39.885  26.667  28.201  1.00  0.00     0.031 C 
ATOM     39  C   UNL A   1      40.538  31.247  30.215  1.00  0.00     0.029 A 
ATOM     40  N   UNL A   1      42.351  29.979  29.907  1.00  0.00    -0.354 N 
ATOM     41  C   UNL A   1      42.053  25.971  28.366  1.00  0.00     0.074 A 
ATOM     42  C   UNL A   1      40.679  25.611  28.104  1.00  0.00     0.031 C 
ATOM     43  C   UNL A   1      41.599  31.959  30.627  1.00  0.00     0.029 A 
ATOM     44  C   UNL A   1      42.810  31.172  30.417  1.00  0.00     0.049 A 
ATOM     45  H   UNL A   1      42.937  29.210  29.722  1.00  0.00     0.167 HD
ATOM     46  C   UNL A   1      43.104  25.140  28.163  1.00  0.00     0.037 A 
ATOM     47  C   UNL A   1      44.065  31.599  30.661  1.00  0.00     0.037 A 
ATOM     48  C   UNL A   1      44.478  25.520  28.354  1.00  0.00     0.049 A 
ATOM     49  C   UNL A   1      45.224  30.690  30.363  1.00  0.00     0.074 A 
ATOM     50  C   UNL A   1      45.620  24.785  28.081  1.00  0.00     0.029 A 
ATOM     51  N   UNL A   1      44.898  26.744  28.851  1.00  0.00    -0.354 N 
ATOM     52  N   UNL A   1      45.211  29.474  29.875  1.00  0.00    -0.248 NA
ATOM     53  C   UNL A   1      46.570  31.209  30.649  1.00  0.00     0.031 C 
ATOM     54  C   UNL A   1      46.731  25.557  28.438  1.00  0.00     0.029 A 
ATOM     55  C   UNL A   1      46.281  26.783  28.904  1.00  0.00     0.049 A 
ATOM     56  H   UNL A   1      44.301  27.476  29.126  1.00  0.00     0.167 HD
ATOM     57  C   UNL A   1      46.542  29.084  29.788  1.00  0.00     0.074 A 
ATOM     58  C   UNL A   1      47.338  30.203  30.252  1.00  0.00     0.031 C 
ATOM     59  C   UNL A   1      47.058  27.903  29.368  1.00  0.00     0.037 A 
BRANCH  46  60
ATOM     60  C   UNL A   1      42.815  23.751  27.656  1.00  0.00     0.058 A 
ATOM     61  C   UNL A   1      42.612  22.680  28.541  1.00  0.00     0.135 A 
ATOM     62  C   UNL A   1      42.690  23.493  26.281  1.00  0.00     0.135 A 
ATOM     63  F   UNL A   1      42.729  22.866  29.867  1.00  0.00    -0.206 F 
ATOM     64  C   UNL A   1      42.330  21.397  28.083  1.00  0.00     0.059 A 
ATOM     65  C   UNL A   1      42.379  22.222  25.801  1.00  0.00     0.059 A 
ATOM     66  F   UNL A   1      42.866  24.481  25.389  1.00  0.00    -0.206 F 
ATOM     67  C   UNL A   1      42.216  21.179  26.710  1.00  0.00     0.060 A 
BRANCH  67  68
ATOM     68  S   UNL A   1      41.839  19.507  26.137  1.00  0.00     0.124 S 
ATOM     69  O   UNL A   1      42.196  18.711  27.309  1.00  0.00    -0.237 OA
ATOM     70  O   UNL A   1      40.414  19.593  25.841  1.00  0.00    -0.237 OA
ATOM     71  O   UNL A   1      42.710  19.340  24.978  1.00  0.00    -0.744 OA
ENDBRANCH  67  68
ENDBRANCH  46  60
BRANCH  47  72
ATOM     72  C   UNL A   1      44.288  32.987  31.146  1.00  0.00     0.058 A 
ATOM     73  C   UNL A   1      44.397  34.051  30.237  1.00  0.00     0.135 A 
ATOM     74  C   UNL A   1      44.354  33.287  32.515  1.00  0.00     0.135 A 
ATOM     75  F   UNL A   1      44.346  33.813  28.918  1.00  0.00    -0.206 F 
ATOM     76  C   UNL A   1      44.566  35.363  30.667  1.00  0.00     0.059 A 
ATOM     77  C   UNL A   1      44.501  34.596  32.969  1.00  0.00     0.059 A 
ATOM     78  F   UNL A   1      44.240  32.307  33.424  1.00  0.00    -0.206 F 
ATOM     79  C   UNL A   1      44.610  35.626  32.037  1.00  0.00     0.060 A 
BRANCH  79  80
ATOM     80  S   UNL A   1      44.758  37.342  32.581  1.00  0.00     0.124 S 
ATOM     81  O   UNL A   1      44.145  37.286  33.903  1.00  0.00    -0.237 OA
ATOM     82  O   UNL A   1      46.204  37.547  32.557  1.00  0.00    -0.237 OA
ATOM     83  O   UNL A   1      44.012  38.081  31.568  1.00  0.00    -0.744 OA
ENDBRANCH  79  80
ENDBRANCH  47  72
BRANCH  59  84
ATOM     84  C   UNL A   1      48.551  27.744  29.395  1.00  0.00     0.058 A 
ATOM     85  C   UNL A   1      49.345  28.169  28.320  1.00  0.00     0.135 A 
ATOM     86  C   UNL A   1      49.199  27.253  30.539  1.00  0.00     0.135 A 
ATOM     87  F   UNL A   1      48.771  28.640  27.201  1.00  0.00    -0.206 F 
ATOM     88  C   UNL A   1      50.733  28.114  28.378  1.00  0.00     0.059 A 
ATOM     89  C   UNL A   1      50.587  27.209  30.627  1.00  0.00     0.059 A 
ATOM     90  F   UNL A   1      48.483  26.841  31.597  1.00  0.00    -0.206 F 
ATOM     91  C   UNL A   1      51.345  27.640  29.539  1.00  0.00     0.060 A 
BRANCH  91  92
ATOM     92  S   UNL A   1      53.149  27.641  29.624  1.00  0.00     0.124 S 
ATOM     93  O   UNL A   1      53.409  28.874  30.358  1.00  0.00    -0.237 OA
ATOM     94  O   UNL A   1      53.427  26.402  30.344  1.00  0.00    -0.237 OA
ATOM     95  O   UNL A   1      53.555  27.647  28.221  1.00  0.00    -0.744 OA
ENDBRANCH  91  92
ENDBRANCH  59  84
ENDBRANCH  33  34
ENDBRANCH  26  28
ENDBRANCH  25  26
ENDBRANCH   1  25
TORSDOF 17
ENDMDL
