MODEL 1
REMARK VINA RESULT:     -10.9      0.000      0.000
REMARK SMILES C[C@H](CC(=O)NC[C@@]1(C)CCCO1)CC(=O)OCCOC(=O)c1ccc(-c2c3nc(c(-c4c(F)cc(S(=O)(=O)[O-])cc4F)c4ccc([nH]4)c(-c4c(F)cc(S(=O)(=O)[O-])cc4F)c4nc(c(-c5c(F)cc(S(=O)(=O)[O-])cc5F)c5ccc2[nH]5)C=C4)C=C3)cc1
REMARK SMILES IDX 18 1 17 2 15 3 16 4 14 5 2 6 1 7 3 8 4 9 5 10 6 11 7 13 8 14
REMARK SMILES IDX 9 15 10 16 13 17 11 18 12 19 19 20 20 21 21 22 22 23 23 24
REMARK SMILES IDX 24 25 88 26 25 27 87 28 26 29 27 30 28 31 81 32 29 33 86 34
REMARK SMILES IDX 80 35 82 36 30 37 85 38 79 39 78 40 31 42 65 43 44 44 64 45
REMARK SMILES IDX 45 46 48 47 63 48 83 49 46 50 47 51 62 53 84 54 49 55 32 56
REMARK SMILES IDX 33 57 42 58 34 59 35 60 41 61 43 62 36 63 37 64 38 65 39 66
REMARK SMILES IDX 40 67 66 68 67 69 76 70 68 71 69 72 75 73 77 74 70 75 71 76
REMARK SMILES IDX 72 77 73 78 74 79 50 80 51 81 60 82 52 83 53 84 59 85 61 86
REMARK SMILES IDX 54 87 55 88 56 89 57 90 58 91
REMARK H PARENT 6 12 82 41 48 52
REMARK Flexibility Score: inf
ROOT
ATOM      1  C   UNL A   1      39.864  21.216  26.141  1.00  0.00     0.274 C 
ENDROOT
BRANCH   1   2
ATOM      2  O   UNL A   1      38.592  21.825  25.851  1.00  0.00    -0.462 OA
BRANCH   2   3
ATOM      3  C   UNL A   1      37.777  21.134  25.012  1.00  0.00     0.306 C 
ATOM      4  O   UNL A   1      37.842  19.931  24.792  1.00  0.00    -0.252 OA
BRANCH   3   5
ATOM      5  C   UNL A   1      36.844  22.057  24.270  1.00  0.00     0.126 C 
BRANCH   5   6
ATOM      6  C   UNL A   1      35.490  22.421  24.927  1.00  0.00     0.006 C 
ATOM      7  C   UNL A   1      35.689  23.861  25.428  1.00  0.00     0.009 C 
BRANCH   6   8
ATOM      8  C   UNL A   1      35.133  21.493  26.103  1.00  0.00     0.104 C 
BRANCH   8   9
ATOM      9  C   UNL A   1      33.681  21.237  26.506  1.00  0.00     0.220 C 
ATOM     10  O   UNL A   1      33.278  21.686  27.589  1.00  0.00    -0.275 OA
ATOM     11  N   UNL A   1      32.723  20.679  25.737  1.00  0.00    -0.353 N 
ATOM     12  H   UNL A   1      31.886  20.550  26.241  1.00  0.00     0.163 HD
BRANCH  11  13
ATOM     13  C   UNL A   1      32.595  20.216  24.362  1.00  0.00     0.151 C 
BRANCH  13  14
ATOM     14  C   UNL A   1      32.856  18.698  24.140  1.00  0.00     0.083 C 
ATOM     15  C   UNL A   1      32.336  18.216  22.778  1.00  0.00     0.044 C 
ATOM     16  C   UNL A   1      34.306  18.278  24.380  1.00  0.00     0.039 C 
ATOM     17  O   UNL A   1      32.113  17.948  25.135  1.00  0.00    -0.373 OA
ATOM     18  C   UNL A   1      34.184  16.819  24.740  1.00  0.00     0.031 C 
ATOM     19  C   UNL A   1      32.865  16.769  25.484  1.00  0.00     0.161 C 
ENDBRANCH  13  14
ENDBRANCH  11  13
ENDBRANCH   8   9
ENDBRANCH   6   8
ENDBRANCH   5   6
ENDBRANCH   3   5
ENDBRANCH   2   3
ENDBRANCH   1   2
BRANCH   1  20
ATOM     20  C   UNL A   1      41.011  22.228  26.227  1.00  0.00     0.275 C 
BRANCH  20  21
ATOM     21  O   UNL A   1      40.621  23.459  26.860  1.00  0.00    -0.458 OA
BRANCH  21  22
ATOM     22  C   UNL A   1      41.472  24.494  26.675  1.00  0.00     0.338 C 
ATOM     23  O   UNL A   1      42.318  24.596  25.794  1.00  0.00    -0.246 OA
BRANCH  22  24
ATOM     24  C   UNL A   1      41.192  25.584  27.623  1.00  0.00     0.060 A 
ATOM     25  C   UNL A   1      42.159  26.584  27.771  1.00  0.00     0.016 A 
ATOM     26  C   UNL A   1      40.043  25.590  28.416  1.00  0.00     0.016 A 
ATOM     27  C   UNL A   1      41.999  27.577  28.733  1.00  0.00     0.010 A 
ATOM     28  C   UNL A   1      39.877  26.593  29.375  1.00  0.00     0.010 A 
ATOM     29  C   UNL A   1      40.864  27.581  29.554  1.00  0.00    -0.014 A 
BRANCH  29  30
ATOM     30  C   UNL A   1      40.728  28.592  30.630  1.00  0.00     0.031 A 
ATOM     31  C   UNL A   1      41.609  28.515  31.845  1.00  0.00     0.074 A 
ATOM     32  C   UNL A   1      39.820  29.579  30.513  1.00  0.00     0.049 A 
ATOM     33  N   UNL A   1      41.595  29.255  32.924  1.00  0.00    -0.248 NA
ATOM     34  C   UNL A   1      42.639  27.463  31.847  1.00  0.00     0.031 C 
ATOM     35  C   UNL A   1      38.930  29.776  29.370  1.00  0.00     0.029 A 
ATOM     36  N   UNL A   1      39.492  30.596  31.374  1.00  0.00    -0.354 N 
ATOM     37  C   UNL A   1      42.599  28.751  33.742  1.00  0.00     0.074 A 
ATOM     38  C   UNL A   1      43.191  27.630  33.042  1.00  0.00     0.031 C 
ATOM     39  C   UNL A   1      38.152  30.847  29.601  1.00  0.00     0.029 A 
ATOM     40  C   UNL A   1      38.461  31.385  30.923  1.00  0.00     0.049 A 
ATOM     41  H   UNL A   1      39.951  30.747  32.231  1.00  0.00     0.167 HD
ATOM     42  C   UNL A   1      42.992  29.188  34.963  1.00  0.00     0.037 A 
ATOM     43  C   UNL A   1      37.820  32.409  31.520  1.00  0.00     0.037 A 
ATOM     44  C   UNL A   1      42.407  30.309  35.651  1.00  0.00     0.049 A 
ATOM     45  C   UNL A   1      38.245  32.846  32.896  1.00  0.00     0.074 A 
ATOM     46  C   UNL A   1      42.749  30.837  36.884  1.00  0.00     0.029 A 
ATOM     47  N   UNL A   1      41.355  31.074  35.169  1.00  0.00    -0.354 N 
ATOM     48  N   UNL A   1      39.201  32.365  33.654  1.00  0.00    -0.248 NA
ATOM     49  C   UNL A   1      37.504  33.962  33.497  1.00  0.00     0.031 C 
ATOM     50  C   UNL A   1      41.882  31.899  37.164  1.00  0.00     0.029 A 
ATOM     51  C   UNL A   1      41.027  32.060  36.087  1.00  0.00     0.049 A 
ATOM     52  H   UNL A   1      40.908  30.938  34.302  1.00  0.00     0.167 HD
ATOM     53  C   UNL A   1      39.192  33.136  34.812  1.00  0.00     0.074 A 
ATOM     54  C   UNL A   1      38.140  34.120  34.650  1.00  0.00     0.031 C 
ATOM     55  C   UNL A   1      39.983  33.039  35.909  1.00  0.00     0.037 A 
BRANCH  42  56
ATOM     56  C   UNL A   1      44.100  28.435  35.644  1.00  0.00     0.058 A 
ATOM     57  C   UNL A   1      45.450  28.762  35.440  1.00  0.00     0.135 A 
ATOM     58  C   UNL A   1      43.806  27.395  36.542  1.00  0.00     0.135 A 
ATOM     59  F   UNL A   1      45.786  29.737  34.580  1.00  0.00    -0.206 F 
ATOM     60  C   UNL A   1      46.471  28.070  36.083  1.00  0.00     0.059 A 
ATOM     61  C   UNL A   1      44.810  26.704  37.213  1.00  0.00     0.059 A 
ATOM     62  F   UNL A   1      42.532  27.041  36.773  1.00  0.00    -0.206 F 
ATOM     63  C   UNL A   1      46.141  27.039  36.966  1.00  0.00     0.060 A 
BRANCH  63  64
ATOM     64  S   UNL A   1      47.476  26.149  37.793  1.00  0.00     0.124 S 
ATOM     65  O   UNL A   1      47.337  26.629  39.165  1.00  0.00    -0.237 OA
ATOM     66  O   UNL A   1      47.109  24.755  37.570  1.00  0.00    -0.237 OA
ATOM     67  O   UNL A   1      48.672  26.599  37.089  1.00  0.00    -0.744 OA
ENDBRANCH  63  64
ENDBRANCH  42  56
BRANCH  43  68
ATOM     68  C   UNL A   1      36.698  33.086  30.821  1.00  0.00     0.058 A 
ATOM     69  C   UNL A   1      35.369  32.870  31.211  1.00  0.00     0.135 A 
ATOM     70  C   UNL A   1      36.933  33.967  29.754  1.00  0.00     0.135 A 
ATOM     71  F   UNL A   1      35.095  32.028  32.220  1.00  0.00    -0.206 F 
ATOM     72  C   UNL A   1      34.309  33.493  30.561  1.00  0.00     0.059 A 
ATOM     73  C   UNL A   1      35.891  34.620  29.103  1.00  0.00     0.059 A 
ATOM     74  F   UNL A   1      38.189  34.215  29.350  1.00  0.00    -0.206 F 
ATOM     75  C   UNL A   1      34.582  34.369  29.508  1.00  0.00     0.060 A 
BRANCH  75  76
ATOM     76  S   UNL A   1      33.203  35.212  28.702  1.00  0.00     0.124 S 
ATOM     77  O   UNL A   1      32.641  34.141  27.887  1.00  0.00    -0.237 OA
ATOM     78  O   UNL A   1      32.395  35.640  29.840  1.00  0.00    -0.237 OA
ATOM     79  O   UNL A   1      33.856  36.290  27.966  1.00  0.00    -0.744 OA
ENDBRANCH  75  76
ENDBRANCH  43  68
BRANCH  55  80
ATOM     80  C   UNL A   1      39.770  34.044  37.007  1.00  0.00     0.058 A 
ATOM     81  C   UNL A   1      39.019  33.739  38.151  1.00  0.00     0.135 A 
ATOM     82  C   UNL A   1      40.365  35.313  36.931  1.00  0.00     0.135 A 
ATOM     83  F   UNL A   1      38.423  32.541  38.270  1.00  0.00    -0.206 F 
ATOM     84  C   UNL A   1      38.846  34.666  39.175  1.00  0.00     0.059 A 
ATOM     85  C   UNL A   1      40.226  36.248  37.952  1.00  0.00     0.059 A 
ATOM     86  F   UNL A   1      41.102  35.653  35.861  1.00  0.00    -0.206 F 
ATOM     87  C   UNL A   1      39.454  35.918  39.067  1.00  0.00     0.060 A 
BRANCH  87  88
ATOM     88  S   UNL A   1      39.251  37.102  40.415  1.00  0.00     0.124 S 
ATOM     89  O   UNL A   1      38.480  36.323  41.377  1.00  0.00    -0.237 OA
ATOM     90  O   UNL A   1      40.631  37.389  40.792  1.00  0.00    -0.237 OA
ATOM     91  O   UNL A   1      38.538  38.211  39.787  1.00  0.00    -0.744 OA
ENDBRANCH  87  88
ENDBRANCH  55  80
ENDBRANCH  29  30
ENDBRANCH  22  24
ENDBRANCH  21  22
ENDBRANCH  20  21
ENDBRANCH   1  20
TORSDOF 19
ENDMDL
MODEL 2
REMARK VINA RESULT:     -10.1      6.858     12.293
REMARK SMILES C[C@H](CC(=O)NC[C@@]1(C)CCCO1)CC(=O)OCCOC(=O)c1ccc(-c2c3nc(c(-c4c(F)cc(S(=O)(=O)[O-])cc4F)c4ccc([nH]4)c(-c4c(F)cc(S(=O)(=O)[O-])cc4F)c4nc(c(-c5c(F)cc(S(=O)(=O)[O-])cc5F)c5ccc2[nH]5)C=C4)C=C3)cc1
REMARK SMILES IDX 18 1 17 2 15 3 16 4 14 5 2 6 1 7 3 8 4 9 5 10 6 11 7 13 8 14
REMARK SMILES IDX 9 15 10 16 13 17 11 18 12 19 19 20 20 21 21 22 22 23 23 24
REMARK SMILES IDX 24 25 88 26 25 27 87 28 26 29 27 30 28 31 81 32 29 33 86 34
REMARK SMILES IDX 80 35 82 36 30 37 85 38 79 39 78 40 31 42 65 43 44 44 64 45
REMARK SMILES IDX 45 46 48 47 63 48 83 49 46 50 47 51 62 53 84 54 49 55 32 56
REMARK SMILES IDX 33 57 42 58 34 59 35 60 41 61 43 62 36 63 37 64 38 65 39 66
REMARK SMILES IDX 40 67 66 68 67 69 76 70 68 71 69 72 75 73 77 74 70 75 71 76
REMARK SMILES IDX 72 77 73 78 74 79 50 80 51 81 60 82 52 83 53 84 59 85 61 86
REMARK SMILES IDX 54 87 55 88 56 89 57 90 58 91
REMARK H PARENT 6 12 82 41 48 52
REMARK Flexibility Score: inf
ROOT
ATOM      1  C   UNL A   1      33.591  30.122  26.962  1.00  0.00     0.274 C 
ENDROOT
BRANCH   1   2
ATOM      2  O   UNL A   1      33.287  28.747  27.260  1.00  0.00    -0.462 OA
BRANCH   2   3
ATOM      3  C   UNL A   1      31.979  28.390  27.163  1.00  0.00     0.306 C 
ATOM      4  O   UNL A   1      31.332  27.828  28.037  1.00  0.00    -0.252 OA
BRANCH   3   5
ATOM      5  C   UNL A   1      31.438  28.657  25.781  1.00  0.00     0.126 C 
BRANCH   5   6
ATOM      6  C   UNL A   1      31.688  27.602  24.676  1.00  0.00     0.006 C 
ATOM      7  C   UNL A   1      31.827  28.431  23.389  1.00  0.00     0.009 C 
BRANCH   6   8
ATOM      8  C   UNL A   1      30.528  26.598  24.540  1.00  0.00     0.104 C 
BRANCH   8   9
ATOM      9  C   UNL A   1      30.373  25.422  25.503  1.00  0.00     0.220 C 
ATOM     10  O   UNL A   1      29.637  25.556  26.490  1.00  0.00    -0.275 OA
ATOM     11  N   UNL A   1      30.854  24.173  25.326  1.00  0.00    -0.353 N 
ATOM     12  H   UNL A   1      30.692  23.609  26.117  1.00  0.00     0.163 HD
BRANCH  11  13
ATOM     13  C   UNL A   1      31.548  23.437  24.277  1.00  0.00     0.151 C 
BRANCH  13  14
ATOM     14  C   UNL A   1      33.100  23.554  24.293  1.00  0.00     0.083 C 
ATOM     15  C   UNL A   1      33.596  24.762  23.487  1.00  0.00     0.044 C 
ATOM     16  C   UNL A   1      33.709  23.510  25.695  1.00  0.00     0.039 C 
ATOM     17  O   UNL A   1      33.661  22.385  23.640  1.00  0.00    -0.373 OA
ATOM     18  C   UNL A   1      35.106  23.000  25.445  1.00  0.00     0.031 C 
ATOM     19  C   UNL A   1      34.910  22.052  24.279  1.00  0.00     0.161 C 
ENDBRANCH  13  14
ENDBRANCH  11  13
ENDBRANCH   8   9
ENDBRANCH   6   8
ENDBRANCH   5   6
ENDBRANCH   3   5
ENDBRANCH   2   3
ENDBRANCH   1   2
BRANCH   1  20
ATOM     20  C   UNL A   1      34.531  30.767  27.985  1.00  0.00     0.275 C 
BRANCH  20  21
ATOM     21  O   UNL A   1      35.501  29.843  28.509  1.00  0.00    -0.458 OA
BRANCH  21  22
ATOM     22  C   UNL A   1      36.254  30.318  29.527  1.00  0.00     0.338 C 
ATOM     23  O   UNL A   1      35.845  30.808  30.573  1.00  0.00    -0.246 OA
BRANCH  22  24
ATOM     24  C   UNL A   1      37.685  30.078  29.281  1.00  0.00     0.060 A 
ATOM     25  C   UNL A   1      38.085  29.817  27.965  1.00  0.00     0.016 A 
ATOM     26  C   UNL A   1      38.612  30.027  30.324  1.00  0.00     0.016 A 
ATOM     27  C   UNL A   1      39.405  29.472  27.690  1.00  0.00     0.010 A 
ATOM     28  C   UNL A   1      39.940  29.690  30.046  1.00  0.00     0.010 A 
ATOM     29  C   UNL A   1      40.340  29.391  28.730  1.00  0.00    -0.014 A 
BRANCH  29  30
ATOM     30  C   UNL A   1      41.728  28.949  28.450  1.00  0.00     0.031 A 
ATOM     31  C   UNL A   1      42.849  29.951  28.463  1.00  0.00     0.074 A 
ATOM     32  C   UNL A   1      41.981  27.654  28.188  1.00  0.00     0.049 A 
ATOM     33  N   UNL A   1      44.112  29.780  28.172  1.00  0.00    -0.248 NA
ATOM     34  C   UNL A   1      42.499  31.326  28.853  1.00  0.00     0.031 C 
ATOM     35  C   UNL A   1      40.982  26.585  28.175  1.00  0.00     0.029 A 
ATOM     36  N   UNL A   1      43.156  27.019  27.873  1.00  0.00    -0.354 N 
ATOM     37  C   UNL A   1      44.708  31.026  28.324  1.00  0.00     0.074 A 
ATOM     38  C   UNL A   1      43.663  31.949  28.718  1.00  0.00     0.031 C 
ATOM     39  C   UNL A   1      41.587  25.426  27.863  1.00  0.00     0.029 A 
ATOM     40  C   UNL A   1      43.004  25.678  27.617  1.00  0.00     0.049 A 
ATOM     41  H   UNL A   1      44.025  27.481  27.837  1.00  0.00     0.167 HD
ATOM     42  C   UNL A   1      46.009  31.367  28.156  1.00  0.00     0.037 A 
ATOM     43  C   UNL A   1      43.901  24.761  27.202  1.00  0.00     0.037 A 
ATOM     44  C   UNL A   1      47.046  30.444  27.774  1.00  0.00     0.049 A 
ATOM     45  C   UNL A   1      45.330  25.175  26.978  1.00  0.00     0.074 A 
ATOM     46  C   UNL A   1      48.396  30.693  27.594  1.00  0.00     0.029 A 
ATOM     47  N   UNL A   1      46.852  29.097  27.508  1.00  0.00    -0.354 N 
ATOM     48  N   UNL A   1      45.881  26.355  27.134  1.00  0.00    -0.248 NA
ATOM     49  C   UNL A   1      46.259  24.133  26.519  1.00  0.00     0.031 C 
ATOM     50  C   UNL A   1      49.012  29.504  27.186  1.00  0.00     0.029 A 
ATOM     51  C   UNL A   1      48.053  28.505  27.152  1.00  0.00     0.049 A 
ATOM     52  H   UNL A   1      45.987  28.629  27.565  1.00  0.00     0.167 HD
ATOM     53  C   UNL A   1      47.225  26.192  26.816  1.00  0.00     0.074 A 
ATOM     54  C   UNL A   1      47.406  24.797  26.467  1.00  0.00     0.031 C 
ATOM     55  C   UNL A   1      48.221  27.114  26.815  1.00  0.00     0.037 A 
BRANCH  42  56
ATOM     56  C   UNL A   1      46.381  32.808  28.365  1.00  0.00     0.058 A 
ATOM     57  C   UNL A   1      46.363  33.736  27.312  1.00  0.00     0.135 A 
ATOM     58  C   UNL A   1      46.724  33.275  29.645  1.00  0.00     0.135 A 
ATOM     59  F   UNL A   1      46.057  33.338  26.066  1.00  0.00    -0.206 F 
ATOM     60  C   UNL A   1      46.696  35.071  27.514  1.00  0.00     0.059 A 
ATOM     61  C   UNL A   1      47.039  34.611  29.874  1.00  0.00     0.059 A 
ATOM     62  F   UNL A   1      46.757  32.430  30.686  1.00  0.00    -0.206 F 
ATOM     63  C   UNL A   1      47.036  35.499  28.799  1.00  0.00     0.060 A 
BRANCH  63  64
ATOM     64  S   UNL A   1      47.467  37.235  29.047  1.00  0.00     0.124 S 
ATOM     65  O   UNL A   1      47.396  37.747  27.681  1.00  0.00    -0.237 OA
ATOM     66  O   UNL A   1      46.416  37.693  29.949  1.00  0.00    -0.237 OA
ATOM     67  O   UNL A   1      48.804  37.174  29.625  1.00  0.00    -0.744 OA
ENDBRANCH  63  64
ENDBRANCH  42  56
BRANCH  43  68
ATOM     68  C   UNL A   1      43.468  23.361  26.962  1.00  0.00     0.058 A 
ATOM     69  C   UNL A   1      43.249  22.480  28.029  1.00  0.00     0.135 A 
ATOM     70  C   UNL A   1      43.258  22.880  25.660  1.00  0.00     0.135 A 
ATOM     71  F   UNL A   1      43.447  22.892  29.291  1.00  0.00    -0.206 F 
ATOM     72  C   UNL A   1      42.850  21.164  27.817  1.00  0.00     0.059 A 
ATOM     73  C   UNL A   1      42.835  21.576  25.423  1.00  0.00     0.059 A 
ATOM     74  F   UNL A   1      43.444  23.689  24.605  1.00  0.00    -0.206 F 
ATOM     75  C   UNL A   1      42.643  20.723  26.508  1.00  0.00     0.060 A 
BRANCH  75  76
ATOM     76  S   UNL A   1      42.077  19.029  26.243  1.00  0.00     0.124 S 
ATOM     77  O   UNL A   1      43.007  18.565  25.221  1.00  0.00    -0.237 OA
ATOM     78  O   UNL A   1      42.237  18.439  27.569  1.00  0.00    -0.237 OA
ATOM     79  O   UNL A   1      40.695  19.204  25.808  1.00  0.00    -0.744 OA
ENDBRANCH  75  76
ENDBRANCH  43  68
BRANCH  55  80
ATOM     80  C   UNL A   1      49.602  26.639  26.461  1.00  0.00     0.058 A 
ATOM     81  C   UNL A   1      50.460  26.081  27.421  1.00  0.00     0.135 A 
ATOM     82  C   UNL A   1      50.055  26.701  25.133  1.00  0.00     0.135 A 
ATOM     83  F   UNL A   1      50.077  26.003  28.706  1.00  0.00    -0.206 F 
ATOM     84  C   UNL A   1      51.728  25.620  27.081  1.00  0.00     0.059 A 
ATOM     85  C   UNL A   1      51.310  26.226  24.767  1.00  0.00     0.059 A 
ATOM     86  F   UNL A   1      49.271  27.218  24.174  1.00  0.00    -0.206 F 
ATOM     87  C   UNL A   1      52.145  25.696  25.751  1.00  0.00     0.060 A 
BRANCH  87  88
ATOM     88  S   UNL A   1      53.780  25.067  25.315  1.00  0.00     0.124 S 
ATOM     89  O   UNL A   1      54.591  25.562  26.422  1.00  0.00    -0.237 OA
ATOM     90  O   UNL A   1      53.563  23.624  25.283  1.00  0.00    -0.237 OA
ATOM     91  O   UNL A   1      54.045  25.682  24.018  1.00  0.00    -0.744 OA
ENDBRANCH  87  88
ENDBRANCH  55  80
ENDBRANCH  29  30
ENDBRANCH  22  24
ENDBRANCH  21  22
ENDBRANCH  20  21
ENDBRANCH   1  20
TORSDOF 19
ENDMDL
MODEL 3
REMARK VINA RESULT:     -10.0      1.710      2.766
REMARK SMILES C[C@H](CC(=O)NC[C@@]1(C)CCCO1)CC(=O)OCCOC(=O)c1ccc(-c2c3nc(c(-c4c(F)cc(S(=O)(=O)[O-])cc4F)c4ccc([nH]4)c(-c4c(F)cc(S(=O)(=O)[O-])cc4F)c4nc(c(-c5c(F)cc(S(=O)(=O)[O-])cc5F)c5ccc2[nH]5)C=C4)C=C3)cc1
REMARK SMILES IDX 18 1 17 2 15 3 16 4 14 5 2 6 1 7 3 8 4 9 5 10 6 11 7 13 8 14
REMARK SMILES IDX 9 15 10 16 13 17 11 18 12 19 19 20 20 21 21 22 22 23 23 24
REMARK SMILES IDX 24 25 88 26 25 27 87 28 26 29 27 30 28 31 81 32 29 33 86 34
REMARK SMILES IDX 80 35 82 36 30 37 85 38 79 39 78 40 31 42 65 43 44 44 64 45
REMARK SMILES IDX 45 46 48 47 63 48 83 49 46 50 47 51 62 53 84 54 49 55 32 56
REMARK SMILES IDX 33 57 42 58 34 59 35 60 41 61 43 62 36 63 37 64 38 65 39 66
REMARK SMILES IDX 40 67 66 68 67 69 76 70 68 71 69 72 75 73 77 74 70 75 71 76
REMARK SMILES IDX 72 77 73 78 74 79 50 80 51 81 60 82 52 83 53 84 59 85 61 86
REMARK SMILES IDX 54 87 55 88 56 89 57 90 58 91
REMARK H PARENT 6 12 82 41 48 52
REMARK Flexibility Score: inf
ROOT
ATOM      1  C   UNL A   1      38.604  21.666  25.712  1.00  0.00     0.274 C 
ENDROOT
BRANCH   1   2
ATOM      2  O   UNL A   1      37.582  22.610  25.341  1.00  0.00    -0.462 OA
BRANCH   2   3
ATOM      3  C   UNL A   1      36.811  22.268  24.277  1.00  0.00     0.306 C 
ATOM      4  O   UNL A   1      36.963  22.673  23.132  1.00  0.00    -0.252 OA
BRANCH   3   5
ATOM      5  C   UNL A   1      35.643  21.412  24.698  1.00  0.00     0.126 C 
BRANCH   5   6
ATOM      6  C   UNL A   1      34.302  22.111  25.036  1.00  0.00     0.006 C 
ATOM      7  C   UNL A   1      34.173  21.960  26.561  1.00  0.00     0.009 C 
BRANCH   6   8
ATOM      8  C   UNL A   1      33.099  21.456  24.333  1.00  0.00     0.104 C 
BRANCH   8   9
ATOM      9  C   UNL A   1      32.576  21.976  22.995  1.00  0.00     0.220 C 
ATOM     10  O   UNL A   1      31.958  21.198  22.255  1.00  0.00    -0.275 OA
ATOM     11  N   UNL A   1      32.593  23.258  22.572  1.00  0.00    -0.353 N 
ATOM     12  H   UNL A   1      32.269  23.336  21.645  1.00  0.00     0.163 HD
BRANCH  11  13
ATOM     13  C   UNL A   1      32.963  24.556  23.120  1.00  0.00     0.151 C 
BRANCH  13  14
ATOM     14  C   UNL A   1      31.872  25.253  23.985  1.00  0.00     0.083 C 
ATOM     15  C   UNL A   1      32.008  24.905  25.474  1.00  0.00     0.044 C 
ATOM     16  C   UNL A   1      31.771  26.761  23.755  1.00  0.00     0.039 C 
ATOM     17  O   UNL A   1      30.570  24.757  23.580  1.00  0.00    -0.373 OA
ATOM     18  C   UNL A   1      30.347  27.070  24.143  1.00  0.00     0.031 C 
ATOM     19  C   UNL A   1      29.606  25.819  23.715  1.00  0.00     0.161 C 
ENDBRANCH  13  14
ENDBRANCH  11  13
ENDBRANCH   8   9
ENDBRANCH   6   8
ENDBRANCH   5   6
ENDBRANCH   3   5
ENDBRANCH   2   3
ENDBRANCH   1   2
BRANCH   1  20
ATOM     20  C   UNL A   1      39.731  22.291  26.540  1.00  0.00     0.275 C 
BRANCH  20  21
ATOM     21  O   UNL A   1      39.696  23.729  26.532  1.00  0.00    -0.458 OA
BRANCH  21  22
ATOM     22  C   UNL A   1      40.869  24.333  26.828  1.00  0.00     0.338 C 
ATOM     23  O   UNL A   1      41.967  24.071  26.350  1.00  0.00    -0.246 OA
BRANCH  22  24
ATOM     24  C   UNL A   1      40.664  25.462  27.749  1.00  0.00     0.060 A 
ATOM     25  C   UNL A   1      41.714  26.374  27.906  1.00  0.00     0.016 A 
ATOM     26  C   UNL A   1      39.499  25.588  28.508  1.00  0.00     0.016 A 
ATOM     27  C   UNL A   1      41.619  27.396  28.846  1.00  0.00     0.010 A 
ATOM     28  C   UNL A   1      39.400  26.621  29.445  1.00  0.00     0.010 A 
ATOM     29  C   UNL A   1      40.467  27.519  29.634  1.00  0.00    -0.014 A 
BRANCH  29  30
ATOM     30  C   UNL A   1      40.395  28.560  30.688  1.00  0.00     0.031 A 
ATOM     31  C   UNL A   1      41.295  28.473  31.888  1.00  0.00     0.074 A 
ATOM     32  C   UNL A   1      39.527  29.581  30.565  1.00  0.00     0.049 A 
ATOM     33  N   UNL A   1      41.334  29.238  32.948  1.00  0.00    -0.248 NA
ATOM     34  C   UNL A   1      42.280  27.379  31.896  1.00  0.00     0.031 C 
ATOM     35  C   UNL A   1      38.623  29.789  29.434  1.00  0.00     0.029 A 
ATOM     36  N   UNL A   1      39.259  30.631  31.407  1.00  0.00    -0.354 N 
ATOM     37  C   UNL A   1      42.332  28.711  33.760  1.00  0.00     0.074 A 
ATOM     38  C   UNL A   1      42.862  27.550  33.076  1.00  0.00     0.031 C 
ATOM     39  C   UNL A   1      37.896  30.897  29.654  1.00  0.00     0.029 A 
ATOM     40  C   UNL A   1      38.253  31.452  30.956  1.00  0.00     0.049 A 
ATOM     41  H   UNL A   1      39.741  30.781  32.251  1.00  0.00     0.167 HD
ATOM     42  C   UNL A   1      42.767  29.158  34.962  1.00  0.00     0.037 A 
ATOM     43  C   UNL A   1      37.668  32.516  31.541  1.00  0.00     0.037 A 
ATOM     44  C   UNL A   1      42.243  30.319  35.634  1.00  0.00     0.049 A 
ATOM     45  C   UNL A   1      38.138  32.966  32.898  1.00  0.00     0.074 A 
ATOM     46  C   UNL A   1      42.632  30.860  36.848  1.00  0.00     0.029 A 
ATOM     47  N   UNL A   1      41.214  31.117  35.154  1.00  0.00    -0.354 N 
ATOM     48  N   UNL A   1      39.088  32.463  33.649  1.00  0.00    -0.248 NA
ATOM     49  C   UNL A   1      37.455  34.126  33.486  1.00  0.00     0.031 C 
ATOM     50  C   UNL A   1      41.815  31.964  37.118  1.00  0.00     0.029 A 
ATOM     51  C   UNL A   1      40.946  32.136  36.054  1.00  0.00     0.049 A 
ATOM     52  H   UNL A   1      40.746  30.980  34.299  1.00  0.00     0.167 HD
ATOM     53  C   UNL A   1      39.133  33.259  34.788  1.00  0.00     0.074 A 
ATOM     54  C   UNL A   1      38.121  34.283  34.622  1.00  0.00     0.031 C 
ATOM     55  C   UNL A   1      39.941  33.154  35.873  1.00  0.00     0.037 A 
BRANCH  42  56
ATOM     56  C   UNL A   1      43.855  28.375  35.641  1.00  0.00     0.058 A 
ATOM     57  C   UNL A   1      43.567  27.342  36.547  1.00  0.00     0.135 A 
ATOM     58  C   UNL A   1      45.206  28.637  35.353  1.00  0.00     0.135 A 
ATOM     59  F   UNL A   1      42.294  27.062  36.869  1.00  0.00    -0.206 F 
ATOM     60  C   UNL A   1      44.578  26.613  37.163  1.00  0.00     0.059 A 
ATOM     61  C   UNL A   1      46.232  27.905  35.940  1.00  0.00     0.059 A 
ATOM     62  F   UNL A   1      45.536  29.614  34.494  1.00  0.00    -0.206 F 
ATOM     63  C   UNL A   1      45.910  26.903  36.855  1.00  0.00     0.060 A 
BRANCH  63  64
ATOM     64  S   UNL A   1      47.212  25.948  37.662  1.00  0.00     0.124 S 
ATOM     65  O   UNL A   1      46.714  25.882  39.033  1.00  0.00    -0.237 OA
ATOM     66  O   UNL A   1      47.187  24.693  36.919  1.00  0.00    -0.237 OA
ATOM     67  O   UNL A   1      48.404  26.766  37.467  1.00  0.00    -0.744 OA
ENDBRANCH  63  64
ENDBRANCH  42  56
BRANCH  43  68
ATOM     68  C   UNL A   1      36.561  33.223  30.847  1.00  0.00     0.058 A 
ATOM     69  C   UNL A   1      35.223  32.987  31.193  1.00  0.00     0.135 A 
ATOM     70  C   UNL A   1      36.820  34.155  29.829  1.00  0.00     0.135 A 
ATOM     71  F   UNL A   1      34.927  32.097  32.154  1.00  0.00    -0.206 F 
ATOM     72  C   UNL A   1      34.178  33.638  30.547  1.00  0.00     0.059 A 
ATOM     73  C   UNL A   1      35.793  34.836  29.185  1.00  0.00     0.059 A 
ATOM     74  F   UNL A   1      38.085  34.423  29.469  1.00  0.00    -0.206 F 
ATOM     75  C   UNL A   1      34.474  34.564  29.544  1.00  0.00     0.060 A 
BRANCH  75  76
ATOM     76  S   UNL A   1      33.114  35.442  28.745  1.00  0.00     0.124 S 
ATOM     77  O   UNL A   1      33.832  36.398  27.911  1.00  0.00    -0.237 OA
ATOM     78  O   UNL A   1      32.426  34.366  28.036  1.00  0.00    -0.237 OA
ATOM     79  O   UNL A   1      32.378  36.011  29.869  1.00  0.00    -0.744 OA
ENDBRANCH  75  76
ENDBRANCH  43  68
BRANCH  55  80
ATOM     80  C   UNL A   1      39.792  34.192  36.949  1.00  0.00     0.058 A 
ATOM     81  C   UNL A   1      39.057  33.944  38.118  1.00  0.00     0.135 A 
ATOM     82  C   UNL A   1      40.433  35.436  36.829  1.00  0.00     0.135 A 
ATOM     83  F   UNL A   1      38.420  32.773  38.280  1.00  0.00    -0.206 F 
ATOM     84  C   UNL A   1      38.944  34.901  39.122  1.00  0.00     0.059 A 
ATOM     85  C   UNL A   1      40.352  36.399  37.830  1.00  0.00     0.059 A 
ATOM     86  F   UNL A   1      41.156  35.722  35.734  1.00  0.00    -0.206 F 
ATOM     87  C   UNL A   1      39.596  36.126  38.970  1.00  0.00     0.060 A 
BRANCH  87  88
ATOM     88  S   UNL A   1      39.469  37.349  40.292  1.00  0.00     0.124 S 
ATOM     89  O   UNL A   1      40.870  37.538  40.652  1.00  0.00    -0.237 OA
ATOM     90  O   UNL A   1      38.830  38.475  39.619  1.00  0.00    -0.237 OA
ATOM     91  O   UNL A   1      38.648  36.679  41.296  1.00  0.00    -0.744 OA
ENDBRANCH  87  88
ENDBRANCH  55  80
ENDBRANCH  29  30
ENDBRANCH  22  24
ENDBRANCH  21  22
ENDBRANCH  20  21
ENDBRANCH   1  20
TORSDOF 19
ENDMDL
