MODEL 1
REMARK VINA RESULT:     -10.2      0.000      0.000
REMARK SMILES CCC[C@H]([NH2+]Cc1nc(C(C)(C)C)cs1)C(=O)OCCOC(=O)c1ccc(-c2c3nc(c(-c4c(F)cc(S(=O)(=O)[O-])cc4F)c4ccc([nH]4)c(-c4c(F)cc(S(=O)(=O)[O-])cc4F)c4nc(c(-c5c(F)cc(S(=O)(=O)[O-])cc5F)c5ccc2[nH]5)C=C4)C=C3)cc1
REMARK SMILES IDX 19 1 18 2 16 3 17 4 4 5 3 6 2 7 1 8 5 9 6 12 7 13 8 14 15 15
REMARK SMILES IDX 9 16 14 17 10 18 11 19 12 20 13 21 20 22 21 23 22 24 23 25
REMARK SMILES IDX 24 26 25 27 89 28 26 29 88 30 27 31 28 32 29 33 82 34 30 35
REMARK SMILES IDX 87 36 81 37 83 38 31 39 86 40 80 41 79 42 32 44 66 45 45 46
REMARK SMILES IDX 65 47 46 48 49 49 64 50 84 51 47 52 48 53 63 55 85 56 50 57
REMARK SMILES IDX 33 58 34 59 43 60 35 61 36 62 42 63 44 64 37 65 38 66 39 67
REMARK SMILES IDX 40 68 41 69 67 70 68 71 77 72 69 73 70 74 76 75 78 76 71 77
REMARK SMILES IDX 72 78 73 79 74 80 75 81 51 82 52 83 61 84 53 85 54 86 60 87
REMARK SMILES IDX 62 88 55 89 56 90 57 91 58 92 59 93
REMARK H PARENT 5 10 5 11 83 43 49 54
REMARK Flexibility Score: inf
ROOT
ATOM      1  C   UNL A   1      31.720  28.539  27.542  1.00  0.00     0.274 C 
ENDROOT
BRANCH   1   2
ATOM      2  O   UNL A   1      31.357  27.713  26.423  1.00  0.00    -0.458 OA
BRANCH   2   3
ATOM      3  C   UNL A   1      32.039  26.541  26.300  1.00  0.00     0.364 C 
ATOM      4  O   UNL A   1      33.262  26.445  26.306  1.00  0.00    -0.245 OA
BRANCH   3   5
ATOM      5  C   UNL A   1      31.125  25.322  26.088  1.00  0.00     0.293 C 
BRANCH   5   6
ATOM      6  C   UNL A   1      32.013  24.240  25.436  1.00  0.00     0.077 C 
BRANCH   6   7
ATOM      7  C   UNL A   1      32.110  22.895  26.167  1.00  0.00     0.003 C 
ATOM      8  C   UNL A   1      31.887  21.690  25.260  1.00  0.00     0.004 C 
ENDBRANCH   6   7
ENDBRANCH   5   6
BRANCH   5   9
ATOM      9  N   UNL A   1      29.938  25.609  25.277  1.00  0.00    -0.329 N 
ATOM     10  H   UNL A   1      29.640  26.563  25.487  1.00  0.00     0.347 HD
ATOM     11  H   UNL A   1      29.252  24.897  25.526  1.00  0.00     0.347 HD
BRANCH   9  12
ATOM     12  C   UNL A   1      30.117  25.503  23.820  1.00  0.00     0.330 C 
BRANCH  12  13
ATOM     13  C   UNL A   1      30.232  26.896  23.240  1.00  0.00     0.147 A 
ATOM     14  N   UNL A   1      29.244  27.768  23.239  1.00  0.00    -0.240 NA
ATOM     15  S   UNL A   1      31.718  27.491  22.624  1.00  0.00    -0.121 S 
ATOM     16  C   UNL A   1      29.653  28.992  22.745  1.00  0.00     0.057 A 
ATOM     17  C   UNL A   1      30.984  29.023  22.368  1.00  0.00     0.091 A 
BRANCH  16  18
ATOM     18  C   UNL A   1      28.635  30.120  22.685  1.00  0.00     0.005 C 
ATOM     19  C   UNL A   1      28.977  31.204  23.723  1.00  0.00     0.017 C 
ATOM     20  C   UNL A   1      28.619  30.745  21.277  1.00  0.00     0.017 C 
ATOM     21  C   UNL A   1      27.211  29.603  22.992  1.00  0.00     0.017 C 
ENDBRANCH  16  18
ENDBRANCH  12  13
ENDBRANCH   9  12
ENDBRANCH   5   9
ENDBRANCH   3   5
ENDBRANCH   2   3
ENDBRANCH   1   2
BRANCH   1  22
ATOM     22  C   UNL A   1      32.351  29.842  27.058  1.00  0.00     0.275 C 
BRANCH  22  23
ATOM     23  O   UNL A   1      33.783  29.734  27.117  1.00  0.00    -0.458 OA
BRANCH  23  24
ATOM     24  C   UNL A   1      34.398  30.535  28.015  1.00  0.00     0.338 C 
ATOM     25  O   UNL A   1      33.944  31.529  28.554  1.00  0.00    -0.246 OA
BRANCH  24  26
ATOM     26  C   UNL A   1      35.762  30.038  28.266  1.00  0.00     0.060 A 
ATOM     27  C   UNL A   1      36.152  29.627  29.543  1.00  0.00     0.016 A 
ATOM     28  C   UNL A   1      36.687  30.072  27.223  1.00  0.00     0.016 A 
ATOM     29  C   UNL A   1      37.481  29.281  29.790  1.00  0.00     0.010 A 
ATOM     30  C   UNL A   1      38.003  29.675  27.458  1.00  0.00     0.010 A 
ATOM     31  C   UNL A   1      38.417  29.297  28.747  1.00  0.00    -0.014 A 
BRANCH  31  32
ATOM     32  C   UNL A   1      39.843  28.960  28.986  1.00  0.00     0.031 A 
ATOM     33  C   UNL A   1      40.785  30.022  29.479  1.00  0.00     0.074 A 
ATOM     34  C   UNL A   1      40.300  27.722  28.719  1.00  0.00     0.049 A 
ATOM     35  N   UNL A   1      42.091  30.006  29.545  1.00  0.00    -0.248 NA
ATOM     36  C   UNL A   1      40.174  31.276  29.950  1.00  0.00     0.031 C 
ATOM     37  C   UNL A   1      39.481  26.593  28.273  1.00  0.00     0.029 A 
ATOM     38  N   UNL A   1      41.574  27.211  28.765  1.00  0.00    -0.354 N 
ATOM     39  C   UNL A   1      42.463  31.256  30.024  1.00  0.00     0.074 A 
ATOM     40  C   UNL A   1      41.243  32.009  30.233  1.00  0.00     0.031 C 
ATOM     41  C   UNL A   1      40.273  25.525  28.082  1.00  0.00     0.029 A 
ATOM     42  C   UNL A   1      41.659  25.910  28.332  1.00  0.00     0.049 A 
ATOM     43  H   UNL A   1      42.351  27.728  29.078  1.00  0.00     0.167 HD
ATOM     44  C   UNL A   1      43.707  31.732  30.266  1.00  0.00     0.037 A 
ATOM     45  C   UNL A   1      42.735  25.130  28.116  1.00  0.00     0.037 A 
ATOM     46  C   UNL A   1      44.913  30.966  30.081  1.00  0.00     0.049 A 
ATOM     47  C   UNL A   1      44.109  25.688  28.359  1.00  0.00     0.074 A 
ATOM     48  C   UNL A   1      46.223  31.356  30.298  1.00  0.00     0.029 A 
ATOM     49  N   UNL A   1      44.954  29.650  29.647  1.00  0.00    -0.354 N 
ATOM     50  N   UNL A   1      44.450  26.887  28.771  1.00  0.00    -0.248 NA
ATOM     51  C   UNL A   1      45.247  24.796  28.094  1.00  0.00     0.031 C 
ATOM     52  C   UNL A   1      47.059  30.281  29.973  1.00  0.00     0.029 A 
ATOM     53  C   UNL A   1      46.266  29.212  29.584  1.00  0.00     0.049 A 
ATOM     54  H   UNL A   1      44.166  29.106  29.417  1.00  0.00     0.167 HD
ATOM     55  C   UNL A   1      45.838  26.888  28.828  1.00  0.00     0.074 A 
ATOM     56  C   UNL A   1      46.274  25.567  28.420  1.00  0.00     0.031 C 
ATOM     57  C   UNL A   1      46.677  27.891  29.183  1.00  0.00     0.037 A 
BRANCH  44  58
ATOM     58  C   UNL A   1      43.831  33.154  30.732  1.00  0.00     0.058 A 
ATOM     59  C   UNL A   1      43.897  33.481  32.094  1.00  0.00     0.135 A 
ATOM     60  C   UNL A   1      43.916  34.202  29.801  1.00  0.00     0.135 A 
ATOM     61  F   UNL A   1      43.801  32.519  33.026  1.00  0.00    -0.206 F 
ATOM     62  C   UNL A   1      44.023  34.800  32.520  1.00  0.00     0.059 A 
ATOM     63  C   UNL A   1      44.063  35.527  30.203  1.00  0.00     0.059 A 
ATOM     64  F   UNL A   1      43.854  33.943  28.486  1.00  0.00    -0.206 F 
ATOM     65  C   UNL A   1      44.103  35.816  31.566  1.00  0.00     0.060 A 
BRANCH  65  66
ATOM     66  S   UNL A   1      44.273  37.523  32.129  1.00  0.00     0.124 S 
ATOM     67  O   UNL A   1      43.964  38.263  30.909  1.00  0.00    -0.237 OA
ATOM     68  O   UNL A   1      43.273  37.607  33.189  1.00  0.00    -0.237 OA
ATOM     69  O   UNL A   1      45.661  37.597  32.575  1.00  0.00    -0.744 OA
ENDBRANCH  65  66
ENDBRANCH  44  58
BRANCH  45  70
ATOM     70  C   UNL A   1      42.556  23.743  27.610  1.00  0.00     0.058 A 
ATOM     71  C   UNL A   1      42.488  23.483  26.234  1.00  0.00     0.135 A 
ATOM     72  C   UNL A   1      42.466  22.655  28.490  1.00  0.00     0.135 A 
ATOM     73  F   UNL A   1      42.559  24.495  25.356  1.00  0.00    -0.206 F 
ATOM     74  C   UNL A   1      42.327  22.191  25.746  1.00  0.00     0.059 A 
ATOM     75  C   UNL A   1      42.327  21.351  28.026  1.00  0.00     0.059 A 
ATOM     76  F   UNL A   1      42.538  22.852  29.815  1.00  0.00    -0.206 F 
ATOM     77  C   UNL A   1      42.248  21.129  26.651  1.00  0.00     0.060 A 
BRANCH  77  78
ATOM     78  S   UNL A   1      42.095  19.448  26.012  1.00  0.00     0.124 S 
ATOM     79  O   UNL A   1      42.931  19.511  24.819  1.00  0.00    -0.237 OA
ATOM     80  O   UNL A   1      42.617  18.647  27.115  1.00  0.00    -0.237 OA
ATOM     81  O   UNL A   1      40.661  19.311  25.774  1.00  0.00    -0.744 OA
ENDBRANCH  77  78
ENDBRANCH  45  70
BRANCH  57  82
ATOM     82  C   UNL A   1      48.147  27.588  29.178  1.00  0.00     0.058 A 
ATOM     83  C   UNL A   1      48.963  27.934  28.092  1.00  0.00     0.135 A 
ATOM     84  C   UNL A   1      48.751  26.982  30.291  1.00  0.00     0.135 A 
ATOM     85  F   UNL A   1      48.430  28.509  27.002  1.00  0.00    -0.206 F 
ATOM     86  C   UNL A   1      50.329  27.671  28.099  1.00  0.00     0.059 A 
ATOM     87  C   UNL A   1      50.117  26.728  30.329  1.00  0.00     0.059 A 
ATOM     88  F   UNL A   1      48.012  26.640  31.358  1.00  0.00    -0.206 F 
ATOM     89  C   UNL A   1      50.897  27.066  29.222  1.00  0.00     0.060 A 
BRANCH  89  90
ATOM     90  S   UNL A   1      52.675  26.756  29.238  1.00  0.00     0.124 S 
ATOM     91  O   UNL A   1      52.841  25.938  28.040  1.00  0.00    -0.237 OA
ATOM     92  O   UNL A   1      53.233  28.102  29.168  1.00  0.00    -0.237 OA
ATOM     93  O   UNL A   1      52.886  26.063  30.506  1.00  0.00    -0.744 OA
ENDBRANCH  89  90
ENDBRANCH  57  82
ENDBRANCH  31  32
ENDBRANCH  24  26
ENDBRANCH  23  24
ENDBRANCH  22  23
ENDBRANCH   1  22
TORSDOF 20
ENDMDL
MODEL 2
REMARK VINA RESULT:     -10.1      1.806      3.766
REMARK SMILES CCC[C@H]([NH2+]Cc1nc(C(C)(C)C)cs1)C(=O)OCCOC(=O)c1ccc(-c2c3nc(c(-c4c(F)cc(S(=O)(=O)[O-])cc4F)c4ccc([nH]4)c(-c4c(F)cc(S(=O)(=O)[O-])cc4F)c4nc(c(-c5c(F)cc(S(=O)(=O)[O-])cc5F)c5ccc2[nH]5)C=C4)C=C3)cc1
REMARK SMILES IDX 19 1 18 2 16 3 17 4 4 5 3 6 2 7 1 8 5 9 6 12 7 13 8 14 15 15
REMARK SMILES IDX 9 16 14 17 10 18 11 19 12 20 13 21 20 22 21 23 22 24 23 25
REMARK SMILES IDX 24 26 25 27 89 28 26 29 88 30 27 31 28 32 29 33 82 34 30 35
REMARK SMILES IDX 87 36 81 37 83 38 31 39 86 40 80 41 79 42 32 44 66 45 45 46
REMARK SMILES IDX 65 47 46 48 49 49 64 50 84 51 47 52 48 53 63 55 85 56 50 57
REMARK SMILES IDX 33 58 34 59 43 60 35 61 36 62 42 63 44 64 37 65 38 66 39 67
REMARK SMILES IDX 40 68 41 69 67 70 68 71 77 72 69 73 70 74 76 75 78 76 71 77
REMARK SMILES IDX 72 78 73 79 74 80 75 81 51 82 52 83 61 84 53 85 54 86 60 87
REMARK SMILES IDX 62 88 55 89 56 90 57 91 58 92 59 93
REMARK H PARENT 5 10 5 11 83 43 49 54
REMARK Flexibility Score: inf
ROOT
ATOM      1  C   UNL A   1      31.739  28.291  26.556  1.00  0.00     0.274 C 
ENDROOT
BRANCH   1   2
ATOM      2  O   UNL A   1      31.573  27.062  27.282  1.00  0.00    -0.458 OA
BRANCH   2   3
ATOM      3  C   UNL A   1      31.115  26.000  26.562  1.00  0.00     0.364 C 
ATOM      4  O   UNL A   1      29.934  25.790  26.308  1.00  0.00    -0.245 OA
BRANCH   3   5
ATOM      5  C   UNL A   1      32.229  25.029  26.132  1.00  0.00     0.293 C 
BRANCH   5   6
ATOM      6  C   UNL A   1      32.355  25.187  24.602  1.00  0.00     0.077 C 
BRANCH   6   7
ATOM      7  C   UNL A   1      33.775  25.308  24.035  1.00  0.00     0.003 C 
ATOM      8  C   UNL A   1      33.987  24.520  22.747  1.00  0.00     0.004 C 
ENDBRANCH   6   7
ENDBRANCH   5   6
BRANCH   5   9
ATOM      9  N   UNL A   1      31.977  23.637  26.515  1.00  0.00    -0.329 N 
ATOM     10  H   UNL A   1      31.253  23.636  27.234  1.00  0.00     0.347 HD
ATOM     11  H   UNL A   1      32.874  23.268  26.830  1.00  0.00     0.347 HD
BRANCH   9  12
ATOM     12  C   UNL A   1      31.535  22.745  25.430  1.00  0.00     0.330 C 
BRANCH  12  13
ATOM     13  C   UNL A   1      32.544  21.626  25.278  1.00  0.00     0.147 A 
ATOM     14  N   UNL A   1      32.234  20.420  24.847  1.00  0.00    -0.240 NA
ATOM     15  S   UNL A   1      34.216  21.882  25.563  1.00  0.00    -0.121 S 
ATOM     16  C   UNL A   1      33.360  19.632  24.706  1.00  0.00     0.057 A 
ATOM     17  C   UNL A   1      34.537  20.275  25.046  1.00  0.00     0.091 A 
BRANCH  16  18
ATOM     18  C   UNL A   1      33.182  18.207  24.203  1.00  0.00     0.005 C 
ATOM     19  C   UNL A   1      34.553  17.539  23.996  1.00  0.00     0.017 C 
ATOM     20  C   UNL A   1      32.360  17.388  25.215  1.00  0.00     0.017 C 
ATOM     21  C   UNL A   1      32.434  18.183  22.850  1.00  0.00     0.017 C 
ENDBRANCH  16  18
ENDBRANCH  12  13
ENDBRANCH   9  12
ENDBRANCH   5   9
ENDBRANCH   3   5
ENDBRANCH   2   3
ENDBRANCH   1   2
BRANCH   1  22
ATOM     22  C   UNL A   1      32.361  29.358  27.454  1.00  0.00     0.275 C 
BRANCH  22  23
ATOM     23  O   UNL A   1      33.755  29.501  27.135  1.00  0.00    -0.458 OA
BRANCH  23  24
ATOM     24  C   UNL A   1      34.429  30.436  27.841  1.00  0.00     0.338 C 
ATOM     25  O   UNL A   1      34.026  31.529  28.194  1.00  0.00    -0.246 OA
BRANCH  24  26
ATOM     26  C   UNL A   1      35.787  29.947  28.136  1.00  0.00     0.060 A 
ATOM     27  C   UNL A   1      36.136  29.531  29.424  1.00  0.00     0.016 A 
ATOM     28  C   UNL A   1      36.747  29.993  27.125  1.00  0.00     0.016 A 
ATOM     29  C   UNL A   1      37.459  29.194  29.714  1.00  0.00     0.010 A 
ATOM     30  C   UNL A   1      38.057  29.603  27.403  1.00  0.00     0.010 A 
ATOM     31  C   UNL A   1      38.430  29.222  28.704  1.00  0.00    -0.014 A 
BRANCH  31  32
ATOM     32  C   UNL A   1      39.848  28.893  28.990  1.00  0.00     0.031 A 
ATOM     33  C   UNL A   1      40.764  29.958  29.527  1.00  0.00     0.074 A 
ATOM     34  C   UNL A   1      40.325  27.662  28.727  1.00  0.00     0.049 A 
ATOM     35  N   UNL A   1      42.067  29.951  29.639  1.00  0.00    -0.248 NA
ATOM     36  C   UNL A   1      40.127  31.202  29.989  1.00  0.00     0.031 C 
ATOM     37  C   UNL A   1      39.532  26.531  28.241  1.00  0.00     0.029 A 
ATOM     38  N   UNL A   1      41.600  27.160  28.813  1.00  0.00    -0.354 N 
ATOM     39  C   UNL A   1      42.411  31.199  30.144  1.00  0.00     0.074 A 
ATOM     40  C   UNL A   1      41.179  31.940  30.317  1.00  0.00     0.031 C 
ATOM     41  C   UNL A   1      40.339  25.472  28.067  1.00  0.00     0.029 A 
ATOM     42  C   UNL A   1      41.712  25.865  28.370  1.00  0.00     0.049 A 
ATOM     43  H   UNL A   1      42.362  27.680  29.159  1.00  0.00     0.167 HD
ATOM     44  C   UNL A   1      43.642  31.682  30.435  1.00  0.00     0.037 A 
ATOM     45  C   UNL A   1      42.801  25.095  28.185  1.00  0.00     0.037 A 
ATOM     46  C   UNL A   1      44.860  30.928  30.286  1.00  0.00     0.049 A 
ATOM     47  C   UNL A   1      44.161  25.662  28.482  1.00  0.00     0.074 A 
ATOM     48  C   UNL A   1      46.159  31.325  30.553  1.00  0.00     0.029 A 
ATOM     49  N   UNL A   1      44.927  29.616  29.840  1.00  0.00    -0.354 N 
ATOM     50  N   UNL A   1      44.477  26.859  28.918  1.00  0.00    -0.248 NA
ATOM     51  C   UNL A   1      45.315  24.781  28.249  1.00  0.00     0.031 C 
ATOM     52  C   UNL A   1      47.014  30.260  30.246  1.00  0.00     0.029 A 
ATOM     53  C   UNL A   1      46.245  29.189  29.819  1.00  0.00     0.049 A 
ATOM     54  H   UNL A   1      44.153  29.069  29.576  1.00  0.00     0.167 HD
ATOM     55  C   UNL A   1      45.862  26.870  29.024  1.00  0.00     0.074 A 
ATOM     56  C   UNL A   1      46.324  25.557  28.619  1.00  0.00     0.031 C 
ATOM     57  C   UNL A   1      46.680  27.876  29.419  1.00  0.00     0.037 A 
BRANCH  44  58
ATOM     58  C   UNL A   1      43.738  33.100  30.919  1.00  0.00     0.058 A 
ATOM     59  C   UNL A   1      43.681  33.419  32.285  1.00  0.00     0.135 A 
ATOM     60  C   UNL A   1      43.920  34.152  30.007  1.00  0.00     0.135 A 
ATOM     61  F   UNL A   1      43.490  32.452  33.197  1.00  0.00    -0.206 F 
ATOM     62  C   UNL A   1      43.782  34.734  32.729  1.00  0.00     0.059 A 
ATOM     63  C   UNL A   1      44.043  35.472  30.429  1.00  0.00     0.059 A 
ATOM     64  F   UNL A   1      43.976  33.901  28.690  1.00  0.00    -0.206 F 
ATOM     65  C   UNL A   1      43.960  35.754  31.792  1.00  0.00     0.060 A 
BRANCH  65  66
ATOM     66  S   UNL A   1      44.095  37.456  32.380  1.00  0.00     0.124 S 
ATOM     67  O   UNL A   1      43.092  37.477  33.440  1.00  0.00    -0.237 OA
ATOM     68  O   UNL A   1      45.484  37.528  32.822  1.00  0.00    -0.237 OA
ATOM     69  O   UNL A   1      43.777  38.250  31.197  1.00  0.00    -0.744 OA
ENDBRANCH  65  66
ENDBRANCH  44  58
BRANCH  45  70
ATOM     70  C   UNL A   1      42.651  23.713  27.658  1.00  0.00     0.058 A 
ATOM     71  C   UNL A   1      42.492  22.625  28.528  1.00  0.00     0.135 A 
ATOM     72  C   UNL A   1      42.649  23.458  26.279  1.00  0.00     0.135 A 
ATOM     73  F   UNL A   1      42.498  22.821  29.855  1.00  0.00    -0.206 F 
ATOM     74  C   UNL A   1      42.345  21.328  28.049  1.00  0.00     0.059 A 
ATOM     75  C   UNL A   1      42.481  22.172  25.775  1.00  0.00     0.059 A 
ATOM     76  F   UNL A   1      42.786  24.467  25.406  1.00  0.00    -0.206 F 
ATOM     77  C   UNL A   1      42.339  21.110  26.669  1.00  0.00     0.060 A 
BRANCH  77  78
ATOM     78  S   UNL A   1      42.092  19.433  26.051  1.00  0.00     0.124 S 
ATOM     79  O   UNL A   1      42.900  19.445  24.839  1.00  0.00    -0.237 OA
ATOM     80  O   UNL A   1      42.601  18.618  27.150  1.00  0.00    -0.237 OA
ATOM     81  O   UNL A   1      40.647  19.362  25.849  1.00  0.00    -0.744 OA
ENDBRANCH  77  78
ENDBRANCH  45  70
BRANCH  57  82
ATOM     82  C   UNL A   1      48.152  27.585  29.464  1.00  0.00     0.058 A 
ATOM     83  C   UNL A   1      48.982  27.834  28.361  1.00  0.00     0.135 A 
ATOM     84  C   UNL A   1      48.743  27.089  30.636  1.00  0.00     0.135 A 
ATOM     85  F   UNL A   1      48.462  28.301  27.215  1.00  0.00    -0.206 F 
ATOM     86  C   UNL A   1      50.349  27.583  28.412  1.00  0.00     0.059 A 
ATOM     87  C   UNL A   1      50.110  26.849  30.717  1.00  0.00     0.059 A 
ATOM     88  F   UNL A   1      47.990  26.843  31.720  1.00  0.00    -0.206 F 
ATOM     89  C   UNL A   1      50.903  27.089  29.595  1.00  0.00     0.060 A 
BRANCH  89  90
ATOM     90  S   UNL A   1      52.683  26.794  29.665  1.00  0.00     0.124 S 
ATOM     91  O   UNL A   1      52.948  26.277  28.326  1.00  0.00    -0.237 OA
ATOM     92  O   UNL A   1      53.214  28.124  29.948  1.00  0.00    -0.237 OA
ATOM     93  O   UNL A   1      52.823  25.828  30.751  1.00  0.00    -0.744 OA
ENDBRANCH  89  90
ENDBRANCH  57  82
ENDBRANCH  31  32
ENDBRANCH  24  26
ENDBRANCH  23  24
ENDBRANCH  22  23
ENDBRANCH   1  22
TORSDOF 20
ENDMDL
MODEL 3
REMARK VINA RESULT:      -9.8      1.177      3.322
REMARK SMILES CCC[C@H]([NH2+]Cc1nc(C(C)(C)C)cs1)C(=O)OCCOC(=O)c1ccc(-c2c3nc(c(-c4c(F)cc(S(=O)(=O)[O-])cc4F)c4ccc([nH]4)c(-c4c(F)cc(S(=O)(=O)[O-])cc4F)c4nc(c(-c5c(F)cc(S(=O)(=O)[O-])cc5F)c5ccc2[nH]5)C=C4)C=C3)cc1
REMARK SMILES IDX 19 1 18 2 16 3 17 4 4 5 3 6 2 7 1 8 5 9 6 12 7 13 8 14 15 15
REMARK SMILES IDX 9 16 14 17 10 18 11 19 12 20 13 21 20 22 21 23 22 24 23 25
REMARK SMILES IDX 24 26 25 27 89 28 26 29 88 30 27 31 28 32 29 33 82 34 30 35
REMARK SMILES IDX 87 36 81 37 83 38 31 39 86 40 80 41 79 42 32 44 66 45 45 46
REMARK SMILES IDX 65 47 46 48 49 49 64 50 84 51 47 52 48 53 63 55 85 56 50 57
REMARK SMILES IDX 33 58 34 59 43 60 35 61 36 62 42 63 44 64 37 65 38 66 39 67
REMARK SMILES IDX 40 68 41 69 67 70 68 71 77 72 69 73 70 74 76 75 78 76 71 77
REMARK SMILES IDX 72 78 73 79 74 80 75 81 51 82 52 83 61 84 53 85 54 86 60 87
REMARK SMILES IDX 62 88 55 89 56 90 57 91 58 92 59 93
REMARK H PARENT 5 10 5 11 83 43 49 54
REMARK Flexibility Score: inf
ROOT
ATOM      1  C   UNL A   1      33.130  28.950  25.422  1.00  0.00     0.274 C 
ENDROOT
BRANCH   1   2
ATOM      2  O   UNL A   1      32.030  29.207  24.533  1.00  0.00    -0.458 OA
BRANCH   2   3
ATOM      3  C   UNL A   1      32.189  28.782  23.248  1.00  0.00     0.364 C 
ATOM      4  O   UNL A   1      33.219  28.915  22.595  1.00  0.00    -0.245 OA
BRANCH   3   5
ATOM      5  C   UNL A   1      30.916  28.158  22.649  1.00  0.00     0.293 C 
BRANCH   5   6
ATOM      6  C   UNL A   1      29.735  28.890  23.321  1.00  0.00     0.077 C 
BRANCH   6   7
ATOM      7  C   UNL A   1      28.572  29.303  22.411  1.00  0.00     0.003 C 
ATOM      8  C   UNL A   1      27.199  28.963  22.982  1.00  0.00     0.004 C 
ENDBRANCH   6   7
ENDBRANCH   5   6
BRANCH   5   9
ATOM      9  N   UNL A   1      30.829  26.706  22.832  1.00  0.00    -0.329 N 
ATOM     10  H   UNL A   1      30.137  26.349  22.173  1.00  0.00     0.347 HD
ATOM     11  H   UNL A   1      30.582  26.564  23.811  1.00  0.00     0.347 HD
BRANCH   9  12
ATOM     12  C   UNL A   1      32.080  25.958  22.620  1.00  0.00     0.330 C 
BRANCH  12  13
ATOM     13  C   UNL A   1      32.357  25.116  23.847  1.00  0.00     0.147 A 
ATOM     14  N   UNL A   1      33.370  24.279  23.942  1.00  0.00    -0.240 NA
ATOM     15  S   UNL A   1      31.413  25.268  25.271  1.00  0.00    -0.121 S 
ATOM     16  C   UNL A   1      33.445  23.720  25.203  1.00  0.00     0.057 A 
ATOM     17  C   UNL A   1      32.455  24.157  26.066  1.00  0.00     0.091 A 
BRANCH  16  18
ATOM     18  C   UNL A   1      34.569  22.737  25.489  1.00  0.00     0.005 C 
ATOM     19  C   UNL A   1      34.393  21.462  24.644  1.00  0.00     0.017 C 
ATOM     20  C   UNL A   1      35.931  23.380  25.169  1.00  0.00     0.017 C 
ATOM     21  C   UNL A   1      34.579  22.319  26.978  1.00  0.00     0.017 C 
ENDBRANCH  16  18
ENDBRANCH  12  13
ENDBRANCH   9  12
ENDBRANCH   5   9
ENDBRANCH   3   5
ENDBRANCH   2   3
ENDBRANCH   1   2
BRANCH   1  22
ATOM     22  C   UNL A   1      33.300  30.108  26.402  1.00  0.00     0.275 C 
BRANCH  22  23
ATOM     23  O   UNL A   1      33.905  29.627  27.614  1.00  0.00    -0.458 OA
BRANCH  23  24
ATOM     24  C   UNL A   1      34.629  30.532  28.311  1.00  0.00     0.338 C 
ATOM     25  O   UNL A   1      34.254  31.610  28.737  1.00  0.00    -0.246 OA
BRANCH  24  26
ATOM     26  C   UNL A   1      36.002  30.030  28.493  1.00  0.00     0.060 A 
ATOM     27  C   UNL A   1      36.433  29.551  29.733  1.00  0.00     0.016 A 
ATOM     28  C   UNL A   1      36.894  30.127  27.425  1.00  0.00     0.016 A 
ATOM     29  C   UNL A   1      37.771  29.201  29.920  1.00  0.00     0.010 A 
ATOM     30  C   UNL A   1      38.219  29.725  27.598  1.00  0.00     0.010 A 
ATOM     31  C   UNL A   1      38.674  29.280  28.851  1.00  0.00    -0.014 A 
BRANCH  31  32
ATOM     32  C   UNL A   1      40.107  28.939  29.028  1.00  0.00     0.031 A 
ATOM     33  C   UNL A   1      41.075  30.000  29.474  1.00  0.00     0.074 A 
ATOM     34  C   UNL A   1      40.549  27.698  28.745  1.00  0.00     0.049 A 
ATOM     35  N   UNL A   1      42.382  29.979  29.482  1.00  0.00    -0.248 NA
ATOM     36  C   UNL A   1      40.489  31.257  29.967  1.00  0.00     0.031 C 
ATOM     37  C   UNL A   1      39.707  26.570  28.341  1.00  0.00     0.029 A 
ATOM     38  N   UNL A   1      41.822  27.183  28.737  1.00  0.00    -0.354 N 
ATOM     39  C   UNL A   1      42.778  31.230  29.940  1.00  0.00     0.074 A 
ATOM     40  C   UNL A   1      41.572  31.987  30.199  1.00  0.00     0.031 C 
ATOM     41  C   UNL A   1      40.487  25.499  28.118  1.00  0.00     0.029 A 
ATOM     42  C   UNL A   1      41.883  25.880  28.305  1.00  0.00     0.049 A 
ATOM     43  H   UNL A   1      42.613  27.698  29.013  1.00  0.00     0.167 HD
ATOM     44  C   UNL A   1      44.034  31.703  30.124  1.00  0.00     0.037 A 
ATOM     45  C   UNL A   1      42.946  25.096  28.044  1.00  0.00     0.037 A 
ATOM     46  C   UNL A   1      45.228  30.932  29.889  1.00  0.00     0.049 A 
ATOM     47  C   UNL A   1      44.332  25.651  28.224  1.00  0.00     0.074 A 
ATOM     48  C   UNL A   1      46.548  31.318  30.045  1.00  0.00     0.029 A 
ATOM     49  N   UNL A   1      45.245  29.614  29.458  1.00  0.00    -0.354 N 
ATOM     50  N   UNL A   1      44.694  26.849  28.615  1.00  0.00    -0.248 NA
ATOM     51  C   UNL A   1      45.453  24.753  27.912  1.00  0.00     0.031 C 
ATOM     52  C   UNL A   1      47.365  30.239  29.687  1.00  0.00     0.029 A 
ATOM     53  C   UNL A   1      46.552  29.171  29.338  1.00  0.00     0.049 A 
ATOM     54  H   UNL A   1      44.446  29.072  29.265  1.00  0.00     0.167 HD
ATOM     55  C   UNL A   1      46.083  26.846  28.610  1.00  0.00     0.074 A 
ATOM     56  C   UNL A   1      46.497  25.523  28.189  1.00  0.00     0.031 C 
ATOM     57  C   UNL A   1      46.941  27.847  28.924  1.00  0.00     0.037 A 
BRANCH  44  58
ATOM     58  C   UNL A   1      44.183  33.126  30.578  1.00  0.00     0.058 A 
ATOM     59  C   UNL A   1      44.241  34.190  29.665  1.00  0.00     0.135 A 
ATOM     60  C   UNL A   1      44.237  33.433  31.947  1.00  0.00     0.135 A 
ATOM     61  F   UNL A   1      44.211  33.949  28.344  1.00  0.00    -0.206 F 
ATOM     62  C   UNL A   1      44.366  35.508  30.092  1.00  0.00     0.059 A 
ATOM     63  C   UNL A   1      44.343  34.745  32.398  1.00  0.00     0.059 A 
ATOM     64  F   UNL A   1      44.190  32.452  32.861  1.00  0.00    -0.206 F 
ATOM     65  C   UNL A   1      44.419  35.775  31.461  1.00  0.00     0.060 A 
BRANCH  65  66
ATOM     66  S   UNL A   1      44.577  37.490  32.005  1.00  0.00     0.124 S 
ATOM     67  O   UNL A   1      43.706  37.504  33.177  1.00  0.00    -0.237 OA
ATOM     68  O   UNL A   1      46.006  37.605  32.277  1.00  0.00    -0.237 OA
ATOM     69  O   UNL A   1      44.099  38.255  30.857  1.00  0.00    -0.744 OA
ENDBRANCH  65  66
ENDBRANCH  44  58
BRANCH  45  70
ATOM     70  C   UNL A   1      42.740  23.708  27.552  1.00  0.00     0.058 A 
ATOM     71  C   UNL A   1      42.727  23.427  26.178  1.00  0.00     0.135 A 
ATOM     72  C   UNL A   1      42.569  22.639  28.443  1.00  0.00     0.135 A 
ATOM     73  F   UNL A   1      42.876  24.420  25.289  1.00  0.00    -0.206 F 
ATOM     74  C   UNL A   1      42.542  22.133  25.704  1.00  0.00     0.059 A 
ATOM     75  C   UNL A   1      42.405  21.333  27.994  1.00  0.00     0.059 A 
ATOM     76  F   UNL A   1      42.587  22.856  29.767  1.00  0.00    -0.206 F 
ATOM     77  C   UNL A   1      42.382  21.090  26.620  1.00  0.00     0.060 A 
BRANCH  77  78
ATOM     78  S   UNL A   1      42.198  19.405  26.001  1.00  0.00     0.124 S 
ATOM     79  O   UNL A   1      42.762  18.627  27.097  1.00  0.00    -0.237 OA
ATOM     80  O   UNL A   1      40.754  19.297  25.817  1.00  0.00    -0.237 OA
ATOM     81  O   UNL A   1      42.977  19.417  24.766  1.00  0.00    -0.744 OA
ENDBRANCH  77  78
ENDBRANCH  45  70
BRANCH  57  82
ATOM     82  C   UNL A   1      48.408  27.540  28.855  1.00  0.00     0.058 A 
ATOM     83  C   UNL A   1      49.154  27.784  27.693  1.00  0.00     0.135 A 
ATOM     84  C   UNL A   1      49.081  27.034  29.978  1.00  0.00     0.135 A 
ATOM     85  F   UNL A   1      48.553  28.260  26.591  1.00  0.00    -0.206 F 
ATOM     86  C   UNL A   1      50.518  27.517  27.638  1.00  0.00     0.059 A 
ATOM     87  C   UNL A   1      50.448  26.779  29.953  1.00  0.00     0.059 A 
ATOM     88  F   UNL A   1      48.411  26.793  31.116  1.00  0.00    -0.206 F 
ATOM     89  C   UNL A   1      51.156  27.013  28.774  1.00  0.00     0.060 A 
BRANCH  89  90
ATOM     90  S   UNL A   1      52.932  26.699  28.707  1.00  0.00     0.124 S 
ATOM     91  O   UNL A   1      53.023  25.769  27.586  1.00  0.00    -0.237 OA
ATOM     92  O   UNL A   1      53.481  28.030  28.472  1.00  0.00    -0.237 OA
ATOM     93  O   UNL A   1      53.225  26.131  30.020  1.00  0.00    -0.744 OA
ENDBRANCH  89  90
ENDBRANCH  57  82
ENDBRANCH  31  32
ENDBRANCH  24  26
ENDBRANCH  23  24
ENDBRANCH  22  23
ENDBRANCH   1  22
TORSDOF 20
ENDMDL
