MODEL 1
REMARK VINA RESULT:     -10.9      0.000      0.000
REMARK SMILES CC1(C)C(CNC(=O)[C@H]2C[C@H]2C(=O)OCCOC(=O)c2ccc(-c3c4nc(c(-c5c(F)cc(S(=O)(=O)[O-])cc5F)c5ccc([nH]5)c(-c5c(F)cc(S(=O)(=O)[O-])cc5F)c5nc(c(-c6c(F)cc(S(=O)(=O)[O-])cc6F)c6ccc3[nH]6)C=C5)C=C4)cc2)C1(C)C
REMARK SMILES IDX 15 1 14 2 12 3 13 4 11 5 9 6 10 7 7 8 6 9 8 11 5 12 4 13
REMARK SMILES IDX 1 14 2 15 3 16 86 17 87 18 88 19 16 20 17 21 18 22 19 23
REMARK SMILES IDX 20 24 21 25 85 26 22 27 84 28 23 29 24 30 25 31 78 32 26 33
REMARK SMILES IDX 83 34 77 35 79 36 27 37 82 38 76 39 75 40 28 42 62 43 41 44
REMARK SMILES IDX 61 45 42 46 45 47 60 48 80 49 43 50 44 51 59 53 81 54 46 55
REMARK SMILES IDX 29 56 30 57 39 58 31 59 32 60 38 61 40 62 33 63 34 64 35 65
REMARK SMILES IDX 36 66 37 67 63 68 64 69 73 70 65 71 66 72 72 73 74 74 67 75
REMARK SMILES IDX 68 76 69 77 70 78 71 79 47 80 48 81 57 82 49 83 50 84 56 85
REMARK SMILES IDX 58 86 51 87 52 88 53 89 54 90 55 91
REMARK H PARENT 6 10 79 41 45 52
REMARK Flexibility Score: inf
ROOT
ATOM      1  C   UNL A   1      39.319  21.701  26.123  1.00  0.00     0.274 C 
ENDROOT
BRANCH   1   2
ATOM      2  O   UNL A   1      38.044  22.240  25.724  1.00  0.00    -0.462 OA
BRANCH   2   3
ATOM      3  C   UNL A   1      37.335  21.475  24.857  1.00  0.00     0.309 C 
ATOM      4  O   UNL A   1      37.262  20.254  24.880  1.00  0.00    -0.252 OA
BRANCH   3   5
ATOM      5  C   UNL A   1      36.591  22.232  23.817  1.00  0.00     0.112 C 
ATOM      6  C   UNL A   1      35.138  22.645  23.811  1.00  0.00     0.093 C 
ATOM      7  C   UNL A   1      36.200  23.639  24.184  1.00  0.00     0.030 C 
BRANCH   6   8
ATOM      8  C   UNL A   1      34.149  21.896  24.613  1.00  0.00     0.224 C 
ATOM      9  N   UNL A   1      33.173  22.509  25.335  1.00  0.00    -0.356 N 
ATOM     10  H   UNL A   1      32.444  21.915  25.627  1.00  0.00     0.163 HD
ATOM     11  O   UNL A   1      34.128  20.672  24.523  1.00  0.00    -0.275 OA
BRANCH   9  12
ATOM     12  C   UNL A   1      33.029  23.874  25.742  1.00  0.00     0.120 C 
BRANCH  12  13
ATOM     13  C   UNL A   1      32.011  24.591  24.920  1.00  0.00     0.021 C 
ATOM     14  C   UNL A   1      29.972  26.220  24.833  1.00  0.00     0.012 C 
ATOM     15  C   UNL A   1      31.415  25.964  25.222  1.00  0.00    -0.025 C 
ATOM     16  C   UNL A   1      31.746  26.608  26.551  1.00  0.00     0.012 C 
ATOM     17  C   UNL A   1      32.471  25.790  24.100  1.00  0.00    -0.025 C 
ATOM     18  C   UNL A   1      32.092  25.746  22.634  1.00  0.00     0.012 C 
ATOM     19  C   UNL A   1      33.865  26.352  24.293  1.00  0.00     0.012 C 
ENDBRANCH  12  13
ENDBRANCH   9  12
ENDBRANCH   6   8
ENDBRANCH   3   5
ENDBRANCH   2   3
ENDBRANCH   1   2
BRANCH   1  20
ATOM     20  C   UNL A   1      40.226  22.788  26.700  1.00  0.00     0.275 C 
BRANCH  20  21
ATOM     21  O   UNL A   1      39.615  24.085  26.576  1.00  0.00    -0.458 OA
BRANCH  21  22
ATOM     22  C   UNL A   1      40.488  25.096  26.370  1.00  0.00     0.338 C 
ATOM     23  O   UNL A   1      41.080  25.368  25.340  1.00  0.00    -0.246 OA
BRANCH  22  24
ATOM     24  C   UNL A   1      40.622  25.908  27.584  1.00  0.00     0.060 A 
ATOM     25  C   UNL A   1      39.623  25.834  28.552  1.00  0.00     0.016 A 
ATOM     26  C   UNL A   1      41.627  26.868  27.677  1.00  0.00     0.016 A 
ATOM     27  C   UNL A   1      39.571  26.773  29.575  1.00  0.00     0.010 A 
ATOM     28  C   UNL A   1      41.618  27.766  28.748  1.00  0.00     0.010 A 
ATOM     29  C   UNL A   1      40.567  27.750  29.684  1.00  0.00    -0.014 A 
BRANCH  29  30
ATOM     30  C   UNL A   1      40.480  28.774  30.756  1.00  0.00     0.031 A 
ATOM     31  C   UNL A   1      41.400  28.702  31.944  1.00  0.00     0.074 A 
ATOM     32  C   UNL A   1      39.587  29.776  30.650  1.00  0.00     0.049 A 
ATOM     33  N   UNL A   1      41.403  29.431  33.031  1.00  0.00    -0.248 NA
ATOM     34  C   UNL A   1      42.446  27.667  31.914  1.00  0.00     0.031 C 
ATOM     35  C   UNL A   1      38.663  29.968  29.529  1.00  0.00     0.029 A 
ATOM     36  N   UNL A   1      39.305  30.820  31.493  1.00  0.00    -0.354 N 
ATOM     37  C   UNL A   1      42.415  28.915  33.833  1.00  0.00     0.074 A 
ATOM     38  C   UNL A   1      43.001  27.807  33.109  1.00  0.00     0.031 C 
ATOM     39  C   UNL A   1      37.928  31.068  29.748  1.00  0.00     0.029 A 
ATOM     40  C   UNL A   1      38.280  31.622  31.051  1.00  0.00     0.049 A 
ATOM     41  H   UNL A   1      39.791  30.979  32.335  1.00  0.00     0.167 HD
ATOM     42  C   UNL A   1      42.815  29.331  35.059  1.00  0.00     0.037 A 
ATOM     43  C   UNL A   1      37.665  32.663  31.643  1.00  0.00     0.037 A 
ATOM     44  C   UNL A   1      42.252  30.463  35.748  1.00  0.00     0.049 A 
ATOM     45  C   UNL A   1      38.120  33.100  33.006  1.00  0.00     0.074 A 
ATOM     46  C   UNL A   1      42.611  30.989  36.978  1.00  0.00     0.029 A 
ATOM     47  N   UNL A   1      41.213  31.248  35.268  1.00  0.00    -0.354 N 
ATOM     48  N   UNL A   1      39.072  32.597  33.755  1.00  0.00    -0.248 NA
ATOM     49  C   UNL A   1      37.418  34.241  33.606  1.00  0.00     0.031 C 
ATOM     50  C   UNL A   1      41.764  32.067  37.257  1.00  0.00     0.029 A 
ATOM     51  C   UNL A   1      40.906  32.242  36.182  1.00  0.00     0.049 A 
ATOM     52  H   UNL A   1      40.761  31.117  34.403  1.00  0.00     0.167 HD
ATOM     53  C   UNL A   1      39.090  33.364  34.913  1.00  0.00     0.074 A 
ATOM     54  C   UNL A   1      38.065  34.379  34.756  1.00  0.00     0.031 C 
ATOM     55  C   UNL A   1      39.880  33.239  36.009  1.00  0.00     0.037 A 
BRANCH  42  56
ATOM     56  C   UNL A   1      43.888  28.533  35.749  1.00  0.00     0.058 A 
ATOM     57  C   UNL A   1      43.589  27.456  36.597  1.00  0.00     0.135 A 
ATOM     58  C   UNL A   1      45.242  28.841  35.538  1.00  0.00     0.135 A 
ATOM     59  F   UNL A   1      42.312  27.125  36.847  1.00  0.00    -0.206 F 
ATOM     60  C   UNL A   1      44.592  26.732  37.236  1.00  0.00     0.059 A 
ATOM     61  C   UNL A   1      46.263  28.116  36.145  1.00  0.00     0.059 A 
ATOM     62  F   UNL A   1      45.585  29.861  34.735  1.00  0.00    -0.206 F 
ATOM     63  C   UNL A   1      45.927  27.073  37.006  1.00  0.00     0.060 A 
BRANCH  63  64
ATOM     64  S   UNL A   1      47.220  26.131  37.844  1.00  0.00     0.124 S 
ATOM     65  O   UNL A   1      47.371  24.986  36.952  1.00  0.00    -0.237 OA
ATOM     66  O   UNL A   1      48.335  27.073  37.861  1.00  0.00    -0.237 OA
ATOM     67  O   UNL A   1      46.635  25.837  39.149  1.00  0.00    -0.744 OA
ENDBRANCH  63  64
ENDBRANCH  42  56
BRANCH  43  68
ATOM     68  C   UNL A   1      36.533  33.332  30.952  1.00  0.00     0.058 A 
ATOM     69  C   UNL A   1      35.211  33.158  31.384  1.00  0.00     0.135 A 
ATOM     70  C   UNL A   1      36.758  34.199  29.870  1.00  0.00     0.135 A 
ATOM     71  F   UNL A   1      34.945  32.333  32.408  1.00  0.00    -0.206 F 
ATOM     72  C   UNL A   1      34.152  33.818  30.771  1.00  0.00     0.059 A 
ATOM     73  C   UNL A   1      35.719  34.891  29.258  1.00  0.00     0.059 A 
ATOM     74  F   UNL A   1      38.008  34.412  29.428  1.00  0.00    -0.206 F 
ATOM     75  C   UNL A   1      34.417  34.689  29.711  1.00  0.00     0.060 A 
BRANCH  75  76
ATOM     76  S   UNL A   1      33.046  35.600  28.970  1.00  0.00     0.124 S 
ATOM     77  O   UNL A   1      32.377  34.552  28.207  1.00  0.00    -0.237 OA
ATOM     78  O   UNL A   1      32.330  36.091  30.143  1.00  0.00    -0.237 OA
ATOM     79  O   UNL A   1      33.716  36.628  28.180  1.00  0.00    -0.744 OA
ENDBRANCH  75  76
ENDBRANCH  43  68
BRANCH  55  80
ATOM     80  C   UNL A   1      39.679  34.238  37.113  1.00  0.00     0.058 A 
ATOM     81  C   UNL A   1      38.970  33.911  38.279  1.00  0.00     0.135 A 
ATOM     82  C   UNL A   1      40.238  35.522  37.020  1.00  0.00     0.135 A 
ATOM     83  F   UNL A   1      38.410  32.699  38.411  1.00  0.00    -0.206 F 
ATOM     84  C   UNL A   1      38.802  34.833  39.307  1.00  0.00     0.059 A 
ATOM     85  C   UNL A   1      40.103  36.452  38.046  1.00  0.00     0.059 A 
ATOM     86  F   UNL A   1      40.933  35.880  35.928  1.00  0.00    -0.206 F 
ATOM     87  C   UNL A   1      39.371  36.101  39.181  1.00  0.00     0.060 A 
BRANCH  87  88
ATOM     88  S   UNL A   1      39.171  37.281  40.532  1.00  0.00     0.124 S 
ATOM     89  O   UNL A   1      40.539  37.750  40.717  1.00  0.00    -0.237 OA
ATOM     90  O   UNL A   1      38.239  38.251  39.968  1.00  0.00    -0.237 OA
ATOM     91  O   UNL A   1      38.634  36.465  41.618  1.00  0.00    -0.744 OA
ENDBRANCH  87  88
ENDBRANCH  55  80
ENDBRANCH  29  30
ENDBRANCH  22  24
ENDBRANCH  21  22
ENDBRANCH  20  21
ENDBRANCH   1  20
TORSDOF 17
ENDMDL
MODEL 2
REMARK VINA RESULT:     -10.9      1.600      2.791
REMARK SMILES CC1(C)C(CNC(=O)[C@H]2C[C@H]2C(=O)OCCOC(=O)c2ccc(-c3c4nc(c(-c5c(F)cc(S(=O)(=O)[O-])cc5F)c5ccc([nH]5)c(-c5c(F)cc(S(=O)(=O)[O-])cc5F)c5nc(c(-c6c(F)cc(S(=O)(=O)[O-])cc6F)c6ccc3[nH]6)C=C5)C=C4)cc2)C1(C)C
REMARK SMILES IDX 15 1 14 2 12 3 13 4 11 5 9 6 10 7 7 8 6 9 8 11 5 12 4 13
REMARK SMILES IDX 1 14 2 15 3 16 86 17 87 18 88 19 16 20 17 21 18 22 19 23
REMARK SMILES IDX 20 24 21 25 85 26 22 27 84 28 23 29 24 30 25 31 78 32 26 33
REMARK SMILES IDX 83 34 77 35 79 36 27 37 82 38 76 39 75 40 28 42 62 43 41 44
REMARK SMILES IDX 61 45 42 46 45 47 60 48 80 49 43 50 44 51 59 53 81 54 46 55
REMARK SMILES IDX 29 56 30 57 39 58 31 59 32 60 38 61 40 62 33 63 34 64 35 65
REMARK SMILES IDX 36 66 37 67 63 68 64 69 73 70 65 71 66 72 72 73 74 74 67 75
REMARK SMILES IDX 68 76 69 77 70 78 71 79 47 80 48 81 57 82 49 83 50 84 56 85
REMARK SMILES IDX 58 86 51 87 52 88 53 89 54 90 55 91
REMARK H PARENT 6 10 79 41 45 52
REMARK Flexibility Score: inf
ROOT
ATOM      1  C   UNL A   1      39.681  21.506  26.192  1.00  0.00     0.274 C 
ENDROOT
BRANCH   1   2
ATOM      2  O   UNL A   1      38.397  22.097  25.913  1.00  0.00    -0.462 OA
BRANCH   2   3
ATOM      3  C   UNL A   1      37.575  21.359  25.127  1.00  0.00     0.309 C 
ATOM      4  O   UNL A   1      37.685  20.159  24.910  1.00  0.00    -0.252 OA
BRANCH   3   5
ATOM      5  C   UNL A   1      36.455  22.113  24.508  1.00  0.00     0.112 C 
ATOM      6  C   UNL A   1      35.083  22.395  25.074  1.00  0.00     0.093 C 
ATOM      7  C   UNL A   1      36.148  23.453  25.124  1.00  0.00     0.030 C 
BRANCH   6   8
ATOM      8  C   UNL A   1      34.509  21.510  26.109  1.00  0.00     0.224 C 
ATOM      9  N   UNL A   1      34.029  20.268  25.829  1.00  0.00    -0.356 N 
ATOM     10  H   UNL A   1      33.897  19.692  26.617  1.00  0.00     0.163 HD
ATOM     11  O   UNL A   1      34.584  21.858  27.283  1.00  0.00    -0.275 OA
BRANCH   9  12
ATOM     12  C   UNL A   1      33.684  19.659  24.580  1.00  0.00     0.120 C 
BRANCH  12  13
ATOM     13  C   UNL A   1      34.212  18.266  24.481  1.00  0.00     0.021 C 
ATOM     14  C   UNL A   1      34.337  15.861  25.487  1.00  0.00     0.012 C 
ATOM     15  C   UNL A   1      33.497  16.998  24.940  1.00  0.00    -0.025 C 
ATOM     16  C   UNL A   1      32.207  17.150  25.718  1.00  0.00     0.012 C 
ATOM     17  C   UNL A   1      33.600  17.345  23.433  1.00  0.00    -0.025 C 
ATOM     18  C   UNL A   1      34.597  16.669  22.515  1.00  0.00     0.012 C 
ATOM     19  C   UNL A   1      32.357  17.773  22.678  1.00  0.00     0.012 C 
ENDBRANCH  12  13
ENDBRANCH   9  12
ENDBRANCH   6   8
ENDBRANCH   3   5
ENDBRANCH   2   3
ENDBRANCH   1   2
BRANCH   1  20
ATOM     20  C   UNL A   1      40.676  22.549  26.702  1.00  0.00     0.275 C 
BRANCH  20  21
ATOM     21  O   UNL A   1      40.094  23.864  26.678  1.00  0.00    -0.458 OA
BRANCH  21  22
ATOM     22  C   UNL A   1      40.986  24.865  26.500  1.00  0.00     0.338 C 
ATOM     23  O   UNL A   1      41.630  25.115  25.496  1.00  0.00    -0.246 OA
BRANCH  22  24
ATOM     24  C   UNL A   1      41.066  25.696  27.705  1.00  0.00     0.060 A 
ATOM     25  C   UNL A   1      39.963  25.756  28.552  1.00  0.00     0.016 A 
ATOM     26  C   UNL A   1      42.151  26.549  27.896  1.00  0.00     0.016 A 
ATOM     27  C   UNL A   1      39.894  26.726  29.544  1.00  0.00     0.010 A 
ATOM     28  C   UNL A   1      42.115  27.477  28.941  1.00  0.00     0.010 A 
ATOM     29  C   UNL A   1      40.969  27.598  29.750  1.00  0.00    -0.014 A 
BRANCH  29  30
ATOM     30  C   UNL A   1      40.871  28.658  30.784  1.00  0.00     0.031 A 
ATOM     31  C   UNL A   1      41.804  28.651  31.964  1.00  0.00     0.074 A 
ATOM     32  C   UNL A   1      39.953  29.636  30.652  1.00  0.00     0.049 A 
ATOM     33  N   UNL A   1      41.803  29.419  33.023  1.00  0.00    -0.248 NA
ATOM     34  C   UNL A   1      42.874  27.640  31.959  1.00  0.00     0.031 C 
ATOM     35  C   UNL A   1      39.013  29.766  29.536  1.00  0.00     0.029 A 
ATOM     36  N   UNL A   1      39.657  30.702  31.461  1.00  0.00    -0.354 N 
ATOM     37  C   UNL A   1      42.835  28.956  33.831  1.00  0.00     0.074 A 
ATOM     38  C   UNL A   1      43.439  27.836  33.142  1.00  0.00     0.031 C 
ATOM     39  C   UNL A   1      38.256  30.856  29.724  1.00  0.00     0.029 A 
ATOM     40  C   UNL A   1      38.609  31.465  31.002  1.00  0.00     0.049 A 
ATOM     41  H   UNL A   1      40.148  30.903  32.290  1.00  0.00     0.167 HD
ATOM     42  C   UNL A   1      43.239  29.425  35.036  1.00  0.00     0.037 A 
ATOM     43  C   UNL A   1      37.976  32.512  31.563  1.00  0.00     0.037 A 
ATOM     44  C   UNL A   1      42.657  30.569  35.691  1.00  0.00     0.049 A 
ATOM     45  C   UNL A   1      38.436  33.009  32.904  1.00  0.00     0.074 A 
ATOM     46  C   UNL A   1      43.018  31.147  36.897  1.00  0.00     0.029 A 
ATOM     47  N   UNL A   1      41.595  31.311  35.194  1.00  0.00    -0.354 N 
ATOM     48  N   UNL A   1      39.408  32.556  33.659  1.00  0.00    -0.248 NA
ATOM     49  C   UNL A   1      37.714  34.155  33.470  1.00  0.00     0.031 C 
ATOM     50  C   UNL A   1      42.149  32.215  37.146  1.00  0.00     0.029 A 
ATOM     51  C   UNL A   1      41.275  32.331  36.076  1.00  0.00     0.049 A 
ATOM     52  H   UNL A   1      41.137  31.139  34.341  1.00  0.00     0.167 HD
ATOM     53  C   UNL A   1      39.420  33.365  34.788  1.00  0.00     0.074 A 
ATOM     54  C   UNL A   1      38.371  34.349  34.606  1.00  0.00     0.031 C 
ATOM     55  C   UNL A   1      40.224  33.298  35.878  1.00  0.00     0.037 A 
BRANCH  42  56
ATOM     56  C   UNL A   1      44.337  28.678  35.742  1.00  0.00     0.058 A 
ATOM     57  C   UNL A   1      44.072  27.628  36.635  1.00  0.00     0.135 A 
ATOM     58  C   UNL A   1      45.682  29.006  35.501  1.00  0.00     0.135 A 
ATOM     59  F   UNL A   1      42.806  27.281  36.915  1.00  0.00    -0.206 F 
ATOM     60  C   UNL A   1      45.099  26.951  37.288  1.00  0.00     0.059 A 
ATOM     61  C   UNL A   1      46.725  28.326  36.123  1.00  0.00     0.059 A 
ATOM     62  F   UNL A   1      45.992  30.000  34.655  1.00  0.00    -0.206 F 
ATOM     63  C   UNL A   1      46.423  27.311  37.028  1.00  0.00     0.060 A 
BRANCH  63  64
ATOM     64  S   UNL A   1      47.746  26.430  37.884  1.00  0.00     0.124 S 
ATOM     65  O   UNL A   1      47.319  25.042  37.732  1.00  0.00    -0.237 OA
ATOM     66  O   UNL A   1      48.928  26.816  37.120  1.00  0.00    -0.237 OA
ATOM     67  O   UNL A   1      47.684  26.960  39.243  1.00  0.00    -0.744 OA
ENDBRANCH  63  64
ENDBRANCH  42  56
BRANCH  43  68
ATOM     68  C   UNL A   1      36.822  33.130  30.861  1.00  0.00     0.058 A 
ATOM     69  C   UNL A   1      35.503  32.857  31.250  1.00  0.00     0.135 A 
ATOM     70  C   UNL A   1      37.019  34.046  29.814  1.00  0.00     0.135 A 
ATOM     71  F   UNL A   1      35.264  31.983  32.240  1.00  0.00    -0.206 F 
ATOM     72  C   UNL A   1      34.419  33.467  30.628  1.00  0.00     0.059 A 
ATOM     73  C   UNL A   1      35.953  34.689  29.194  1.00  0.00     0.059 A 
ATOM     74  F   UNL A   1      38.263  34.353  29.415  1.00  0.00    -0.206 F 
ATOM     75  C   UNL A   1      34.656  34.389  29.604  1.00  0.00     0.060 A 
BRANCH  75  76
ATOM     76  S   UNL A   1      33.248  35.234  28.853  1.00  0.00     0.124 S 
ATOM     77  O   UNL A   1      32.511  35.678  30.031  1.00  0.00    -0.237 OA
ATOM     78  O   UNL A   1      33.897  36.283  28.073  1.00  0.00    -0.237 OA
ATOM     79  O   UNL A   1      32.609  34.184  28.065  1.00  0.00    -0.744 OA
ENDBRANCH  75  76
ENDBRANCH  43  68
BRANCH  55  80
ATOM     80  C   UNL A   1      40.013  34.331  36.948  1.00  0.00     0.058 A 
ATOM     81  C   UNL A   1      39.174  34.090  38.047  1.00  0.00     0.135 A 
ATOM     82  C   UNL A   1      40.690  35.560  36.893  1.00  0.00     0.135 A 
ATOM     83  F   UNL A   1      38.500  32.934  38.140  1.00  0.00    -0.206 F 
ATOM     84  C   UNL A   1      38.995  35.043  39.045  1.00  0.00     0.059 A 
ATOM     85  C   UNL A   1      40.544  36.518  37.892  1.00  0.00     0.059 A 
ATOM     86  F   UNL A   1      41.510  35.835  35.866  1.00  0.00    -0.206 F 
ATOM     87  C   UNL A   1      39.684  36.254  38.957  1.00  0.00     0.060 A 
BRANCH  87  88
ATOM     88  S   UNL A   1      39.465  37.473  40.271  1.00  0.00     0.124 S 
ATOM     89  O   UNL A   1      38.155  38.024  39.944  1.00  0.00    -0.237 OA
ATOM     90  O   UNL A   1      39.525  36.652  41.475  1.00  0.00    -0.237 OA
ATOM     91  O   UNL A   1      40.593  38.381  40.083  1.00  0.00    -0.744 OA
ENDBRANCH  87  88
ENDBRANCH  55  80
ENDBRANCH  29  30
ENDBRANCH  22  24
ENDBRANCH  21  22
ENDBRANCH  20  21
ENDBRANCH   1  20
TORSDOF 17
ENDMDL
MODEL 3
REMARK VINA RESULT:     -10.8      6.977     12.457
REMARK SMILES CC1(C)C(CNC(=O)[C@H]2C[C@H]2C(=O)OCCOC(=O)c2ccc(-c3c4nc(c(-c5c(F)cc(S(=O)(=O)[O-])cc5F)c5ccc([nH]5)c(-c5c(F)cc(S(=O)(=O)[O-])cc5F)c5nc(c(-c6c(F)cc(S(=O)(=O)[O-])cc6F)c6ccc3[nH]6)C=C5)C=C4)cc2)C1(C)C
REMARK SMILES IDX 15 1 14 2 12 3 13 4 11 5 9 6 10 7 7 8 6 9 8 11 5 12 4 13
REMARK SMILES IDX 1 14 2 15 3 16 86 17 87 18 88 19 16 20 17 21 18 22 19 23
REMARK SMILES IDX 20 24 21 25 85 26 22 27 84 28 23 29 24 30 25 31 78 32 26 33
REMARK SMILES IDX 83 34 77 35 79 36 27 37 82 38 76 39 75 40 28 42 62 43 41 44
REMARK SMILES IDX 61 45 42 46 45 47 60 48 80 49 43 50 44 51 59 53 81 54 46 55
REMARK SMILES IDX 29 56 30 57 39 58 31 59 32 60 38 61 40 62 33 63 34 64 35 65
REMARK SMILES IDX 36 66 37 67 63 68 64 69 73 70 65 71 66 72 72 73 74 74 67 75
REMARK SMILES IDX 68 76 69 77 70 78 71 79 47 80 48 81 57 82 49 83 50 84 56 85
REMARK SMILES IDX 58 86 51 87 52 88 53 89 54 90 55 91
REMARK H PARENT 6 10 79 41 45 52
REMARK Flexibility Score: inf
ROOT
ATOM      1  C   UNL A   1      33.452  30.544  27.431  1.00  0.00     0.274 C 
ENDROOT
BRANCH   1   2
ATOM      2  O   UNL A   1      33.797  30.094  26.106  1.00  0.00    -0.462 OA
BRANCH   2   3
ATOM      3  C   UNL A   1      33.692  28.758  25.900  1.00  0.00     0.309 C 
ATOM      4  O   UNL A   1      34.382  27.899  26.431  1.00  0.00    -0.252 OA
BRANCH   3   5
ATOM      5  C   UNL A   1      32.626  28.352  24.948  1.00  0.00     0.112 C 
ATOM      6  C   UNL A   1      31.311  27.668  25.241  1.00  0.00     0.093 C 
ATOM      7  C   UNL A   1      31.351  29.152  25.011  1.00  0.00     0.030 C 
BRANCH   6   8
ATOM      8  C   UNL A   1      31.153  26.854  26.464  1.00  0.00     0.224 C 
ATOM      9  N   UNL A   1      31.355  25.508  26.482  1.00  0.00    -0.356 N 
ATOM     10  H   UNL A   1      31.454  25.120  27.381  1.00  0.00     0.163 HD
ATOM     11  O   UNL A   1      30.957  27.430  27.530  1.00  0.00    -0.275 OA
BRANCH   9  12
ATOM     12  C   UNL A   1      31.447  24.563  25.411  1.00  0.00     0.120 C 
BRANCH  12  13
ATOM     13  C   UNL A   1      32.721  23.787  25.467  1.00  0.00     0.021 C 
ATOM     14  C   UNL A   1      34.030  21.619  24.838  1.00  0.00     0.012 C 
ATOM     15  C   UNL A   1      33.242  22.835  24.394  1.00  0.00    -0.025 C 
ATOM     16  C   UNL A   1      32.331  22.503  23.232  1.00  0.00     0.012 C 
ATOM     17  C   UNL A   1      33.871  24.240  24.578  1.00  0.00    -0.025 C 
ATOM     18  C   UNL A   1      35.190  24.447  25.293  1.00  0.00     0.012 C 
ATOM     19  C   UNL A   1      33.643  25.304  23.523  1.00  0.00     0.012 C 
ENDBRANCH  12  13
ENDBRANCH   9  12
ENDBRANCH   6   8
ENDBRANCH   3   5
ENDBRANCH   2   3
ENDBRANCH   1   2
BRANCH   1  20
ATOM     20  C   UNL A   1      34.675  31.084  28.171  1.00  0.00     0.275 C 
BRANCH  20  21
ATOM     21  O   UNL A   1      35.624  30.034  28.426  1.00  0.00    -0.458 OA
BRANCH  21  22
ATOM     22  C   UNL A   1      36.350  30.198  29.555  1.00  0.00     0.338 C 
ATOM     23  O   UNL A   1      35.933  30.376  30.686  1.00  0.00    -0.246 OA
BRANCH  22  24
ATOM     24  C   UNL A   1      37.782  30.089  29.260  1.00  0.00     0.060 A 
ATOM     25  C   UNL A   1      38.177  29.815  27.953  1.00  0.00     0.016 A 
ATOM     26  C   UNL A   1      38.711  30.074  30.298  1.00  0.00     0.016 A 
ATOM     27  C   UNL A   1      39.487  29.439  27.684  1.00  0.00     0.010 A 
ATOM     28  C   UNL A   1      40.045  29.768  30.016  1.00  0.00     0.010 A 
ATOM     29  C   UNL A   1      40.436  29.410  28.712  1.00  0.00    -0.014 A 
BRANCH  29  30
ATOM     30  C   UNL A   1      41.823  28.967  28.422  1.00  0.00     0.031 A 
ATOM     31  C   UNL A   1      42.956  29.956  28.464  1.00  0.00     0.074 A 
ATOM     32  C   UNL A   1      42.065  27.673  28.140  1.00  0.00     0.049 A 
ATOM     33  N   UNL A   1      44.211  29.789  28.134  1.00  0.00    -0.248 NA
ATOM     34  C   UNL A   1      42.634  31.316  28.927  1.00  0.00     0.031 C 
ATOM     35  C   UNL A   1      41.052  26.615  28.100  1.00  0.00     0.029 A 
ATOM     36  N   UNL A   1      43.232  27.025  27.830  1.00  0.00    -0.354 N 
ATOM     37  C   UNL A   1      44.817  31.029  28.301  1.00  0.00     0.074 A 
ATOM     38  C   UNL A   1      43.791  31.941  28.758  1.00  0.00     0.031 C 
ATOM     39  C   UNL A   1      41.644  25.450  27.798  1.00  0.00     0.029 A 
ATOM     40  C   UNL A   1      43.063  25.688  27.558  1.00  0.00     0.049 A 
ATOM     41  H   UNL A   1      44.108  27.474  27.805  1.00  0.00     0.167 HD
ATOM     42  C   UNL A   1      46.112  31.371  28.092  1.00  0.00     0.037 A 
ATOM     43  C   UNL A   1      43.942  24.764  27.126  1.00  0.00     0.037 A 
ATOM     44  C   UNL A   1      47.133  30.442  27.679  1.00  0.00     0.049 A 
ATOM     45  C   UNL A   1      45.370  25.168  26.894  1.00  0.00     0.074 A 
ATOM     46  C   UNL A   1      48.482  30.680  27.475  1.00  0.00     0.029 A 
ATOM     47  N   UNL A   1      46.920  29.097  27.412  1.00  0.00    -0.354 N 
ATOM     48  N   UNL A   1      45.926  26.345  27.048  1.00  0.00    -0.248 NA
ATOM     49  C   UNL A   1      46.288  24.122  26.425  1.00  0.00     0.031 C 
ATOM     50  C   UNL A   1      49.075  29.487  27.047  1.00  0.00     0.029 A 
ATOM     51  C   UNL A   1      48.107  28.496  27.027  1.00  0.00     0.049 A 
ATOM     52  H   UNL A   1      46.052  28.638  27.484  1.00  0.00     0.167 HD
ATOM     53  C   UNL A   1      47.262  26.183  26.703  1.00  0.00     0.074 A 
ATOM     54  C   UNL A   1      47.434  24.786  26.351  1.00  0.00     0.031 C 
ATOM     55  C   UNL A   1      48.256  27.105  26.677  1.00  0.00     0.037 A 
BRANCH  42  56
ATOM     56  C   UNL A   1      46.488  32.816  28.269  1.00  0.00     0.058 A 
ATOM     57  C   UNL A   1      46.410  33.743  27.218  1.00  0.00     0.135 A 
ATOM     58  C   UNL A   1      46.913  33.287  29.523  1.00  0.00     0.135 A 
ATOM     59  F   UNL A   1      46.024  33.347  25.995  1.00  0.00    -0.206 F 
ATOM     60  C   UNL A   1      46.770  35.076  27.394  1.00  0.00     0.059 A 
ATOM     61  C   UNL A   1      47.254  34.620  29.729  1.00  0.00     0.059 A 
ATOM     62  F   UNL A   1      47.005  32.444  30.564  1.00  0.00    -0.206 F 
ATOM     63  C   UNL A   1      47.195  35.504  28.654  1.00  0.00     0.060 A 
BRANCH  63  64
ATOM     64  S   UNL A   1      47.664  37.234  28.870  1.00  0.00     0.124 S 
ATOM     65  O   UNL A   1      48.794  37.347  27.952  1.00  0.00    -0.237 OA
ATOM     66  O   UNL A   1      46.452  37.943  28.471  1.00  0.00    -0.237 OA
ATOM     67  O   UNL A   1      47.998  37.322  30.288  1.00  0.00    -0.744 OA
ENDBRANCH  63  64
ENDBRANCH  42  56
BRANCH  43  68
ATOM     68  C   UNL A   1      43.475  23.379  26.860  1.00  0.00     0.058 A 
ATOM     69  C   UNL A   1      43.339  22.896  25.551  1.00  0.00     0.135 A 
ATOM     70  C   UNL A   1      43.200  22.494  27.916  1.00  0.00     0.135 A 
ATOM     71  F   UNL A   1      43.583  23.706  24.510  1.00  0.00    -0.206 F 
ATOM     72  C   UNL A   1      42.947  21.586  25.296  1.00  0.00     0.059 A 
ATOM     73  C   UNL A   1      42.832  21.173  27.687  1.00  0.00     0.059 A 
ATOM     74  F   UNL A   1      43.330  22.904  29.187  1.00  0.00    -0.206 F 
ATOM     75  C   UNL A   1      42.702  20.729  26.372  1.00  0.00     0.060 A 
BRANCH  75  76
ATOM     76  S   UNL A   1      42.267  19.010  26.033  1.00  0.00     0.124 S 
ATOM     77  O   UNL A   1      40.829  19.109  25.812  1.00  0.00    -0.237 OA
ATOM     78  O   UNL A   1      43.075  18.713  24.854  1.00  0.00    -0.237 OA
ATOM     79  O   UNL A   1      42.673  18.316  27.252  1.00  0.00    -0.744 OA
ENDBRANCH  75  76
ENDBRANCH  43  68
BRANCH  55  80
ATOM     80  C   UNL A   1      49.622  26.627  26.274  1.00  0.00     0.058 A 
ATOM     81  C   UNL A   1      50.070  26.718  24.947  1.00  0.00     0.135 A 
ATOM     82  C   UNL A   1      50.506  26.109  27.234  1.00  0.00     0.135 A 
ATOM     83  F   UNL A   1      49.259  27.198  23.992  1.00  0.00    -0.206 F 
ATOM     84  C   UNL A   1      51.342  26.290  24.581  1.00  0.00     0.059 A 
ATOM     85  C   UNL A   1      51.791  25.698  26.894  1.00  0.00     0.059 A 
ATOM     86  F   UNL A   1      50.127  26.009  28.518  1.00  0.00    -0.206 F 
ATOM     87  C   UNL A   1      52.195  25.781  25.562  1.00  0.00     0.060 A 
BRANCH  87  88
ATOM     88  S   UNL A   1      53.853  25.254  25.081  1.00  0.00     0.124 S 
ATOM     89  O   UNL A   1      53.654  23.825  24.861  1.00  0.00    -0.237 OA
ATOM     90  O   UNL A   1      54.102  26.050  23.884  1.00  0.00    -0.237 OA
ATOM     91  O   UNL A   1      54.670  25.603  26.240  1.00  0.00    -0.744 OA
ENDBRANCH  87  88
ENDBRANCH  55  80
ENDBRANCH  29  30
ENDBRANCH  22  24
ENDBRANCH  21  22
ENDBRANCH  20  21
ENDBRANCH   1  20
TORSDOF 17
ENDMDL
