MODEL 1
REMARK VINA RESULT:     -11.5      0.000      0.000
REMARK SMILES CCN1C(=O)N/C(=C/c2cc(Cl)c(OCc3cccc(C(=O)OCCOC(=O)c4ccc(-c5c6nc(c(-c7c(F)cc(S(=O)(=O)[O-])cc7F)c7ccc([nH]7)c(-c7c(F)cc(S(=O)(=O)[O-])cc7F)c7nc(c(-c8c(F)cc(S(=O)(=O)[O-])cc8F)c8ccc5[nH]8)C=C7)C=C6)cc4)c3)c(OC)c2)C1=O
REMARK SMILES IDX 24 1 23 2 21 3 22 4 20 5 16 6 17 7 95 8 18 9 19 10 15 11
REMARK SMILES IDX 14 12 13 13 9 14 10 15 99 16 11 17 96 18 12 19 8 20 3 21
REMARK SMILES IDX 4 22 100 23 5 24 6 25 7 26 101 27 2 29 1 30 97 31 98 32
REMARK SMILES IDX 25 33 26 34 27 35 28 36 29 37 30 38 94 39 31 40 93 41 32 42
REMARK SMILES IDX 33 43 34 44 87 45 35 46 92 47 86 48 88 49 36 50 91 51 85 52
REMARK SMILES IDX 84 53 37 55 71 56 50 57 70 58 51 59 54 60 69 61 89 62 52 63
REMARK SMILES IDX 53 64 68 66 90 67 55 68 38 69 39 70 48 71 40 72 41 73 47 74
REMARK SMILES IDX 49 75 42 76 43 77 44 78 45 79 46 80 72 81 73 82 82 83 74 84
REMARK SMILES IDX 75 85 81 86 83 87 76 88 77 89 78 90 79 91 80 92 56 93 57 94
REMARK SMILES IDX 66 95 58 96 59 97 65 98 67 99 60 100 61 101 62 102 63 103
REMARK SMILES IDX 64 104
REMARK H PARENT 6 28 88 54 54 65
REMARK Flexibility Score: inf
ROOT
ATOM      1  C   UNL A   1      46.512  23.982  25.695  1.00  0.00     0.275 C 
ENDROOT
BRANCH   1   2
ATOM      2  O   UNL A   1      45.813  22.827  26.204  1.00  0.00    -0.458 OA
BRANCH   2   3
ATOM      3  C   UNL A   1      45.726  21.758  25.370  1.00  0.00     0.338 C 
ATOM      4  O   UNL A   1      46.643  21.254  24.745  1.00  0.00    -0.246 OA
BRANCH   3   5
ATOM      5  C   UNL A   1      44.370  21.157  25.458  1.00  0.00     0.060 A 
ATOM      6  C   UNL A   1      42.007  21.249  26.044  1.00  0.00    -0.010 A 
ATOM      7  C   UNL A   1      41.972  19.851  25.983  1.00  0.00     0.007 A 
ATOM      8  C   UNL A   1      43.249  21.889  25.858  1.00  0.00     0.023 A 
ATOM      9  C   UNL A   1      43.057  19.132  25.490  1.00  0.00     0.001 A 
ATOM     10  C   UNL A   1      44.228  19.799  25.158  1.00  0.00     0.016 A 
BRANCH   6  11
ATOM     11  C   UNL A   1      40.775  22.122  26.218  1.00  0.00     0.265 C 
BRANCH  11  12
ATOM     12  O   UNL A   1      39.467  21.558  26.346  1.00  0.00    -0.483 OA
BRANCH  12  13
ATOM     13  C   UNL A   1      38.347  22.140  25.813  1.00  0.00     0.180 A 
ATOM     14  C   UNL A   1      36.140  23.098  24.337  1.00  0.00    -0.018 A 
ATOM     15  C   UNL A   1      36.825  23.937  25.220  1.00  0.00     0.033 A 
ATOM     16  C   UNL A   1      36.509  21.752  24.249  1.00  0.00     0.058 A 
ATOM     17  C   UNL A   1      37.909  23.463  25.973  1.00  0.00     0.087 A 
ATOM     18  C   UNL A   1      37.600  21.269  24.983  1.00  0.00     0.162 A 
ATOM     19  Cl  UNL A   1      38.595  24.579  27.099  1.00  0.00    -0.080 Cl
BRANCH  14  20
ATOM     20  C   UNL A   1      35.003  23.594  23.555  1.00  0.00     0.040 C 
ATOM     21  N   UNL A   1      31.719  22.882  24.844  1.00  0.00    -0.259 N 
ATOM     22  C   UNL A   1      31.464  23.567  23.675  1.00  0.00     0.328 C 
ATOM     23  C   UNL A   1      33.076  22.788  25.071  1.00  0.00     0.278 C 
ATOM     24  O   UNL A   1      30.389  23.869  23.185  1.00  0.00    -0.248 OA
ATOM     25  N   UNL A   1      32.682  23.881  23.093  1.00  0.00    -0.303 N 
ATOM     26  C   UNL A   1      33.712  23.435  23.869  1.00  0.00     0.109 C 
ATOM     27  O   UNL A   1      33.657  22.324  26.032  1.00  0.00    -0.267 OA
ATOM     28  H   UNL A   1      32.790  24.359  22.239  1.00  0.00     0.172 HD
BRANCH  21  29
ATOM     29  C   UNL A   1      30.712  22.452  25.798  1.00  0.00     0.127 C 
ATOM     30  C   UNL A   1      30.422  23.474  26.887  1.00  0.00     0.028 C 
ENDBRANCH  21  29
ENDBRANCH  14  20
BRANCH  18  31
ATOM     31  O   UNL A   1      38.049  19.970  24.933  1.00  0.00    -0.493 OA
ATOM     32  C   UNL A   1      37.085  18.930  24.873  1.00  0.00     0.278 C 
ENDBRANCH  18  31
ENDBRANCH  12  13
ENDBRANCH  11  12
ENDBRANCH   6  11
ENDBRANCH   3   5
ENDBRANCH   2   3
ENDBRANCH   1   2
BRANCH   1  33
ATOM     33  C   UNL A   1      45.566  25.177  25.545  1.00  0.00     0.275 C 
BRANCH  33  34
ATOM     34  O   UNL A   1      44.542  25.144  26.556  1.00  0.00    -0.458 OA
BRANCH  34  35
ATOM     35  C   UNL A   1      43.313  25.531  26.141  1.00  0.00     0.338 C 
ATOM     36  O   UNL A   1      42.757  25.238  25.097  1.00  0.00    -0.246 OA
BRANCH  35  37
ATOM     37  C   UNL A   1      42.650  26.314  27.195  1.00  0.00     0.060 A 
ATOM     38  C   UNL A   1      43.028  27.641  27.336  1.00  0.00     0.016 A 
ATOM     39  C   UNL A   1      41.820  25.725  28.143  1.00  0.00     0.016 A 
ATOM     40  C   UNL A   1      42.702  28.356  28.482  1.00  0.00     0.010 A 
ATOM     41  C   UNL A   1      41.382  26.488  29.237  1.00  0.00     0.010 A 
ATOM     42  C   UNL A   1      41.855  27.799  29.448  1.00  0.00    -0.014 A 
BRANCH  42  43
ATOM     43  C   UNL A   1      41.496  28.577  30.675  1.00  0.00     0.031 A 
ATOM     44  C   UNL A   1      40.304  29.504  30.669  1.00  0.00     0.074 A 
ATOM     45  C   UNL A   1      42.225  28.448  31.804  1.00  0.00     0.049 A 
ATOM     46  N   UNL A   1      39.931  30.381  31.568  1.00  0.00    -0.248 NA
ATOM     47  C   UNL A   1      39.423  29.450  29.491  1.00  0.00     0.031 C 
ATOM     48  C   UNL A   1      43.378  27.559  31.976  1.00  0.00     0.029 A 
ATOM     49  N   UNL A   1      42.107  29.063  33.028  1.00  0.00    -0.354 N 
ATOM     50  C   UNL A   1      38.811  31.017  31.041  1.00  0.00     0.074 A 
ATOM     51  C   UNL A   1      38.575  30.439  29.737  1.00  0.00     0.031 C 
ATOM     52  C   UNL A   1      43.833  27.658  33.233  1.00  0.00     0.029 A 
ATOM     53  C   UNL A   1      43.076  28.690  33.931  1.00  0.00     0.049 A 
ATOM     54  H   UNL A   1      41.395  29.710  33.240  1.00  0.00     0.167 HD
ATOM     55  C   UNL A   1      38.047  31.992  31.596  1.00  0.00     0.037 A 
ATOM     56  C   UNL A   1      43.368  29.154  35.163  1.00  0.00     0.037 A 
ATOM     57  C   UNL A   1      38.260  32.530  32.916  1.00  0.00     0.049 A 
ATOM     58  C   UNL A   1      42.539  30.268  35.738  1.00  0.00     0.074 A 
ATOM     59  C   UNL A   1      37.530  33.503  33.578  1.00  0.00     0.029 A 
ATOM     60  N   UNL A   1      39.272  32.139  33.783  1.00  0.00    -0.354 N 
ATOM     61  N   UNL A   1      41.506  30.882  35.212  1.00  0.00    -0.248 NA
ATOM     62  C   UNL A   1      42.922  30.763  37.067  1.00  0.00     0.031 C 
ATOM     63  C   UNL A   1      38.131  33.739  34.818  1.00  0.00     0.029 A 
ATOM     64  C   UNL A   1      39.197  32.865  34.960  1.00  0.00     0.049 A 
ATOM     65  H   UNL A   1      39.945  31.447  33.589  1.00  0.00     0.167 HD
ATOM     66  C   UNL A   1      41.098  31.816  36.158  1.00  0.00     0.074 A 
ATOM     67  C   UNL A   1      41.987  31.675  37.293  1.00  0.00     0.031 C 
ATOM     68  C   UNL A   1      40.080  32.710  36.091  1.00  0.00     0.037 A 
BRANCH  55  69
ATOM     69  C   UNL A   1      36.927  32.570  30.768  1.00  0.00     0.058 A 
ATOM     70  C   UNL A   1      35.605  32.111  30.871  1.00  0.00     0.135 A 
ATOM     71  C   UNL A   1      37.179  33.633  29.883  1.00  0.00     0.135 A 
ATOM     72  F   UNL A   1      35.304  31.090  31.690  1.00  0.00    -0.206 F 
ATOM     73  C   UNL A   1      34.580  32.663  30.105  1.00  0.00     0.059 A 
ATOM     74  C   UNL A   1      36.165  34.222  29.133  1.00  0.00     0.059 A 
ATOM     75  F   UNL A   1      38.423  34.116  29.745  1.00  0.00    -0.206 F 
ATOM     76  C   UNL A   1      34.870  33.719  29.239  1.00  0.00     0.060 A 
BRANCH  76  77
ATOM     77  S   UNL A   1      33.528  34.425  28.258  1.00  0.00     0.124 S 
ATOM     78  O   UNL A   1      32.952  33.230  27.650  1.00  0.00    -0.237 OA
ATOM     79  O   UNL A   1      32.708  35.075  29.276  1.00  0.00    -0.237 OA
ATOM     80  O   UNL A   1      34.215  35.326  27.339  1.00  0.00    -0.744 OA
ENDBRANCH  76  77
ENDBRANCH  55  69
BRANCH  56  81
ATOM     81  C   UNL A   1      44.523  28.591  35.917  1.00  0.00     0.058 A 
ATOM     82  C   UNL A   1      44.375  27.456  36.727  1.00  0.00     0.135 A 
ATOM     83  C   UNL A   1      45.800  29.171  35.835  1.00  0.00     0.135 A 
ATOM     84  F   UNL A   1      43.175  26.869  36.849  1.00  0.00    -0.206 F 
ATOM     85  C   UNL A   1      45.447  26.924  37.438  1.00  0.00     0.059 A 
ATOM     86  C   UNL A   1      46.893  28.637  36.507  1.00  0.00     0.059 A 
ATOM     87  F   UNL A   1      45.999  30.253  35.065  1.00  0.00    -0.206 F 
ATOM     88  C   UNL A   1      46.704  27.518  37.317  1.00  0.00     0.060 A 
BRANCH  88  89
ATOM     89  S   UNL A   1      48.097  26.790  38.207  1.00  0.00     0.124 S 
ATOM     90  O   UNL A   1      48.903  27.968  38.504  1.00  0.00    -0.237 OA
ATOM     91  O   UNL A   1      47.436  26.163  39.347  1.00  0.00    -0.237 OA
ATOM     92  O   UNL A   1      48.669  25.864  37.234  1.00  0.00    -0.744 OA
ENDBRANCH  88  89
ENDBRANCH  56  81
BRANCH  68  93
ATOM     93  C   UNL A   1      39.833  33.570  37.300  1.00  0.00     0.058 A 
ATOM     94  C   UNL A   1      40.505  34.786  37.499  1.00  0.00     0.135 A 
ATOM     95  C   UNL A   1      38.879  33.187  38.256  1.00  0.00     0.135 A 
ATOM     96  F   UNL A   1      41.436  35.196  36.621  1.00  0.00    -0.206 F 
ATOM     97  C   UNL A   1      40.260  35.578  38.616  1.00  0.00     0.059 A 
ATOM     98  C   UNL A   1      38.593  33.979  39.363  1.00  0.00     0.059 A 
ATOM     99  F   UNL A   1      38.200  32.038  38.112  1.00  0.00    -0.206 F 
ATOM    100  C   UNL A   1      39.298  35.167  39.542  1.00  0.00     0.060 A 
BRANCH 100 101
ATOM    101  S   UNL A   1      38.969  36.219  40.971  1.00  0.00     0.124 S 
ATOM    102  O   UNL A   1      37.868  35.508  41.613  1.00  0.00    -0.237 OA
ATOM    103  O   UNL A   1      40.244  36.188  41.682  1.00  0.00    -0.237 OA
ATOM    104  O   UNL A   1      38.623  37.505  40.374  1.00  0.00    -0.744 OA
ENDBRANCH 100 101
ENDBRANCH  68  93
ENDBRANCH  42  43
ENDBRANCH  35  37
ENDBRANCH  34  35
ENDBRANCH  33  34
ENDBRANCH   1  33
TORSDOF 20
ENDMDL
MODEL 2
REMARK VINA RESULT:     -11.3      5.900     12.769
REMARK SMILES CCN1C(=O)N/C(=C/c2cc(Cl)c(OCc3cccc(C(=O)OCCOC(=O)c4ccc(-c5c6nc(c(-c7c(F)cc(S(=O)(=O)[O-])cc7F)c7ccc([nH]7)c(-c7c(F)cc(S(=O)(=O)[O-])cc7F)c7nc(c(-c8c(F)cc(S(=O)(=O)[O-])cc8F)c8ccc5[nH]8)C=C7)C=C6)cc4)c3)c(OC)c2)C1=O
REMARK SMILES IDX 24 1 23 2 21 3 22 4 20 5 16 6 17 7 95 8 18 9 19 10 15 11
REMARK SMILES IDX 14 12 13 13 9 14 10 15 99 16 11 17 96 18 12 19 8 20 3 21
REMARK SMILES IDX 4 22 100 23 5 24 6 25 7 26 101 27 2 29 1 30 97 31 98 32
REMARK SMILES IDX 25 33 26 34 27 35 28 36 29 37 30 38 94 39 31 40 93 41 32 42
REMARK SMILES IDX 33 43 34 44 87 45 35 46 92 47 86 48 88 49 36 50 91 51 85 52
REMARK SMILES IDX 84 53 37 55 71 56 50 57 70 58 51 59 54 60 69 61 89 62 52 63
REMARK SMILES IDX 53 64 68 66 90 67 55 68 38 69 39 70 48 71 40 72 41 73 47 74
REMARK SMILES IDX 49 75 42 76 43 77 44 78 45 79 46 80 72 81 73 82 82 83 74 84
REMARK SMILES IDX 75 85 81 86 83 87 76 88 77 89 78 90 79 91 80 92 56 93 57 94
REMARK SMILES IDX 66 95 58 96 59 97 65 98 67 99 60 100 61 101 62 102 63 103
REMARK SMILES IDX 64 104
REMARK H PARENT 6 28 88 54 54 65
REMARK Flexibility Score: inf
ROOT
ATOM      1  C   UNL A   1      35.589  33.598  33.598  1.00  0.00     0.275 C 
ENDROOT
BRANCH   1   2
ATOM      2  O   UNL A   1      34.323  34.048  33.071  1.00  0.00    -0.458 OA
BRANCH   2   3
ATOM      3  C   UNL A   1      34.313  35.278  32.493  1.00  0.00     0.338 C 
ATOM      4  O   UNL A   1      34.659  36.323  33.015  1.00  0.00    -0.246 OA
BRANCH   3   5
ATOM      5  C   UNL A   1      33.985  35.155  31.049  1.00  0.00     0.060 A 
ATOM      6  C   UNL A   1      34.261  34.128  28.857  1.00  0.00    -0.010 A 
ATOM      7  C   UNL A   1      33.645  35.251  28.291  1.00  0.00     0.007 A 
ATOM      8  C   UNL A   1      34.500  34.134  30.246  1.00  0.00     0.023 A 
ATOM      9  C   UNL A   1      33.046  36.216  29.094  1.00  0.00     0.001 A 
ATOM     10  C   UNL A   1      33.155  36.122  30.475  1.00  0.00     0.016 A 
BRANCH   6  11
ATOM     11  C   UNL A   1      34.614  32.871  28.079  1.00  0.00     0.265 C 
BRANCH  11  12
ATOM     12  O   UNL A   1      34.056  31.598  28.415  1.00  0.00    -0.483 OA
BRANCH  12  13
ATOM     13  C   UNL A   1      33.559  30.729  27.481  1.00  0.00     0.180 A 
ATOM     14  C   UNL A   1      32.975  28.864  25.444  1.00  0.00    -0.018 A 
ATOM     15  C   UNL A   1      32.151  29.974  25.653  1.00  0.00     0.033 A 
ATOM     16  C   UNL A   1      34.051  28.642  26.308  1.00  0.00     0.058 A 
ATOM     17  C   UNL A   1      32.422  30.893  26.676  1.00  0.00     0.087 A 
ATOM     18  C   UNL A   1      34.344  29.560  27.324  1.00  0.00     0.162 A 
ATOM     19  Cl  UNL A   1      31.264  32.158  26.886  1.00  0.00    -0.080 Cl
BRANCH  14  20
ATOM     20  C   UNL A   1      32.686  27.900  24.377  1.00  0.00     0.040 C 
ATOM     21  N   UNL A   1      30.993  24.874  25.343  1.00  0.00    -0.259 N 
ATOM     22  C   UNL A   1      31.187  24.716  23.988  1.00  0.00     0.328 C 
ATOM     23  C   UNL A   1      31.463  26.101  25.765  1.00  0.00     0.278 C 
ATOM     24  O   UNL A   1      30.863  23.782  23.274  1.00  0.00    -0.248 OA
ATOM     25  N   UNL A   1      31.848  25.840  23.519  1.00  0.00    -0.303 N 
ATOM     26  C   UNL A   1      32.064  26.726  24.534  1.00  0.00     0.109 C 
ATOM     27  O   UNL A   1      31.390  26.606  26.868  1.00  0.00    -0.267 OA
ATOM     28  H   UNL A   1      32.123  25.981  22.584  1.00  0.00     0.172 HD
BRANCH  21  29
ATOM     29  C   UNL A   1      30.257  23.959  26.196  1.00  0.00     0.127 C 
ATOM     30  C   UNL A   1      31.140  22.970  26.944  1.00  0.00     0.028 C 
ENDBRANCH  21  29
ENDBRANCH  14  20
BRANCH  18  31
ATOM     31  O   UNL A   1      35.400  29.435  28.197  1.00  0.00    -0.493 OA
ATOM     32  C   UNL A   1      36.713  29.612  27.687  1.00  0.00     0.278 C 
ENDBRANCH  18  31
ENDBRANCH  12  13
ENDBRANCH  11  12
ENDBRANCH   6  11
ENDBRANCH   3   5
ENDBRANCH   2   3
ENDBRANCH   1   2
BRANCH   1  33
ATOM     33  C   UNL A   1      35.839  32.128  33.251  1.00  0.00     0.275 C 
BRANCH  33  34
ATOM     34  O   UNL A   1      37.043  31.987  32.475  1.00  0.00    -0.458 OA
BRANCH  34  35
ATOM     35  C   UNL A   1      37.186  30.797  31.847  1.00  0.00     0.338 C 
ATOM     36  O   UNL A   1      36.320  29.970  31.622  1.00  0.00    -0.246 OA
BRANCH  35  37
ATOM     37  C   UNL A   1      38.565  30.649  31.357  1.00  0.00     0.060 A 
ATOM     38  C   UNL A   1      38.825  31.059  30.057  1.00  0.00     0.016 A 
ATOM     39  C   UNL A   1      39.536  29.961  32.075  1.00  0.00     0.016 A 
ATOM     40  C   UNL A   1      39.993  30.672  29.411  1.00  0.00     0.010 A 
ATOM     41  C   UNL A   1      40.770  29.684  31.465  1.00  0.00     0.010 A 
ATOM     42  C   UNL A   1      40.999  29.993  30.110  1.00  0.00    -0.014 A 
BRANCH  42  43
ATOM     43  C   UNL A   1      42.260  29.589  29.413  1.00  0.00     0.031 A 
ATOM     44  C   UNL A   1      42.388  28.212  28.805  1.00  0.00     0.074 A 
ATOM     45  C   UNL A   1      43.291  30.454  29.307  1.00  0.00     0.049 A 
ATOM     46  N   UNL A   1      43.447  27.619  28.310  1.00  0.00    -0.248 NA
ATOM     47  C   UNL A   1      41.171  27.386  28.761  1.00  0.00     0.031 C 
ATOM     48  C   UNL A   1      43.299  31.833  29.805  1.00  0.00     0.029 A 
ATOM     49  N   UNL A   1      44.537  30.307  28.743  1.00  0.00    -0.354 N 
ATOM     50  C   UNL A   1      43.036  26.339  27.950  1.00  0.00     0.074 A 
ATOM     51  C   UNL A   1      41.636  26.234  28.299  1.00  0.00     0.031 C 
ATOM     52  C   UNL A   1      44.467  32.412  29.494  1.00  0.00     0.029 A 
ATOM     53  C   UNL A   1      45.334  31.422  28.866  1.00  0.00     0.049 A 
ATOM     54  H   UNL A   1      44.831  29.483  28.292  1.00  0.00     0.167 HD
ATOM     55  C   UNL A   1      43.759  25.344  27.378  1.00  0.00     0.037 A 
ATOM     56  C   UNL A   1      46.633  31.622  28.563  1.00  0.00     0.037 A 
ATOM     57  C   UNL A   1      45.142  25.471  26.990  1.00  0.00     0.049 A 
ATOM     58  C   UNL A   1      47.427  30.490  27.975  1.00  0.00     0.074 A 
ATOM     59  C   UNL A   1      45.956  24.530  26.383  1.00  0.00     0.029 A 
ATOM     60  N   UNL A   1      45.915  26.612  27.160  1.00  0.00    -0.354 N 
ATOM     61  N   UNL A   1      47.033  29.276  27.673  1.00  0.00    -0.248 NA
ATOM     62  C   UNL A   1      48.847  30.749  27.698  1.00  0.00     0.031 C 
ATOM     63  C   UNL A   1      47.233  25.080  26.238  1.00  0.00     0.029 A 
ATOM     64  C   UNL A   1      47.200  26.389  26.691  1.00  0.00     0.049 A 
ATOM     65  H   UNL A   1      45.597  27.456  27.556  1.00  0.00     0.167 HD
ATOM     66  C   UNL A   1      48.148  28.635  27.145  1.00  0.00     0.074 A 
ATOM     67  C   UNL A   1      49.227  29.601  27.155  1.00  0.00     0.031 C 
ATOM     68  C   UNL A   1      48.265  27.361  26.694  1.00  0.00     0.037 A 
BRANCH  55  69
ATOM     69  C   UNL A   1      43.083  24.012  27.165  1.00  0.00     0.058 A 
ATOM     70  C   UNL A   1      42.563  23.626  25.920  1.00  0.00     0.135 A 
ATOM     71  C   UNL A   1      42.993  23.089  28.221  1.00  0.00     0.135 A 
ATOM     72  F   UNL A   1      42.608  24.470  24.876  1.00  0.00    -0.206 F 
ATOM     73  C   UNL A   1      41.950  22.389  25.738  1.00  0.00     0.059 A 
ATOM     74  C   UNL A   1      42.416  21.833  28.053  1.00  0.00     0.059 A 
ATOM     75  F   UNL A   1      43.477  23.400  29.434  1.00  0.00    -0.206 F 
ATOM     76  C   UNL A   1      41.883  21.498  26.811  1.00  0.00     0.060 A 
BRANCH  76  77
ATOM     77  S   UNL A   1      41.090  19.896  26.555  1.00  0.00     0.124 S 
ATOM     78  O   UNL A   1      41.025  19.381  27.919  1.00  0.00    -0.237 OA
ATOM     79  O   UNL A   1      39.812  20.272  25.959  1.00  0.00    -0.237 OA
ATOM     80  O   UNL A   1      42.012  19.198  25.665  1.00  0.00    -0.744 OA
ENDBRANCH  76  77
ENDBRANCH  55  69
BRANCH  56  81
ATOM     81  C   UNL A   1      47.271  32.938  28.849  1.00  0.00     0.058 A 
ATOM     82  C   UNL A   1      47.288  33.959  27.887  1.00  0.00     0.135 A 
ATOM     83  C   UNL A   1      47.866  33.205  30.093  1.00  0.00     0.135 A 
ATOM     84  F   UNL A   1      46.743  33.753  26.679  1.00  0.00    -0.206 F 
ATOM     85  C   UNL A   1      47.884  35.191  28.143  1.00  0.00     0.059 A 
ATOM     86  C   UNL A   1      48.436  34.439  30.384  1.00  0.00     0.059 A 
ATOM     87  F   UNL A   1      47.867  32.267  31.053  1.00  0.00    -0.206 F 
ATOM     88  C   UNL A   1      48.450  35.423  29.397  1.00  0.00     0.060 A 
BRANCH  88  89
ATOM     89  S   UNL A   1      49.178  37.041  29.733  1.00  0.00     0.124 S 
ATOM     90  O   UNL A   1      48.101  37.937  29.327  1.00  0.00    -0.237 OA
ATOM     91  O   UNL A   1      49.440  36.966  31.167  1.00  0.00    -0.237 OA
ATOM     92  O   UNL A   1      50.366  37.058  28.885  1.00  0.00    -0.744 OA
ENDBRANCH  88  89
ENDBRANCH  56  81
BRANCH  68  93
ATOM     93  C   UNL A   1      49.594  26.950  26.120  1.00  0.00     0.058 A 
ATOM     94  C   UNL A   1      50.577  26.315  26.895  1.00  0.00     0.135 A 
ATOM     95  C   UNL A   1      49.871  27.163  24.759  1.00  0.00     0.135 A 
ATOM     96  F   UNL A   1      50.369  26.097  28.204  1.00  0.00    -0.206 F 
ATOM     97  C   UNL A   1      51.797  25.931  26.349  1.00  0.00     0.059 A 
ATOM     98  C   UNL A   1      51.071  26.757  24.185  1.00  0.00     0.059 A 
ATOM     99  F   UNL A   1      48.964  27.758  23.969  1.00  0.00    -0.206 F 
ATOM    100  C   UNL A   1      52.034  26.153  24.991  1.00  0.00     0.060 A 
BRANCH 100 101
ATOM    101  S   UNL A   1      53.609  25.621  24.289  1.00  0.00     0.124 S 
ATOM    102  O   UNL A   1      53.395  25.861  22.866  1.00  0.00    -0.237 OA
ATOM    103  O   UNL A   1      54.560  26.514  24.946  1.00  0.00    -0.237 OA
ATOM    104  O   UNL A   1      53.701  24.219  24.683  1.00  0.00    -0.744 OA
ENDBRANCH 100 101
ENDBRANCH  68  93
ENDBRANCH  42  43
ENDBRANCH  35  37
ENDBRANCH  34  35
ENDBRANCH  33  34
ENDBRANCH   1  33
TORSDOF 20
ENDMDL
MODEL 3
REMARK VINA RESULT:     -11.2      6.171     12.375
REMARK SMILES CCN1C(=O)N/C(=C/c2cc(Cl)c(OCc3cccc(C(=O)OCCOC(=O)c4ccc(-c5c6nc(c(-c7c(F)cc(S(=O)(=O)[O-])cc7F)c7ccc([nH]7)c(-c7c(F)cc(S(=O)(=O)[O-])cc7F)c7nc(c(-c8c(F)cc(S(=O)(=O)[O-])cc8F)c8ccc5[nH]8)C=C7)C=C6)cc4)c3)c(OC)c2)C1=O
REMARK SMILES IDX 24 1 23 2 21 3 22 4 20 5 16 6 17 7 95 8 18 9 19 10 15 11
REMARK SMILES IDX 14 12 13 13 9 14 10 15 99 16 11 17 96 18 12 19 8 20 3 21
REMARK SMILES IDX 4 22 100 23 5 24 6 25 7 26 101 27 2 29 1 30 97 31 98 32
REMARK SMILES IDX 25 33 26 34 27 35 28 36 29 37 30 38 94 39 31 40 93 41 32 42
REMARK SMILES IDX 33 43 34 44 87 45 35 46 92 47 86 48 88 49 36 50 91 51 85 52
REMARK SMILES IDX 84 53 37 55 71 56 50 57 70 58 51 59 54 60 69 61 89 62 52 63
REMARK SMILES IDX 53 64 68 66 90 67 55 68 38 69 39 70 48 71 40 72 41 73 47 74
REMARK SMILES IDX 49 75 42 76 43 77 44 78 45 79 46 80 72 81 73 82 82 83 74 84
REMARK SMILES IDX 75 85 81 86 83 87 76 88 77 89 78 90 79 91 80 92 56 93 57 94
REMARK SMILES IDX 66 95 58 96 59 97 65 98 67 99 60 100 61 101 62 102 63 103
REMARK SMILES IDX 64 104
REMARK H PARENT 6 28 88 54 54 65
REMARK Flexibility Score: inf
ROOT
ATOM      1  C   UNL A   1      35.282  33.462  30.448  1.00  0.00     0.275 C 
ENDROOT
BRANCH   1   2
ATOM      2  O   UNL A   1      34.400  32.659  29.637  1.00  0.00    -0.458 OA
BRANCH   2   3
ATOM      3  C   UNL A   1      34.536  32.785  28.290  1.00  0.00     0.338 C 
ATOM      4  O   UNL A   1      34.976  33.755  27.698  1.00  0.00    -0.246 OA
BRANCH   3   5
ATOM      5  C   UNL A   1      34.236  31.489  27.628  1.00  0.00     0.060 A 
ATOM      6  C   UNL A   1      32.711  29.917  26.561  1.00  0.00    -0.010 A 
ATOM      7  C   UNL A   1      33.652  28.905  26.784  1.00  0.00     0.007 A 
ATOM      8  C   UNL A   1      32.988  31.202  27.070  1.00  0.00     0.023 A 
ATOM      9  C   UNL A   1      34.929  29.209  27.246  1.00  0.00     0.001 A 
ATOM     10  C   UNL A   1      35.239  30.516  27.595  1.00  0.00     0.016 A 
BRANCH   6  11
ATOM     11  C   UNL A   1      31.448  29.735  25.736  1.00  0.00     0.265 C 
BRANCH  11  12
ATOM     12  O   UNL A   1      31.498  29.498  24.326  1.00  0.00    -0.483 OA
BRANCH  12  13
ATOM     13  C   UNL A   1      31.715  28.259  23.784  1.00  0.00     0.180 A 
ATOM     14  C   UNL A   1      31.846  25.562  22.965  1.00  0.00    -0.018 A 
ATOM     15  C   UNL A   1      32.999  26.352  23.004  1.00  0.00     0.033 A 
ATOM     16  C   UNL A   1      30.610  26.143  23.261  1.00  0.00     0.058 A 
ATOM     17  C   UNL A   1      32.939  27.698  23.388  1.00  0.00     0.087 A 
ATOM     18  C   UNL A   1      30.537  27.483  23.663  1.00  0.00     0.162 A 
ATOM     19  Cl  UNL A   1      34.420  28.582  23.290  1.00  0.00    -0.080 Cl
BRANCH  14  20
ATOM     20  C   UNL A   1      31.910  24.155  22.557  1.00  0.00     0.040 C 
ATOM     21  N   UNL A   1      32.951  21.788  25.060  1.00  0.00    -0.259 N 
ATOM     22  C   UNL A   1      32.751  21.007  23.943  1.00  0.00     0.328 C 
ATOM     23  C   UNL A   1      32.639  23.106  24.799  1.00  0.00     0.278 C 
ATOM     24  O   UNL A   1      32.886  19.801  23.819  1.00  0.00    -0.248 OA
ATOM     25  N   UNL A   1      32.351  21.839  22.909  1.00  0.00    -0.303 N 
ATOM     26  C   UNL A   1      32.269  23.130  23.340  1.00  0.00     0.109 C 
ATOM     27  O   UNL A   1      32.624  24.051  25.563  1.00  0.00    -0.267 OA
ATOM     28  H   UNL A   1      32.154  21.540  21.992  1.00  0.00     0.172 HD
BRANCH  21  29
ATOM     29  C   UNL A   1      33.289  21.288  26.381  1.00  0.00     0.127 C 
ATOM     30  C   UNL A   1      34.658  21.734  26.875  1.00  0.00     0.028 C 
ENDBRANCH  21  29
ENDBRANCH  14  20
BRANCH  18  31
ATOM     31  O   UNL A   1      29.369  28.125  24.001  1.00  0.00    -0.493 OA
ATOM     32  C   UNL A   1      28.514  28.556  22.953  1.00  0.00     0.278 C 
ENDBRANCH  18  31
ENDBRANCH  12  13
ENDBRANCH  11  12
ENDBRANCH   6  11
ENDBRANCH   3   5
ENDBRANCH   2   3
ENDBRANCH   1   2
BRANCH   1  33
ATOM     33  C   UNL A   1      36.669  32.822  30.555  1.00  0.00     0.275 C 
BRANCH  33  34
ATOM     34  O   UNL A   1      36.654  31.731  31.495  1.00  0.00    -0.458 OA
BRANCH  34  35
ATOM     35  C   UNL A   1      36.912  30.513  30.965  1.00  0.00     0.338 C 
ATOM     36  O   UNL A   1      36.134  29.585  30.827  1.00  0.00    -0.246 OA
BRANCH  35  37
ATOM     37  C   UNL A   1      38.292  30.468  30.459  1.00  0.00     0.060 A 
ATOM     38  C   UNL A   1      38.464  30.402  29.084  1.00  0.00     0.016 A 
ATOM     39  C   UNL A   1      39.385  30.306  31.303  1.00  0.00     0.016 A 
ATOM     40  C   UNL A   1      39.690  30.040  28.537  1.00  0.00     0.010 A 
ATOM     41  C   UNL A   1      40.652  30.069  30.745  1.00  0.00     0.010 A 
ATOM     42  C   UNL A   1      40.814  29.885  29.358  1.00  0.00    -0.014 A 
BRANCH  42  43
ATOM     43  C   UNL A   1      42.134  29.507  28.764  1.00  0.00     0.031 A 
ATOM     44  C   UNL A   1      42.374  28.099  28.273  1.00  0.00     0.074 A 
ATOM     45  C   UNL A   1      43.120  30.422  28.647  1.00  0.00     0.049 A 
ATOM     46  N   UNL A   1      43.491  27.535  27.884  1.00  0.00    -0.248 NA
ATOM     47  C   UNL A   1      41.210  27.201  28.228  1.00  0.00     0.031 C 
ATOM     48  C   UNL A   1      43.023  31.832  29.035  1.00  0.00     0.029 A 
ATOM     49  N   UNL A   1      44.403  30.309  28.163  1.00  0.00    -0.354 N 
ATOM     50  C   UNL A   1      43.174  26.209  27.603  1.00  0.00     0.074 A 
ATOM     51  C   UNL A   1      41.765  26.047  27.883  1.00  0.00     0.031 C 
ATOM     52  C   UNL A   1      44.173  32.455  28.743  1.00  0.00     0.029 A 
ATOM     53  C   UNL A   1      45.129  31.475  28.243  1.00  0.00     0.049 A 
ATOM     54  H   UNL A   1      44.768  29.472  27.795  1.00  0.00     0.167 HD
ATOM     55  C   UNL A   1      43.984  25.219  27.149  1.00  0.00     0.037 A 
ATOM     56  C   UNL A   1      46.429  31.730  27.995  1.00  0.00     0.037 A 
ATOM     57  C   UNL A   1      45.377  25.400  26.828  1.00  0.00     0.049 A 
ATOM     58  C   UNL A   1      47.319  30.607  27.541  1.00  0.00     0.074 A 
ATOM     59  C   UNL A   1      46.277  24.467  26.342  1.00  0.00     0.029 A 
ATOM     60  N   UNL A   1      46.075  26.595  26.950  1.00  0.00    -0.354 N 
ATOM     61  N   UNL A   1      47.011  29.352  27.314  1.00  0.00    -0.248 NA
ATOM     62  C   UNL A   1      48.735  30.928  27.322  1.00  0.00     0.031 C 
ATOM     63  C   UNL A   1      47.528  25.080  26.223  1.00  0.00     0.029 A 
ATOM     64  C   UNL A   1      47.395  26.415  26.570  1.00  0.00     0.049 A 
ATOM     65  H   UNL A   1      45.688  27.445  27.262  1.00  0.00     0.167 HD
ATOM     66  C   UNL A   1      48.188  28.742  26.899  1.00  0.00     0.074 A 
ATOM     67  C   UNL A   1      49.210  29.768  26.892  1.00  0.00     0.031 C 
ATOM     68  C   UNL A   1      48.403  27.447  26.555  1.00  0.00     0.037 A 
BRANCH  55  69
ATOM     69  C   UNL A   1      43.397  23.837  27.005  1.00  0.00     0.058 A 
ATOM     70  C   UNL A   1      43.154  23.007  28.110  1.00  0.00     0.135 A 
ATOM     71  C   UNL A   1      43.034  23.354  25.736  1.00  0.00     0.135 A 
ATOM     72  F   UNL A   1      43.491  23.409  29.346  1.00  0.00    -0.206 F 
ATOM     73  C   UNL A   1      42.602  21.737  27.959  1.00  0.00     0.059 A 
ATOM     74  C   UNL A   1      42.449  22.101  25.566  1.00  0.00     0.059 A 
ATOM     75  F   UNL A   1      43.239  24.104  24.642  1.00  0.00    -0.206 F 
ATOM     76  C   UNL A   1      42.252  21.293  26.683  1.00  0.00     0.060 A 
BRANCH  76  77
ATOM     77  S   UNL A   1      41.533  19.646  26.508  1.00  0.00     0.124 S 
ATOM     78  O   UNL A   1      41.844  19.052  27.804  1.00  0.00    -0.237 OA
ATOM     79  O   UNL A   1      40.124  19.945  26.271  1.00  0.00    -0.237 OA
ATOM     80  O   UNL A   1      42.251  19.079  25.371  1.00  0.00    -0.744 OA
ENDBRANCH  76  77
ENDBRANCH  55  69
BRANCH  56  81
ATOM     81  C   UNL A   1      46.975  33.099  28.212  1.00  0.00     0.058 A 
ATOM     82  C   UNL A   1      46.958  34.057  27.187  1.00  0.00     0.135 A 
ATOM     83  C   UNL A   1      47.516  33.481  29.451  1.00  0.00     0.135 A 
ATOM     84  F   UNL A   1      46.462  33.740  25.981  1.00  0.00    -0.206 F 
ATOM     85  C   UNL A   1      47.468  35.338  27.378  1.00  0.00     0.059 A 
ATOM     86  C   UNL A   1      47.999  34.765  29.677  1.00  0.00     0.059 A 
ATOM     87  F   UNL A   1      47.547  32.607  30.469  1.00  0.00    -0.206 F 
ATOM     88  C   UNL A   1      47.981  35.684  28.628  1.00  0.00     0.060 A 
BRANCH  88  89
ATOM     89  S   UNL A   1      48.596  37.364  28.878  1.00  0.00     0.124 S 
ATOM     90  O   UNL A   1      49.231  37.637  27.594  1.00  0.00    -0.237 OA
ATOM     91  O   UNL A   1      47.366  38.101  29.153  1.00  0.00    -0.237 OA
ATOM     92  O   UNL A   1      49.503  37.224  30.013  1.00  0.00    -0.744 OA
ENDBRANCH  88  89
ENDBRANCH  56  81
BRANCH  68  93
ATOM     93  C   UNL A   1      49.784  27.075  26.087  1.00  0.00     0.058 A 
ATOM     94  C   UNL A   1      50.789  26.670  26.979  1.00  0.00     0.135 A 
ATOM     95  C   UNL A   1      50.092  27.087  24.717  1.00  0.00     0.135 A 
ATOM     96  F   UNL A   1      50.552  26.650  28.301  1.00  0.00    -0.206 F 
ATOM     97  C   UNL A   1      52.059  26.318  26.533  1.00  0.00     0.059 A 
ATOM     98  C   UNL A   1      51.344  26.707  24.245  1.00  0.00     0.059 A 
ATOM     99  F   UNL A   1      49.166  27.458  23.818  1.00  0.00    -0.206 F 
ATOM    100  C   UNL A   1      52.326  26.337  25.162  1.00  0.00     0.060 A 
BRANCH 100 101
ATOM    101  S   UNL A   1      53.968  25.848  24.594  1.00  0.00     0.124 S 
ATOM    102  O   UNL A   1      54.826  26.507  25.573  1.00  0.00    -0.237 OA
ATOM    103  O   UNL A   1      53.908  24.392  24.681  1.00  0.00    -0.237 OA
ATOM    104  O   UNL A   1      54.034  26.387  23.239  1.00  0.00    -0.744 OA
ENDBRANCH 100 101
ENDBRANCH  68  93
ENDBRANCH  42  43
ENDBRANCH  35  37
ENDBRANCH  34  35
ENDBRANCH  33  34
ENDBRANCH   1  33
TORSDOF 20
ENDMDL
