MODEL 1
REMARK VINA RESULT:     -10.5      0.000      0.000
REMARK SMILES O=C(CSc1nc(-c2cccc(F)c2)n[nH]1)OCCOC(=O)c1ccc(-c2c3nc(c(-c4c(F)cc(S(=O)(=O)[O-])cc4F)c4ccc([nH]4)c(-c4c(F)cc(S(=O)(=O)[O-])cc4F)c4nc(c(-c5c(F)cc(S(=O)(=O)[O-])cc5F)c5ccc2[nH]5)C=C4)C=C3)cc1
REMARK SMILES IDX 18 1 17 2 2 3 1 4 3 5 4 6 5 7 6 8 16 9 7 10 15 11 8 13 9 14
REMARK SMILES IDX 14 15 10 16 12 17 11 18 13 19 19 20 20 21 21 22 22 23 23 24
REMARK SMILES IDX 24 25 88 26 25 27 87 28 26 29 27 30 28 31 81 32 29 33 86 34
REMARK SMILES IDX 80 35 82 36 30 37 85 38 79 39 78 40 31 42 65 43 44 44 64 45
REMARK SMILES IDX 45 46 48 47 63 48 83 49 46 50 47 51 62 53 84 54 49 55 32 56
REMARK SMILES IDX 33 57 42 58 34 59 35 60 41 61 43 62 36 63 37 64 38 65 39 66
REMARK SMILES IDX 40 67 66 68 67 69 76 70 68 71 69 72 75 73 77 74 70 75 71 76
REMARK SMILES IDX 72 77 73 78 74 79 50 80 51 81 60 82 52 83 53 84 59 85 61 86
REMARK SMILES IDX 54 87 55 88 56 89 57 90 58 91
REMARK H PARENT 16 12 82 41 48 52
REMARK Flexibility Score: inf
ROOT
ATOM      1  C   UNL A   1      33.667  34.061  29.109  1.00  0.00     0.274 C 
ENDROOT
BRANCH   1   2
ATOM      2  O   UNL A   1      33.310  34.594  30.404  1.00  0.00    -0.461 OA
BRANCH   2   3
ATOM      3  C   UNL A   1      32.770  35.812  30.631  1.00  0.00     0.316 C 
ATOM      4  O   UNL A   1      32.689  36.631  29.715  1.00  0.00    -0.251 OA
BRANCH   3   5
ATOM      5  C   UNL A   1      32.264  36.171  32.008  1.00  0.00     0.200 C 
BRANCH   5   6
ATOM      6  S   UNL A   1      33.554  36.775  33.106  1.00  0.00    -0.075 SA
BRANCH   6   7
ATOM      7  C   UNL A   1      34.560  35.398  33.324  1.00  0.00     0.184 A 
ATOM      8  N   UNL A   1      35.866  35.421  33.345  1.00  0.00    -0.201 NA
ATOM      9  N   UNL A   1      34.116  34.125  33.510  1.00  0.00    -0.254 N 
ATOM     10  C   UNL A   1      36.197  34.094  33.489  1.00  0.00     0.182 A 
ATOM     11  N   UNL A   1      35.147  33.263  33.580  1.00  0.00    -0.153 NA
ATOM     12  H   UNL A   1      33.168  33.869  33.583  1.00  0.00     0.192 HD
BRANCH  10  13
ATOM     13  C   UNL A   1      37.583  33.667  33.513  1.00  0.00     0.024 A 
ATOM     14  C   UNL A   1      37.952  32.566  34.301  1.00  0.00     0.012 A 
ATOM     15  C   UNL A   1      38.559  34.360  32.790  1.00  0.00     0.051 A 
ATOM     16  C   UNL A   1      39.285  32.159  34.367  1.00  0.00     0.004 A 
ATOM     17  C   UNL A   1      39.885  33.956  32.880  1.00  0.00     0.123 A 
ATOM     18  C   UNL A   1      40.256  32.863  33.658  1.00  0.00     0.039 A 
ATOM     19  F   UNL A   1      40.828  34.635  32.215  1.00  0.00    -0.207 F 
ENDBRANCH  10  13
ENDBRANCH   6   7
ENDBRANCH   5   6
ENDBRANCH   3   5
ENDBRANCH   2   3
ENDBRANCH   1   2
BRANCH   1  20
ATOM     20  C   UNL A   1      34.550  32.819  29.252  1.00  0.00     0.275 C 
BRANCH  20  21
ATOM     21  O   UNL A   1      34.637  32.136  27.989  1.00  0.00    -0.458 OA
BRANCH  21  22
ATOM     22  C   UNL A   1      34.587  30.780  28.032  1.00  0.00     0.338 C 
ATOM     23  O   UNL A   1      33.636  30.077  27.735  1.00  0.00    -0.246 OA
BRANCH  22  24
ATOM     24  C   UNL A   1      35.957  30.270  28.277  1.00  0.00     0.060 A 
ATOM     25  C   UNL A   1      36.248  29.719  29.533  1.00  0.00     0.016 A 
ATOM     26  C   UNL A   1      36.924  30.259  27.266  1.00  0.00     0.016 A 
ATOM     27  C   UNL A   1      37.507  29.163  29.781  1.00  0.00     0.010 A 
ATOM     28  C   UNL A   1      38.181  29.707  27.517  1.00  0.00     0.010 A 
ATOM     29  C   UNL A   1      38.485  29.172  28.779  1.00  0.00    -0.014 A 
BRANCH  29  30
ATOM     30  C   UNL A   1      39.879  28.755  29.062  1.00  0.00     0.031 A 
ATOM     31  C   UNL A   1      40.832  29.771  29.619  1.00  0.00     0.074 A 
ATOM     32  C   UNL A   1      40.309  27.515  28.768  1.00  0.00     0.049 A 
ATOM     33  N   UNL A   1      42.118  29.671  29.829  1.00  0.00    -0.248 NA
ATOM     34  C   UNL A   1      40.259  31.079  29.974  1.00  0.00     0.031 C 
ATOM     35  C   UNL A   1      39.480  26.435  28.241  1.00  0.00     0.029 A 
ATOM     36  N   UNL A   1      41.566  26.968  28.849  1.00  0.00    -0.354 N 
ATOM     37  C   UNL A   1      42.513  30.904  30.330  1.00  0.00     0.074 A 
ATOM     38  C   UNL A   1      41.334  31.742  30.372  1.00  0.00     0.031 C 
ATOM     39  C   UNL A   1      40.254  25.358  28.026  1.00  0.00     0.029 A 
ATOM     40  C   UNL A   1      41.640  25.684  28.367  1.00  0.00     0.049 A 
ATOM     41  H   UNL A   1      42.341  27.450  29.219  1.00  0.00     0.167 HD
ATOM     42  C   UNL A   1      43.745  31.302  30.720  1.00  0.00     0.037 A 
ATOM     43  C   UNL A   1      42.705  24.875  28.191  1.00  0.00     0.037 A 
ATOM     44  C   UNL A   1      44.917  30.471  30.671  1.00  0.00     0.049 A 
ATOM     45  C   UNL A   1      44.081  25.357  28.566  1.00  0.00     0.074 A 
ATOM     46  C   UNL A   1      46.200  30.772  31.092  1.00  0.00     0.029 A 
ATOM     47  N   UNL A   1      44.954  29.184  30.156  1.00  0.00    -0.354 N 
ATOM     48  N   UNL A   1      44.436  26.510  29.081  1.00  0.00    -0.248 NA
ATOM     49  C   UNL A   1      45.203  24.436  28.329  1.00  0.00     0.031 C 
ATOM     50  C   UNL A   1      47.025  29.686  30.784  1.00  0.00     0.029 A 
ATOM     51  C   UNL A   1      46.247  28.691  30.213  1.00  0.00     0.049 A 
ATOM     52  H   UNL A   1      44.178  28.694  29.802  1.00  0.00     0.167 HD
ATOM     53  C   UNL A   1      45.817  26.449  29.242  1.00  0.00     0.074 A 
ATOM     54  C   UNL A   1      46.235  25.144  28.774  1.00  0.00     0.031 C 
ATOM     55  C   UNL A   1      46.657  27.390  29.739  1.00  0.00     0.037 A 
BRANCH  42  56
ATOM     56  C   UNL A   1      43.888  32.715  31.201  1.00  0.00     0.058 A 
ATOM     57  C   UNL A   1      44.122  33.754  30.287  1.00  0.00     0.135 A 
ATOM     58  C   UNL A   1      43.797  33.042  32.563  1.00  0.00     0.135 A 
ATOM     59  F   UNL A   1      44.207  33.494  28.973  1.00  0.00    -0.206 F 
ATOM     60  C   UNL A   1      44.254  35.073  30.706  1.00  0.00     0.059 A 
ATOM     61  C   UNL A   1      43.902  34.358  33.002  1.00  0.00     0.059 A 
ATOM     62  F   UNL A   1      43.548  32.087  33.472  1.00  0.00    -0.206 F 
ATOM     63  C   UNL A   1      44.136  35.366  32.066  1.00  0.00     0.060 A 
BRANCH  63  64
ATOM     64  S   UNL A   1      44.220  37.092  32.587  1.00  0.00     0.124 S 
ATOM     65  O   UNL A   1      45.581  37.186  33.096  1.00  0.00    -0.237 OA
ATOM     66  O   UNL A   1      43.954  37.803  31.339  1.00  0.00    -0.237 OA
ATOM     67  O   UNL A   1      43.161  37.192  33.588  1.00  0.00    -0.744 OA
ENDBRANCH  63  64
ENDBRANCH  42  56
BRANCH  43  68
ATOM     68  C   UNL A   1      42.495  23.521  27.618  1.00  0.00     0.058 A 
ATOM     69  C   UNL A   1      42.335  22.400  28.447  1.00  0.00     0.135 A 
ATOM     70  C   UNL A   1      42.528  23.314  26.231  1.00  0.00     0.135 A 
ATOM     71  F   UNL A   1      42.299  22.549  29.781  1.00  0.00    -0.206 F 
ATOM     72  C   UNL A   1      42.259  21.115  27.924  1.00  0.00     0.059 A 
ATOM     73  C   UNL A   1      42.436  22.037  25.683  1.00  0.00     0.059 A 
ATOM     74  F   UNL A   1      42.660  24.359  25.402  1.00  0.00    -0.206 F 
ATOM     75  C   UNL A   1      42.327  20.942  26.540  1.00  0.00     0.060 A 
BRANCH  75  76
ATOM     76  S   UNL A   1      42.307  19.260  25.886  1.00  0.00     0.124 S 
ATOM     77  O   UNL A   1      43.168  19.395  24.715  1.00  0.00    -0.237 OA
ATOM     78  O   UNL A   1      42.862  18.494  26.997  1.00  0.00    -0.237 OA
ATOM     79  O   UNL A   1      40.896  19.023  25.604  1.00  0.00    -0.744 OA
ENDBRANCH  75  76
ENDBRANCH  43  68
BRANCH  55  80
ATOM     80  C   UNL A   1      48.124  27.069  29.818  1.00  0.00     0.058 A 
ATOM     81  C   UNL A   1      48.670  26.527  30.992  1.00  0.00     0.135 A 
ATOM     82  C   UNL A   1      49.005  27.426  28.786  1.00  0.00     0.135 A 
ATOM     83  F   UNL A   1      47.871  26.173  32.010  1.00  0.00    -0.206 F 
ATOM     84  C   UNL A   1      50.045  26.388  31.157  1.00  0.00     0.059 A 
ATOM     85  C   UNL A   1      50.383  27.276  28.922  1.00  0.00     0.059 A 
ATOM     86  F   UNL A   1      48.529  27.936  27.639  1.00  0.00    -0.206 F 
ATOM     87  C   UNL A   1      50.894  26.779  30.121  1.00  0.00     0.060 A 
BRANCH  87  88
ATOM     88  S   UNL A   1      52.677  26.633  30.370  1.00  0.00     0.124 S 
ATOM     89  O   UNL A   1      53.014  27.953  30.891  1.00  0.00    -0.237 OA
ATOM     90  O   UNL A   1      52.767  25.532  31.323  1.00  0.00    -0.237 OA
ATOM     91  O   UNL A   1      53.183  26.338  29.032  1.00  0.00    -0.744 OA
ENDBRANCH  87  88
ENDBRANCH  55  80
ENDBRANCH  29  30
ENDBRANCH  22  24
ENDBRANCH  21  22
ENDBRANCH  20  21
ENDBRANCH   1  20
TORSDOF 17
ENDMDL
MODEL 2
REMARK VINA RESULT:     -10.4      4.533     12.941
REMARK SMILES O=C(CSc1nc(-c2cccc(F)c2)n[nH]1)OCCOC(=O)c1ccc(-c2c3nc(c(-c4c(F)cc(S(=O)(=O)[O-])cc4F)c4ccc([nH]4)c(-c4c(F)cc(S(=O)(=O)[O-])cc4F)c4nc(c(-c5c(F)cc(S(=O)(=O)[O-])cc5F)c5ccc2[nH]5)C=C4)C=C3)cc1
REMARK SMILES IDX 18 1 17 2 2 3 1 4 3 5 4 6 5 7 6 8 16 9 7 10 15 11 8 13 9 14
REMARK SMILES IDX 14 15 10 16 12 17 11 18 13 19 19 20 20 21 21 22 22 23 23 24
REMARK SMILES IDX 24 25 88 26 25 27 87 28 26 29 27 30 28 31 81 32 29 33 86 34
REMARK SMILES IDX 80 35 82 36 30 37 85 38 79 39 78 40 31 42 65 43 44 44 64 45
REMARK SMILES IDX 45 46 48 47 63 48 83 49 46 50 47 51 62 53 84 54 49 55 32 56
REMARK SMILES IDX 33 57 42 58 34 59 35 60 41 61 43 62 36 63 37 64 38 65 39 66
REMARK SMILES IDX 40 67 66 68 67 69 76 70 68 71 69 72 75 73 77 74 70 75 71 76
REMARK SMILES IDX 72 77 73 78 74 79 50 80 51 81 60 82 52 83 53 84 59 85 61 86
REMARK SMILES IDX 54 87 55 88 56 89 57 90 58 91
REMARK H PARENT 16 12 82 41 48 52
REMARK Flexibility Score: inf
ROOT
ATOM      1  C   UNL A   1      45.334  22.755  25.431  1.00  0.00     0.274 C 
ENDROOT
BRANCH   1   2
ATOM      2  O   UNL A   1      46.092  21.557  25.717  1.00  0.00    -0.461 OA
BRANCH   2   3
ATOM      3  C   UNL A   1      45.969  20.377  25.071  1.00  0.00     0.316 C 
ATOM      4  O   UNL A   1      46.968  19.693  24.842  1.00  0.00    -0.251 OA
BRANCH   3   5
ATOM      5  C   UNL A   1      44.609  19.893  24.628  1.00  0.00     0.200 C 
BRANCH   5   6
ATOM      6  S   UNL A   1      43.912  18.639  25.713  1.00  0.00    -0.075 SA
BRANCH   6   7
ATOM      7  C   UNL A   1      42.546  19.427  26.397  1.00  0.00     0.184 A 
ATOM      8  N   UNL A   1      41.786  20.287  25.773  1.00  0.00    -0.201 NA
ATOM      9  N   UNL A   1      42.089  19.241  27.666  1.00  0.00    -0.254 N 
ATOM     10  C   UNL A   1      40.884  20.664  26.741  1.00  0.00     0.182 A 
ATOM     11  N   UNL A   1      41.047  20.052  27.924  1.00  0.00    -0.153 NA
ATOM     12  H   UNL A   1      42.471  18.600  28.309  1.00  0.00     0.192 HD
BRANCH  10  13
ATOM     13  C   UNL A   1      39.868  21.662  26.468  1.00  0.00     0.024 A 
ATOM     14  C   UNL A   1      38.734  21.307  25.722  1.00  0.00     0.012 A 
ATOM     15  C   UNL A   1      40.023  22.980  26.909  1.00  0.00     0.051 A 
ATOM     16  C   UNL A   1      37.762  22.258  25.417  1.00  0.00     0.004 A 
ATOM     17  C   UNL A   1      39.055  23.922  26.582  1.00  0.00     0.123 A 
ATOM     18  C   UNL A   1      37.928  23.574  25.844  1.00  0.00     0.039 A 
ATOM     19  F   UNL A   1      39.213  25.193  26.975  1.00  0.00    -0.207 F 
ENDBRANCH  10  13
ENDBRANCH   6   7
ENDBRANCH   5   6
ENDBRANCH   3   5
ENDBRANCH   2   3
ENDBRANCH   1   2
BRANCH   1  20
ATOM     20  C   UNL A   1      44.227  22.963  26.467  1.00  0.00     0.275 C 
BRANCH  20  21
ATOM     21  O   UNL A   1      44.198  24.341  26.878  1.00  0.00    -0.458 OA
BRANCH  21  22
ATOM     22  C   UNL A   1      43.180  25.095  26.392  1.00  0.00     0.338 C 
ATOM     23  O   UNL A   1      42.563  24.906  25.358  1.00  0.00    -0.246 OA
BRANCH  22  24
ATOM     24  C   UNL A   1      42.775  26.063  27.440  1.00  0.00     0.060 A 
ATOM     25  C   UNL A   1      43.218  27.388  27.329  1.00  0.00     0.016 A 
ATOM     26  C   UNL A   1      41.908  25.698  28.475  1.00  0.00     0.016 A 
ATOM     27  C   UNL A   1      42.801  28.347  28.257  1.00  0.00     0.010 A 
ATOM     28  C   UNL A   1      41.496  26.656  29.403  1.00  0.00     0.010 A 
ATOM     29  C   UNL A   1      41.953  27.981  29.309  1.00  0.00    -0.014 A 
BRANCH  29  30
ATOM     30  C   UNL A   1      41.637  28.926  30.406  1.00  0.00     0.031 A 
ATOM     31  C   UNL A   1      42.436  28.849  31.673  1.00  0.00     0.074 A 
ATOM     32  C   UNL A   1      40.613  29.792  30.305  1.00  0.00     0.049 A 
ATOM     33  N   UNL A   1      42.263  29.484  32.801  1.00  0.00    -0.248 NA
ATOM     34  C   UNL A   1      43.579  27.921  31.669  1.00  0.00     0.031 C 
ATOM     35  C   UNL A   1      39.773  29.976  29.125  1.00  0.00     0.029 A 
ATOM     36  N   UNL A   1      40.093  30.664  31.230  1.00  0.00    -0.354 N 
ATOM     37  C   UNL A   1      43.264  29.026  33.647  1.00  0.00     0.074 A 
ATOM     38  C   UNL A   1      44.028  28.045  32.908  1.00  0.00     0.031 C 
ATOM     39  C   UNL A   1      38.827  30.890  29.403  1.00  0.00     0.029 A 
ATOM     40  C   UNL A   1      38.973  31.329  30.791  1.00  0.00     0.049 A 
ATOM     41  H   UNL A   1      40.485  30.800  32.123  1.00  0.00     0.167 HD
ATOM     42  C   UNL A   1      43.523  29.391  34.923  1.00  0.00     0.037 A 
ATOM     43  C   UNL A   1      38.143  32.170  31.443  1.00  0.00     0.037 A 
ATOM     44  C   UNL A   1      42.760  30.361  35.659  1.00  0.00     0.049 A 
ATOM     45  C   UNL A   1      38.406  32.514  32.885  1.00  0.00     0.074 A 
ATOM     46  C   UNL A   1      42.978  30.832  36.941  1.00  0.00     0.029 A 
ATOM     47  N   UNL A   1      41.621  30.996  35.187  1.00  0.00    -0.354 N 
ATOM     48  N   UNL A   1      39.383  32.109  33.661  1.00  0.00    -0.248 NA
ATOM     49  C   UNL A   1      37.452  33.419  33.544  1.00  0.00     0.031 C 
ATOM     50  C   UNL A   1      41.942  31.713  37.264  1.00  0.00     0.029 A 
ATOM     51  C   UNL A   1      41.103  31.826  36.166  1.00  0.00     0.049 A 
ATOM     52  H   UNL A   1      41.237  30.874  34.288  1.00  0.00     0.167 HD
ATOM     53  C   UNL A   1      39.171  32.719  34.894  1.00  0.00     0.074 A 
ATOM     54  C   UNL A   1      37.974  33.524  34.761  1.00  0.00     0.031 C 
ATOM     55  C   UNL A   1      39.906  32.622  36.028  1.00  0.00     0.037 A 
BRANCH  42  56
ATOM     56  C   UNL A   1      44.666  28.706  35.613  1.00  0.00     0.058 A 
ATOM     57  C   UNL A   1      44.438  27.561  36.393  1.00  0.00     0.135 A 
ATOM     58  C   UNL A   1      45.982  29.180  35.504  1.00  0.00     0.135 A 
ATOM     59  F   UNL A   1      43.198  27.064  36.519  1.00  0.00    -0.206 F 
ATOM     60  C   UNL A   1      45.480  26.905  37.038  1.00  0.00     0.059 A 
ATOM     61  C   UNL A   1      47.043  28.525  36.123  1.00  0.00     0.059 A 
ATOM     62  F   UNL A   1      46.253  30.255  34.748  1.00  0.00    -0.206 F 
ATOM     63  C   UNL A   1      46.780  27.391  36.892  1.00  0.00     0.060 A 
BRANCH  63  64
ATOM     64  S   UNL A   1      48.134  26.478  37.661  1.00  0.00     0.124 S 
ATOM     65  O   UNL A   1      49.170  26.561  36.640  1.00  0.00    -0.237 OA
ATOM     66  O   UNL A   1      48.373  27.250  38.878  1.00  0.00    -0.237 OA
ATOM     67  O   UNL A   1      47.563  25.152  37.878  1.00  0.00    -0.744 OA
ENDBRANCH  63  64
ENDBRANCH  42  56
BRANCH  43  68
ATOM     68  C   UNL A   1      36.975  32.735  30.719  1.00  0.00     0.058 A 
ATOM     69  C   UNL A   1      37.116  33.846  29.874  1.00  0.00     0.135 A 
ATOM     70  C   UNL A   1      35.687  32.219  30.919  1.00  0.00     0.135 A 
ATOM     71  F   UNL A   1      38.329  34.376  29.653  1.00  0.00    -0.206 F 
ATOM     72  C   UNL A   1      36.012  34.456  29.288  1.00  0.00     0.059 A 
ATOM     73  C   UNL A   1      34.569  32.802  30.329  1.00  0.00     0.059 A 
ATOM     74  F   UNL A   1      35.511  31.146  31.703  1.00  0.00    -0.206 F 
ATOM     75  C   UNL A   1      34.740  33.936  29.535  1.00  0.00     0.060 A 
BRANCH  75  76
ATOM     76  S   UNL A   1      33.315  34.790  28.830  1.00  0.00     0.124 S 
ATOM     77  O   UNL A   1      32.512  35.043  30.021  1.00  0.00    -0.237 OA
ATOM     78  O   UNL A   1      33.933  35.962  28.219  1.00  0.00    -0.237 OA
ATOM     79  O   UNL A   1      32.764  33.814  27.897  1.00  0.00    -0.744 OA
ENDBRANCH  75  76
ENDBRANCH  43  68
BRANCH  55  80
ATOM     80  C   UNL A   1      39.464  33.400  37.236  1.00  0.00     0.058 A 
ATOM     81  C   UNL A   1      40.053  34.637  37.540  1.00  0.00     0.135 A 
ATOM     82  C   UNL A   1      38.561  32.857  38.163  1.00  0.00     0.135 A 
ATOM     83  F   UNL A   1      40.926  35.198  36.688  1.00  0.00    -0.206 F 
ATOM     84  C   UNL A   1      39.793  35.292  38.740  1.00  0.00     0.059 A 
ATOM     85  C   UNL A   1      38.270  33.504  39.361  1.00  0.00     0.059 A 
ATOM     86  F   UNL A   1      37.962  31.682  37.911  1.00  0.00    -0.206 F 
ATOM     87  C   UNL A   1      38.911  34.709  39.651  1.00  0.00     0.060 A 
BRANCH  87  88
ATOM     88  S   UNL A   1      38.621  35.549  41.223  1.00  0.00     0.124 S 
ATOM     89  O   UNL A   1      39.789  35.144  41.998  1.00  0.00    -0.237 OA
ATOM     90  O   UNL A   1      38.580  36.951  40.822  1.00  0.00    -0.237 OA
ATOM     91  O   UNL A   1      37.346  34.995  41.673  1.00  0.00    -0.744 OA
ENDBRANCH  87  88
ENDBRANCH  55  80
ENDBRANCH  29  30
ENDBRANCH  22  24
ENDBRANCH  21  22
ENDBRANCH  20  21
ENDBRANCH   1  20
TORSDOF 17
ENDMDL
MODEL 3
REMARK VINA RESULT:     -10.4      2.964     11.944
REMARK SMILES O=C(CSc1nc(-c2cccc(F)c2)n[nH]1)OCCOC(=O)c1ccc(-c2c3nc(c(-c4c(F)cc(S(=O)(=O)[O-])cc4F)c4ccc([nH]4)c(-c4c(F)cc(S(=O)(=O)[O-])cc4F)c4nc(c(-c5c(F)cc(S(=O)(=O)[O-])cc5F)c5ccc2[nH]5)C=C4)C=C3)cc1
REMARK SMILES IDX 18 1 17 2 2 3 1 4 3 5 4 6 5 7 6 8 16 9 7 10 15 11 8 13 9 14
REMARK SMILES IDX 14 15 10 16 12 17 11 18 13 19 19 20 20 21 21 22 22 23 23 24
REMARK SMILES IDX 24 25 88 26 25 27 87 28 26 29 27 30 28 31 81 32 29 33 86 34
REMARK SMILES IDX 80 35 82 36 30 37 85 38 79 39 78 40 31 42 65 43 44 44 64 45
REMARK SMILES IDX 45 46 48 47 63 48 83 49 46 50 47 51 62 53 84 54 49 55 32 56
REMARK SMILES IDX 33 57 42 58 34 59 35 60 41 61 43 62 36 63 37 64 38 65 39 66
REMARK SMILES IDX 40 67 66 68 67 69 76 70 68 71 69 72 75 73 77 74 70 75 71 76
REMARK SMILES IDX 72 77 73 78 74 79 50 80 51 81 60 82 52 83 53 84 59 85 61 86
REMARK SMILES IDX 54 87 55 88 56 89 57 90 58 91
REMARK H PARENT 16 12 82 41 48 52
REMARK Flexibility Score: inf
ROOT
ATOM      1  C   UNL A   1      41.517  19.883  26.536  1.00  0.00     0.274 C 
ENDROOT
BRANCH   1   2
ATOM      2  O   UNL A   1      42.258  19.395  25.394  1.00  0.00    -0.461 OA
BRANCH   2   3
ATOM      3  C   UNL A   1      43.436  18.736  25.445  1.00  0.00     0.316 C 
ATOM      4  O   UNL A   1      43.654  17.932  26.352  1.00  0.00    -0.251 OA
BRANCH   3   5
ATOM      5  C   UNL A   1      44.488  18.982  24.390  1.00  0.00     0.200 C 
BRANCH   5   6
ATOM      6  S   UNL A   1      45.777  20.118  24.922  1.00  0.00    -0.075 SA
BRANCH   6   7
ATOM      7  C   UNL A   1      44.978  21.640  24.936  1.00  0.00     0.184 A 
ATOM      8  N   UNL A   1      45.455  22.732  25.472  1.00  0.00    -0.201 NA
ATOM      9  N   UNL A   1      43.759  21.890  24.382  1.00  0.00    -0.254 N 
ATOM     10  C   UNL A   1      44.442  23.642  25.275  1.00  0.00     0.182 A 
ATOM     11  N   UNL A   1      43.376  23.157  24.620  1.00  0.00    -0.153 NA
ATOM     12  H   UNL A   1      43.230  21.232  23.877  1.00  0.00     0.192 HD
BRANCH  10  13
ATOM     13  C   UNL A   1      44.551  25.000  25.772  1.00  0.00     0.024 A 
ATOM     14  C   UNL A   1      43.875  26.034  25.106  1.00  0.00     0.012 A 
ATOM     15  C   UNL A   1      45.348  25.296  26.882  1.00  0.00     0.051 A 
ATOM     16  C   UNL A   1      43.994  27.353  25.544  1.00  0.00     0.004 A 
ATOM     17  C   UNL A   1      45.471  26.616  27.297  1.00  0.00     0.123 A 
ATOM     18  C   UNL A   1      44.801  27.645  26.641  1.00  0.00     0.039 A 
ATOM     19  F   UNL A   1      46.258  26.909  28.340  1.00  0.00    -0.207 F 
ENDBRANCH  10  13
ENDBRANCH   6   7
ENDBRANCH   5   6
ENDBRANCH   3   5
ENDBRANCH   2   3
ENDBRANCH   1   2
BRANCH   1  20
ATOM     20  C   UNL A   1      40.244  20.609  26.094  1.00  0.00     0.275 C 
BRANCH  20  21
ATOM     21  O   UNL A   1      40.464  22.030  26.108  1.00  0.00    -0.458 OA
BRANCH  21  22
ATOM     22  C   UNL A   1      39.356  22.812  26.065  1.00  0.00     0.338 C 
ATOM     23  O   UNL A   1      38.256  22.495  25.648  1.00  0.00    -0.246 OA
BRANCH  22  24
ATOM     24  C   UNL A   1      39.632  24.053  26.828  1.00  0.00     0.060 A 
ATOM     25  C   UNL A   1      40.453  25.027  26.241  1.00  0.00     0.016 A 
ATOM     26  C   UNL A   1      39.033  24.298  28.068  1.00  0.00     0.016 A 
ATOM     27  C   UNL A   1      40.681  26.240  26.896  1.00  0.00     0.010 A 
ATOM     28  C   UNL A   1      39.266  25.508  28.723  1.00  0.00     0.010 A 
ATOM     29  C   UNL A   1      40.103  26.479  28.149  1.00  0.00    -0.014 A 
BRANCH  29  30
ATOM     30  C   UNL A   1      40.465  27.673  28.948  1.00  0.00     0.031 A 
ATOM     31  C   UNL A   1      41.739  27.647  29.741  1.00  0.00     0.074 A 
ATOM     32  C   UNL A   1      39.645  28.736  29.022  1.00  0.00     0.049 A 
ATOM     33  N   UNL A   1      42.196  28.519  30.600  1.00  0.00    -0.248 NA
ATOM     34  C   UNL A   1      42.606  26.474  29.546  1.00  0.00     0.031 C 
ATOM     35  C   UNL A   1      38.392  28.891  28.289  1.00  0.00     0.029 A 
ATOM     36  N   UNL A   1      39.739  29.880  29.777  1.00  0.00    -0.354 N 
ATOM     37  C   UNL A   1      43.398  27.996  31.059  1.00  0.00     0.074 A 
ATOM     38  C   UNL A   1      43.588  26.723  30.398  1.00  0.00     0.031 C 
ATOM     39  C   UNL A   1      37.820  30.054  28.645  1.00  0.00     0.029 A 
ATOM     40  C   UNL A   1      38.650  30.710  29.657  1.00  0.00     0.049 A 
ATOM     41  H   UNL A   1      40.513  30.086  30.349  1.00  0.00     0.167 HD
ATOM     42  C   UNL A   1      44.265  28.530  31.950  1.00  0.00     0.037 A 
ATOM     43  C   UNL A   1      38.343  31.849  30.310  1.00  0.00     0.037 A 
ATOM     44  C   UNL A   1      44.072  29.792  32.611  1.00  0.00     0.049 A 
ATOM     45  C   UNL A   1      39.286  32.396  31.348  1.00  0.00     0.074 A 
ATOM     46  C   UNL A   1      44.921  30.437  33.492  1.00  0.00     0.029 A 
ATOM     47  N   UNL A   1      42.947  30.591  32.479  1.00  0.00    -0.354 N 
ATOM     48  N   UNL A   1      40.442  31.916  31.742  1.00  0.00    -0.248 NA
ATOM     49  C   UNL A   1      38.882  33.630  32.040  1.00  0.00     0.031 C 
ATOM     50  C   UNL A   1      44.287  31.602  33.934  1.00  0.00     0.029 A 
ATOM     51  C   UNL A   1      43.062  31.705  33.292  1.00  0.00     0.049 A 
ATOM     52  H   UNL A   1      42.180  30.396  31.894  1.00  0.00     0.167 HD
ATOM     53  C   UNL A   1      40.910  32.794  32.714  1.00  0.00     0.074 A 
ATOM     54  C   UNL A   1      39.915  33.837  32.849  1.00  0.00     0.031 C 
ATOM     55  C   UNL A   1      42.063  32.739  33.425  1.00  0.00     0.037 A 
BRANCH  42  56
ATOM     56  C   UNL A   1      45.486  27.725  32.283  1.00  0.00     0.058 A 
ATOM     57  C   UNL A   1      46.664  27.884  31.538  1.00  0.00     0.135 A 
ATOM     58  C   UNL A   1      45.491  26.797  33.337  1.00  0.00     0.135 A 
ATOM     59  F   UNL A   1      46.712  28.766  30.528  1.00  0.00    -0.206 F 
ATOM     60  C   UNL A   1      47.810  27.154  31.829  1.00  0.00     0.059 A 
ATOM     61  C   UNL A   1      46.634  26.072  33.660  1.00  0.00     0.059 A 
ATOM     62  F   UNL A   1      44.397  26.629  34.095  1.00  0.00    -0.206 F 
ATOM     63  C   UNL A   1      47.787  26.255  32.896  1.00  0.00     0.060 A 
BRANCH  63  64
ATOM     64  S   UNL A   1      49.309  25.379  33.320  1.00  0.00     0.124 S 
ATOM     65  O   UNL A   1      49.946  25.238  32.017  1.00  0.00    -0.237 OA
ATOM     66  O   UNL A   1      49.949  26.307  34.247  1.00  0.00    -0.237 OA
ATOM     67  O   UNL A   1      48.825  24.142  33.925  1.00  0.00    -0.744 OA
ENDBRANCH  63  64
ENDBRANCH  42  56
BRANCH  43  68
ATOM     68  C   UNL A   1      37.066  32.540  29.992  1.00  0.00     0.058 A 
ATOM     69  C   UNL A   1      37.018  33.571  29.042  1.00  0.00     0.135 A 
ATOM     70  C   UNL A   1      35.889  32.231  30.689  1.00  0.00     0.135 A 
ATOM     71  F   UNL A   1      38.120  33.903  28.351  1.00  0.00    -0.206 F 
ATOM     72  C   UNL A   1      35.856  34.304  28.825  1.00  0.00     0.059 A 
ATOM     73  C   UNL A   1      34.709  32.940  30.477  1.00  0.00     0.059 A 
ATOM     74  F   UNL A   1      35.887  31.241  31.592  1.00  0.00    -0.206 F 
ATOM     75  C   UNL A   1      34.711  33.991  29.560  1.00  0.00     0.060 A 
BRANCH  75  76
ATOM     76  S   UNL A   1      33.238  35.006  29.321  1.00  0.00     0.124 S 
ATOM     77  O   UNL A   1      32.509  34.227  28.325  1.00  0.00    -0.237 OA
ATOM     78  O   UNL A   1      32.660  35.026  30.660  1.00  0.00    -0.237 OA
ATOM     79  O   UNL A   1      33.776  36.278  28.852  1.00  0.00    -0.744 OA
ENDBRANCH  75  76
ENDBRANCH  43  68
BRANCH  55  80
ATOM     80  C   UNL A   1      42.343  33.831  34.421  1.00  0.00     0.058 A 
ATOM     81  C   UNL A   1      43.012  34.999  34.025  1.00  0.00     0.135 A 
ATOM     82  C   UNL A   1      42.072  33.658  35.787  1.00  0.00     0.135 A 
ATOM     83  F   UNL A   1      43.297  35.210  32.731  1.00  0.00    -0.206 F 
ATOM     84  C   UNL A   1      43.440  35.942  34.954  1.00  0.00     0.059 A 
ATOM     85  C   UNL A   1      42.473  34.599  36.732  1.00  0.00     0.059 A 
ATOM     86  F   UNL A   1      41.423  32.563  36.213  1.00  0.00    -0.206 F 
ATOM     87  C   UNL A   1      43.179  35.725  36.308  1.00  0.00     0.060 A 
BRANCH  87  88
ATOM     88  S   UNL A   1      43.781  36.936  37.505  1.00  0.00     0.124 S 
ATOM     89  O   UNL A   1      44.621  36.112  38.367  1.00  0.00    -0.237 OA
ATOM     90  O   UNL A   1      44.488  37.888  36.653  1.00  0.00    -0.237 OA
ATOM     91  O   UNL A   1      42.558  37.444  38.119  1.00  0.00    -0.744 OA
ENDBRANCH  87  88
ENDBRANCH  55  80
ENDBRANCH  29  30
ENDBRANCH  22  24
ENDBRANCH  21  22
ENDBRANCH  20  21
ENDBRANCH   1  20
TORSDOF 17
ENDMDL
