MODEL 1
REMARK VINA RESULT:     -14.0      0.000      0.000
REMARK SMILES Cc1ccc(S(=O)(=O)n2cc(C(=O)C(=O)N[C@@H](Cc3cnc[nH]3)C(=O)OCCOC(=O)c3ccc(-c4c5nc(c(-c6c(F)cc(S(=O)(=O)[O-])cc6F)c6ccc([nH]6)c(-c6c(F)cc(S(=O)(=O)[O-])cc6F)c6nc(c(-c7c(F)cc(S(=O)(=O)[O-])cc7F)c7ccc4[nH]7)C=C6)C=C5)cc3)c3ccccc32)cc1
REMARK SMILES IDX 27 1 26 2 24 3 25 4 17 5 16 6 14 7 15 8 12 10 13 11 11 12
REMARK SMILES IDX 9 13 10 14 103 15 98 16 102 17 99 18 101 19 100 20 6 21 7 22
REMARK SMILES IDX 8 23 5 24 1 25 2 26 3 27 105 28 4 29 104 30 18 31 19 32
REMARK SMILES IDX 20 33 23 34 21 35 22 36 28 38 29 39 30 40 31 41 32 42 33 43
REMARK SMILES IDX 97 44 34 45 96 46 35 47 36 48 37 49 90 50 38 51 95 52 89 53
REMARK SMILES IDX 91 54 39 55 94 56 88 57 87 58 40 60 74 61 53 62 73 63 54 64
REMARK SMILES IDX 57 65 72 66 92 67 55 68 56 69 71 71 93 72 58 73 41 74 42 75
REMARK SMILES IDX 51 76 43 77 44 78 50 79 52 80 45 81 46 82 47 83 48 84 49 85
REMARK SMILES IDX 75 86 76 87 85 88 77 89 78 90 84 91 86 92 79 93 80 94 81 95
REMARK SMILES IDX 82 96 83 97 59 98 60 99 69 100 61 101 62 102 68 103 70 104
REMARK SMILES IDX 63 105 64 106 65 107 66 108 67 109
REMARK H PARENT 16 9 23 37 91 59 57 70
REMARK Flexibility Score: inf
ROOT
ATOM      1  C   UNL A   1      33.714  30.108  27.150  1.00  0.00     0.274 C 
ENDROOT
BRANCH   1   2
ATOM      2  O   UNL A   1      33.312  29.694  25.837  1.00  0.00    -0.461 OA
BRANCH   2   3
ATOM      3  C   UNL A   1      31.938  29.984  25.432  1.00  0.00     0.329 C 
ATOM      4  O   UNL A   1      31.597  30.922  26.195  1.00  0.00    -0.250 OA
BRANCH   3   5
ATOM      5  C   UNL A   1      30.927  28.974  23.756  1.00  0.00     0.198 C 
BRANCH   5   6
ATOM      6  N   UNL A   1      29.835  27.672  23.791  1.00  0.00    -0.335 N 
ATOM      7  C   UNL A   1      29.716  26.458  24.443  1.00  0.00     0.293 C 
ATOM      8  O   UNL A   1      28.811  25.715  24.061  1.00  0.00    -0.265 OA
ATOM      9  H   UNL A   1      29.079  27.824  23.178  1.00  0.00     0.164 HD
BRANCH   7  10
ATOM     10  C   UNL A   1      30.659  25.972  25.577  1.00  0.00     0.252 C 
ATOM     11  O   UNL A   1      30.481  26.433  26.702  1.00  0.00    -0.283 OA
BRANCH  10  12
ATOM     12  C   UNL A   1      31.837  25.102  25.286  1.00  0.00     0.054 A 
ATOM     13  N   UNL A   1      33.516  23.627  25.532  1.00  0.00    -0.240 N 
ATOM     14  C   UNL A   1      32.637  24.436  26.207  1.00  0.00     0.117 A 
ATOM     15  C   UNL A   1      33.349  23.738  24.170  1.00  0.00     0.065 A 
ATOM     16  C   UNL A   1      32.359  24.720  23.987  1.00  0.00     0.012 A 
ATOM     17  C   UNL A   1      33.979  23.091  23.087  1.00  0.00     0.028 A 
ATOM     18  C   UNL A   1      32.062  25.109  22.662  1.00  0.00     0.011 A 
ATOM     19  C   UNL A   1      33.660  23.502  21.794  1.00  0.00     0.002 A 
ATOM     20  C   UNL A   1      32.727  24.510  21.583  1.00  0.00     0.001 A 
BRANCH  13  21
ATOM     21  S   UNL A   1      34.579  22.529  26.295  1.00  0.00     0.268 S 
ATOM     22  O   UNL A   1      34.145  22.475  27.680  1.00  0.00    -0.201 OA
ATOM     23  O   UNL A   1      35.923  22.946  25.940  1.00  0.00    -0.201 OA
BRANCH  21  24
ATOM     24  C   UNL A   1      34.353  20.900  25.619  1.00  0.00     0.088 A 
ATOM     25  C   UNL A   1      33.492  17.074  23.833  1.00  0.00     0.044 C 
ATOM     26  C   UNL A   1      33.797  18.401  24.465  1.00  0.00    -0.051 A 
ATOM     27  C   UNL A   1      32.764  19.163  25.024  1.00  0.00     0.005 A 
ATOM     28  C   UNL A   1      35.109  18.892  24.514  1.00  0.00     0.005 A 
ATOM     29  C   UNL A   1      33.038  20.410  25.592  1.00  0.00     0.022 A 
ATOM     30  C   UNL A   1      35.393  20.131  25.101  1.00  0.00     0.022 A 
ENDBRANCH  21  24
ENDBRANCH  13  21
ENDBRANCH  10  12
ENDBRANCH   7  10
ENDBRANCH   5   6
BRANCH   5  31
ATOM     31  C   UNL A   1      30.236  29.573  22.222  1.00  0.00     0.092 C 
BRANCH  31  32
ATOM     32  C   UNL A   1      29.246  30.714  22.294  1.00  0.00     0.037 A 
ATOM     33  C   UNL A   1      28.516  31.267  23.324  1.00  0.00     0.134 A 
ATOM     34  N   UNL A   1      28.897  31.485  21.203  1.00  0.00    -0.348 N 
ATOM     35  N   UNL A   1      27.964  32.467  22.944  1.00  0.00    -0.245 NA
ATOM     36  C   UNL A   1      28.264  32.599  21.673  1.00  0.00     0.196 A 
ATOM     37  H   UNL A   1      29.072  31.270  20.258  1.00  0.00     0.167 HD
ENDBRANCH  31  32
ENDBRANCH   5  31
ENDBRANCH   3   5
ENDBRANCH   2   3
ENDBRANCH   1   2
BRANCH   1  38
ATOM     38  C   UNL A   1      35.240  30.014  27.265  1.00  0.00     0.275 C 
BRANCH  38  39
ATOM     39  O   UNL A   1      35.777  29.317  28.422  1.00  0.00    -0.458 OA
BRANCH  39  40
ATOM     40  C   UNL A   1      36.628  29.882  29.319  1.00  0.00     0.338 C 
ATOM     41  O   UNL A   1      36.343  30.200  30.463  1.00  0.00    -0.246 OA
BRANCH  40  42
ATOM     42  C   UNL A   1      37.913  30.270  28.733  1.00  0.00     0.060 A 
ATOM     43  C   UNL A   1      38.355  29.600  27.118  1.00  0.00     0.016 A 
ATOM     44  C   UNL A   1      39.195  30.825  29.856  1.00  0.00     0.016 A 
ATOM     45  C   UNL A   1      40.102  29.260  26.712  1.00  0.00     0.010 A 
ATOM     46  C   UNL A   1      40.913  30.443  29.462  1.00  0.00     0.010 A 
ATOM     47  C   UNL A   1      41.358  29.621  27.922  1.00  0.00    -0.014 A 
BRANCH  47  48
ATOM     48  C   UNL A   1      42.627  28.903  28.135  1.00  0.00     0.031 A 
ATOM     49  C   UNL A   1      42.527  27.437  28.186  1.00  0.00     0.074 A 
ATOM     50  C   UNL A   1      43.756  29.497  27.692  1.00  0.00     0.049 A 
ATOM     51  N   UNL A   1      42.914  26.638  27.244  1.00  0.00    -0.248 NA
ATOM     52  C   UNL A   1      41.760  26.789  29.257  1.00  0.00     0.031 C 
ATOM     53  C   UNL A   1      44.992  28.886  27.221  1.00  0.00     0.029 A 
ATOM     54  N   UNL A   1      44.086  30.837  27.811  1.00  0.00    -0.354 N 
ATOM     55  C   UNL A   1      42.626  25.359  27.666  1.00  0.00     0.074 A 
ATOM     56  C   UNL A   1      41.750  25.524  28.827  1.00  0.00     0.031 C 
ATOM     57  C   UNL A   1      46.005  29.758  27.381  1.00  0.00     0.029 A 
ATOM     58  C   UNL A   1      45.468  30.935  28.047  1.00  0.00     0.049 A 
ATOM     59  H   UNL A   1      43.458  31.593  27.743  1.00  0.00     0.167 HD
ATOM     60  C   UNL A   1      43.599  24.412  27.726  1.00  0.00     0.037 A 
ATOM     61  C   UNL A   1      45.836  31.367  29.293  1.00  0.00     0.037 A 
ATOM     62  C   UNL A   1      44.897  24.966  28.031  1.00  0.00     0.049 A 
ATOM     63  C   UNL A   1      46.192  30.198  30.207  1.00  0.00     0.074 A 
ATOM     64  C   UNL A   1      45.978  25.414  27.301  1.00  0.00     0.029 A 
ATOM     65  N   UNL A   1      45.115  25.367  29.333  1.00  0.00    -0.354 N 
ATOM     66  N   UNL A   1      46.071  28.941  29.862  1.00  0.00    -0.248 NA
ATOM     67  C   UNL A   1      46.708  30.333  31.567  1.00  0.00     0.031 C 
ATOM     68  C   UNL A   1      46.794  26.193  28.182  1.00  0.00     0.029 A 
ATOM     69  C   UNL A   1      46.228  26.172  29.448  1.00  0.00     0.049 A 
ATOM     70  H   UNL A   1      44.544  25.108  30.092  1.00  0.00     0.167 HD
ATOM     71  C   UNL A   1      46.492  28.125  30.868  1.00  0.00     0.074 A 
ATOM     72  C   UNL A   1      46.823  29.046  31.944  1.00  0.00     0.031 C 
ATOM     73  C   UNL A   1      46.555  26.764  30.743  1.00  0.00     0.037 A 
BRANCH  60  74
ATOM     74  C   UNL A   1      43.277  23.036  27.226  1.00  0.00     0.058 A 
ATOM     75  C   UNL A   1      42.532  22.147  28.019  1.00  0.00     0.135 A 
ATOM     76  C   UNL A   1      43.776  22.511  26.008  1.00  0.00     0.135 A 
ATOM     77  F   UNL A   1      41.988  22.550  29.176  1.00  0.00    -0.206 F 
ATOM     78  C   UNL A   1      42.349  20.811  27.666  1.00  0.00     0.059 A 
ATOM     79  C   UNL A   1      43.593  21.179  25.630  1.00  0.00     0.059 A 
ATOM     80  F   UNL A   1      44.487  23.277  25.162  1.00  0.00    -0.206 F 
ATOM     81  C   UNL A   1      42.900  20.329  26.482  1.00  0.00     0.060 A 
BRANCH  81  82
ATOM     82  S   UNL A   1      42.722  18.573  26.104  1.00  0.00     0.124 S 
ATOM     83  O   UNL A   1      43.639  18.417  24.980  1.00  0.00    -0.237 OA
ATOM     84  O   UNL A   1      43.137  17.947  27.354  1.00  0.00    -0.237 OA
ATOM     85  O   UNL A   1      41.306  18.436  25.778  1.00  0.00    -0.744 OA
ENDBRANCH  81  82
ENDBRANCH  60  74
BRANCH  61  86
ATOM     86  C   UNL A   1      45.060  32.613  29.625  1.00  0.00     0.058 A 
ATOM     87  C   UNL A   1      45.419  33.778  28.900  1.00  0.00     0.135 A 
ATOM     88  C   UNL A   1      43.767  32.578  30.159  1.00  0.00     0.135 A 
ATOM     89  F   UNL A   1      46.654  33.886  28.380  1.00  0.00    -0.206 F 
ATOM     90  C   UNL A   1      44.485  34.751  28.547  1.00  0.00     0.059 A 
ATOM     91  C   UNL A   1      42.831  33.583  29.868  1.00  0.00     0.059 A 
ATOM     92  F   UNL A   1      43.346  31.500  30.840  1.00  0.00    -0.206 F 
ATOM     93  C   UNL A   1      43.179  34.623  29.002  1.00  0.00     0.060 A 
BRANCH  93  94
ATOM     94  S   UNL A   1      41.935  35.781  28.369  1.00  0.00     0.124 S 
ATOM     95  O   UNL A   1      42.482  37.066  28.788  1.00  0.00    -0.237 OA
ATOM     96  O   UNL A   1      41.956  35.534  26.931  1.00  0.00    -0.237 OA
ATOM     97  O   UNL A   1      40.711  35.373  29.055  1.00  0.00    -0.744 OA
ENDBRANCH  93  94
ENDBRANCH  61  86
BRANCH  73  98
ATOM     98  C   UNL A   1      46.978  25.883  31.882  1.00  0.00     0.058 A 
ATOM     99  C   UNL A   1      46.047  25.323  32.769  1.00  0.00     0.135 A 
ATOM    100  C   UNL A   1      48.339  25.618  32.153  1.00  0.00     0.135 A 
ATOM    101  F   UNL A   1      44.740  25.609  32.664  1.00  0.00    -0.206 F 
ATOM    102  C   UNL A   1      46.429  24.450  33.782  1.00  0.00     0.059 A 
ATOM    103  C   UNL A   1      48.748  24.818  33.213  1.00  0.00     0.059 A 
ATOM    104  F   UNL A   1      49.317  26.088  31.366  1.00  0.00    -0.206 F 
ATOM    105  C   UNL A   1      47.782  24.198  33.991  1.00  0.00     0.060 A 
BRANCH 105 106
ATOM    106  S   UNL A   1      48.266  23.050  35.288  1.00  0.00     0.124 S 
ATOM    107  O   UNL A   1      49.331  23.781  35.969  1.00  0.00    -0.237 OA
ATOM    108  O   UNL A   1      47.017  22.913  36.029  1.00  0.00    -0.237 OA
ATOM    109  O   UNL A   1      48.696  21.867  34.550  1.00  0.00    -0.744 OA
ENDBRANCH 105 106
ENDBRANCH  73  98
ENDBRANCH  47  48
ENDBRANCH  40  42
ENDBRANCH  39  40
ENDBRANCH  38  39
ENDBRANCH   1  38
TORSDOF 21
ENDMDL
MODEL 2
REMARK VINA RESULT:     -13.6      3.402      8.769
REMARK SMILES Cc1ccc(S(=O)(=O)n2cc(C(=O)C(=O)N[C@@H](Cc3cnc[nH]3)C(=O)OCCOC(=O)c3ccc(-c4c5nc(c(-c6c(F)cc(S(=O)(=O)[O-])cc6F)c6ccc([nH]6)c(-c6c(F)cc(S(=O)(=O)[O-])cc6F)c6nc(c(-c7c(F)cc(S(=O)(=O)[O-])cc7F)c7ccc4[nH]7)C=C6)C=C5)cc3)c3ccccc32)cc1
REMARK SMILES IDX 27 1 26 2 24 3 25 4 17 5 16 6 14 7 15 8 12 10 13 11 11 12
REMARK SMILES IDX 9 13 10 14 103 15 98 16 102 17 99 18 101 19 100 20 6 21 7 22
REMARK SMILES IDX 8 23 5 24 1 25 2 26 3 27 105 28 4 29 104 30 18 31 19 32
REMARK SMILES IDX 20 33 23 34 21 35 22 36 28 38 29 39 30 40 31 41 32 42 33 43
REMARK SMILES IDX 97 44 34 45 96 46 35 47 36 48 37 49 90 50 38 51 95 52 89 53
REMARK SMILES IDX 91 54 39 55 94 56 88 57 87 58 40 60 74 61 53 62 73 63 54 64
REMARK SMILES IDX 57 65 72 66 92 67 55 68 56 69 71 71 93 72 58 73 41 74 42 75
REMARK SMILES IDX 51 76 43 77 44 78 50 79 52 80 45 81 46 82 47 83 48 84 49 85
REMARK SMILES IDX 75 86 76 87 85 88 77 89 78 90 84 91 86 92 79 93 80 94 81 95
REMARK SMILES IDX 82 96 83 97 59 98 60 99 69 100 61 101 62 102 68 103 70 104
REMARK SMILES IDX 63 105 64 106 65 107 66 108 67 109
REMARK H PARENT 16 9 23 37 91 59 57 70
REMARK Flexibility Score: inf
ROOT
ATOM      1  C   UNL A   1      33.699  30.063  26.777  1.00  0.00     0.274 C 
ENDROOT
BRANCH   1   2
ATOM      2  O   UNL A   1      33.270  29.507  25.526  1.00  0.00    -0.461 OA
BRANCH   2   3
ATOM      3  C   UNL A   1      31.842  29.564  25.219  1.00  0.00     0.329 C 
ATOM      4  O   UNL A   1      31.400  30.418  26.028  1.00  0.00    -0.250 OA
BRANCH   3   5
ATOM      5  C   UNL A   1      30.906  28.426  23.582  1.00  0.00     0.198 C 
BRANCH   5   6
ATOM      6  N   UNL A   1      30.584  26.759  23.483  1.00  0.00    -0.335 N 
ATOM      7  C   UNL A   1      31.305  25.589  23.320  1.00  0.00     0.293 C 
ATOM      8  O   UNL A   1      30.650  24.560  23.150  1.00  0.00    -0.265 OA
ATOM      9  H   UNL A   1      29.621  26.577  23.566  1.00  0.00     0.164 HD
BRANCH   7  10
ATOM     10  C   UNL A   1      32.855  25.507  23.300  1.00  0.00     0.252 C 
ATOM     11  O   UNL A   1      33.460  26.312  22.597  1.00  0.00    -0.283 OA
BRANCH  10  12
ATOM     12  C   UNL A   1      33.580  24.393  23.982  1.00  0.00     0.054 A 
ATOM     13  N   UNL A   1      35.166  22.896  24.531  1.00  0.00    -0.240 N 
ATOM     14  C   UNL A   1      34.740  23.759  23.552  1.00  0.00     0.117 A 
ATOM     15  C   UNL A   1      34.316  22.913  25.613  1.00  0.00     0.065 A 
ATOM     16  C   UNL A   1      33.267  23.781  25.260  1.00  0.00     0.012 A 
ATOM     17  C   UNL A   1      34.353  22.240  26.852  1.00  0.00     0.028 A 
ATOM     18  C   UNL A   1      32.188  23.903  26.164  1.00  0.00     0.011 A 
ATOM     19  C   UNL A   1      33.270  22.386  27.718  1.00  0.00     0.002 A 
ATOM     20  C   UNL A   1      32.193  23.193  27.372  1.00  0.00     0.001 A 
BRANCH  13  21
ATOM     21  S   UNL A   1      36.633  22.026  24.461  1.00  0.00     0.268 S 
ATOM     22  O   UNL A   1      37.163  22.273  23.131  1.00  0.00    -0.201 OA
ATOM     23  O   UNL A   1      36.335  20.681  24.917  1.00  0.00    -0.201 OA
BRANCH  21  24
ATOM     24  C   UNL A   1      37.799  22.711  25.616  1.00  0.00     0.088 A 
ATOM     25  C   UNL A   1      40.888  24.194  28.227  1.00  0.00     0.044 C 
ATOM     26  C   UNL A   1      39.804  23.677  27.328  1.00  0.00    -0.051 A 
ATOM     27  C   UNL A   1      39.859  22.362  26.852  1.00  0.00     0.005 A 
ATOM     28  C   UNL A   1      38.724  24.490  26.958  1.00  0.00     0.005 A 
ATOM     29  C   UNL A   1      38.866  21.882  25.994  1.00  0.00     0.022 A 
ATOM     30  C   UNL A   1      37.715  24.008  26.116  1.00  0.00     0.022 A 
ENDBRANCH  21  24
ENDBRANCH  13  21
ENDBRANCH  10  12
ENDBRANCH   7  10
ENDBRANCH   5   6
BRANCH   5  31
ATOM     31  C   UNL A   1      29.567  28.797  22.461  1.00  0.00     0.092 C 
BRANCH  31  32
ATOM     32  C   UNL A   1      28.790  30.075  22.691  1.00  0.00     0.037 A 
ATOM     33  C   UNL A   1      27.465  30.337  22.967  1.00  0.00     0.134 A 
ATOM     34  N   UNL A   1      29.370  31.328  22.679  1.00  0.00    -0.348 N 
ATOM     35  N   UNL A   1      27.297  31.642  23.365  1.00  0.00    -0.245 NA
ATOM     36  C   UNL A   1      28.479  32.197  23.238  1.00  0.00     0.196 A 
ATOM     37  H   UNL A   1      30.263  31.553  22.330  1.00  0.00     0.167 HD
ENDBRANCH  31  32
ENDBRANCH   5  31
ENDBRANCH   3   5
ENDBRANCH   2   3
ENDBRANCH   1   2
BRANCH   1  38
ATOM     38  C   UNL A   1      34.855  29.225  27.334  1.00  0.00     0.275 C 
BRANCH  38  39
ATOM     39  O   UNL A   1      36.204  29.685  27.051  1.00  0.00    -0.458 OA
BRANCH  39  40
ATOM     40  C   UNL A   1      37.051  30.177  27.994  1.00  0.00     0.338 C 
ATOM     41  O   UNL A   1      37.102  31.339  28.364  1.00  0.00    -0.246 OA
BRANCH  40  42
ATOM     42  C   UNL A   1      38.068  29.211  28.418  1.00  0.00     0.060 A 
ATOM     43  C   UNL A   1      38.265  28.891  30.181  1.00  0.00     0.016 A 
ATOM     44  C   UNL A   1      39.429  28.904  27.291  1.00  0.00     0.016 A 
ATOM     45  C   UNL A   1      39.909  28.488  30.864  1.00  0.00     0.010 A 
ATOM     46  C   UNL A   1      41.057  28.550  27.982  1.00  0.00     0.010 A 
ATOM     47  C   UNL A   1      41.304  28.392  29.760  1.00  0.00    -0.014 A 
BRANCH  47  48
ATOM     48  C   UNL A   1      42.706  28.730  30.060  1.00  0.00     0.031 A 
ATOM     49  C   UNL A   1      42.980  30.153  30.303  1.00  0.00     0.074 A 
ATOM     50  C   UNL A   1      43.459  27.777  30.653  1.00  0.00     0.049 A 
ATOM     51  N   UNL A   1      43.223  30.670  31.464  1.00  0.00    -0.248 NA
ATOM     52  C   UNL A   1      42.773  31.134  29.231  1.00  0.00     0.031 C 
ATOM     53  C   UNL A   1      44.587  27.931  31.563  1.00  0.00     0.029 A 
ATOM     54  N   UNL A   1      43.481  26.428  30.340  1.00  0.00    -0.354 N 
ATOM     55  C   UNL A   1      43.398  32.022  31.268  1.00  0.00     0.074 A 
ATOM     56  C   UNL A   1      42.927  32.278  29.906  1.00  0.00     0.031 C 
ATOM     57  C   UNL A   1      45.360  26.831  31.498  1.00  0.00     0.029 A 
ATOM     58  C   UNL A   1      44.800  25.963  30.473  1.00  0.00     0.049 A 
ATOM     59  H   UNL A   1      42.704  25.887  30.070  1.00  0.00     0.167 HD
ATOM     60  C   UNL A   1      44.533  32.642  31.681  1.00  0.00     0.037 A 
ATOM     61  C   UNL A   1      45.435  25.614  29.311  1.00  0.00     0.037 A 
ATOM     62  C   UNL A   1      45.690  31.779  31.628  1.00  0.00     0.049 A 
ATOM     63  C   UNL A   1      46.332  26.739  28.804  1.00  0.00     0.074 A 
ATOM     64  C   UNL A   1      46.342  30.941  32.508  1.00  0.00     0.029 A 
ATOM     65  N   UNL A   1      46.212  31.511  30.378  1.00  0.00    -0.354 N 
ATOM     66  N   UNL A   1      46.409  27.919  29.367  1.00  0.00    -0.248 NA
ATOM     67  C   UNL A   1      47.209  26.643  27.639  1.00  0.00     0.031 C 
ATOM     68  C   UNL A   1      47.187  30.084  31.735  1.00  0.00     0.029 A 
ATOM     69  C   UNL A   1      47.079  30.439  30.398  1.00  0.00     0.049 A 
ATOM     70  H   UNL A   1      45.993  32.026  29.568  1.00  0.00     0.167 HD
ATOM     71  C   UNL A   1      47.311  28.704  28.715  1.00  0.00     0.074 A 
ATOM     72  C   UNL A   1      47.741  27.879  27.596  1.00  0.00     0.031 C 
ATOM     73  C   UNL A   1      47.652  29.957  29.144  1.00  0.00     0.037 A 
BRANCH  60  74
ATOM     74  C   UNL A   1      44.405  33.972  32.361  1.00  0.00     0.058 A 
ATOM     75  C   UNL A   1      44.241  34.047  33.754  1.00  0.00     0.135 A 
ATOM     76  C   UNL A   1      44.332  35.203  31.662  1.00  0.00     0.135 A 
ATOM     77  F   UNL A   1      44.324  32.946  34.515  1.00  0.00    -0.206 F 
ATOM     78  C   UNL A   1      43.957  35.245  34.407  1.00  0.00     0.059 A 
ATOM     79  C   UNL A   1      44.059  36.416  32.297  1.00  0.00     0.059 A 
ATOM     80  F   UNL A   1      44.491  35.253  30.327  1.00  0.00    -0.206 F 
ATOM     81  C   UNL A   1      43.846  36.422  33.670  1.00  0.00     0.060 A 
BRANCH  81  82
ATOM     82  S   UNL A   1      43.384  37.936  34.535  1.00  0.00     0.124 S 
ATOM     83  O   UNL A   1      43.628  38.949  33.513  1.00  0.00    -0.237 OA
ATOM     84  O   UNL A   1      41.985  37.688  34.863  1.00  0.00    -0.237 OA
ATOM     85  O   UNL A   1      44.295  37.969  35.676  1.00  0.00    -0.744 OA
ENDBRANCH  81  82
ENDBRANCH  60  74
BRANCH  61  86
ATOM     86  C   UNL A   1      44.534  24.705  28.519  1.00  0.00     0.058 A 
ATOM     87  C   UNL A   1      44.138  25.181  27.243  1.00  0.00     0.135 A 
ATOM     88  C   UNL A   1      44.503  23.319  28.710  1.00  0.00     0.135 A 
ATOM     89  F   UNL A   1      44.122  26.504  27.001  1.00  0.00    -0.206 F 
ATOM     90  C   UNL A   1      43.931  24.327  26.162  1.00  0.00     0.059 A 
ATOM     91  C   UNL A   1      44.232  22.442  27.648  1.00  0.00     0.059 A 
ATOM     92  F   UNL A   1      44.884  22.790  29.884  1.00  0.00    -0.206 F 
ATOM     93  C   UNL A   1      44.022  22.955  26.364  1.00  0.00     0.060 A 
BRANCH  93  94
ATOM     94  S   UNL A   1      43.953  21.870  24.913  1.00  0.00     0.124 S 
ATOM     95  O   UNL A   1      42.879  20.952  25.277  1.00  0.00    -0.237 OA
ATOM     96  O   UNL A   1      43.642  22.791  23.826  1.00  0.00    -0.237 OA
ATOM     97  O   UNL A   1      45.287  21.277  24.869  1.00  0.00    -0.744 OA
ENDBRANCH  93  94
ENDBRANCH  61  86
BRANCH  73  98
ATOM     98  C   UNL A   1      48.614  30.821  28.382  1.00  0.00     0.058 A 
ATOM     99  C   UNL A   1      49.977  30.876  28.708  1.00  0.00     0.135 A 
ATOM    100  C   UNL A   1      48.187  31.665  27.333  1.00  0.00     0.135 A 
ATOM    101  F   UNL A   1      50.459  30.197  29.761  1.00  0.00    -0.206 F 
ATOM    102  C   UNL A   1      50.884  31.620  27.960  1.00  0.00     0.059 A 
ATOM    103  C   UNL A   1      49.061  32.484  26.629  1.00  0.00     0.059 A 
ATOM    104  F   UNL A   1      46.910  31.688  26.925  1.00  0.00    -0.206 F 
ATOM    105  C   UNL A   1      50.416  32.415  26.917  1.00  0.00     0.060 A 
BRANCH 105 106
ATOM    106  S   UNL A   1      51.597  33.356  25.940  1.00  0.00     0.124 S 
ATOM    107  O   UNL A   1      51.433  34.706  26.470  1.00  0.00    -0.237 OA
ATOM    108  O   UNL A   1      52.848  32.687  26.283  1.00  0.00    -0.237 OA
ATOM    109  O   UNL A   1      51.133  33.163  24.570  1.00  0.00    -0.744 OA
ENDBRANCH 105 106
ENDBRANCH  73  98
ENDBRANCH  47  48
ENDBRANCH  40  42
ENDBRANCH  39  40
ENDBRANCH  38  39
ENDBRANCH   1  38
TORSDOF 21
ENDMDL
MODEL 3
REMARK VINA RESULT:     -13.4      4.929      9.234
REMARK SMILES Cc1ccc(S(=O)(=O)n2cc(C(=O)C(=O)N[C@@H](Cc3cnc[nH]3)C(=O)OCCOC(=O)c3ccc(-c4c5nc(c(-c6c(F)cc(S(=O)(=O)[O-])cc6F)c6ccc([nH]6)c(-c6c(F)cc(S(=O)(=O)[O-])cc6F)c6nc(c(-c7c(F)cc(S(=O)(=O)[O-])cc7F)c7ccc4[nH]7)C=C6)C=C5)cc3)c3ccccc32)cc1
REMARK SMILES IDX 27 1 26 2 24 3 25 4 17 5 16 6 14 7 15 8 12 10 13 11 11 12
REMARK SMILES IDX 9 13 10 14 103 15 98 16 102 17 99 18 101 19 100 20 6 21 7 22
REMARK SMILES IDX 8 23 5 24 1 25 2 26 3 27 105 28 4 29 104 30 18 31 19 32
REMARK SMILES IDX 20 33 23 34 21 35 22 36 28 38 29 39 30 40 31 41 32 42 33 43
REMARK SMILES IDX 97 44 34 45 96 46 35 47 36 48 37 49 90 50 38 51 95 52 89 53
REMARK SMILES IDX 91 54 39 55 94 56 88 57 87 58 40 60 74 61 53 62 73 63 54 64
REMARK SMILES IDX 57 65 72 66 92 67 55 68 56 69 71 71 93 72 58 73 41 74 42 75
REMARK SMILES IDX 51 76 43 77 44 78 50 79 52 80 45 81 46 82 47 83 48 84 49 85
REMARK SMILES IDX 75 86 76 87 85 88 77 89 78 90 84 91 86 92 79 93 80 94 81 95
REMARK SMILES IDX 82 96 83 97 59 98 60 99 69 100 61 101 62 102 68 103 70 104
REMARK SMILES IDX 63 105 64 106 65 107 66 108 67 109
REMARK H PARENT 16 9 23 37 91 59 57 70
REMARK Flexibility Score: inf
ROOT
ATOM      1  C   UNL A   1      32.746  30.376  27.159  1.00  0.00     0.274 C 
ENDROOT
BRANCH   1   2
ATOM      2  O   UNL A   1      31.970  30.434  25.954  1.00  0.00    -0.461 OA
BRANCH   2   3
ATOM      3  C   UNL A   1      32.300  29.482  24.896  1.00  0.00     0.329 C 
ATOM      4  O   UNL A   1      33.489  29.161  25.147  1.00  0.00    -0.250 OA
BRANCH   3   5
ATOM      5  C   UNL A   1      30.853  28.801  23.381  1.00  0.00     0.198 C 
BRANCH   5   6
ATOM      6  N   UNL A   1      29.539  27.736  23.557  1.00  0.00    -0.335 N 
ATOM      7  C   UNL A   1      29.274  26.540  24.200  1.00  0.00     0.293 C 
ATOM      8  O   UNL A   1      28.194  26.006  23.945  1.00  0.00    -0.265 OA
ATOM      9  H   UNL A   1      28.750  28.061  23.066  1.00  0.00     0.164 HD
BRANCH   7  10
ATOM     10  C   UNL A   1      30.253  25.830  25.173  1.00  0.00     0.252 C 
ATOM     11  O   UNL A   1      30.283  26.220  26.337  1.00  0.00    -0.283 OA
BRANCH  10  12
ATOM     12  C   UNL A   1      31.237  24.818  24.682  1.00  0.00     0.054 A 
ATOM     13  N   UNL A   1      32.459  22.939  24.500  1.00  0.00    -0.240 N 
ATOM     14  C   UNL A   1      31.673  23.679  25.348  1.00  0.00     0.117 A 
ATOM     15  C   UNL A   1      32.584  23.554  23.275  1.00  0.00     0.065 A 
ATOM     16  C   UNL A   1      31.896  24.776  23.390  1.00  0.00     0.012 A 
ATOM     17  C   UNL A   1      33.246  23.170  22.090  1.00  0.00     0.028 A 
ATOM     18  C   UNL A   1      31.954  25.664  22.293  1.00  0.00     0.011 A 
ATOM     19  C   UNL A   1      33.281  24.073  21.029  1.00  0.00     0.002 A 
ATOM     20  C   UNL A   1      32.659  25.311  21.134  1.00  0.00     0.001 A 
BRANCH  13  21
ATOM     21  S   UNL A   1      33.078  21.394  24.880  1.00  0.00     0.268 S 
ATOM     22  O   UNL A   1      32.822  20.578  23.705  1.00  0.00    -0.201 OA
ATOM     23  O   UNL A   1      32.533  21.042  26.178  1.00  0.00    -0.201 OA
BRANCH  21  24
ATOM     24  C   UNL A   1      34.843  21.481  25.074  1.00  0.00     0.088 A 
ATOM     25  C   UNL A   1      39.062  21.899  25.843  1.00  0.00     0.044 C 
ATOM     26  C   UNL A   1      37.596  21.754  25.563  1.00  0.00    -0.051 A 
ATOM     27  C   UNL A   1      36.735  22.840  25.758  1.00  0.00     0.005 A 
ATOM     28  C   UNL A   1      37.066  20.542  25.097  1.00  0.00     0.005 A 
ATOM     29  C   UNL A   1      35.365  22.704  25.523  1.00  0.00     0.022 A 
ATOM     30  C   UNL A   1      35.697  20.406  24.838  1.00  0.00     0.022 A 
ENDBRANCH  21  24
ENDBRANCH  13  21
ENDBRANCH  10  12
ENDBRANCH   7  10
ENDBRANCH   5   6
BRANCH   5  31
ATOM     31  C   UNL A   1      30.063  29.622  22.006  1.00  0.00     0.092 C 
BRANCH  31  32
ATOM     32  C   UNL A   1      29.157  30.794  22.313  1.00  0.00     0.037 A 
ATOM     33  C   UNL A   1      27.874  30.892  22.808  1.00  0.00     0.134 A 
ATOM     34  N   UNL A   1      29.535  32.111  22.140  1.00  0.00    -0.348 N 
ATOM     35  N   UNL A   1      27.586  32.186  23.171  1.00  0.00    -0.245 NA
ATOM     36  C   UNL A   1      28.635  32.887  22.809  1.00  0.00     0.196 A 
ATOM     37  H   UNL A   1      30.313  32.431  21.628  1.00  0.00     0.167 HD
ENDBRANCH  31  32
ENDBRANCH   5  31
ENDBRANCH   3   5
ENDBRANCH   2   3
ENDBRANCH   1   2
BRANCH   1  38
ATOM     38  C   UNL A   1      33.233  31.784  27.516  1.00  0.00     0.275 C 
BRANCH  38  39
ATOM     39  O   UNL A   1      34.667  31.973  27.665  1.00  0.00    -0.458 OA
BRANCH  39  40
ATOM     40  C   UNL A   1      35.262  32.380  28.818  1.00  0.00     0.338 C 
ATOM     41  O   UNL A   1      35.238  33.516  29.264  1.00  0.00    -0.246 OA
BRANCH  40  42
ATOM     42  C   UNL A   1      36.128  31.360  29.413  1.00  0.00     0.060 A 
ATOM     43  C   UNL A   1      35.779  30.814  31.096  1.00  0.00     0.016 A 
ATOM     44  C   UNL A   1      37.780  31.188  28.738  1.00  0.00     0.016 A 
ATOM     45  C   UNL A   1      37.142  30.313  32.201  1.00  0.00     0.010 A 
ATOM     46  C   UNL A   1      39.125  30.734  29.852  1.00  0.00     0.010 A 
ATOM     47  C   UNL A   1      38.813  30.347  31.584  1.00  0.00    -0.014 A 
BRANCH  47  48
ATOM     48  C   UNL A   1      40.041  30.632  32.346  1.00  0.00     0.031 A 
ATOM     49  C   UNL A   1      39.989  31.814  33.218  1.00  0.00     0.074 A 
ATOM     50  C   UNL A   1      40.830  29.582  32.662  1.00  0.00     0.049 A 
ATOM     51  N   UNL A   1      39.901  31.775  34.508  1.00  0.00    -0.248 NA
ATOM     52  C   UNL A   1      39.813  33.149  32.636  1.00  0.00     0.031 C 
ATOM     53  C   UNL A   1      41.712  29.407  33.810  1.00  0.00     0.029 A 
ATOM     54  N   UNL A   1      41.167  28.523  31.836  1.00  0.00    -0.354 N 
ATOM     55  C   UNL A   1      39.853  33.082  34.942  1.00  0.00     0.074 A 
ATOM     56  C   UNL A   1      39.616  33.879  33.738  1.00  0.00     0.031 C 
ATOM     57  C   UNL A   1      42.675  28.521  33.496  1.00  0.00     0.029 A 
ATOM     58  C   UNL A   1      42.499  28.160  32.098  1.00  0.00     0.049 A 
ATOM     59  H   UNL A   1      40.573  28.096  31.177  1.00  0.00     0.167 HD
ATOM     60  C   UNL A   1      40.750  33.545  35.851  1.00  0.00     0.037 A 
ATOM     61  C   UNL A   1      43.400  28.423  31.101  1.00  0.00     0.037 A 
ATOM     62  C   UNL A   1      42.036  32.898  35.744  1.00  0.00     0.049 A 
ATOM     63  C   UNL A   1      44.150  29.727  31.354  1.00  0.00     0.074 A 
ATOM     64  C   UNL A   1      42.651  31.813  36.333  1.00  0.00     0.029 A 
ATOM     65  N   UNL A   1      42.831  33.262  34.676  1.00  0.00    -0.354 N 
ATOM     66  N   UNL A   1      43.893  30.532  32.355  1.00  0.00    -0.248 NA
ATOM     67  C   UNL A   1      45.238  30.236  30.522  1.00  0.00     0.031 C 
ATOM     68  C   UNL A   1      43.777  31.466  35.519  1.00  0.00     0.029 A 
ATOM     69  C   UNL A   1      43.864  32.371  34.471  1.00  0.00     0.049 A 
ATOM     70  H   UNL A   1      42.680  34.064  34.125  1.00  0.00     0.167 HD
ATOM     71  C   UNL A   1      44.740  31.599  32.342  1.00  0.00     0.074 A 
ATOM     72  C   UNL A   1      45.526  31.401  31.133  1.00  0.00     0.031 C 
ATOM     73  C   UNL A   1      44.749  32.551  33.324  1.00  0.00     0.037 A 
BRANCH  60  74
ATOM     74  C   UNL A   1      40.244  34.414  36.963  1.00  0.00     0.058 A 
ATOM     75  C   UNL A   1      40.509  35.794  36.965  1.00  0.00     0.135 A 
ATOM     76  C   UNL A   1      39.580  33.910  38.109  1.00  0.00     0.135 A 
ATOM     77  F   UNL A   1      41.106  36.380  35.916  1.00  0.00    -0.206 F 
ATOM     78  C   UNL A   1      40.202  36.610  38.052  1.00  0.00     0.059 A 
ATOM     79  C   UNL A   1      39.252  34.711  39.204  1.00  0.00     0.059 A 
ATOM     80  F   UNL A   1      39.261  32.608  38.207  1.00  0.00    -0.206 F 
ATOM     81  C   UNL A   1      39.593  36.058  39.176  1.00  0.00     0.060 A 
BRANCH  81  82
ATOM     82  S   UNL A   1      39.294  37.124  40.601  1.00  0.00     0.124 S 
ATOM     83  O   UNL A   1      38.361  36.320  41.383  1.00  0.00    -0.237 OA
ATOM     84  O   UNL A   1      40.633  37.269  41.162  1.00  0.00    -0.237 OA
ATOM     85  O   UNL A   1      38.731  38.335  40.010  1.00  0.00    -0.744 OA
ENDBRANCH  81  82
ENDBRANCH  60  74
BRANCH  61  86
ATOM     86  C   UNL A   1      42.857  27.891  29.802  1.00  0.00     0.058 A 
ATOM     87  C   UNL A   1      42.463  28.865  28.849  1.00  0.00     0.135 A 
ATOM     88  C   UNL A   1      43.189  26.625  29.306  1.00  0.00     0.135 A 
ATOM     89  F   UNL A   1      42.109  30.095  29.261  1.00  0.00    -0.206 F 
ATOM     90  C   UNL A   1      42.596  28.660  27.477  1.00  0.00     0.059 A 
ATOM     91  C   UNL A   1      43.265  26.380  27.926  1.00  0.00     0.059 A 
ATOM     92  F   UNL A   1      43.592  25.656  30.144  1.00  0.00    -0.206 F 
ATOM     93  C   UNL A   1      43.039  27.423  27.024  1.00  0.00     0.060 A 
BRANCH  93  94
ATOM     94  S   UNL A   1      43.401  27.239  25.257  1.00  0.00     0.124 S 
ATOM     95  O   UNL A   1      44.769  27.740  25.178  1.00  0.00    -0.237 OA
ATOM     96  O   UNL A   1      43.249  25.805  25.036  1.00  0.00    -0.237 OA
ATOM     97  O   UNL A   1      42.394  28.081  24.614  1.00  0.00    -0.744 OA
ENDBRANCH  93  94
ENDBRANCH  61  86
BRANCH  73  98
ATOM     98  C   UNL A   1      45.661  33.742  33.263  1.00  0.00     0.058 A 
ATOM     99  C   UNL A   1      45.313  34.904  32.559  1.00  0.00     0.135 A 
ATOM    100  C   UNL A   1      46.939  33.734  33.863  1.00  0.00     0.135 A 
ATOM    101  F   UNL A   1      44.169  34.967  31.859  1.00  0.00    -0.206 F 
ATOM    102  C   UNL A   1      46.123  36.035  32.559  1.00  0.00     0.059 A 
ATOM    103  C   UNL A   1      47.802  34.821  33.802  1.00  0.00     0.059 A 
ATOM    104  F   UNL A   1      47.376  32.683  34.573  1.00  0.00    -0.206 F 
ATOM    105  C   UNL A   1      47.363  35.985  33.190  1.00  0.00     0.060 A 
BRANCH 105 106
ATOM    106  S   UNL A   1      48.394  37.459  33.206  1.00  0.00     0.124 S 
ATOM    107  O   UNL A   1      49.201  37.287  32.001  1.00  0.00    -0.237 OA
ATOM    108  O   UNL A   1      47.386  38.512  33.148  1.00  0.00    -0.237 OA
ATOM    109  O   UNL A   1      49.122  37.350  34.465  1.00  0.00    -0.744 OA
ENDBRANCH 105 106
ENDBRANCH  73  98
ENDBRANCH  47  48
ENDBRANCH  40  42
ENDBRANCH  39  40
ENDBRANCH  38  39
ENDBRANCH   1  38
TORSDOF 21
ENDMDL
