MODEL 1
REMARK VINA RESULT:     -10.0      0.000      0.000
REMARK SMILES CC[C@@H]1CCC[C@@](Cc2ccccn2)(C(=O)OCCOC(=O)c2ccc(-c3c4nc(c(-c5c(F)cc(S(=O)(=O)[O-])cc5F)c5ccc([nH]5)c(-c5c(F)cc(S(=O)(=O)[O-])cc5F)c5nc(c(-c6c(F)cc(S(=O)(=O)[O-])cc6F)c6ccc3[nH]6)C=C5)C=C4)cc2)C1
REMARK SMILES IDX 19 1 18 2 17 3 15 4 16 5 7 6 3 7 4 8 89 9 5 10 6 11 2 12
REMARK SMILES IDX 1 13 8 14 9 15 10 16 14 17 11 18 13 19 12 20 20 21 21 22
REMARK SMILES IDX 22 23 23 24 24 25 88 26 25 27 87 28 26 29 27 30 28 31 81 32
REMARK SMILES IDX 29 33 86 34 80 35 82 36 30 37 85 38 79 39 78 40 31 42 65 43
REMARK SMILES IDX 44 44 64 45 45 46 48 47 63 48 83 49 46 50 47 51 62 53 84 54
REMARK SMILES IDX 49 55 32 56 33 57 42 58 34 59 35 60 41 61 43 62 36 63 37 64
REMARK SMILES IDX 38 65 39 66 40 67 66 68 67 69 76 70 68 71 69 72 75 73 77 74
REMARK SMILES IDX 70 75 71 76 72 77 73 78 74 79 50 80 51 81 60 82 52 83 53 84
REMARK SMILES IDX 59 85 61 86 54 87 55 88 56 89 57 90 58 91
REMARK H PARENT 82 41 48 52
REMARK Flexibility Score: inf
ROOT
ATOM      1  C   UNL A   1      33.371  31.743  27.948  1.00  0.00     0.275 C 
ENDROOT
BRANCH   1   2
ATOM      2  C   UNL A   1      34.392  32.715  28.531  1.00  0.00     0.274 C 
BRANCH   2   3
ATOM      3  O   UNL A   1      34.777  32.320  29.865  1.00  0.00    -0.462 OA
BRANCH   3   4
ATOM      4  C   UNL A   1      36.004  32.727  30.292  1.00  0.00     0.312 C 
ATOM      5  O   UNL A   1      36.999  32.756  29.573  1.00  0.00    -0.252 OA
BRANCH   4   6
ATOM      6  C   UNL A   1      36.068  32.984  31.805  1.00  0.00     0.074 C 
ATOM      7  C   UNL A   1      38.037  31.421  32.498  1.00  0.00    -0.010 C 
ATOM      8  C   UNL A   1      38.835  32.641  32.960  1.00  0.00     0.003 C 
ATOM      9  C   UNL A   1      36.521  31.687  32.542  1.00  0.00     0.022 C 
ATOM     10  C   UNL A   1      38.476  33.856  32.120  1.00  0.00     0.001 C 
ATOM     11  C   UNL A   1      36.983  34.165  32.213  1.00  0.00     0.019 C 
BRANCH   7  12
ATOM     12  C   UNL A   1      38.439  30.143  33.265  1.00  0.00     0.000 C 
ATOM     13  C   UNL A   1      37.665  28.879  32.925  1.00  0.00     0.004 C 
ENDBRANCH   7  12
BRANCH   6  14
ATOM     14  C   UNL A   1      34.586  33.269  32.216  1.00  0.00     0.075 C 
BRANCH  14  15
ATOM     15  C   UNL A   1      34.206  34.732  32.200  1.00  0.00     0.041 A 
ATOM     16  C   UNL A   1      34.466  35.558  33.291  1.00  0.00     0.024 A 
ATOM     17  N   UNL A   1      33.528  35.165  31.110  1.00  0.00    -0.261 NA
ATOM     18  C   UNL A   1      33.974  36.860  33.280  1.00  0.00     0.003 A 
ATOM     19  C   UNL A   1      33.078  36.435  31.118  1.00  0.00     0.111 A 
ATOM     20  C   UNL A   1      33.262  37.309  32.175  1.00  0.00     0.020 A 
ENDBRANCH  14  15
ENDBRANCH   6  14
ENDBRANCH   4   6
ENDBRANCH   3   4
ENDBRANCH   2   3
ENDBRANCH   1   2
BRANCH   1  21
ATOM     21  O   UNL A   1      34.065  30.801  27.121  1.00  0.00    -0.458 OA
BRANCH  21  22
ATOM     22  C   UNL A   1      34.425  29.636  27.709  1.00  0.00     0.338 C 
ATOM     23  O   UNL A   1      33.704  28.672  27.902  1.00  0.00    -0.246 OA
BRANCH  22  24
ATOM     24  C   UNL A   1      35.874  29.665  28.035  1.00  0.00     0.060 A 
ATOM     25  C   UNL A   1      36.809  30.115  27.105  1.00  0.00     0.016 A 
ATOM     26  C   UNL A   1      36.326  29.117  29.237  1.00  0.00     0.016 A 
ATOM     27  C   UNL A   1      38.170  29.885  27.310  1.00  0.00     0.010 A 
ATOM     28  C   UNL A   1      37.703  28.988  29.482  1.00  0.00     0.010 A 
ATOM     29  C   UNL A   1      38.651  29.304  28.493  1.00  0.00    -0.014 A 
BRANCH  29  30
ATOM     30  C   UNL A   1      40.102  28.947  28.648  1.00  0.00     0.031 A 
ATOM     31  C   UNL A   1      41.075  29.927  29.276  1.00  0.00     0.074 A 
ATOM     32  C   UNL A   1      40.581  27.736  28.287  1.00  0.00     0.049 A 
ATOM     33  N   UNL A   1      42.385  29.914  29.268  1.00  0.00    -0.248 NA
ATOM     34  C   UNL A   1      40.503  31.085  29.981  1.00  0.00     0.031 C 
ATOM     35  C   UNL A   1      39.799  26.641  27.710  1.00  0.00     0.029 A 
ATOM     36  N   UNL A   1      41.850  27.210  28.380  1.00  0.00    -0.354 N 
ATOM     37  C   UNL A   1      42.788  31.108  29.859  1.00  0.00     0.074 A 
ATOM     38  C   UNL A   1      41.582  31.809  30.245  1.00  0.00     0.031 C 
ATOM     39  C   UNL A   1      40.575  25.555  27.591  1.00  0.00     0.029 A 
ATOM     40  C   UNL A   1      41.943  25.904  27.957  1.00  0.00     0.049 A 
ATOM     41  H   UNL A   1      42.621  27.722  28.718  1.00  0.00     0.167 HD
ATOM     42  C   UNL A   1      44.043  31.582  30.052  1.00  0.00     0.037 A 
ATOM     43  C   UNL A   1      43.004  25.084  27.824  1.00  0.00     0.037 A 
ATOM     44  C   UNL A   1      45.248  30.833  29.793  1.00  0.00     0.049 A 
ATOM     45  C   UNL A   1      44.383  25.599  28.110  1.00  0.00     0.074 A 
ATOM     46  C   UNL A   1      46.564  31.230  29.969  1.00  0.00     0.029 A 
ATOM     47  N   UNL A   1      45.287  29.520  29.352  1.00  0.00    -0.354 N 
ATOM     48  N   UNL A   1      44.750  26.791  28.513  1.00  0.00    -0.248 NA
ATOM     49  C   UNL A   1      45.498  24.667  27.883  1.00  0.00     0.031 C 
ATOM     50  C   UNL A   1      47.400  30.158  29.627  1.00  0.00     0.029 A 
ATOM     51  C   UNL A   1      46.601  29.086  29.267  1.00  0.00     0.049 A 
ATOM     52  H   UNL A   1      44.498  28.975  29.133  1.00  0.00     0.167 HD
ATOM     53  C   UNL A   1      46.138  26.759  28.570  1.00  0.00     0.074 A 
ATOM     54  C   UNL A   1      46.543  25.418  28.199  1.00  0.00     0.031 C 
ATOM     55  C   UNL A   1      46.999  27.758  28.883  1.00  0.00     0.037 A 
BRANCH  42  56
ATOM     56  C   UNL A   1      44.195  32.998  30.537  1.00  0.00     0.058 A 
ATOM     57  C   UNL A   1      44.376  33.318  31.889  1.00  0.00     0.135 A 
ATOM     58  C   UNL A   1      44.221  34.052  29.606  1.00  0.00     0.135 A 
ATOM     59  F   UNL A   1      44.342  32.354  32.822  1.00  0.00    -0.206 F 
ATOM     60  C   UNL A   1      44.562  34.635  32.305  1.00  0.00     0.059 A 
ATOM     61  C   UNL A   1      44.428  35.371  29.996  1.00  0.00     0.059 A 
ATOM     62  F   UNL A   1      44.053  33.801  28.298  1.00  0.00    -0.206 F 
ATOM     63  C   UNL A   1      44.586  35.654  31.352  1.00  0.00     0.060 A 
BRANCH  63  64
ATOM     64  S   UNL A   1      44.856  37.355  31.896  1.00  0.00     0.124 S 
ATOM     65  O   UNL A   1      46.088  37.220  32.669  1.00  0.00    -0.237 OA
ATOM     66  O   UNL A   1      44.978  38.076  30.632  1.00  0.00    -0.237 OA
ATOM     67  O   UNL A   1      43.658  37.658  32.671  1.00  0.00    -0.744 OA
ENDBRANCH  63  64
ENDBRANCH  42  56
BRANCH  43  68
ATOM     68  C   UNL A   1      42.798  23.694  27.338  1.00  0.00     0.058 A 
ATOM     69  C   UNL A   1      42.981  23.368  25.987  1.00  0.00     0.135 A 
ATOM     70  C   UNL A   1      42.457  22.659  28.223  1.00  0.00     0.135 A 
ATOM     71  F   UNL A   1      43.287  24.328  25.100  1.00  0.00    -0.206 F 
ATOM     72  C   UNL A   1      42.845  22.061  25.530  1.00  0.00     0.059 A 
ATOM     73  C   UNL A   1      42.345  21.342  27.796  1.00  0.00     0.059 A 
ATOM     74  F   UNL A   1      42.278  22.921  29.527  1.00  0.00    -0.206 F 
ATOM     75  C   UNL A   1      42.538  21.053  26.445  1.00  0.00     0.060 A 
BRANCH  75  76
ATOM     76  S   UNL A   1      42.470  19.339  25.879  1.00  0.00     0.124 S 
ATOM     77  O   UNL A   1      43.087  18.637  26.997  1.00  0.00    -0.237 OA
ATOM     78  O   UNL A   1      41.036  19.122  25.701  1.00  0.00    -0.237 OA
ATOM     79  O   UNL A   1      43.245  19.370  24.642  1.00  0.00    -0.744 OA
ENDBRANCH  75  76
ENDBRANCH  43  68
BRANCH  55  80
ATOM     80  C   UNL A   1      48.463  27.427  28.843  1.00  0.00     0.058 A 
ATOM     81  C   UNL A   1      49.136  26.954  29.980  1.00  0.00     0.135 A 
ATOM     82  C   UNL A   1      49.205  27.601  27.665  1.00  0.00     0.135 A 
ATOM     83  F   UNL A   1      48.473  26.774  31.133  1.00  0.00    -0.206 F 
ATOM     84  C   UNL A   1      50.506  26.707  29.963  1.00  0.00     0.059 A 
ATOM     85  C   UNL A   1      50.571  27.343  27.620  1.00  0.00     0.059 A 
ATOM     86  F   UNL A   1      48.605  28.041  26.546  1.00  0.00    -0.206 F 
ATOM     87  C   UNL A   1      51.217  26.918  28.781  1.00  0.00     0.060 A 
BRANCH  87  88
ATOM     88  S   UNL A   1      53.000  26.628  28.772  1.00  0.00     0.124 S 
ATOM     89  O   UNL A   1      53.514  27.981  28.590  1.00  0.00    -0.237 OA
ATOM     90  O   UNL A   1      53.231  26.032  30.084  1.00  0.00    -0.237 OA
ATOM     91  O   UNL A   1      53.188  25.725  27.640  1.00  0.00    -0.744 OA
ENDBRANCH  87  88
ENDBRANCH  55  80
ENDBRANCH  29  30
ENDBRANCH  22  24
ENDBRANCH  21  22
ENDBRANCH   1  21
TORSDOF 17
ENDMDL
MODEL 2
REMARK VINA RESULT:      -9.9      5.888     12.135
REMARK SMILES CC[C@@H]1CCC[C@@](Cc2ccccn2)(C(=O)OCCOC(=O)c2ccc(-c3c4nc(c(-c5c(F)cc(S(=O)(=O)[O-])cc5F)c5ccc([nH]5)c(-c5c(F)cc(S(=O)(=O)[O-])cc5F)c5nc(c(-c6c(F)cc(S(=O)(=O)[O-])cc6F)c6ccc3[nH]6)C=C5)C=C4)cc2)C1
REMARK SMILES IDX 19 1 18 2 17 3 15 4 16 5 7 6 3 7 4 8 89 9 5 10 6 11 2 12
REMARK SMILES IDX 1 13 8 14 9 15 10 16 14 17 11 18 13 19 12 20 20 21 21 22
REMARK SMILES IDX 22 23 23 24 24 25 88 26 25 27 87 28 26 29 27 30 28 31 81 32
REMARK SMILES IDX 29 33 86 34 80 35 82 36 30 37 85 38 79 39 78 40 31 42 65 43
REMARK SMILES IDX 44 44 64 45 45 46 48 47 63 48 83 49 46 50 47 51 62 53 84 54
REMARK SMILES IDX 49 55 32 56 33 57 42 58 34 59 35 60 41 61 43 62 36 63 37 64
REMARK SMILES IDX 38 65 39 66 40 67 66 68 67 69 76 70 68 71 69 72 75 73 77 74
REMARK SMILES IDX 70 75 71 76 72 77 73 78 74 79 50 80 51 81 60 82 52 83 53 84
REMARK SMILES IDX 59 85 61 86 54 87 55 88 56 89 57 90 58 91
REMARK H PARENT 82 41 48 52
REMARK Flexibility Score: inf
ROOT
ATOM      1  C   UNL A   1      39.103  22.547  26.260  1.00  0.00     0.275 C 
ENDROOT
BRANCH   1   2
ATOM      2  C   UNL A   1      37.871  22.220  25.423  1.00  0.00     0.274 C 
BRANCH   2   3
ATOM      3  O   UNL A   1      37.027  23.381  25.271  1.00  0.00    -0.462 OA
BRANCH   3   4
ATOM      4  C   UNL A   1      36.090  23.330  24.284  1.00  0.00     0.312 C 
ATOM      5  O   UNL A   1      36.362  23.222  23.092  1.00  0.00    -0.252 OA
BRANCH   4   6
ATOM      6  C   UNL A   1      34.662  23.593  24.787  1.00  0.00     0.074 C 
ATOM      7  C   UNL A   1      33.616  21.211  24.598  1.00  0.00    -0.010 C 
ATOM      8  C   UNL A   1      33.401  21.192  26.112  1.00  0.00     0.003 C 
ATOM      9  C   UNL A   1      33.662  22.651  24.052  1.00  0.00     0.022 C 
ATOM     10  C   UNL A   1      34.483  22.001  26.810  1.00  0.00     0.001 C 
ATOM     11  C   UNL A   1      34.489  23.446  26.320  1.00  0.00     0.019 C 
BRANCH   7  12
ATOM     12  C   UNL A   1      32.592  20.326  23.857  1.00  0.00     0.000 C 
ATOM     13  C   UNL A   1      32.528  18.866  24.279  1.00  0.00     0.004 C 
ENDBRANCH   7  12
BRANCH   6  14
ATOM     14  C   UNL A   1      34.352  25.058  24.336  1.00  0.00     0.075 C 
BRANCH  14  15
ATOM     15  C   UNL A   1      33.447  25.820  25.275  1.00  0.00     0.041 A 
ATOM     16  C   UNL A   1      32.094  25.508  25.389  1.00  0.00     0.024 A 
ATOM     17  N   UNL A   1      34.003  26.870  25.927  1.00  0.00    -0.261 NA
ATOM     18  C   UNL A   1      31.278  26.326  26.163  1.00  0.00     0.003 A 
ATOM     19  C   UNL A   1      33.193  27.636  26.684  1.00  0.00     0.111 A 
ATOM     20  C   UNL A   1      31.835  27.416  26.822  1.00  0.00     0.020 A 
ENDBRANCH  14  15
ENDBRANCH   6  14
ENDBRANCH   4   6
ENDBRANCH   3   4
ENDBRANCH   2   3
ENDBRANCH   1   2
BRANCH   1  21
ATOM     21  O   UNL A   1      39.039  23.929  26.638  1.00  0.00    -0.458 OA
BRANCH  21  22
ATOM     22  C   UNL A   1      40.206  24.613  26.610  1.00  0.00     0.338 C 
ATOM     23  O   UNL A   1      41.022  24.612  25.704  1.00  0.00    -0.246 OA
BRANCH  22  24
ATOM     24  C   UNL A   1      40.330  25.445  27.835  1.00  0.00     0.060 A 
ATOM     25  C   UNL A   1      39.287  25.528  28.754  1.00  0.00     0.016 A 
ATOM     26  C   UNL A   1      41.453  26.256  28.011  1.00  0.00     0.016 A 
ATOM     27  C   UNL A   1      39.301  26.510  29.745  1.00  0.00     0.010 A 
ATOM     28  C   UNL A   1      41.505  27.168  29.078  1.00  0.00     0.010 A 
ATOM     29  C   UNL A   1      40.400  27.363  29.924  1.00  0.00    -0.014 A 
BRANCH  29  30
ATOM     30  C   UNL A   1      40.350  28.496  30.910  1.00  0.00     0.031 A 
ATOM     31  C   UNL A   1      41.385  28.604  32.014  1.00  0.00     0.074 A 
ATOM     32  C   UNL A   1      39.426  29.479  30.821  1.00  0.00     0.049 A 
ATOM     33  N   UNL A   1      41.368  29.343  33.096  1.00  0.00    -0.248 NA
ATOM     34  C   UNL A   1      42.579  27.751  31.903  1.00  0.00     0.031 C 
ATOM     35  C   UNL A   1      38.378  29.581  29.806  1.00  0.00     0.029 A 
ATOM     36  N   UNL A   1      39.239  30.604  31.593  1.00  0.00    -0.354 N 
ATOM     37  C   UNL A   1      42.481  28.963  33.841  1.00  0.00     0.074 A 
ATOM     38  C   UNL A   1      43.170  27.949  33.073  1.00  0.00     0.031 C 
ATOM     39  C   UNL A   1      37.725  30.742  29.956  1.00  0.00     0.029 A 
ATOM     40  C   UNL A   1      38.214  31.412  31.155  1.00  0.00     0.049 A 
ATOM     41  H   UNL A   1      39.787  30.811  32.384  1.00  0.00     0.167 HD
ATOM     42  C   UNL A   1      42.884  29.408  35.057  1.00  0.00     0.037 A 
ATOM     43  C   UNL A   1      37.684  32.536  31.675  1.00  0.00     0.037 A 
ATOM     44  C   UNL A   1      42.280  30.509  35.766  1.00  0.00     0.049 A 
ATOM     45  C   UNL A   1      38.187  33.060  32.987  1.00  0.00     0.074 A 
ATOM     46  C   UNL A   1      42.629  31.037  36.998  1.00  0.00     0.029 A 
ATOM     47  N   UNL A   1      41.236  31.285  35.286  1.00  0.00    -0.354 N 
ATOM     48  N   UNL A   1      39.136  32.583  33.755  1.00  0.00    -0.248 NA
ATOM     49  C   UNL A   1      37.519  34.256  33.523  1.00  0.00     0.031 C 
ATOM     50  C   UNL A   1      41.791  32.127  37.268  1.00  0.00     0.029 A 
ATOM     51  C   UNL A   1      40.941  32.295  36.188  1.00  0.00     0.049 A 
ATOM     52  H   UNL A   1      40.774  31.141  34.430  1.00  0.00     0.167 HD
ATOM     53  C   UNL A   1      39.166  33.407  34.874  1.00  0.00     0.074 A 
ATOM     54  C   UNL A   1      38.169  34.436  34.664  1.00  0.00     0.031 C 
ATOM     55  C   UNL A   1      39.938  33.306  35.982  1.00  0.00     0.037 A 
BRANCH  42  56
ATOM     56  C   UNL A   1      44.017  28.684  35.733  1.00  0.00     0.058 A 
ATOM     57  C   UNL A   1      45.356  29.068  35.580  1.00  0.00     0.135 A 
ATOM     58  C   UNL A   1      43.737  27.615  36.603  1.00  0.00     0.135 A 
ATOM     59  F   UNL A   1      45.681  30.069  34.748  1.00  0.00    -0.206 F 
ATOM     60  C   UNL A   1      46.381  28.409  36.255  1.00  0.00     0.059 A 
ATOM     61  C   UNL A   1      44.742  26.959  37.306  1.00  0.00     0.059 A 
ATOM     62  F   UNL A   1      42.471  27.208  36.787  1.00  0.00    -0.206 F 
ATOM     63  C   UNL A   1      46.065  27.356  37.115  1.00  0.00     0.060 A 
BRANCH  63  64
ATOM     64  S   UNL A   1      47.397  26.526  38.009  1.00  0.00     0.124 S 
ATOM     65  O   UNL A   1      47.899  27.608  38.851  1.00  0.00    -0.237 OA
ATOM     66  O   UNL A   1      46.691  25.457  38.707  1.00  0.00    -0.237 OA
ATOM     67  O   UNL A   1      48.296  26.086  36.947  1.00  0.00    -0.744 OA
ENDBRANCH  63  64
ENDBRANCH  42  56
BRANCH  43  68
ATOM     68  C   UNL A   1      36.563  33.211  30.967  1.00  0.00     0.058 A 
ATOM     69  C   UNL A   1      35.254  33.148  31.466  1.00  0.00     0.135 A 
ATOM     70  C   UNL A   1      36.788  33.966  29.806  1.00  0.00     0.135 A 
ATOM     71  F   UNL A   1      34.987  32.421  32.562  1.00  0.00    -0.206 F 
ATOM     72  C   UNL A   1      34.207  33.820  30.844  1.00  0.00     0.059 A 
ATOM     73  C   UNL A   1      35.764  34.670  29.184  1.00  0.00     0.059 A 
ATOM     74  F   UNL A   1      38.025  34.062  29.295  1.00  0.00    -0.206 F 
ATOM     75  C   UNL A   1      34.475  34.588  29.709  1.00  0.00     0.060 A 
BRANCH  75  76
ATOM     76  S   UNL A   1      33.142  35.552  28.963  1.00  0.00     0.124 S 
ATOM     77  O   UNL A   1      33.889  36.590  28.263  1.00  0.00    -0.237 OA
ATOM     78  O   UNL A   1      32.475  34.566  28.118  1.00  0.00    -0.237 OA
ATOM     79  O   UNL A   1      32.369  35.996  30.119  1.00  0.00    -0.744 OA
ENDBRANCH  75  76
ENDBRANCH  43  68
BRANCH  55  80
ATOM     80  C   UNL A   1      39.734  34.346  37.046  1.00  0.00     0.058 A 
ATOM     81  C   UNL A   1      40.390  35.586  36.992  1.00  0.00     0.135 A 
ATOM     82  C   UNL A   1      38.890  34.096  38.139  1.00  0.00     0.135 A 
ATOM     83  F   UNL A   1      41.211  35.872  35.970  1.00  0.00    -0.206 F 
ATOM     84  C   UNL A   1      40.252  36.525  38.009  1.00  0.00     0.059 A 
ATOM     85  C   UNL A   1      38.722  35.028  39.158  1.00  0.00     0.059 A 
ATOM     86  F   UNL A   1      38.231  32.929  38.232  1.00  0.00    -0.206 F 
ATOM     87  C   UNL A   1      39.425  36.231  39.096  1.00  0.00     0.060 A 
BRANCH  87  88
ATOM     88  S   UNL A   1      39.275  37.440  40.429  1.00  0.00     0.124 S 
ATOM     89  O   UNL A   1      40.610  38.026  40.444  1.00  0.00    -0.237 OA
ATOM     90  O   UNL A   1      38.205  38.310  39.949  1.00  0.00    -0.237 OA
ATOM     91  O   UNL A   1      38.934  36.621  41.589  1.00  0.00    -0.744 OA
ENDBRANCH  87  88
ENDBRANCH  55  80
ENDBRANCH  29  30
ENDBRANCH  22  24
ENDBRANCH  21  22
ENDBRANCH   1  21
TORSDOF 17
ENDMDL
MODEL 3
REMARK VINA RESULT:      -9.9      2.007      3.622
REMARK SMILES CC[C@@H]1CCC[C@@](Cc2ccccn2)(C(=O)OCCOC(=O)c2ccc(-c3c4nc(c(-c5c(F)cc(S(=O)(=O)[O-])cc5F)c5ccc([nH]5)c(-c5c(F)cc(S(=O)(=O)[O-])cc5F)c5nc(c(-c6c(F)cc(S(=O)(=O)[O-])cc6F)c6ccc3[nH]6)C=C5)C=C4)cc2)C1
REMARK SMILES IDX 19 1 18 2 17 3 15 4 16 5 7 6 3 7 4 8 89 9 5 10 6 11 2 12
REMARK SMILES IDX 1 13 8 14 9 15 10 16 14 17 11 18 13 19 12 20 20 21 21 22
REMARK SMILES IDX 22 23 23 24 24 25 88 26 25 27 87 28 26 29 27 30 28 31 81 32
REMARK SMILES IDX 29 33 86 34 80 35 82 36 30 37 85 38 79 39 78 40 31 42 65 43
REMARK SMILES IDX 44 44 64 45 45 46 48 47 63 48 83 49 46 50 47 51 62 53 84 54
REMARK SMILES IDX 49 55 32 56 33 57 42 58 34 59 35 60 41 61 43 62 36 63 37 64
REMARK SMILES IDX 38 65 39 66 40 67 66 68 67 69 76 70 68 71 69 72 75 73 77 74
REMARK SMILES IDX 70 75 71 76 72 77 73 78 74 79 50 80 51 81 60 82 52 83 53 84
REMARK SMILES IDX 59 85 61 86 54 87 55 88 56 89 57 90 58 91
REMARK H PARENT 82 41 48 52
REMARK Flexibility Score: inf
ROOT
ATOM      1  C   UNL A   1      34.839  32.714  31.695  1.00  0.00     0.275 C 
ENDROOT
BRANCH   1   2
ATOM      2  C   UNL A   1      35.108  32.898  33.185  1.00  0.00     0.274 C 
BRANCH   2   3
ATOM      3  O   UNL A   1      36.458  33.355  33.413  1.00  0.00    -0.462 OA
BRANCH   3   4
ATOM      4  C   UNL A   1      37.129  32.783  34.451  1.00  0.00     0.312 C 
ATOM      5  O   UNL A   1      36.678  32.703  35.590  1.00  0.00    -0.252 OA
BRANCH   4   6
ATOM      6  C   UNL A   1      38.576  32.401  34.104  1.00  0.00     0.074 C 
ATOM      7  C   UNL A   1      38.862  33.564  31.787  1.00  0.00    -0.010 C 
ATOM      8  C   UNL A   1      39.969  34.443  32.372  1.00  0.00     0.003 C 
ATOM      9  C   UNL A   1      38.724  32.240  32.561  1.00  0.00     0.022 C 
ATOM     10  C   UNL A   1      39.713  34.703  33.848  1.00  0.00     0.001 C 
ATOM     11  C   UNL A   1      39.641  33.395  34.631  1.00  0.00     0.019 C 
BRANCH   7  12
ATOM     12  C   UNL A   1      39.034  33.351  30.269  1.00  0.00     0.000 C 
ATOM     13  C   UNL A   1      38.071  34.107  29.366  1.00  0.00     0.004 C 
ENDBRANCH   7  12
BRANCH   6  14
ATOM     14  C   UNL A   1      38.772  30.990  34.749  1.00  0.00     0.075 C 
BRANCH  14  15
ATOM     15  C   UNL A   1      39.867  30.163  34.115  1.00  0.00     0.041 A 
ATOM     16  C   UNL A   1      41.155  30.669  33.953  1.00  0.00     0.024 A 
ATOM     17  N   UNL A   1      39.502  28.948  33.638  1.00  0.00    -0.261 NA
ATOM     18  C   UNL A   1      42.086  29.920  33.241  1.00  0.00     0.003 A 
ATOM     19  C   UNL A   1      40.430  28.236  32.968  1.00  0.00     0.111 A 
ATOM     20  C   UNL A   1      41.718  28.680  32.733  1.00  0.00     0.020 A 
ENDBRANCH  14  15
ENDBRANCH   6  14
ENDBRANCH   4   6
ENDBRANCH   3   4
ENDBRANCH   2   3
ENDBRANCH   1   2
BRANCH   1  21
ATOM     21  O   UNL A   1      35.480  31.506  31.265  1.00  0.00    -0.458 OA
BRANCH  21  22
ATOM     22  C   UNL A   1      35.528  31.294  29.929  1.00  0.00     0.338 C 
ATOM     23  O   UNL A   1      34.733  31.709  29.104  1.00  0.00    -0.246 OA
BRANCH  22  24
ATOM     24  C   UNL A   1      36.753  30.526  29.586  1.00  0.00     0.060 A 
ATOM     25  C   UNL A   1      37.410  29.758  30.545  1.00  0.00     0.016 A 
ATOM     26  C   UNL A   1      37.330  30.670  28.323  1.00  0.00     0.016 A 
ATOM     27  C   UNL A   1      38.691  29.268  30.294  1.00  0.00     0.010 A 
ATOM     28  C   UNL A   1      38.574  30.081  28.043  1.00  0.00     0.010 A 
ATOM     29  C   UNL A   1      39.312  29.428  29.046  1.00  0.00    -0.014 A 
BRANCH  29  30
ATOM     30  C   UNL A   1      40.739  29.008  28.828  1.00  0.00     0.031 A 
ATOM     31  C   UNL A   1      41.878  29.968  29.115  1.00  0.00     0.074 A 
ATOM     32  C   UNL A   1      41.060  27.759  28.424  1.00  0.00     0.049 A 
ATOM     33  N   UNL A   1      43.136  29.890  28.758  1.00  0.00    -0.248 NA
ATOM     34  C   UNL A   1      41.557  31.184  29.878  1.00  0.00     0.031 C 
ATOM     35  C   UNL A   1      40.114  26.679  28.141  1.00  0.00     0.029 A 
ATOM     36  N   UNL A   1      42.289  27.178  28.205  1.00  0.00    -0.354 N 
ATOM     37  C   UNL A   1      43.724  31.090  29.150  1.00  0.00     0.074 A 
ATOM     38  C   UNL A   1      42.691  31.866  29.802  1.00  0.00     0.031 C 
ATOM     39  C   UNL A   1      40.791  25.551  27.883  1.00  0.00     0.029 A 
ATOM     40  C   UNL A   1      42.219  25.850  27.849  1.00  0.00     0.049 A 
ATOM     41  H   UNL A   1      43.139  27.666  28.294  1.00  0.00     0.167 HD
ATOM     42  C   UNL A   1      45.001  31.511  28.972  1.00  0.00     0.037 A 
ATOM     43  C   UNL A   1      43.176  24.974  27.486  1.00  0.00     0.037 A 
ATOM     44  C   UNL A   1      46.065  30.692  28.445  1.00  0.00     0.049 A 
ATOM     45  C   UNL A   1      44.598  25.433  27.362  1.00  0.00     0.074 A 
ATOM     46  C   UNL A   1      47.393  31.032  28.240  1.00  0.00     0.029 A 
ATOM     47  N   UNL A   1      45.938  29.359  28.087  1.00  0.00    -0.354 N 
ATOM     48  N   UNL A   1      45.101  26.624  27.583  1.00  0.00    -0.248 NA
ATOM     49  C   UNL A   1      45.578  24.439  26.901  1.00  0.00     0.031 C 
ATOM     50  C   UNL A   1      48.067  29.906  27.750  1.00  0.00     0.029 A 
ATOM     51  C   UNL A   1      47.165  28.858  27.679  1.00  0.00     0.049 A 
ATOM     52  H   UNL A   1      45.101  28.844  28.119  1.00  0.00     0.167 HD
ATOM     53  C   UNL A   1      46.451  26.526  27.268  1.00  0.00     0.074 A 
ATOM     54  C   UNL A   1      46.695  25.152  26.882  1.00  0.00     0.031 C 
ATOM     55  C   UNL A   1      47.398  27.496  27.281  1.00  0.00     0.037 A 
BRANCH  42  56
ATOM     56  C   UNL A   1      45.326  32.939  29.315  1.00  0.00     0.058 A 
ATOM     57  C   UNL A   1      45.179  33.988  28.397  1.00  0.00     0.135 A 
ATOM     58  C   UNL A   1      45.736  33.264  30.621  1.00  0.00     0.135 A 
ATOM     59  F   UNL A   1      44.808  33.732  27.133  1.00  0.00    -0.206 F 
ATOM     60  C   UNL A   1      45.442  35.308  28.755  1.00  0.00     0.059 A 
ATOM     61  C   UNL A   1      45.982  34.578  31.007  1.00  0.00     0.059 A 
ATOM     62  F   UNL A   1      45.891  32.298  31.539  1.00  0.00    -0.206 F 
ATOM     63  C   UNL A   1      45.843  35.593  30.062  1.00  0.00     0.060 A 
BRANCH  63  64
ATOM     64  S   UNL A   1      46.154  37.311  30.527  1.00  0.00     0.124 S 
ATOM     65  O   UNL A   1      46.940  37.143  31.746  1.00  0.00    -0.237 OA
ATOM     66  O   UNL A   1      46.882  37.824  29.370  1.00  0.00    -0.237 OA
ATOM     67  O   UNL A   1      44.815  37.860  30.712  1.00  0.00    -0.744 OA
ENDBRANCH  63  64
ENDBRANCH  42  56
BRANCH  43  68
ATOM     68  C   UNL A   1      42.799  23.574  27.155  1.00  0.00     0.058 A 
ATOM     69  C   UNL A   1      42.726  23.143  25.822  1.00  0.00     0.135 A 
ATOM     70  C   UNL A   1      42.547  22.632  28.165  1.00  0.00     0.135 A 
ATOM     71  F   UNL A   1      42.937  24.013  24.823  1.00  0.00    -0.206 F 
ATOM     72  C   UNL A   1      42.428  21.823  25.502  1.00  0.00     0.059 A 
ATOM     73  C   UNL A   1      42.278  21.302  27.869  1.00  0.00     0.059 A 
ATOM     74  F   UNL A   1      42.612  22.996  29.454  1.00  0.00    -0.206 F 
ATOM     75  C   UNL A   1      42.217  20.907  26.533  1.00  0.00     0.060 A 
BRANCH  75  76
ATOM     76  S   UNL A   1      41.940  19.169  26.126  1.00  0.00     0.124 S 
ATOM     77  O   UNL A   1      42.849  18.984  25.001  1.00  0.00    -0.237 OA
ATOM     78  O   UNL A   1      42.313  18.491  27.365  1.00  0.00    -0.237 OA
ATOM     79  O   UNL A   1      40.516  19.127  25.806  1.00  0.00    -0.744 OA
ENDBRANCH  75  76
ENDBRANCH  43  68
BRANCH  55  80
ATOM     80  C   UNL A   1      48.785  27.092  26.871  1.00  0.00     0.058 A 
ATOM     81  C   UNL A   1      49.712  26.607  27.807  1.00  0.00     0.135 A 
ATOM     82  C   UNL A   1      49.199  27.207  25.535  1.00  0.00     0.135 A 
ATOM     83  F   UNL A   1      49.366  26.482  29.098  1.00  0.00    -0.206 F 
ATOM     84  C   UNL A   1      51.017  26.293  27.441  1.00  0.00     0.059 A 
ATOM     85  C   UNL A   1      50.494  26.881  25.144  1.00  0.00     0.059 A 
ATOM     86  F   UNL A   1      48.347  27.656  24.599  1.00  0.00    -0.206 F 
ATOM     87  C   UNL A   1      51.403  26.446  26.108  1.00  0.00     0.060 A 
BRANCH  87  88
ATOM     88  S   UNL A   1      53.106  26.068  25.644  1.00  0.00     0.124 S 
ATOM     89  O   UNL A   1      53.060  26.244  24.196  1.00  0.00    -0.237 OA
ATOM     90  O   UNL A   1      53.867  27.073  26.380  1.00  0.00    -0.237 OA
ATOM     91  O   UNL A   1      53.285  24.695  26.106  1.00  0.00    -0.744 OA
ENDBRANCH  87  88
ENDBRANCH  55  80
ENDBRANCH  29  30
ENDBRANCH  22  24
ENDBRANCH  21  22
ENDBRANCH   1  21
TORSDOF 17
ENDMDL
