MODEL 1
REMARK VINA RESULT:     -10.9      0.000      0.000
REMARK SMILES CCc1ccsc1Cn1cccc1C(=O)OCCOC(=O)c1ccc(-c2c3nc(c(-c4c(F)cc(S(=O)(=O)[O-])cc4F)c4ccc([nH]4)c(-c4c(F)cc(S(=O)(=O)[O-])cc4F)c4nc(c(-c5c(F)cc(S(=O)(=O)[O-])cc5F)c5ccc2[nH]5)C=C4)C=C3)cc1
REMARK SMILES IDX 17 1 16 2 14 3 15 4 13 5 9 6 10 7 11 8 12 9 8 10 7 11 3 12
REMARK SMILES IDX 4 13 5 14 6 15 2 16 1 17 18 18 19 19 20 20 21 21 22 22 23 23
REMARK SMILES IDX 87 24 24 25 86 26 25 27 26 28 27 29 80 30 28 31 85 32 79 33
REMARK SMILES IDX 81 34 29 35 84 36 78 37 77 38 30 40 64 41 43 42 63 43 44 44
REMARK SMILES IDX 47 45 62 46 82 47 45 48 46 49 61 51 83 52 48 53 31 54 32 55
REMARK SMILES IDX 41 56 33 57 34 58 40 59 42 60 35 61 36 62 37 63 38 64 39 65
REMARK SMILES IDX 65 66 66 67 75 68 67 69 68 70 74 71 76 72 69 73 70 74 71 75
REMARK SMILES IDX 72 76 73 77 49 78 50 79 59 80 51 81 52 82 58 83 60 84 53 85
REMARK SMILES IDX 54 86 55 87 56 88 57 89
REMARK H PARENT 81 39 47 50
REMARK Flexibility Score: inf
ROOT
ATOM      1  C   UNL A   1      32.693  29.097  26.531  1.00  0.00     0.275 C 
ENDROOT
BRANCH   1   2
ATOM      2  O   UNL A   1      33.026  29.701  25.268  1.00  0.00    -0.457 OA
BRANCH   2   3
ATOM      3  C   UNL A   1      33.077  28.832  24.215  1.00  0.00     0.355 C 
ATOM      4  O   UNL A   1      34.096  28.549  23.622  1.00  0.00    -0.244 OA
BRANCH   3   5
ATOM      5  C   UNL A   1      31.780  28.227  23.934  1.00  0.00     0.127 A 
ATOM      6  N   UNL A   1      31.270  26.959  24.193  1.00  0.00    -0.337 N 
ATOM      7  C   UNL A   1      29.944  26.927  23.790  1.00  0.00     0.087 A 
ATOM      8  C   UNL A   1      29.632  28.109  23.170  1.00  0.00     0.020 A 
ATOM      9  C   UNL A   1      30.769  28.924  23.270  1.00  0.00     0.035 A 
BRANCH   6  10
ATOM     10  C   UNL A   1      31.873  25.872  24.978  1.00  0.00     0.169 C 
BRANCH  10  11
ATOM     11  C   UNL A   1      32.109  24.592  24.205  1.00  0.00     0.027 A 
ATOM     12  C   UNL A   1      32.771  24.391  22.996  1.00  0.00    -0.033 A 
ATOM     13  C   UNL A   1      32.756  23.007  22.613  1.00  0.00     0.016 A 
ATOM     14  C   UNL A   1      32.153  22.200  23.546  1.00  0.00     0.065 A 
ATOM     15  S   UNL A   1      31.641  23.084  24.905  1.00  0.00    -0.147 S 
BRANCH  12  16
ATOM     16  C   UNL A   1      33.412  25.447  22.145  1.00  0.00     0.033 C 
ATOM     17  C   UNL A   1      32.529  25.907  20.998  1.00  0.00     0.009 C 
ENDBRANCH  12  16
ENDBRANCH  10  11
ENDBRANCH   6  10
ENDBRANCH   3   5
ENDBRANCH   2   3
ENDBRANCH   1   2
BRANCH   1  18
ATOM     18  C   UNL A   1      33.717  29.415  27.626  1.00  0.00     0.275 C 
BRANCH  18  19
ATOM     19  O   UNL A   1      35.088  29.240  27.242  1.00  0.00    -0.458 OA
BRANCH  19  20
ATOM     20  C   UNL A   1      35.907  30.228  27.673  1.00  0.00     0.338 C 
ATOM     21  O   UNL A   1      35.764  31.426  27.496  1.00  0.00    -0.246 OA
BRANCH  20  22
ATOM     22  C   UNL A   1      37.132  29.708  28.277  1.00  0.00     0.060 A 
ATOM     23  C   UNL A   1      38.302  29.763  27.511  1.00  0.00     0.016 A 
ATOM     24  C   UNL A   1      37.064  28.966  29.461  1.00  0.00     0.016 A 
ATOM     25  C   UNL A   1      39.411  29.040  27.916  1.00  0.00     0.010 A 
ATOM     26  C   UNL A   1      38.166  28.218  29.851  1.00  0.00     0.010 A 
ATOM     27  C   UNL A   1      39.335  28.257  29.074  1.00  0.00    -0.014 A 
BRANCH  27  28
ATOM     28  C   UNL A   1      40.567  27.594  29.548  1.00  0.00     0.031 A 
ATOM     29  C   UNL A   1      40.822  26.269  28.799  1.00  0.00     0.074 A 
ATOM     30  C   UNL A   1      41.246  28.225  30.554  1.00  0.00     0.049 A 
ATOM     31  N   UNL A   1      41.559  25.248  29.120  1.00  0.00    -0.248 NA
ATOM     32  C   UNL A   1      40.099  26.017  27.517  1.00  0.00     0.031 C 
ATOM     33  C   UNL A   1      40.849  29.517  31.160  1.00  0.00     0.029 A 
ATOM     34  N   UNL A   1      42.388  27.931  31.272  1.00  0.00    -0.354 N 
ATOM     35  C   UNL A   1      41.583  24.382  28.003  1.00  0.00     0.074 A 
ATOM     36  C   UNL A   1      40.572  24.841  27.104  1.00  0.00     0.031 C 
ATOM     37  C   UNL A   1      41.672  29.848  32.179  1.00  0.00     0.029 A 
ATOM     38  C   UNL A   1      42.703  28.839  32.323  1.00  0.00     0.049 A 
ATOM     39  H   UNL A   1      42.946  27.147  31.072  1.00  0.00     0.167 HD
ATOM     40  C   UNL A   1      42.526  23.415  27.813  1.00  0.00     0.037 A 
ATOM     41  C   UNL A   1      43.710  28.767  33.252  1.00  0.00     0.037 A 
ATOM     42  C   UNL A   1      43.416  23.368  28.922  1.00  0.00     0.049 A 
ATOM     43  C   UNL A   1      44.551  27.647  32.805  1.00  0.00     0.074 A 
ATOM     44  C   UNL A   1      43.288  22.877  30.193  1.00  0.00     0.029 A 
ATOM     45  N   UNL A   1      44.536  24.160  28.856  1.00  0.00    -0.354 N 
ATOM     46  N   UNL A   1      45.344  27.686  31.778  1.00  0.00    -0.248 NA
ATOM     47  C   UNL A   1      44.466  26.369  33.521  1.00  0.00     0.031 C 
ATOM     48  C   UNL A   1      44.107  23.720  30.969  1.00  0.00     0.029 A 
ATOM     49  C   UNL A   1      44.798  24.603  30.130  1.00  0.00     0.049 A 
ATOM     50  H   UNL A   1      45.054  24.371  28.046  1.00  0.00     0.167 HD
ATOM     51  C   UNL A   1      45.588  26.358  31.540  1.00  0.00     0.074 A 
ATOM     52  C   UNL A   1      45.309  25.660  32.775  1.00  0.00     0.031 C 
ATOM     53  C   UNL A   1      45.476  25.874  30.277  1.00  0.00     0.037 A 
BRANCH  40  54
ATOM     54  C   UNL A   1      42.905  22.605  26.603  1.00  0.00     0.058 A 
ATOM     55  C   UNL A   1      42.400  21.285  26.505  1.00  0.00     0.135 A 
ATOM     56  C   UNL A   1      43.987  22.918  25.767  1.00  0.00     0.135 A 
ATOM     57  F   UNL A   1      41.322  20.908  27.214  1.00  0.00    -0.206 F 
ATOM     58  C   UNL A   1      43.024  20.299  25.750  1.00  0.00     0.059 A 
ATOM     59  C   UNL A   1      44.604  21.951  24.965  1.00  0.00     0.059 A 
ATOM     60  F   UNL A   1      44.531  24.143  25.770  1.00  0.00    -0.206 F 
ATOM     61  C   UNL A   1      44.155  20.633  25.016  1.00  0.00     0.060 A 
BRANCH  61  62
ATOM     62  S   UNL A   1      45.055  19.309  24.182  1.00  0.00     0.124 S 
ATOM     63  O   UNL A   1      44.526  19.401  22.825  1.00  0.00    -0.237 OA
ATOM     64  O   UNL A   1      46.446  19.724  24.346  1.00  0.00    -0.237 OA
ATOM     65  O   UNL A   1      44.674  18.118  24.934  1.00  0.00    -0.744 OA
ENDBRANCH  61  62
ENDBRANCH  40  54
BRANCH  41  66
ATOM     66  C   UNL A   1      44.135  29.424  34.556  1.00  0.00     0.058 A 
ATOM     67  C   UNL A   1      45.315  30.143  34.784  1.00  0.00     0.135 A 
ATOM     68  C   UNL A   1      43.213  29.474  35.647  1.00  0.00     0.135 A 
ATOM     69  F   UNL A   1      46.331  30.100  33.914  1.00  0.00    -0.206 F 
ATOM     70  C   UNL A   1      45.496  30.964  35.918  1.00  0.00     0.059 A 
ATOM     71  C   UNL A   1      43.343  30.317  36.747  1.00  0.00     0.059 A 
ATOM     72  F   UNL A   1      42.102  28.724  35.670  1.00  0.00    -0.206 F 
ATOM     73  C   UNL A   1      44.479  31.090  36.862  1.00  0.00     0.060 A 
BRANCH  73  74
ATOM     74  S   UNL A   1      44.548  32.344  38.162  1.00  0.00     0.124 S 
ATOM     75  O   UNL A   1      43.224  32.235  38.763  1.00  0.00    -0.237 OA
ATOM     76  O   UNL A   1      45.662  31.887  38.989  1.00  0.00    -0.237 OA
ATOM     77  O   UNL A   1      44.805  33.574  37.417  1.00  0.00    -0.744 OA
ENDBRANCH  73  74
ENDBRANCH  41  66
BRANCH  53  78
ATOM     78  C   UNL A   1      45.680  26.916  29.188  1.00  0.00     0.058 A 
ATOM     79  C   UNL A   1      46.948  27.473  28.962  1.00  0.00     0.135 A 
ATOM     80  C   UNL A   1      44.633  27.457  28.421  1.00  0.00     0.135 A 
ATOM     81  F   UNL A   1      48.008  27.021  29.653  1.00  0.00    -0.206 F 
ATOM     82  C   UNL A   1      47.162  28.495  28.030  1.00  0.00     0.059 A 
ATOM     83  C   UNL A   1      44.815  28.470  27.475  1.00  0.00     0.059 A 
ATOM     84  F   UNL A   1      43.387  27.015  28.575  1.00  0.00    -0.206 F 
ATOM     85  C   UNL A   1      46.088  28.987  27.286  1.00  0.00     0.060 A 
BRANCH  85  86
ATOM     86  S   UNL A   1      46.376  30.295  26.073  1.00  0.00     0.124 S 
ATOM     87  O   UNL A   1      47.653  30.852  26.506  1.00  0.00    -0.237 OA
ATOM     88  O   UNL A   1      46.405  29.548  24.820  1.00  0.00    -0.237 OA
ATOM     89  O   UNL A   1      45.227  31.183  26.239  1.00  0.00    -0.744 OA
ENDBRANCH  85  86
ENDBRANCH  53  78
ENDBRANCH  27  28
ENDBRANCH  20  22
ENDBRANCH  19  20
ENDBRANCH  18  19
ENDBRANCH   1  18
TORSDOF 17
ENDMDL
MODEL 2
REMARK VINA RESULT:     -10.8      5.109     11.587
REMARK SMILES CCc1ccsc1Cn1cccc1C(=O)OCCOC(=O)c1ccc(-c2c3nc(c(-c4c(F)cc(S(=O)(=O)[O-])cc4F)c4ccc([nH]4)c(-c4c(F)cc(S(=O)(=O)[O-])cc4F)c4nc(c(-c5c(F)cc(S(=O)(=O)[O-])cc5F)c5ccc2[nH]5)C=C4)C=C3)cc1
REMARK SMILES IDX 17 1 16 2 14 3 15 4 13 5 9 6 10 7 11 8 12 9 8 10 7 11 3 12
REMARK SMILES IDX 4 13 5 14 6 15 2 16 1 17 18 18 19 19 20 20 21 21 22 22 23 23
REMARK SMILES IDX 87 24 24 25 86 26 25 27 26 28 27 29 80 30 28 31 85 32 79 33
REMARK SMILES IDX 81 34 29 35 84 36 78 37 77 38 30 40 64 41 43 42 63 43 44 44
REMARK SMILES IDX 47 45 62 46 82 47 45 48 46 49 61 51 83 52 48 53 31 54 32 55
REMARK SMILES IDX 41 56 33 57 34 58 40 59 42 60 35 61 36 62 37 63 38 64 39 65
REMARK SMILES IDX 65 66 66 67 75 68 67 69 68 70 74 71 76 72 69 73 70 74 71 75
REMARK SMILES IDX 72 76 73 77 49 78 50 79 59 80 51 81 52 82 58 83 60 84 53 85
REMARK SMILES IDX 54 86 55 87 56 88 57 89
REMARK H PARENT 81 39 47 50
REMARK Flexibility Score: inf
ROOT
ATOM      1  C   UNL A   1      40.780  20.602  26.986  1.00  0.00     0.275 C 
ENDROOT
BRANCH   1   2
ATOM      2  O   UNL A   1      42.188  20.649  26.691  1.00  0.00    -0.457 OA
BRANCH   2   3
ATOM      3  C   UNL A   1      42.628  19.669  25.846  1.00  0.00     0.355 C 
ATOM      4  O   UNL A   1      41.927  18.770  25.434  1.00  0.00    -0.244 OA
BRANCH   3   5
ATOM      5  C   UNL A   1      44.013  19.872  25.437  1.00  0.00     0.127 A 
ATOM      6  N   UNL A   1      44.727  21.019  25.107  1.00  0.00    -0.337 N 
ATOM      7  C   UNL A   1      46.045  20.665  24.869  1.00  0.00     0.087 A 
ATOM      8  C   UNL A   1      46.163  19.300  24.922  1.00  0.00     0.020 A 
ATOM      9  C   UNL A   1      44.902  18.805  25.289  1.00  0.00     0.035 A 
BRANCH   6  10
ATOM     10  C   UNL A   1      44.304  22.423  25.215  1.00  0.00     0.169 C 
BRANCH  10  11
ATOM     11  C   UNL A   1      45.043  23.225  26.264  1.00  0.00     0.027 A 
ATOM     12  C   UNL A   1      46.152  24.057  26.132  1.00  0.00    -0.033 A 
ATOM     13  C   UNL A   1      46.540  24.621  27.395  1.00  0.00     0.016 A 
ATOM     14  C   UNL A   1      45.700  24.264  28.421  1.00  0.00     0.065 A 
ATOM     15  S   UNL A   1      44.419  23.289  27.873  1.00  0.00    -0.147 S 
BRANCH  12  16
ATOM     16  C   UNL A   1      46.905  24.344  24.866  1.00  0.00     0.033 C 
ATOM     17  C   UNL A   1      47.819  25.553  24.975  1.00  0.00     0.009 C 
ENDBRANCH  12  16
ENDBRANCH  10  11
ENDBRANCH   6  10
ENDBRANCH   3   5
ENDBRANCH   2   3
ENDBRANCH   1   2
BRANCH   1  18
ATOM     18  C   UNL A   1      40.033  21.847  26.493  1.00  0.00     0.275 C 
BRANCH  18  19
ATOM     19  O   UNL A   1      40.140  22.994  27.345  1.00  0.00    -0.458 OA
BRANCH  19  20
ATOM     20  C   UNL A   1      39.267  23.984  27.043  1.00  0.00     0.338 C 
ATOM     21  O   UNL A   1      38.252  23.885  26.374  1.00  0.00    -0.246 OA
BRANCH  20  22
ATOM     22  C   UNL A   1      39.741  25.294  27.484  1.00  0.00     0.060 A 
ATOM     23  C   UNL A   1      39.400  25.701  28.779  1.00  0.00     0.016 A 
ATOM     24  C   UNL A   1      40.287  26.186  26.555  1.00  0.00     0.016 A 
ATOM     25  C   UNL A   1      39.576  27.025  29.142  1.00  0.00     0.010 A 
ATOM     26  C   UNL A   1      40.437  27.519  26.910  1.00  0.00     0.010 A 
ATOM     27  C   UNL A   1      40.078  27.934  28.202  1.00  0.00    -0.014 A 
BRANCH  27  28
ATOM     28  C   UNL A   1      40.369  29.310  28.651  1.00  0.00     0.031 A 
ATOM     29  C   UNL A   1      39.082  30.154  28.766  1.00  0.00     0.074 A 
ATOM     30  C   UNL A   1      41.686  29.612  28.862  1.00  0.00     0.049 A 
ATOM     31  N   UNL A   1      38.919  31.442  28.790  1.00  0.00    -0.248 NA
ATOM     32  C   UNL A   1      37.764  29.453  28.805  1.00  0.00     0.031 C 
ATOM     33  C   UNL A   1      42.808  28.657  28.704  1.00  0.00     0.029 A 
ATOM     34  N   UNL A   1      42.359  30.755  29.247  1.00  0.00    -0.354 N 
ATOM     35  C   UNL A   1      37.559  31.687  29.089  1.00  0.00     0.074 A 
ATOM     36  C   UNL A   1      36.878  30.437  28.962  1.00  0.00     0.031 C 
ATOM     37  C   UNL A   1      43.996  29.267  28.910  1.00  0.00     0.029 A 
ATOM     38  C   UNL A   1      43.780  30.657  29.256  1.00  0.00     0.049 A 
ATOM     39  H   UNL A   1      41.888  31.581  29.496  1.00  0.00     0.167 HD
ATOM     40  C   UNL A   1      37.089  32.877  29.562  1.00  0.00     0.037 A 
ATOM     41  C   UNL A   1      44.709  31.635  29.505  1.00  0.00     0.037 A 
ATOM     42  C   UNL A   1      38.141  33.830  29.634  1.00  0.00     0.049 A 
ATOM     43  C   UNL A   1      43.926  32.784  29.981  1.00  0.00     0.074 A 
ATOM     44  C   UNL A   1      38.795  34.563  28.681  1.00  0.00     0.029 A 
ATOM     45  N   UNL A   1      38.843  33.895  30.812  1.00  0.00    -0.354 N 
ATOM     46  N   UNL A   1      43.364  32.859  31.149  1.00  0.00    -0.248 NA
ATOM     47  C   UNL A   1      43.704  33.914  29.072  1.00  0.00     0.031 C 
ATOM     48  C   UNL A   1      40.097  34.712  29.199  1.00  0.00     0.029 A 
ATOM     49  C   UNL A   1      40.149  34.182  30.494  1.00  0.00     0.049 A 
ATOM     50  H   UNL A   1      38.478  33.760  31.717  1.00  0.00     0.167 HD
ATOM     51  C   UNL A   1      42.464  33.880  30.982  1.00  0.00     0.074 A 
ATOM     52  C   UNL A   1      42.932  34.660  29.857  1.00  0.00     0.031 C 
ATOM     53  C   UNL A   1      41.182  33.715  31.394  1.00  0.00     0.037 A 
BRANCH  40  54
ATOM     54  C   UNL A   1      35.781  33.257  30.203  1.00  0.00     0.058 A 
ATOM     55  C   UNL A   1      34.890  34.070  29.461  1.00  0.00     0.135 A 
ATOM     56  C   UNL A   1      35.541  33.174  31.583  1.00  0.00     0.135 A 
ATOM     57  F   UNL A   1      34.996  34.159  28.123  1.00  0.00    -0.206 F 
ATOM     58  C   UNL A   1      33.929  34.871  30.064  1.00  0.00     0.059 A 
ATOM     59  C   UNL A   1      34.549  33.939  32.206  1.00  0.00     0.059 A 
ATOM     60  F   UNL A   1      36.315  32.420  32.375  1.00  0.00    -0.206 F 
ATOM     61  C   UNL A   1      33.795  34.831  31.446  1.00  0.00     0.060 A 
BRANCH  61  62
ATOM     62  S   UNL A   1      32.667  36.002  32.230  1.00  0.00     0.124 S 
ATOM     63  O   UNL A   1      32.239  36.809  31.093  1.00  0.00    -0.237 OA
ATOM     64  O   UNL A   1      31.649  35.123  32.799  1.00  0.00    -0.237 OA
ATOM     65  O   UNL A   1      33.512  36.679  33.208  1.00  0.00    -0.744 OA
ENDBRANCH  61  62
ENDBRANCH  40  54
BRANCH  41  66
ATOM     66  C   UNL A   1      46.205  31.874  29.372  1.00  0.00     0.058 A 
ATOM     67  C   UNL A   1      47.115  32.081  30.418  1.00  0.00     0.135 A 
ATOM     68  C   UNL A   1      46.825  31.737  28.092  1.00  0.00     0.135 A 
ATOM     69  F   UNL A   1      46.693  32.349  31.659  1.00  0.00    -0.206 F 
ATOM     70  C   UNL A   1      48.512  31.999  30.235  1.00  0.00     0.059 A 
ATOM     71  C   UNL A   1      48.196  31.597  27.894  1.00  0.00     0.059 A 
ATOM     72  F   UNL A   1      46.109  31.685  26.960  1.00  0.00    -0.206 F 
ATOM     73  C   UNL A   1      49.039  31.697  28.981  1.00  0.00     0.060 A 
BRANCH  73  74
ATOM     74  S   UNL A   1      50.787  31.294  28.764  1.00  0.00     0.124 S 
ATOM     75  O   UNL A   1      50.938  30.117  29.610  1.00  0.00    -0.237 OA
ATOM     76  O   UNL A   1      50.886  31.062  27.325  1.00  0.00    -0.237 OA
ATOM     77  O   UNL A   1      51.462  32.501  29.236  1.00  0.00    -0.744 OA
ENDBRANCH  73  74
ENDBRANCH  41  66
BRANCH  53  78
ATOM     78  C   UNL A   1      41.010  32.694  32.508  1.00  0.00     0.058 A 
ATOM     79  C   UNL A   1      41.461  32.973  33.808  1.00  0.00     0.135 A 
ATOM     80  C   UNL A   1      40.499  31.399  32.306  1.00  0.00     0.135 A 
ATOM     81  F   UNL A   1      41.969  34.183  34.091  1.00  0.00    -0.206 F 
ATOM     82  C   UNL A   1      41.401  32.029  34.839  1.00  0.00     0.059 A 
ATOM     83  C   UNL A   1      40.415  30.439  33.318  1.00  0.00     0.059 A 
ATOM     84  F   UNL A   1      40.066  31.025  31.104  1.00  0.00    -0.206 F 
ATOM     85  C   UNL A   1      40.872  30.763  34.587  1.00  0.00     0.060 A 
BRANCH  85  86
ATOM     86  S   UNL A   1      40.781  29.556  35.929  1.00  0.00     0.124 S 
ATOM     87  O   UNL A   1      39.402  29.694  36.386  1.00  0.00    -0.237 OA
ATOM     88  O   UNL A   1      41.096  28.309  35.241  1.00  0.00    -0.237 OA
ATOM     89  O   UNL A   1      41.794  30.014  36.879  1.00  0.00    -0.744 OA
ENDBRANCH  85  86
ENDBRANCH  53  78
ENDBRANCH  27  28
ENDBRANCH  20  22
ENDBRANCH  19  20
ENDBRANCH  18  19
ENDBRANCH   1  18
TORSDOF 17
ENDMDL
MODEL 3
REMARK VINA RESULT:     -10.7      3.619      5.642
REMARK SMILES CCc1ccsc1Cn1cccc1C(=O)OCCOC(=O)c1ccc(-c2c3nc(c(-c4c(F)cc(S(=O)(=O)[O-])cc4F)c4ccc([nH]4)c(-c4c(F)cc(S(=O)(=O)[O-])cc4F)c4nc(c(-c5c(F)cc(S(=O)(=O)[O-])cc5F)c5ccc2[nH]5)C=C4)C=C3)cc1
REMARK SMILES IDX 17 1 16 2 14 3 15 4 13 5 9 6 10 7 11 8 12 9 8 10 7 11 3 12
REMARK SMILES IDX 4 13 5 14 6 15 2 16 1 17 18 18 19 19 20 20 21 21 22 22 23 23
REMARK SMILES IDX 87 24 24 25 86 26 25 27 26 28 27 29 80 30 28 31 85 32 79 33
REMARK SMILES IDX 81 34 29 35 84 36 78 37 77 38 30 40 64 41 43 42 63 43 44 44
REMARK SMILES IDX 47 45 62 46 82 47 45 48 46 49 61 51 83 52 48 53 31 54 32 55
REMARK SMILES IDX 41 56 33 57 34 58 40 59 42 60 35 61 36 62 37 63 38 64 39 65
REMARK SMILES IDX 65 66 66 67 75 68 67 69 68 70 74 71 76 72 69 73 70 74 71 75
REMARK SMILES IDX 72 76 73 77 49 78 50 79 59 80 51 81 52 82 58 83 60 84 53 85
REMARK SMILES IDX 54 86 55 87 56 88 57 89
REMARK H PARENT 81 39 47 50
REMARK Flexibility Score: inf
ROOT
ATOM      1  C   UNL A   1      34.906  33.468  28.173  1.00  0.00     0.275 C 
ENDROOT
BRANCH   1   2
ATOM      2  O   UNL A   1      34.798  34.719  28.876  1.00  0.00    -0.457 OA
BRANCH   2   3
ATOM      3  C   UNL A   1      33.592  34.931  29.484  1.00  0.00     0.355 C 
ATOM      4  O   UNL A   1      32.530  34.588  29.012  1.00  0.00    -0.244 OA
BRANCH   3   5
ATOM      5  C   UNL A   1      33.736  35.549  30.798  1.00  0.00     0.127 A 
ATOM      6  N   UNL A   1      34.277  35.080  31.991  1.00  0.00    -0.337 N 
ATOM      7  C   UNL A   1      34.240  36.104  32.923  1.00  0.00     0.087 A 
ATOM      8  C   UNL A   1      33.578  37.179  32.388  1.00  0.00     0.020 A 
ATOM      9  C   UNL A   1      33.275  36.839  31.060  1.00  0.00     0.035 A 
BRANCH   6  10
ATOM     10  C   UNL A   1      35.009  33.829  32.236  1.00  0.00     0.169 C 
BRANCH  10  11
ATOM     11  C   UNL A   1      36.298  33.995  33.012  1.00  0.00     0.027 A 
ATOM     12  C   UNL A   1      37.570  34.339  32.564  1.00  0.00    -0.033 A 
ATOM     13  C   UNL A   1      38.517  34.375  33.643  1.00  0.00     0.016 A 
ATOM     14  C   UNL A   1      37.944  34.124  34.866  1.00  0.00     0.065 A 
ATOM     15  S   UNL A   1      36.265  33.889  34.736  1.00  0.00    -0.147 S 
BRANCH  12  16
ATOM     16  C   UNL A   1      37.968  34.621  31.144  1.00  0.00     0.033 C 
ATOM     17  C   UNL A   1      39.132  33.767  30.670  1.00  0.00     0.009 C 
ENDBRANCH  12  16
ENDBRANCH  10  11
ENDBRANCH   6  10
ENDBRANCH   3   5
ENDBRANCH   2   3
ENDBRANCH   1   2
BRANCH   1  18
ATOM     18  C   UNL A   1      36.048  32.593  28.700  1.00  0.00     0.275 C 
BRANCH  18  19
ATOM     19  O   UNL A   1      35.679  31.246  29.024  1.00  0.00    -0.458 OA
BRANCH  19  20
ATOM     20  C   UNL A   1      35.951  30.354  28.043  1.00  0.00     0.338 C 
ATOM     21  O   UNL A   1      35.267  30.115  27.061  1.00  0.00    -0.246 OA
BRANCH  20  22
ATOM     22  C   UNL A   1      37.127  29.541  28.343  1.00  0.00     0.060 A 
ATOM     23  C   UNL A   1      37.156  28.880  29.578  1.00  0.00     0.016 A 
ATOM     24  C   UNL A   1      38.265  29.636  27.536  1.00  0.00     0.016 A 
ATOM     25  C   UNL A   1      38.347  28.336  30.027  1.00  0.00     0.010 A 
ATOM     26  C   UNL A   1      39.465  29.116  27.999  1.00  0.00     0.010 A 
ATOM     27  C   UNL A   1      39.501  28.470  29.245  1.00  0.00    -0.014 A 
BRANCH  27  28
ATOM     28  C   UNL A   1      40.727  27.777  29.690  1.00  0.00     0.031 A 
ATOM     29  C   UNL A   1      40.930  26.444  28.940  1.00  0.00     0.074 A 
ATOM     30  C   UNL A   1      41.448  28.395  30.675  1.00  0.00     0.049 A 
ATOM     31  N   UNL A   1      41.650  25.406  29.246  1.00  0.00    -0.248 NA
ATOM     32  C   UNL A   1      40.167  26.205  27.679  1.00  0.00     0.031 C 
ATOM     33  C   UNL A   1      41.100  29.699  31.285  1.00  0.00     0.029 A 
ATOM     34  N   UNL A   1      42.601  28.076  31.365  1.00  0.00    -0.354 N 
ATOM     35  C   UNL A   1      41.622  24.535  28.133  1.00  0.00     0.074 A 
ATOM     36  C   UNL A   1      40.600  25.016  27.258  1.00  0.00     0.031 C 
ATOM     37  C   UNL A   1      41.958  30.013  32.281  1.00  0.00     0.029 A 
ATOM     38  C   UNL A   1      42.966  28.979  32.402  1.00  0.00     0.049 A 
ATOM     39  H   UNL A   1      43.134  27.276  31.153  1.00  0.00     0.167 HD
ATOM     40  C   UNL A   1      42.536  23.544  27.923  1.00  0.00     0.037 A 
ATOM     41  C   UNL A   1      43.995  28.885  33.305  1.00  0.00     0.037 A 
ATOM     42  C   UNL A   1      43.452  23.479  29.008  1.00  0.00     0.049 A 
ATOM     43  C   UNL A   1      44.796  27.743  32.842  1.00  0.00     0.074 A 
ATOM     44  C   UNL A   1      43.345  22.996  30.284  1.00  0.00     0.029 A 
ATOM     45  N   UNL A   1      44.590  24.242  28.909  1.00  0.00    -0.354 N 
ATOM     46  N   UNL A   1      45.562  27.758  31.794  1.00  0.00    -0.248 NA
ATOM     47  C   UNL A   1      44.698  26.470  33.565  1.00  0.00     0.031 C 
ATOM     48  C   UNL A   1      44.206  23.821  31.035  1.00  0.00     0.029 A 
ATOM     49  C   UNL A   1      44.896  24.684  30.174  1.00  0.00     0.049 A 
ATOM     50  H   UNL A   1      45.092  24.437  28.085  1.00  0.00     0.167 HD
ATOM     51  C   UNL A   1      45.767  26.423  31.555  1.00  0.00     0.074 A 
ATOM     52  C   UNL A   1      45.503  25.737  32.801  1.00  0.00     0.031 C 
ATOM     53  C   UNL A   1      45.609  25.937  30.298  1.00  0.00     0.037 A 
BRANCH  40  54
ATOM     54  C   UNL A   1      42.862  22.720  26.707  1.00  0.00     0.058 A 
ATOM     55  C   UNL A   1      42.411  21.378  26.675  1.00  0.00     0.135 A 
ATOM     56  C   UNL A   1      43.866  23.058  25.787  1.00  0.00     0.135 A 
ATOM     57  F   UNL A   1      41.405  20.973  27.470  1.00  0.00    -0.206 F 
ATOM     58  C   UNL A   1      43.022  20.400  25.899  1.00  0.00     0.059 A 
ATOM     59  C   UNL A   1      44.466  22.098  24.964  1.00  0.00     0.059 A 
ATOM     60  F   UNL A   1      44.353  24.304  25.723  1.00  0.00    -0.206 F 
ATOM     61  C   UNL A   1      44.081  20.763  25.077  1.00  0.00     0.060 A 
BRANCH  61  62
ATOM     62  S   UNL A   1      44.978  19.459  24.209  1.00  0.00     0.124 S 
ATOM     63  O   UNL A   1      44.490  18.263  24.888  1.00  0.00    -0.237 OA
ATOM     64  O   UNL A   1      44.525  19.631  22.832  1.00  0.00    -0.237 OA
ATOM     65  O   UNL A   1      46.377  19.799  24.446  1.00  0.00    -0.744 OA
ENDBRANCH  61  62
ENDBRANCH  40  54
BRANCH  41  66
ATOM     66  C   UNL A   1      44.470  29.536  34.595  1.00  0.00     0.058 A 
ATOM     67  C   UNL A   1      45.647  30.275  34.774  1.00  0.00     0.135 A 
ATOM     68  C   UNL A   1      43.602  29.556  35.730  1.00  0.00     0.135 A 
ATOM     69  F   UNL A   1      46.620  30.262  33.856  1.00  0.00    -0.206 F 
ATOM     70  C   UNL A   1      45.866  31.088  35.907  1.00  0.00     0.059 A 
ATOM     71  C   UNL A   1      43.769  30.389  36.832  1.00  0.00     0.059 A 
ATOM     72  F   UNL A   1      42.508  28.785  35.798  1.00  0.00    -0.206 F 
ATOM     73  C   UNL A   1      44.895  31.184  36.901  1.00  0.00     0.060 A 
BRANCH  73  74
ATOM     74  S   UNL A   1      45.003  32.424  38.211  1.00  0.00     0.124 S 
ATOM     75  O   UNL A   1      44.976  31.602  39.414  1.00  0.00    -0.237 OA
ATOM     76  O   UNL A   1      46.272  33.086  37.921  1.00  0.00    -0.237 OA
ATOM     77  O   UNL A   1      43.818  33.247  37.981  1.00  0.00    -0.744 OA
ENDBRANCH  73  74
ENDBRANCH  41  66
BRANCH  53  78
ATOM     78  C   UNL A   1      45.811  26.970  29.199  1.00  0.00     0.058 A 
ATOM     79  C   UNL A   1      47.087  27.492  28.937  1.00  0.00     0.135 A 
ATOM     80  C   UNL A   1      44.758  27.536  28.459  1.00  0.00     0.135 A 
ATOM     81  F   UNL A   1      48.153  27.014  29.600  1.00  0.00    -0.206 F 
ATOM     82  C   UNL A   1      47.302  28.505  27.995  1.00  0.00     0.059 A 
ATOM     83  C   UNL A   1      44.941  28.540  27.504  1.00  0.00     0.059 A 
ATOM     84  F   UNL A   1      43.505  27.127  28.649  1.00  0.00    -0.206 F 
ATOM     85  C   UNL A   1      46.222  29.022  27.279  1.00  0.00     0.060 A 
BRANCH  85  86
ATOM     86  S   UNL A   1      46.510  30.318  26.052  1.00  0.00     0.124 S 
ATOM     87  O   UNL A   1      46.496  29.573  24.797  1.00  0.00    -0.237 OA
ATOM     88  O   UNL A   1      45.373  31.205  26.272  1.00  0.00    -0.237 OA
ATOM     89  O   UNL A   1      47.810  30.870  26.427  1.00  0.00    -0.744 OA
ENDBRANCH  85  86
ENDBRANCH  53  78
ENDBRANCH  27  28
ENDBRANCH  20  22
ENDBRANCH  19  20
ENDBRANCH  18  19
ENDBRANCH   1  18
TORSDOF 17
ENDMDL
