MODEL 1
REMARK VINA RESULT:     -11.3      0.000      0.000
REMARK SMILES CCc1sc(C(=O)Nc2ccc(C(=O)OCCOC(=O)c3ccc(-c4c5nc(c(-c6c(F)cc(S(=O)(=O)[O-])cc6F)c6ccc([nH]6)c(-c6c(F)cc(S(=O)(=O)[O-])cc6F)c6nc(c(-c7c(F)cc(S(=O)(=O)[O-])cc7F)c7ccc4[nH]7)C=C6)C=C5)cc3)c(O)c2)cc1C
REMARK SMILES IDX 16 1 15 2 13 3 14 4 12 5 9 6 10 7 89 8 11 9 87 10 8 11 6 12
REMARK SMILES IDX 7 13 5 15 3 16 4 17 91 18 90 19 92 20 2 21 1 22 88 23 17 25
REMARK SMILES IDX 18 26 19 27 20 28 21 29 22 30 86 31 23 32 85 33 24 34 25 35
REMARK SMILES IDX 26 36 79 37 27 38 84 39 78 40 80 41 28 42 83 43 77 44 76 45
REMARK SMILES IDX 29 47 63 48 42 49 62 50 43 51 46 52 61 53 81 54 44 55 45 56
REMARK SMILES IDX 60 58 82 59 47 60 30 61 31 62 40 63 32 64 33 65 39 66 41 67
REMARK SMILES IDX 34 68 35 69 36 70 37 71 38 72 64 73 65 74 74 75 66 76 67 77
REMARK SMILES IDX 73 78 75 79 68 80 69 81 70 82 71 83 72 84 48 85 49 86 58 87
REMARK SMILES IDX 50 88 51 89 57 90 59 91 52 92 53 93 54 94 55 95 56 96
REMARK H PARENT 8 14 88 24 80 46 46 57
REMARK Flexibility Score: inf
ROOT
ATOM      1  C   UNL A   1      33.294  31.934  27.953  1.00  0.00     0.275 C 
ENDROOT
BRANCH   1   2
ATOM      2  O   UNL A   1      32.942  30.722  27.246  1.00  0.00    -0.458 OA
BRANCH   2   3
ATOM      3  C   UNL A   1      31.927  30.831  26.345  1.00  0.00     0.342 C 
ATOM      4  O   UNL A   1      31.061  31.684  26.342  1.00  0.00    -0.246 OA
BRANCH   3   5
ATOM      5  C   UNL A   1      32.064  29.802  25.278  1.00  0.00     0.101 A 
ATOM      6  C   UNL A   1      32.202  28.004  23.119  1.00  0.00     0.045 A 
ATOM      7  C   UNL A   1      30.993  28.622  23.435  1.00  0.00     0.027 A 
ATOM      8  C   UNL A   1      33.312  28.203  23.946  1.00  0.00     0.073 A 
ATOM      9  C   UNL A   1      30.918  29.482  24.535  1.00  0.00     0.022 A 
ATOM     10  C   UNL A   1      33.257  29.136  24.986  1.00  0.00     0.132 A 
BRANCH   6  11
ATOM     11  N   UNL A   1      32.342  27.156  22.013  1.00  0.00    -0.321 N 
ATOM     12  C   UNL A   1      32.900  25.892  21.911  1.00  0.00     0.265 C 
ATOM     13  O   UNL A   1      33.277  25.553  20.784  1.00  0.00    -0.268 OA
ATOM     14  H   UNL A   1      31.986  27.519  21.169  1.00  0.00     0.170 HD
BRANCH  12  15
ATOM     15  C   UNL A   1      32.921  24.961  23.038  1.00  0.00     0.093 A 
ATOM     16  C   UNL A   1      32.369  23.363  24.863  1.00  0.00     0.008 A 
ATOM     17  S   UNL A   1      31.535  24.122  23.578  1.00  0.00    -0.135 S 
ATOM     18  C   UNL A   1      33.740  23.518  24.723  1.00  0.00    -0.036 A 
ATOM     19  C   UNL A   1      34.043  24.464  23.683  1.00  0.00     0.029 A 
ATOM     20  C   UNL A   1      34.788  22.814  25.530  1.00  0.00     0.045 C 
BRANCH  16  21
ATOM     21  C   UNL A   1      31.627  22.575  25.913  1.00  0.00     0.043 C 
ATOM     22  C   UNL A   1      30.412  23.283  26.495  1.00  0.00     0.010 C 
ENDBRANCH  16  21
ENDBRANCH  12  15
ENDBRANCH   6  11
BRANCH  10  23
ATOM     23  O   UNL A   1      34.425  29.343  25.669  1.00  0.00    -0.507 OA
ATOM     24  H   UNL A   1      34.990  30.050  25.430  1.00  0.00     0.293 HD
ENDBRANCH  10  23
ENDBRANCH   3   5
ENDBRANCH   2   3
ENDBRANCH   1   2
BRANCH   1  25
ATOM     25  C   UNL A   1      34.801  32.038  28.203  1.00  0.00     0.275 C 
BRANCH  25  26
ATOM     26  O   UNL A   1      35.385  30.735  28.388  1.00  0.00    -0.458 OA
BRANCH  26  27
ATOM     27  C   UNL A   1      36.199  30.622  29.460  1.00  0.00     0.338 C 
ATOM     28  O   UNL A   1      35.966  30.979  30.603  1.00  0.00    -0.246 OA
BRANCH  27  29
ATOM     29  C   UNL A   1      37.425  29.892  29.100  1.00  0.00     0.060 A 
ATOM     30  C   UNL A   1      38.258  29.496  30.138  1.00  0.00     0.016 A 
ATOM     31  C   UNL A   1      37.860  29.800  27.780  1.00  0.00     0.016 A 
ATOM     32  C   UNL A   1      39.572  29.117  29.877  1.00  0.00     0.010 A 
ATOM     33  C   UNL A   1      39.154  29.321  27.512  1.00  0.00     0.010 A 
ATOM     34  C   UNL A   1      40.045  29.023  28.559  1.00  0.00    -0.014 A 
BRANCH  34  35
ATOM     35  C   UNL A   1      41.470  28.644  28.310  1.00  0.00     0.031 A 
ATOM     36  C   UNL A   1      42.576  29.673  28.378  1.00  0.00     0.074 A 
ATOM     37  C   UNL A   1      41.788  27.352  28.081  1.00  0.00     0.049 A 
ATOM     38  N   UNL A   1      43.862  29.523  28.170  1.00  0.00    -0.248 NA
ATOM     39  C   UNL A   1      42.195  31.046  28.738  1.00  0.00     0.031 C 
ATOM     40  C   UNL A   1      40.833  26.241  28.031  1.00  0.00     0.029 A 
ATOM     41  N   UNL A   1      43.002  26.750  27.853  1.00  0.00    -0.354 N 
ATOM     42  C   UNL A   1      44.436  30.773  28.377  1.00  0.00     0.074 A 
ATOM     43  C   UNL A   1      43.360  31.680  28.708  1.00  0.00     0.031 C 
ATOM     44  C   UNL A   1      41.497  25.097  27.818  1.00  0.00     0.029 A 
ATOM     45  C   UNL A   1      42.910  25.397  27.622  1.00  0.00     0.049 A 
ATOM     46  H   UNL A   1      43.856  27.240  27.856  1.00  0.00     0.167 HD
ATOM     47  C   UNL A   1      45.739  31.139  28.293  1.00  0.00     0.037 A 
ATOM     48  C   UNL A   1      43.839  24.500  27.238  1.00  0.00     0.037 A 
ATOM     49  C   UNL A   1      46.809  30.250  27.922  1.00  0.00     0.049 A 
ATOM     50  C   UNL A   1      45.254  24.956  27.022  1.00  0.00     0.074 A 
ATOM     51  C   UNL A   1      48.156  30.537  27.774  1.00  0.00     0.029 A 
ATOM     52  N   UNL A   1      46.655  28.905  27.621  1.00  0.00    -0.354 N 
ATOM     53  N   UNL A   1      45.772  26.146  27.208  1.00  0.00    -0.248 NA
ATOM     54  C   UNL A   1      46.206  23.954  26.525  1.00  0.00     0.031 C 
ATOM     55  C   UNL A   1      48.805  29.382  27.327  1.00  0.00     0.029 A 
ATOM     56  C   UNL A   1      47.873  28.359  27.252  1.00  0.00     0.049 A 
ATOM     57  H   UNL A   1      45.803  28.411  27.664  1.00  0.00     0.167 HD
ATOM     58  C   UNL A   1      47.113  26.033  26.861  1.00  0.00     0.074 A 
ATOM     59  C   UNL A   1      47.331  24.656  26.473  1.00  0.00     0.031 C 
ATOM     60  C   UNL A   1      48.076  26.987  26.863  1.00  0.00     0.037 A 
BRANCH  47  61
ATOM     61  C   UNL A   1      46.085  32.579  28.564  1.00  0.00     0.058 A 
ATOM     62  C   UNL A   1      46.474  33.019  29.838  1.00  0.00     0.135 A 
ATOM     63  C   UNL A   1      46.092  33.515  27.516  1.00  0.00     0.135 A 
ATOM     64  F   UNL A   1      46.466  32.171  30.878  1.00  0.00    -0.206 F 
ATOM     65  C   UNL A   1      46.851  34.340  30.067  1.00  0.00     0.059 A 
ATOM     66  C   UNL A   1      46.483  34.836  27.718  1.00  0.00     0.059 A 
ATOM     67  F   UNL A   1      45.723  33.147  26.280  1.00  0.00    -0.206 F 
ATOM     68  C   UNL A   1      46.855  35.240  28.999  1.00  0.00     0.060 A 
BRANCH  68  69
ATOM     69  S   UNL A   1      47.364  36.946  29.308  1.00  0.00     0.124 S 
ATOM     70  O   UNL A   1      48.400  36.761  30.318  1.00  0.00    -0.237 OA
ATOM     71  O   UNL A   1      47.831  37.374  27.992  1.00  0.00    -0.237 OA
ATOM     72  O   UNL A   1      46.140  37.588  29.776  1.00  0.00    -0.744 OA
ENDBRANCH  68  69
ENDBRANCH  47  61
BRANCH  48  73
ATOM     73  C   UNL A   1      43.437  23.095  26.957  1.00  0.00     0.058 A 
ATOM     74  C   UNL A   1      43.307  22.616  25.646  1.00  0.00     0.135 A 
ATOM     75  C   UNL A   1      43.182  22.198  28.009  1.00  0.00     0.135 A 
ATOM     76  F   UNL A   1      43.524  23.437  24.607  1.00  0.00    -0.206 F 
ATOM     77  C   UNL A   1      42.931  21.302  25.386  1.00  0.00     0.059 A 
ATOM     78  C   UNL A   1      42.838  20.872  27.774  1.00  0.00     0.059 A 
ATOM     79  F   UNL A   1      43.300  22.604  29.282  1.00  0.00    -0.206 F 
ATOM     80  C   UNL A   1      42.704  20.436  26.458  1.00  0.00     0.060 A 
BRANCH  80  81
ATOM     81  S   UNL A   1      42.266  18.717  26.117  1.00  0.00     0.124 S 
ATOM     82  O   UNL A   1      42.551  18.084  27.399  1.00  0.00    -0.237 OA
ATOM     83  O   UNL A   1      40.857  18.823  25.754  1.00  0.00    -0.237 OA
ATOM     84  O   UNL A   1      43.162  18.357  25.021  1.00  0.00    -0.744 OA
ENDBRANCH  80  81
ENDBRANCH  48  73
BRANCH  60  85
ATOM     85  C   UNL A   1      49.460  26.568  26.455  1.00  0.00     0.058 A 
ATOM     86  C   UNL A   1      50.351  25.980  27.366  1.00  0.00     0.135 A 
ATOM     87  C   UNL A   1      49.887  26.724  25.126  1.00  0.00     0.135 A 
ATOM     88  F   UNL A   1      49.993  25.817  28.650  1.00  0.00    -0.206 F 
ATOM     89  C   UNL A   1      51.627  25.585  26.981  1.00  0.00     0.059 A 
ATOM     90  C   UNL A   1      51.150  26.311  24.713  1.00  0.00     0.059 A 
ATOM     91  F   UNL A   1      49.069  27.272  24.212  1.00  0.00    -0.206 F 
ATOM     92  C   UNL A   1      52.018  25.755  25.651  1.00  0.00     0.060 A 
BRANCH  92  93
ATOM     93  S   UNL A   1      53.667  25.215  25.156  1.00  0.00     0.124 S 
ATOM     94  O   UNL A   1      53.789  25.819  23.834  1.00  0.00    -0.237 OA
ATOM     95  O   UNL A   1      54.512  25.794  26.197  1.00  0.00    -0.237 OA
ATOM     96  O   UNL A   1      53.568  23.759  25.177  1.00  0.00    -0.744 OA
ENDBRANCH  92  93
ENDBRANCH  60  85
ENDBRANCH  34  35
ENDBRANCH  27  29
ENDBRANCH  26  27
ENDBRANCH  25  26
ENDBRANCH   1  25
TORSDOF 18
ENDMDL
MODEL 2
REMARK VINA RESULT:     -11.1      6.582     12.113
REMARK SMILES CCc1sc(C(=O)Nc2ccc(C(=O)OCCOC(=O)c3ccc(-c4c5nc(c(-c6c(F)cc(S(=O)(=O)[O-])cc6F)c6ccc([nH]6)c(-c6c(F)cc(S(=O)(=O)[O-])cc6F)c6nc(c(-c7c(F)cc(S(=O)(=O)[O-])cc7F)c7ccc4[nH]7)C=C6)C=C5)cc3)c(O)c2)cc1C
REMARK SMILES IDX 16 1 15 2 13 3 14 4 12 5 9 6 10 7 89 8 11 9 87 10 8 11 6 12
REMARK SMILES IDX 7 13 5 15 3 16 4 17 91 18 90 19 92 20 2 21 1 22 88 23 17 25
REMARK SMILES IDX 18 26 19 27 20 28 21 29 22 30 86 31 23 32 85 33 24 34 25 35
REMARK SMILES IDX 26 36 79 37 27 38 84 39 78 40 80 41 28 42 83 43 77 44 76 45
REMARK SMILES IDX 29 47 63 48 42 49 62 50 43 51 46 52 61 53 81 54 44 55 45 56
REMARK SMILES IDX 60 58 82 59 47 60 30 61 31 62 40 63 32 64 33 65 39 66 41 67
REMARK SMILES IDX 34 68 35 69 36 70 37 71 38 72 64 73 65 74 74 75 66 76 67 77
REMARK SMILES IDX 73 78 75 79 68 80 69 81 70 82 71 83 72 84 48 85 49 86 58 87
REMARK SMILES IDX 50 88 51 89 57 90 59 91 52 92 53 93 54 94 55 95 56 96
REMARK H PARENT 8 14 88 24 80 46 46 57
REMARK Flexibility Score: inf
ROOT
ATOM      1  C   UNL A   1      39.190  21.377  25.735  1.00  0.00     0.275 C 
ENDROOT
BRANCH   1   2
ATOM      2  O   UNL A   1      37.758  21.197  25.810  1.00  0.00    -0.458 OA
BRANCH   2   3
ATOM      3  C   UNL A   1      37.036  21.721  24.781  1.00  0.00     0.342 C 
ATOM      4  O   UNL A   1      37.427  21.883  23.642  1.00  0.00    -0.246 OA
BRANCH   3   5
ATOM      5  C   UNL A   1      35.638  21.997  25.212  1.00  0.00     0.101 A 
ATOM      6  C   UNL A   1      32.955  22.281  26.009  1.00  0.00     0.045 A 
ATOM      7  C   UNL A   1      33.274  21.491  24.906  1.00  0.00     0.027 A 
ATOM      8  C   UNL A   1      33.963  23.011  26.646  1.00  0.00     0.073 A 
ATOM      9  C   UNL A   1      34.604  21.386  24.486  1.00  0.00     0.022 A 
ATOM     10  C   UNL A   1      35.301  22.828  26.284  1.00  0.00     0.132 A 
BRANCH   6  11
ATOM     11  N   UNL A   1      31.645  22.400  26.491  1.00  0.00    -0.321 N 
ATOM     12  C   UNL A   1      30.826  23.511  26.611  1.00  0.00     0.265 C 
ATOM     13  O   UNL A   1      29.910  23.424  27.436  1.00  0.00    -0.268 OA
ATOM     14  H   UNL A   1      31.240  21.555  26.794  1.00  0.00     0.170 HD
BRANCH  12  15
ATOM     15  C   UNL A   1      30.952  24.666  25.724  1.00  0.00     0.093 A 
ATOM     16  C   UNL A   1      31.033  26.232  23.792  1.00  0.00     0.008 A 
ATOM     17  S   UNL A   1      30.594  24.600  24.055  1.00  0.00    -0.135 S 
ATOM     18  C   UNL A   1      31.181  26.904  24.996  1.00  0.00    -0.036 A 
ATOM     19  C   UNL A   1      31.158  25.983  26.101  1.00  0.00     0.029 A 
ATOM     20  C   UNL A   1      31.345  28.385  25.158  1.00  0.00     0.045 C 
BRANCH  16  21
ATOM     21  C   UNL A   1      31.131  26.795  22.397  1.00  0.00     0.043 C 
ATOM     22  C   UNL A   1      31.973  25.966  21.437  1.00  0.00     0.010 C 
ENDBRANCH  16  21
ENDBRANCH  12  15
ENDBRANCH   6  11
BRANCH  10  23
ATOM     23  O   UNL A   1      36.225  23.501  27.038  1.00  0.00    -0.507 OA
ATOM     24  H   UNL A   1      36.476  23.171  27.877  1.00  0.00     0.293 HD
ENDBRANCH  10  23
ENDBRANCH   3   5
ENDBRANCH   2   3
ENDBRANCH   1   2
BRANCH   1  25
ATOM     25  C   UNL A   1      39.729  22.200  26.907  1.00  0.00     0.275 C 
BRANCH  25  26
ATOM     26  O   UNL A   1      39.845  23.591  26.553  1.00  0.00    -0.458 OA
BRANCH  26  27
ATOM     27  C   UNL A   1      40.993  24.186  26.945  1.00  0.00     0.338 C 
ATOM     28  O   UNL A   1      42.130  23.857  26.653  1.00  0.00    -0.246 OA
BRANCH  27  29
ATOM     29  C   UNL A   1      40.702  25.400  27.724  1.00  0.00     0.060 A 
ATOM     30  C   UNL A   1      41.710  26.351  27.820  1.00  0.00     0.016 A 
ATOM     31  C   UNL A   1      39.566  25.502  28.524  1.00  0.00     0.016 A 
ATOM     32  C   UNL A   1      41.648  27.343  28.796  1.00  0.00     0.010 A 
ATOM     33  C   UNL A   1      39.460  26.562  29.439  1.00  0.00     0.010 A 
ATOM     34  C   UNL A   1      40.522  27.467  29.624  1.00  0.00    -0.014 A 
BRANCH  34  35
ATOM     35  C   UNL A   1      40.496  28.521  30.684  1.00  0.00     0.031 A 
ATOM     36  C   UNL A   1      41.477  28.497  31.834  1.00  0.00     0.074 A 
ATOM     37  C   UNL A   1      39.626  29.549  30.584  1.00  0.00     0.049 A 
ATOM     38  N   UNL A   1      41.584  29.318  32.851  1.00  0.00    -0.248 NA
ATOM     39  C   UNL A   1      42.478  27.420  31.843  1.00  0.00     0.031 C 
ATOM     40  C   UNL A   1      38.650  29.730  29.506  1.00  0.00     0.029 A 
ATOM     41  N   UNL A   1      39.423  30.639  31.396  1.00  0.00    -0.354 N 
ATOM     42  C   UNL A   1      42.657  28.860  33.608  1.00  0.00     0.074 A 
ATOM     43  C   UNL A   1      43.161  27.677  32.950  1.00  0.00     0.031 C 
ATOM     44  C   UNL A   1      37.976  30.870  29.706  1.00  0.00     0.029 A 
ATOM     45  C   UNL A   1      38.401  31.457  30.971  1.00  0.00     0.049 A 
ATOM     46  H   UNL A   1      39.958  30.818  32.202  1.00  0.00     0.167 HD
ATOM     47  C   UNL A   1      43.175  29.372  34.752  1.00  0.00     0.037 A 
ATOM     48  C   UNL A   1      37.824  32.525  31.555  1.00  0.00     0.037 A 
ATOM     49  C   UNL A   1      42.651  30.526  35.435  1.00  0.00     0.049 A 
ATOM     50  C   UNL A   1      38.329  32.995  32.889  1.00  0.00     0.074 A 
ATOM     51  C   UNL A   1      43.085  31.098  36.620  1.00  0.00     0.029 A 
ATOM     52  N   UNL A   1      41.565  31.276  35.008  1.00  0.00    -0.354 N 
ATOM     53  N   UNL A   1      39.335  32.538  33.595  1.00  0.00    -0.248 NA
ATOM     54  C   UNL A   1      37.610  34.112  33.516  1.00  0.00     0.031 C 
ATOM     55  C   UNL A   1      42.226  32.155  36.938  1.00  0.00     0.029 A 
ATOM     56  C   UNL A   1      41.292  32.279  35.923  1.00  0.00     0.049 A 
ATOM     57  H   UNL A   1      41.062  31.118  34.175  1.00  0.00     0.167 HD
ATOM     58  C   UNL A   1      39.376  33.318  34.744  1.00  0.00     0.074 A 
ATOM     59  C   UNL A   1      38.308  34.289  34.630  1.00  0.00     0.031 C 
ATOM     60  C   UNL A   1      40.223  33.236  35.800  1.00  0.00     0.037 A 
BRANCH  47  61
ATOM     61  C   UNL A   1      44.348  28.663  35.373  1.00  0.00     0.058 A 
ATOM     62  C   UNL A   1      44.180  27.684  36.364  1.00  0.00     0.135 A 
ATOM     63  C   UNL A   1      45.653  28.920  34.920  1.00  0.00     0.135 A 
ATOM     64  F   UNL A   1      42.958  27.413  36.848  1.00  0.00    -0.206 F 
ATOM     65  C   UNL A   1      45.267  26.988  36.890  1.00  0.00     0.059 A 
ATOM     66  C   UNL A   1      46.751  28.224  35.418  1.00  0.00     0.059 A 
ATOM     67  F   UNL A   1      45.869  29.851  33.978  1.00  0.00    -0.206 F 
ATOM     68  C   UNL A   1      46.548  27.264  36.407  1.00  0.00     0.060 A 
BRANCH  68  69
ATOM     69  S   UNL A   1      47.945  26.341  37.087  1.00  0.00     0.124 S 
ATOM     70  O   UNL A   1      47.814  25.064  36.393  1.00  0.00    -0.237 OA
ATOM     71  O   UNL A   1      49.083  27.164  36.690  1.00  0.00    -0.237 OA
ATOM     72  O   UNL A   1      47.668  26.307  38.519  1.00  0.00    -0.744 OA
ENDBRANCH  68  69
ENDBRANCH  47  61
BRANCH  48  73
ATOM     73  C   UNL A   1      36.648  33.172  30.911  1.00  0.00     0.058 A 
ATOM     74  C   UNL A   1      35.346  32.972  31.390  1.00  0.00     0.135 A 
ATOM     75  C   UNL A   1      36.814  34.016  29.799  1.00  0.00     0.135 A 
ATOM     76  F   UNL A   1      35.133  32.163  32.438  1.00  0.00    -0.206 F 
ATOM     77  C   UNL A   1      34.249  33.579  30.785  1.00  0.00     0.059 A 
ATOM     78  C   UNL A   1      35.738  34.660  29.201  1.00  0.00     0.059 A 
ATOM     79  F   UNL A   1      38.041  34.248  29.307  1.00  0.00    -0.206 F 
ATOM     80  C   UNL A   1      34.456  34.425  29.694  1.00  0.00     0.060 A 
BRANCH  80  81
ATOM     81  S   UNL A   1      33.035  35.251  28.945  1.00  0.00     0.124 S 
ATOM     82  O   UNL A   1      32.165  35.439  30.099  1.00  0.00    -0.237 OA
ATOM     83  O   UNL A   1      33.637  36.461  28.394  1.00  0.00    -0.237 OA
ATOM     84  O   UNL A   1      32.572  34.283  27.954  1.00  0.00    -0.744 OA
ENDBRANCH  80  81
ENDBRANCH  48  73
BRANCH  60  85
ATOM     85  C   UNL A   1      40.043  34.238  36.905  1.00  0.00     0.058 A 
ATOM     86  C   UNL A   1      40.623  35.514  36.845  1.00  0.00     0.135 A 
ATOM     87  C   UNL A   1      39.250  33.928  38.023  1.00  0.00     0.135 A 
ATOM     88  F   UNL A   1      41.397  35.855  35.801  1.00  0.00    -0.206 F 
ATOM     89  C   UNL A   1      40.446  36.440  37.866  1.00  0.00     0.059 A 
ATOM     90  C   UNL A   1      39.038  34.850  39.043  1.00  0.00     0.059 A 
ATOM     91  F   UNL A   1      38.664  32.725  38.124  1.00  0.00    -0.206 F 
ATOM     92  C   UNL A   1      39.651  36.099  38.962  1.00  0.00     0.060 A 
BRANCH  92  93
ATOM     93  S   UNL A   1      39.407  37.319  40.269  1.00  0.00     0.124 S 
ATOM     94  O   UNL A   1      40.782  37.679  40.596  1.00  0.00    -0.237 OA
ATOM     95  O   UNL A   1      38.625  38.351  39.594  1.00  0.00    -0.237 OA
ATOM     96  O   UNL A   1      38.690  36.573  41.300  1.00  0.00    -0.744 OA
ENDBRANCH  92  93
ENDBRANCH  60  85
ENDBRANCH  34  35
ENDBRANCH  27  29
ENDBRANCH  26  27
ENDBRANCH  25  26
ENDBRANCH   1  25
TORSDOF 18
ENDMDL
MODEL 3
REMARK VINA RESULT:     -11.0      6.641     13.378
REMARK SMILES CCc1sc(C(=O)Nc2ccc(C(=O)OCCOC(=O)c3ccc(-c4c5nc(c(-c6c(F)cc(S(=O)(=O)[O-])cc6F)c6ccc([nH]6)c(-c6c(F)cc(S(=O)(=O)[O-])cc6F)c6nc(c(-c7c(F)cc(S(=O)(=O)[O-])cc7F)c7ccc4[nH]7)C=C6)C=C5)cc3)c(O)c2)cc1C
REMARK SMILES IDX 16 1 15 2 13 3 14 4 12 5 9 6 10 7 89 8 11 9 87 10 8 11 6 12
REMARK SMILES IDX 7 13 5 15 3 16 4 17 91 18 90 19 92 20 2 21 1 22 88 23 17 25
REMARK SMILES IDX 18 26 19 27 20 28 21 29 22 30 86 31 23 32 85 33 24 34 25 35
REMARK SMILES IDX 26 36 79 37 27 38 84 39 78 40 80 41 28 42 83 43 77 44 76 45
REMARK SMILES IDX 29 47 63 48 42 49 62 50 43 51 46 52 61 53 81 54 44 55 45 56
REMARK SMILES IDX 60 58 82 59 47 60 30 61 31 62 40 63 32 64 33 65 39 66 41 67
REMARK SMILES IDX 34 68 35 69 36 70 37 71 38 72 64 73 65 74 74 75 66 76 67 77
REMARK SMILES IDX 73 78 75 79 68 80 69 81 70 82 71 83 72 84 48 85 49 86 58 87
REMARK SMILES IDX 50 88 51 89 57 90 59 91 52 92 53 93 54 94 55 95 56 96
REMARK H PARENT 8 14 88 24 80 46 46 57
REMARK Flexibility Score: inf
ROOT
ATOM      1  C   UNL A   1      41.042  21.168  26.954  1.00  0.00     0.275 C 
ENDROOT
BRANCH   1   2
ATOM      2  O   UNL A   1      42.468  21.280  27.162  1.00  0.00    -0.458 OA
BRANCH   2   3
ATOM      3  C   UNL A   1      43.242  21.189  26.044  1.00  0.00     0.342 C 
ATOM      4  O   UNL A   1      43.216  20.289  25.227  1.00  0.00    -0.246 OA
BRANCH   3   5
ATOM      5  C   UNL A   1      44.085  22.406  25.893  1.00  0.00     0.101 A 
ATOM      6  C   UNL A   1      45.817  24.620  25.782  1.00  0.00     0.045 A 
ATOM      7  C   UNL A   1      45.364  24.152  27.014  1.00  0.00     0.027 A 
ATOM      8  C   UNL A   1      45.321  24.050  24.605  1.00  0.00     0.073 A 
ATOM      9  C   UNL A   1      44.470  23.078  27.064  1.00  0.00     0.022 A 
ATOM     10  C   UNL A   1      44.503  22.918  24.662  1.00  0.00     0.132 A 
BRANCH   6  11
ATOM     11  N   UNL A   1      46.735  25.673  25.674  1.00  0.00    -0.321 N 
ATOM     12  C   UNL A   1      46.532  27.032  25.492  1.00  0.00     0.265 C 
ATOM     13  O   UNL A   1      47.478  27.664  25.012  1.00  0.00    -0.268 OA
ATOM     14  H   UNL A   1      47.680  25.403  25.736  1.00  0.00     0.170 HD
BRANCH  12  15
ATOM     15  C   UNL A   1      45.321  27.704  25.961  1.00  0.00     0.093 A 
ATOM     16  C   UNL A   1      43.650  29.186  27.058  1.00  0.00     0.008 A 
ATOM     17  S   UNL A   1      45.354  29.111  26.928  1.00  0.00    -0.135 S 
ATOM     18  C   UNL A   1      43.047  28.324  26.154  1.00  0.00    -0.036 A 
ATOM     19  C   UNL A   1      44.022  27.457  25.548  1.00  0.00     0.029 A 
ATOM     20  C   UNL A   1      41.585  28.277  25.831  1.00  0.00     0.045 C 
BRANCH  16  21
ATOM     21  C   UNL A   1      42.985  30.158  27.999  1.00  0.00     0.043 C 
ATOM     22  C   UNL A   1      43.598  30.213  29.391  1.00  0.00     0.010 C 
ENDBRANCH  16  21
ENDBRANCH  12  15
ENDBRANCH   6  11
BRANCH  10  23
ATOM     23  O   UNL A   1      44.158  22.366  23.458  1.00  0.00    -0.507 OA
ATOM     24  H   UNL A   1      44.222  22.872  22.673  1.00  0.00     0.293 HD
ENDBRANCH  10  23
ENDBRANCH   3   5
ENDBRANCH   2   3
ENDBRANCH   1   2
BRANCH   1  25
ATOM     25  C   UNL A   1      40.488  22.328  26.124  1.00  0.00     0.275 C 
BRANCH  25  26
ATOM     26  O   UNL A   1      40.189  23.463  26.957  1.00  0.00    -0.458 OA
BRANCH  26  27
ATOM     27  C   UNL A   1      41.036  24.508  26.823  1.00  0.00     0.338 C 
ATOM     28  O   UNL A   1      41.636  24.845  25.816  1.00  0.00    -0.246 OA
BRANCH  27  29
ATOM     29  C   UNL A   1      41.081  25.296  28.064  1.00  0.00     0.060 A 
ATOM     30  C   UNL A   1      39.867  25.665  28.628  1.00  0.00     0.016 A 
ATOM     31  C   UNL A   1      42.269  25.850  28.537  1.00  0.00     0.016 A 
ATOM     32  C   UNL A   1      39.815  26.677  29.584  1.00  0.00     0.010 A 
ATOM     33  C   UNL A   1      42.223  26.799  29.572  1.00  0.00     0.010 A 
ATOM     34  C   UNL A   1      40.992  27.262  30.074  1.00  0.00    -0.014 A 
BRANCH  34  35
ATOM     35  C   UNL A   1      40.907  28.368  31.077  1.00  0.00     0.031 A 
ATOM     36  C   UNL A   1      41.844  28.422  32.262  1.00  0.00     0.074 A 
ATOM     37  C   UNL A   1      40.021  29.370  30.894  1.00  0.00     0.049 A 
ATOM     38  N   UNL A   1      41.898  29.296  33.239  1.00  0.00    -0.248 NA
ATOM     39  C   UNL A   1      42.865  27.369  32.362  1.00  0.00     0.031 C 
ATOM     40  C   UNL A   1      39.082  29.476  29.773  1.00  0.00     0.029 A 
ATOM     41  N   UNL A   1      39.766  30.495  31.642  1.00  0.00    -0.354 N 
ATOM     42  C   UNL A   1      42.951  28.900  34.057  1.00  0.00     0.074 A 
ATOM     43  C   UNL A   1      43.502  27.695  33.478  1.00  0.00     0.031 C 
ATOM     44  C   UNL A   1      38.379  30.610  29.891  1.00  0.00     0.029 A 
ATOM     45  C   UNL A   1      38.745  31.268  31.139  1.00  0.00     0.049 A 
ATOM     46  H   UNL A   1      40.267  30.725  32.457  1.00  0.00     0.167 HD
ATOM     47  C   UNL A   1      43.416  29.479  35.191  1.00  0.00     0.037 A 
ATOM     48  C   UNL A   1      38.126  32.352  31.647  1.00  0.00     0.037 A 
ATOM     49  C   UNL A   1      42.844  30.655  35.795  1.00  0.00     0.049 A 
ATOM     50  C   UNL A   1      38.572  32.899  32.973  1.00  0.00     0.074 A 
ATOM     51  C   UNL A   1      43.223  31.294  36.964  1.00  0.00     0.029 A 
ATOM     52  N   UNL A   1      41.760  31.358  35.291  1.00  0.00    -0.354 N 
ATOM     53  N   UNL A   1      39.559  32.499  33.737  1.00  0.00    -0.248 NA
ATOM     54  C   UNL A   1      37.808  34.031  33.515  1.00  0.00     0.031 C 
ATOM     55  C   UNL A   1      42.332  32.347  37.197  1.00  0.00     0.029 A 
ATOM     56  C   UNL A   1      41.434  32.400  36.143  1.00  0.00     0.049 A 
ATOM     57  H   UNL A   1      41.292  31.148  34.450  1.00  0.00     0.167 HD
ATOM     58  C   UNL A   1      39.543  33.338  34.846  1.00  0.00     0.074 A 
ATOM     59  C   UNL A   1      38.461  34.278  34.644  1.00  0.00     0.031 C 
ATOM     60  C   UNL A   1      40.351  33.327  35.934  1.00  0.00     0.037 A 
BRANCH  47  61
ATOM     61  C   UNL A   1      44.579  28.827  35.889  1.00  0.00     0.058 A 
ATOM     62  C   UNL A   1      45.902  29.227  35.652  1.00  0.00     0.135 A 
ATOM     63  C   UNL A   1      44.358  27.834  36.858  1.00  0.00     0.135 A 
ATOM     64  F   UNL A   1      46.172  30.158  34.723  1.00  0.00    -0.206 F 
ATOM     65  C   UNL A   1      46.969  28.661  36.347  1.00  0.00     0.059 A 
ATOM     66  C   UNL A   1      45.406  27.267  37.577  1.00  0.00     0.059 A 
ATOM     67  F   UNL A   1      43.111  27.411  37.118  1.00  0.00    -0.206 F 
ATOM     68  C   UNL A   1      46.709  27.683  37.310  1.00  0.00     0.060 A 
BRANCH  68  69
ATOM     69  S   UNL A   1      48.101  26.971  38.215  1.00  0.00     0.124 S 
ATOM     70  O   UNL A   1      49.085  28.045  38.126  1.00  0.00    -0.237 OA
ATOM     71  O   UNL A   1      47.528  26.745  39.538  1.00  0.00    -0.237 OA
ATOM     72  O   UNL A   1      48.420  25.764  37.457  1.00  0.00    -0.744 OA
ENDBRANCH  68  69
ENDBRANCH  47  61
BRANCH  48  73
ATOM     73  C   UNL A   1      36.962  32.941  30.928  1.00  0.00     0.058 A 
ATOM     74  C   UNL A   1      35.644  32.661  31.313  1.00  0.00     0.135 A 
ATOM     75  C   UNL A   1      37.156  33.809  29.840  1.00  0.00     0.135 A 
ATOM     76  F   UNL A   1      35.406  31.826  32.336  1.00  0.00    -0.206 F 
ATOM     77  C   UNL A   1      34.558  33.213  30.640  1.00  0.00     0.059 A 
ATOM     78  C   UNL A   1      36.089  34.398  29.174  1.00  0.00     0.059 A 
ATOM     79  F   UNL A   1      38.398  34.116  29.437  1.00  0.00    -0.206 F 
ATOM     80  C   UNL A   1      34.792  34.084  29.575  1.00  0.00     0.060 A 
BRANCH  80  81
ATOM     81  S   UNL A   1      33.381  34.840  28.736  1.00  0.00     0.124 S 
ATOM     82  O   UNL A   1      32.459  35.047  29.846  1.00  0.00    -0.237 OA
ATOM     83  O   UNL A   1      33.972  36.044  28.161  1.00  0.00    -0.237 OA
ATOM     84  O   UNL A   1      32.985  33.821  27.767  1.00  0.00    -0.744 OA
ENDBRANCH  80  81
ENDBRANCH  48  73
BRANCH  60  85
ATOM     85  C   UNL A   1      40.111  34.378  36.980  1.00  0.00     0.058 A 
ATOM     86  C   UNL A   1      40.722  35.639  36.910  1.00  0.00     0.135 A 
ATOM     87  C   UNL A   1      39.230  34.133  38.045  1.00  0.00     0.135 A 
ATOM     88  F   UNL A   1      41.580  35.920  35.915  1.00  0.00    -0.206 F 
ATOM     89  C   UNL A   1      40.489  36.612  37.875  1.00  0.00     0.059 A 
ATOM     90  C   UNL A   1      38.962  35.102  39.007  1.00  0.00     0.059 A 
ATOM     91  F   UNL A   1      38.612  32.946  38.152  1.00  0.00    -0.206 F 
ATOM     92  C   UNL A   1      39.607  36.334  38.921  1.00  0.00     0.060 A 
BRANCH  92  93
ATOM     93  S   UNL A   1      39.292  37.614  40.154  1.00  0.00     0.124 S 
ATOM     94  O   UNL A   1      38.940  36.815  41.322  1.00  0.00    -0.237 OA
ATOM     95  O   UNL A   1      40.577  38.305  40.223  1.00  0.00    -0.237 OA
ATOM     96  O   UNL A   1      38.202  38.388  39.569  1.00  0.00    -0.744 OA
ENDBRANCH  92  93
ENDBRANCH  60  85
ENDBRANCH  34  35
ENDBRANCH  27  29
ENDBRANCH  26  27
ENDBRANCH  25  26
ENDBRANCH   1  25
TORSDOF 18
ENDMDL
