MODEL 1
REMARK VINA RESULT:     -11.2      0.000      0.000
REMARK SMILES COC[C@@H](C)Nc1cnn(-c2ccccc2C(=O)OCCOC(=O)c2ccc(-c3c4nc(c(-c5c(F)cc(S(=O)(=O)[O-])cc5F)c5ccc([nH]5)c(-c5c(F)cc(S(=O)(=O)[O-])cc5F)c5nc(c(-c6c(F)cc(S(=O)(=O)[O-])cc6F)c6ccc3[nH]6)C=C5)C=C4)cc2)c(=O)c1Cl
REMARK SMILES IDX 20 1 19 2 17 3 18 4 16 5 11 6 12 7 13 8 15 9 14 10 10 11
REMARK SMILES IDX 7 12 8 13 93 14 9 15 91 16 94 17 92 18 6 19 4 21 5 22 3 23
REMARK SMILES IDX 2 24 1 25 21 26 22 27 23 28 24 29 25 30 26 31 90 32 27 33
REMARK SMILES IDX 89 34 28 35 29 36 30 37 83 38 31 39 88 40 82 41 84 42 32 43
REMARK SMILES IDX 87 44 81 45 80 46 33 48 67 49 46 50 66 51 47 52 50 53 65 54
REMARK SMILES IDX 85 55 48 56 49 57 64 59 86 60 51 61 34 62 35 63 44 64 36 65
REMARK SMILES IDX 37 66 43 67 45 68 38 69 39 70 40 71 41 72 42 73 68 74 69 75
REMARK SMILES IDX 78 76 70 77 71 78 77 79 79 80 72 81 73 82 74 83 75 84 76 85
REMARK SMILES IDX 52 86 53 87 62 88 54 89 55 90 61 91 63 92 56 93 57 94 58 95
REMARK SMILES IDX 59 96 60 97
REMARK H PARENT 6 20 84 47 50 58
REMARK Flexibility Score: inf
ROOT
ATOM      1  C   UNL A   1      37.599  22.535  25.603  1.00  0.00     0.275 C 
ENDROOT
BRANCH   1   2
ATOM      2  O   UNL A   1      36.492  23.421  25.857  1.00  0.00    -0.458 OA
BRANCH   2   3
ATOM      3  C   UNL A   1      35.631  23.649  24.831  1.00  0.00     0.340 C 
ATOM      4  O   UNL A   1      35.753  23.235  23.688  1.00  0.00    -0.246 OA
BRANCH   3   5
ATOM      5  C   UNL A   1      34.408  24.349  25.310  1.00  0.00     0.085 A 
ATOM      6  C   UNL A   1      33.116  23.787  25.289  1.00  0.00     0.083 A 
ATOM      7  C   UNL A   1      32.022  24.627  25.571  1.00  0.00     0.029 A 
ATOM      8  C   UNL A   1      32.201  25.976  25.885  1.00  0.00     0.002 A 
ATOM      9  C   UNL A   1      34.581  25.695  25.688  1.00  0.00     0.018 A 
ATOM     10  C   UNL A   1      33.481  26.509  25.955  1.00  0.00     0.001 A 
BRANCH   6  11
ATOM     11  N   UNL A   1      32.894  22.397  25.043  1.00  0.00    -0.195 N 
ATOM     12  C   UNL A   1      32.724  19.594  24.712  1.00  0.00     0.079 A 
ATOM     13  C   UNL A   1      32.978  20.332  25.979  1.00  0.00     0.161 A 
ATOM     14  C   UNL A   1      32.453  20.413  23.682  1.00  0.00     0.132 A 
ATOM     15  N   UNL A   1      33.070  21.604  26.146  1.00  0.00    -0.171 NA
ATOM     16  C   UNL A   1      32.493  21.907  23.800  1.00  0.00     0.292 A 
ATOM     17  Cl  UNL A   1      32.012  19.834  22.102  1.00  0.00    -0.076 Cl
ATOM     18  O   UNL A   1      32.227  22.600  22.817  1.00  0.00    -0.266 OA
BRANCH  12  19
ATOM     19  N   UNL A   1      32.795  18.209  24.810  1.00  0.00    -0.378 N 
ATOM     20  H   UNL A   1      31.982  17.759  25.137  1.00  0.00     0.161 HD
BRANCH  19  21
ATOM     21  C   UNL A   1      33.923  17.333  24.489  1.00  0.00     0.102 C 
ATOM     22  C   UNL A   1      33.919  17.078  22.981  1.00  0.00     0.033 C 
BRANCH  21  23
ATOM     23  C   UNL A   1      33.806  16.023  25.309  1.00  0.00     0.184 C 
BRANCH  23  24
ATOM     24  O   UNL A   1      35.006  15.253  25.386  1.00  0.00    -0.383 OA
ATOM     25  C   UNL A   1      36.171  16.002  25.691  1.00  0.00     0.194 C 
ENDBRANCH  23  24
ENDBRANCH  21  23
ENDBRANCH  19  21
ENDBRANCH  12  19
ENDBRANCH   6  11
ENDBRANCH   3   5
ENDBRANCH   2   3
ENDBRANCH   1   2
BRANCH   1  26
ATOM     26  C   UNL A   1      38.785  22.895  26.500  1.00  0.00     0.275 C 
BRANCH  26  27
ATOM     27  O   UNL A   1      39.038  24.309  26.449  1.00  0.00    -0.458 OA
BRANCH  27  28
ATOM     28  C   UNL A   1      40.331  24.665  26.631  1.00  0.00     0.338 C 
ATOM     29  O   UNL A   1      41.301  24.307  25.979  1.00  0.00    -0.246 OA
BRANCH  28  30
ATOM     30  C   UNL A   1      40.379  25.720  27.649  1.00  0.00     0.060 A 
ATOM     31  C   UNL A   1      41.332  26.737  27.612  1.00  0.00     0.016 A 
ATOM     32  C   UNL A   1      39.423  25.683  28.664  1.00  0.00     0.016 A 
ATOM     33  C   UNL A   1      41.337  27.698  28.626  1.00  0.00     0.010 A 
ATOM     34  C   UNL A   1      39.421  26.648  29.668  1.00  0.00     0.010 A 
ATOM     35  C   UNL A   1      40.389  27.658  29.668  1.00  0.00    -0.014 A 
BRANCH  35  36
ATOM     36  C   UNL A   1      40.397  28.698  30.730  1.00  0.00     0.031 A 
ATOM     37  C   UNL A   1      39.411  29.835  30.710  1.00  0.00     0.074 A 
ATOM     38  C   UNL A   1      41.307  28.611  31.720  1.00  0.00     0.049 A 
ATOM     39  N   UNL A   1      39.201  30.755  31.617  1.00  0.00    -0.248 NA
ATOM     40  C   UNL A   1      38.567  29.975  29.513  1.00  0.00     0.031 C 
ATOM     41  C   UNL A   1      42.371  27.607  31.795  1.00  0.00     0.029 A 
ATOM     42  N   UNL A   1      41.475  29.359  32.858  1.00  0.00    -0.354 N 
ATOM     43  C   UNL A   1      38.195  31.569  31.110  1.00  0.00     0.074 A 
ATOM     44  C   UNL A   1      37.886  31.080  29.785  1.00  0.00     0.031 C 
ATOM     45  C   UNL A   1      43.040  27.761  32.949  1.00  0.00     0.029 A 
ATOM     46  C   UNL A   1      42.470  28.888  33.684  1.00  0.00     0.049 A 
ATOM     47  H   UNL A   1      40.935  30.156  33.064  1.00  0.00     0.167 HD
ATOM     48  C   UNL A   1      37.562  32.605  31.711  1.00  0.00     0.037 A 
ATOM     49  C   UNL A   1      42.864  29.300  34.904  1.00  0.00     0.037 A 
ATOM     50  C   UNL A   1      37.863  33.067  33.042  1.00  0.00     0.049 A 
ATOM     51  C   UNL A   1      42.141  30.448  35.556  1.00  0.00     0.074 A 
ATOM     52  C   UNL A   1      37.228  34.056  33.772  1.00  0.00     0.029 A 
ATOM     53  N   UNL A   1      38.889  32.578  33.837  1.00  0.00    -0.354 N 
ATOM     54  N   UNL A   1      41.113  31.132  35.110  1.00  0.00    -0.248 NA
ATOM     55  C   UNL A   1      42.626  30.881  36.873  1.00  0.00     0.031 C 
ATOM     56  C   UNL A   1      37.898  34.197  34.991  1.00  0.00     0.029 A 
ATOM     57  C   UNL A   1      38.924  33.266  35.038  1.00  0.00     0.049 A 
ATOM     58  H   UNL A   1      39.501  31.850  33.586  1.00  0.00     0.167 HD
ATOM     59  C   UNL A   1      40.827  32.072  36.093  1.00  0.00     0.074 A 
ATOM     60  C   UNL A   1      41.771  31.851  37.170  1.00  0.00     0.031 C 
ATOM     61  C   UNL A   1      39.874  33.037  36.099  1.00  0.00     0.037 A 
BRANCH  48  62
ATOM     62  C   UNL A   1      36.450  33.289  30.960  1.00  0.00     0.058 A 
ATOM     63  C   UNL A   1      35.111  33.159  31.364  1.00  0.00     0.135 A 
ATOM     64  C   UNL A   1      36.726  34.146  29.881  1.00  0.00     0.135 A 
ATOM     65  F   UNL A   1      34.788  32.348  32.384  1.00  0.00    -0.206 F 
ATOM     66  C   UNL A   1      34.085  33.836  30.714  1.00  0.00     0.059 A 
ATOM     67  C   UNL A   1      35.718  34.855  29.234  1.00  0.00     0.059 A 
ATOM     68  F   UNL A   1      37.989  34.312  29.456  1.00  0.00    -0.206 F 
ATOM     69  C   UNL A   1      34.398  34.687  29.652  1.00  0.00     0.060 A 
BRANCH  69  70
ATOM     70  S   UNL A   1      33.052  35.578  28.844  1.00  0.00     0.124 S 
ATOM     71  O   UNL A   1      32.436  34.520  28.049  1.00  0.00    -0.237 OA
ATOM     72  O   UNL A   1      32.268  36.054  29.980  1.00  0.00    -0.237 OA
ATOM     73  O   UNL A   1      33.738  36.615  28.080  1.00  0.00    -0.744 OA
ENDBRANCH  69  70
ENDBRANCH  48  62
BRANCH  49  74
ATOM     74  C   UNL A   1      43.967  28.589  35.604  1.00  0.00     0.058 A 
ATOM     75  C   UNL A   1      45.305  28.954  35.396  1.00  0.00     0.135 A 
ATOM     76  C   UNL A   1      43.707  27.557  36.520  1.00  0.00     0.135 A 
ATOM     77  F   UNL A   1      45.607  29.931  34.527  1.00  0.00    -0.206 F 
ATOM     78  C   UNL A   1      46.348  28.317  36.062  1.00  0.00     0.059 A 
ATOM     79  C   UNL A   1      44.730  26.922  37.217  1.00  0.00     0.059 A 
ATOM     80  F   UNL A   1      42.443  27.181  36.766  1.00  0.00    -0.206 F 
ATOM     81  C   UNL A   1      46.049  27.305  36.976  1.00  0.00     0.060 A 
BRANCH  81  82
ATOM     82  S   UNL A   1      47.408  26.523  37.872  1.00  0.00     0.124 S 
ATOM     83  O   UNL A   1      46.692  25.778  38.900  1.00  0.00    -0.237 OA
ATOM     84  O   UNL A   1      48.040  25.724  36.826  1.00  0.00    -0.237 OA
ATOM     85  O   UNL A   1      48.196  27.657  38.348  1.00  0.00    -0.744 OA
ENDBRANCH  81  82
ENDBRANCH  49  74
BRANCH  61  86
ATOM     86  C   UNL A   1      39.809  33.950  37.291  1.00  0.00     0.058 A 
ATOM     87  C   UNL A   1      40.418  35.213  37.270  1.00  0.00     0.135 A 
ATOM     88  C   UNL A   1      39.039  33.608  38.416  1.00  0.00     0.135 A 
ATOM     89  F   UNL A   1      41.172  35.582  36.223  1.00  0.00    -0.206 F 
ATOM     90  C   UNL A   1      40.264  36.109  38.322  1.00  0.00     0.059 A 
ATOM     91  C   UNL A   1      38.850  34.500  39.467  1.00  0.00     0.059 A 
ATOM     92  F   UNL A   1      38.429  32.414  38.482  1.00  0.00    -0.206 F 
ATOM     93  C   UNL A   1      39.466  35.749  39.410  1.00  0.00     0.060 A 
BRANCH  93  94
ATOM     94  S   UNL A   1      39.213  36.959  40.725  1.00  0.00     0.124 S 
ATOM     95  O   UNL A   1      38.572  36.147  41.755  1.00  0.00    -0.237 OA
ATOM     96  O   UNL A   1      40.576  37.390  41.016  1.00  0.00    -0.237 OA
ATOM     97  O   UNL A   1      38.361  37.968  40.102  1.00  0.00    -0.744 OA
ENDBRANCH  93  94
ENDBRANCH  61  86
ENDBRANCH  35  36
ENDBRANCH  28  30
ENDBRANCH  27  28
ENDBRANCH  26  27
ENDBRANCH   1  26
TORSDOF 19
ENDMDL
MODEL 2
REMARK VINA RESULT:     -11.2      5.547     11.072
REMARK SMILES COC[C@@H](C)Nc1cnn(-c2ccccc2C(=O)OCCOC(=O)c2ccc(-c3c4nc(c(-c5c(F)cc(S(=O)(=O)[O-])cc5F)c5ccc([nH]5)c(-c5c(F)cc(S(=O)(=O)[O-])cc5F)c5nc(c(-c6c(F)cc(S(=O)(=O)[O-])cc6F)c6ccc3[nH]6)C=C5)C=C4)cc2)c(=O)c1Cl
REMARK SMILES IDX 20 1 19 2 17 3 18 4 16 5 11 6 12 7 13 8 15 9 14 10 10 11
REMARK SMILES IDX 7 12 8 13 93 14 9 15 91 16 94 17 92 18 6 19 4 21 5 22 3 23
REMARK SMILES IDX 2 24 1 25 21 26 22 27 23 28 24 29 25 30 26 31 90 32 27 33
REMARK SMILES IDX 89 34 28 35 29 36 30 37 83 38 31 39 88 40 82 41 84 42 32 43
REMARK SMILES IDX 87 44 81 45 80 46 33 48 67 49 46 50 66 51 47 52 50 53 65 54
REMARK SMILES IDX 85 55 48 56 49 57 64 59 86 60 51 61 34 62 35 63 44 64 36 65
REMARK SMILES IDX 37 66 43 67 45 68 38 69 39 70 40 71 41 72 42 73 68 74 69 75
REMARK SMILES IDX 78 76 70 77 71 78 77 79 79 80 72 81 73 82 74 83 75 84 76 85
REMARK SMILES IDX 52 86 53 87 62 88 54 89 55 90 61 91 63 92 56 93 57 94 58 95
REMARK SMILES IDX 59 96 60 97
REMARK H PARENT 6 20 84 47 50 58
REMARK Flexibility Score: inf
ROOT
ATOM      1  C   UNL A   1      32.094  27.912  26.649  1.00  0.00     0.275 C 
ENDROOT
BRANCH   1   2
ATOM      2  O   UNL A   1      33.066  26.869  26.446  1.00  0.00    -0.458 OA
BRANCH   2   3
ATOM      3  C   UNL A   1      32.594  25.618  26.200  1.00  0.00     0.340 C 
ATOM      4  O   UNL A   1      31.698  25.058  26.812  1.00  0.00    -0.246 OA
BRANCH   3   5
ATOM      5  C   UNL A   1      33.204  25.054  24.964  1.00  0.00     0.085 A 
ATOM      6  C   UNL A   1      32.770  25.358  23.658  1.00  0.00     0.083 A 
ATOM      7  C   UNL A   1      33.289  24.599  22.593  1.00  0.00     0.029 A 
ATOM      8  C   UNL A   1      34.226  23.585  22.808  1.00  0.00     0.002 A 
ATOM      9  C   UNL A   1      34.195  24.073  25.163  1.00  0.00     0.018 A 
ATOM     10  C   UNL A   1      34.688  23.328  24.092  1.00  0.00     0.001 A 
BRANCH   6  11
ATOM     11  N   UNL A   1      31.868  26.432  23.386  1.00  0.00    -0.195 N 
ATOM     12  C   UNL A   1      30.276  28.741  23.019  1.00  0.00     0.079 A 
ATOM     13  C   UNL A   1      31.746  28.626  22.817  1.00  0.00     0.161 A 
ATOM     14  C   UNL A   1      29.699  27.561  23.303  1.00  0.00     0.132 A 
ATOM     15  N   UNL A   1      32.488  27.588  22.990  1.00  0.00    -0.171 NA
ATOM     16  C   UNL A   1      30.482  26.295  23.477  1.00  0.00     0.292 A 
ATOM     17  Cl  UNL A   1      27.981  27.367  23.487  1.00  0.00    -0.076 Cl
ATOM     18  O   UNL A   1      29.890  25.245  23.731  1.00  0.00    -0.266 OA
BRANCH  12  19
ATOM     19  N   UNL A   1      29.757  30.022  22.869  1.00  0.00    -0.378 N 
ATOM     20  H   UNL A   1      30.412  30.757  22.889  1.00  0.00     0.161 HD
BRANCH  19  21
ATOM     21  C   UNL A   1      28.360  30.418  22.685  1.00  0.00     0.102 C 
ATOM     22  C   UNL A   1      28.081  30.510  21.184  1.00  0.00     0.033 C 
BRANCH  21  23
ATOM     23  C   UNL A   1      28.107  31.762  23.415  1.00  0.00     0.184 C 
BRANCH  23  24
ATOM     24  O   UNL A   1      28.425  32.928  22.655  1.00  0.00    -0.383 OA
ATOM     25  C   UNL A   1      29.234  33.873  23.333  1.00  0.00     0.194 C 
ENDBRANCH  23  24
ENDBRANCH  21  23
ENDBRANCH  19  21
ENDBRANCH  12  19
ENDBRANCH   6  11
ENDBRANCH   3   5
ENDBRANCH   2   3
ENDBRANCH   1   2
BRANCH   1  26
ATOM     26  C   UNL A   1      32.672  29.012  27.540  1.00  0.00     0.275 C 
BRANCH  26  27
ATOM     27  O   UNL A   1      34.060  29.224  27.236  1.00  0.00    -0.458 OA
BRANCH  27  28
ATOM     28  C   UNL A   1      34.624  30.289  27.851  1.00  0.00     0.338 C 
ATOM     29  O   UNL A   1      34.075  31.321  28.206  1.00  0.00    -0.246 OA
BRANCH  28  30
ATOM     30  C   UNL A   1      36.006  29.939  28.202  1.00  0.00     0.060 A 
ATOM     31  C   UNL A   1      36.362  29.555  29.493  1.00  0.00     0.016 A 
ATOM     32  C   UNL A   1      36.963  29.992  27.188  1.00  0.00     0.016 A 
ATOM     33  C   UNL A   1      37.700  29.258  29.766  1.00  0.00     0.010 A 
ATOM     34  C   UNL A   1      38.294  29.684  27.458  1.00  0.00     0.010 A 
ATOM     35  C   UNL A   1      38.680  29.328  28.754  1.00  0.00    -0.014 A 
BRANCH  35  36
ATOM     36  C   UNL A   1      40.096  28.992  29.057  1.00  0.00     0.031 A 
ATOM     37  C   UNL A   1      40.660  27.638  28.721  1.00  0.00     0.074 A 
ATOM     38  C   UNL A   1      40.875  29.922  29.644  1.00  0.00     0.049 A 
ATOM     39  N   UNL A   1      41.899  27.222  28.804  1.00  0.00    -0.248 NA
ATOM     40  C   UNL A   1      39.717  26.611  28.251  1.00  0.00     0.031 C 
ATOM     41  C   UNL A   1      40.414  31.236  30.100  1.00  0.00     0.029 A 
ATOM     42  N   UNL A   1      42.215  29.919  29.939  1.00  0.00    -0.354 N 
ATOM     43  C   UNL A   1      41.886  25.897  28.385  1.00  0.00     0.074 A 
ATOM     44  C   UNL A   1      40.507  25.554  28.116  1.00  0.00     0.031 C 
ATOM     45  C   UNL A   1      41.465  31.934  30.559  1.00  0.00     0.029 A 
ATOM     46  C   UNL A   1      42.668  31.113  30.452  1.00  0.00     0.049 A 
ATOM     47  H   UNL A   1      42.797  29.137  29.798  1.00  0.00     0.167 HD
ATOM     48  C   UNL A   1      42.933  25.057  28.204  1.00  0.00     0.037 A 
ATOM     49  C   UNL A   1      43.914  31.510  30.777  1.00  0.00     0.037 A 
ATOM     50  C   UNL A   1      44.305  25.419  28.452  1.00  0.00     0.049 A 
ATOM     51  C   UNL A   1      45.063  30.562  30.561  1.00  0.00     0.074 A 
ATOM     52  C   UNL A   1      45.446  24.669  28.226  1.00  0.00     0.029 A 
ATOM     53  N   UNL A   1      44.721  26.628  28.988  1.00  0.00    -0.354 N 
ATOM     54  N   UNL A   1      45.046  29.353  30.052  1.00  0.00    -0.248 NA
ATOM     55  C   UNL A   1      46.397  31.030  30.958  1.00  0.00     0.031 C 
ATOM     56  C   UNL A   1      46.548  25.406  28.669  1.00  0.00     0.029 A 
ATOM     57  C   UNL A   1      46.098  26.634  29.130  1.00  0.00     0.049 A 
ATOM     58  H   UNL A   1      44.126  27.373  29.232  1.00  0.00     0.167 HD
ATOM     59  C   UNL A   1      46.366  28.916  30.066  1.00  0.00     0.074 A 
ATOM     60  C   UNL A   1      47.159  30.002  30.605  1.00  0.00     0.031 C 
ATOM     61  C   UNL A   1      46.873  27.721  29.675  1.00  0.00     0.037 A 
BRANCH  48  62
ATOM     62  C   UNL A   1      42.651  23.675  27.675  1.00  0.00     0.058 A 
ATOM     63  C   UNL A   1      42.619  23.418  26.294  1.00  0.00     0.135 A 
ATOM     64  C   UNL A   1      42.493  22.585  28.546  1.00  0.00     0.135 A 
ATOM     65  F   UNL A   1      42.756  24.422  25.415  1.00  0.00    -0.206 F 
ATOM     66  C   UNL A   1      42.420  22.134  25.797  1.00  0.00     0.059 A 
ATOM     67  C   UNL A   1      42.321  21.287  28.070  1.00  0.00     0.059 A 
ATOM     68  F   UNL A   1      42.521  22.772  29.875  1.00  0.00    -0.206 F 
ATOM     69  C   UNL A   1      42.277  21.073  26.693  1.00  0.00     0.060 A 
BRANCH  69  70
ATOM     70  S   UNL A   1      42.050  19.412  26.024  1.00  0.00     0.124 S 
ATOM     71  O   UNL A   1      40.609  19.383  25.793  1.00  0.00    -0.237 OA
ATOM     72  O   UNL A   1      42.882  19.445  24.824  1.00  0.00    -0.237 OA
ATOM     73  O   UNL A   1      42.530  18.543  27.093  1.00  0.00    -0.744 OA
ENDBRANCH  69  70
ENDBRANCH  48  62
BRANCH  49  74
ATOM     74  C   UNL A   1      44.138  32.886  31.296  1.00  0.00     0.058 A 
ATOM     75  C   UNL A   1      44.392  33.952  30.421  1.00  0.00     0.135 A 
ATOM     76  C   UNL A   1      44.069  33.171  32.669  1.00  0.00     0.135 A 
ATOM     77  F   UNL A   1      44.474  33.732  29.099  1.00  0.00    -0.206 F 
ATOM     78  C   UNL A   1      44.578  35.250  30.887  1.00  0.00     0.059 A 
ATOM     79  C   UNL A   1      44.226  34.464  33.157  1.00  0.00     0.059 A 
ATOM     80  F   UNL A   1      43.813  32.188  33.546  1.00  0.00    -0.206 F 
ATOM     81  C   UNL A   1      44.487  35.497  32.257  1.00  0.00     0.060 A 
BRANCH  81  82
ATOM     82  S   UNL A   1      44.680  37.194  32.843  1.00  0.00     0.124 S 
ATOM     83  O   UNL A   1      43.347  37.481  33.359  1.00  0.00    -0.237 OA
ATOM     84  O   UNL A   1      45.735  37.053  33.842  1.00  0.00    -0.237 OA
ATOM     85  O   UNL A   1      45.061  37.926  31.638  1.00  0.00    -0.744 OA
ENDBRANCH  81  82
ENDBRANCH  49  74
BRANCH  61  86
ATOM     86  C   UNL A   1      48.351  27.503  29.832  1.00  0.00     0.058 A 
ATOM     87  C   UNL A   1      49.253  27.916  28.840  1.00  0.00     0.135 A 
ATOM     88  C   UNL A   1      48.878  26.983  31.026  1.00  0.00     0.135 A 
ATOM     89  F   UNL A   1      48.800  28.409  27.677  1.00  0.00    -0.206 F 
ATOM     90  C   UNL A   1      50.628  27.824  29.027  1.00  0.00     0.059 A 
ATOM     91  C   UNL A   1      50.250  26.908  31.245  1.00  0.00     0.059 A 
ATOM     92  F   UNL A   1      48.057  26.581  32.010  1.00  0.00    -0.206 F 
ATOM     93  C   UNL A   1      51.117  27.332  30.239  1.00  0.00     0.060 A 
BRANCH  93  94
ATOM     94  S   UNL A   1      52.904  27.299  30.493  1.00  0.00     0.124 S 
ATOM     95  O   UNL A   1      53.389  27.024  29.144  1.00  0.00    -0.237 OA
ATOM     96  O   UNL A   1      53.169  28.641  31.001  1.00  0.00    -0.237 OA
ATOM     97  O   UNL A   1      53.093  26.220  31.459  1.00  0.00    -0.744 OA
ENDBRANCH  93  94
ENDBRANCH  61  86
ENDBRANCH  35  36
ENDBRANCH  28  30
ENDBRANCH  27  28
ENDBRANCH  26  27
ENDBRANCH   1  26
TORSDOF 19
ENDMDL
MODEL 3
REMARK VINA RESULT:     -11.2      1.639      8.969
REMARK SMILES COC[C@@H](C)Nc1cnn(-c2ccccc2C(=O)OCCOC(=O)c2ccc(-c3c4nc(c(-c5c(F)cc(S(=O)(=O)[O-])cc5F)c5ccc([nH]5)c(-c5c(F)cc(S(=O)(=O)[O-])cc5F)c5nc(c(-c6c(F)cc(S(=O)(=O)[O-])cc6F)c6ccc3[nH]6)C=C5)C=C4)cc2)c(=O)c1Cl
REMARK SMILES IDX 20 1 19 2 17 3 18 4 16 5 11 6 12 7 13 8 15 9 14 10 10 11
REMARK SMILES IDX 7 12 8 13 93 14 9 15 91 16 94 17 92 18 6 19 4 21 5 22 3 23
REMARK SMILES IDX 2 24 1 25 21 26 22 27 23 28 24 29 25 30 26 31 90 32 27 33
REMARK SMILES IDX 89 34 28 35 29 36 30 37 83 38 31 39 88 40 82 41 84 42 32 43
REMARK SMILES IDX 87 44 81 45 80 46 33 48 67 49 46 50 66 51 47 52 50 53 65 54
REMARK SMILES IDX 85 55 48 56 49 57 64 59 86 60 51 61 34 62 35 63 44 64 36 65
REMARK SMILES IDX 37 66 43 67 45 68 38 69 39 70 40 71 41 72 42 73 68 74 69 75
REMARK SMILES IDX 78 76 70 77 71 78 77 79 79 80 72 81 73 82 74 83 75 84 76 85
REMARK SMILES IDX 52 86 53 87 62 88 54 89 55 90 61 91 63 92 56 93 57 94 58 95
REMARK SMILES IDX 59 96 60 97
REMARK H PARENT 6 20 84 47 50 58
REMARK Flexibility Score: inf
ROOT
ATOM      1  C   UNL A   1      38.448  22.223  25.912  1.00  0.00     0.275 C 
ENDROOT
BRANCH   1   2
ATOM      2  O   UNL A   1      37.019  22.047  25.870  1.00  0.00    -0.458 OA
BRANCH   2   3
ATOM      3  C   UNL A   1      36.413  22.164  24.660  1.00  0.00     0.340 C 
ATOM      4  O   UNL A   1      36.941  22.556  23.630  1.00  0.00    -0.246 OA
BRANCH   3   5
ATOM      5  C   UNL A   1      35.037  21.598  24.697  1.00  0.00     0.085 A 
ATOM      6  C   UNL A   1      33.864  22.375  24.771  1.00  0.00     0.083 A 
ATOM      7  C   UNL A   1      32.644  21.715  25.012  1.00  0.00     0.029 A 
ATOM      8  C   UNL A   1      32.583  20.326  25.154  1.00  0.00     0.002 A 
ATOM      9  C   UNL A   1      34.955  20.194  24.779  1.00  0.00     0.018 A 
ATOM     10  C   UNL A   1      33.736  19.563  25.027  1.00  0.00     0.001 A 
BRANCH   6  11
ATOM     11  N   UNL A   1      33.872  23.788  24.562  1.00  0.00    -0.195 N 
ATOM     12  C   UNL A   1      33.686  26.605  24.393  1.00  0.00     0.079 A 
ATOM     13  C   UNL A   1      33.945  25.797  25.615  1.00  0.00     0.161 A 
ATOM     14  C   UNL A   1      33.652  25.858  23.276  1.00  0.00     0.132 A 
ATOM     15  N   UNL A   1      34.022  24.517  25.713  1.00  0.00    -0.171 NA
ATOM     16  C   UNL A   1      33.778  24.364  23.295  1.00  0.00     0.292 A 
ATOM     17  Cl  UNL A   1      33.471  26.538  21.686  1.00  0.00    -0.076 Cl
ATOM     18  O   UNL A   1      33.745  23.739  22.234  1.00  0.00    -0.266 OA
BRANCH  12  19
ATOM     19  N   UNL A   1      33.539  27.971  24.606  1.00  0.00    -0.378 N 
ATOM     20  H   UNL A   1      34.335  28.523  24.425  1.00  0.00     0.161 HD
BRANCH  19  21
ATOM     21  C   UNL A   1      32.352  28.695  25.065  1.00  0.00     0.102 C 
ATOM     22  C   UNL A   1      31.464  28.977  23.853  1.00  0.00     0.033 C 
BRANCH  21  23
ATOM     23  C   UNL A   1      32.791  29.993  25.790  1.00  0.00     0.184 C 
BRANCH  23  24
ATOM     24  O   UNL A   1      33.554  29.789  26.980  1.00  0.00    -0.383 OA
ATOM     25  C   UNL A   1      33.928  30.978  27.654  1.00  0.00     0.194 C 
ENDBRANCH  23  24
ENDBRANCH  21  23
ENDBRANCH  19  21
ENDBRANCH  12  19
ENDBRANCH   6  11
ENDBRANCH   3   5
ENDBRANCH   2   3
ENDBRANCH   1   2
BRANCH   1  26
ATOM     26  C   UNL A   1      38.797  23.703  26.068  1.00  0.00     0.275 C 
BRANCH  26  27
ATOM     27  O   UNL A   1      39.944  23.859  26.920  1.00  0.00    -0.458 OA
BRANCH  27  28
ATOM     28  C   UNL A   1      40.664  24.985  26.709  1.00  0.00     0.338 C 
ATOM     29  O   UNL A   1      41.251  25.314  25.689  1.00  0.00    -0.246 OA
BRANCH  28  30
ATOM     30  C   UNL A   1      40.484  25.870  27.866  1.00  0.00     0.060 A 
ATOM     31  C   UNL A   1      39.382  25.760  28.712  1.00  0.00     0.016 A 
ATOM     32  C   UNL A   1      41.467  26.831  28.104  1.00  0.00     0.016 A 
ATOM     33  C   UNL A   1      39.258  26.650  29.783  1.00  0.00     0.010 A 
ATOM     34  C   UNL A   1      41.349  27.710  29.178  1.00  0.00     0.010 A 
ATOM     35  C   UNL A   1      40.235  27.638  30.021  1.00  0.00    -0.014 A 
BRANCH  35  36
ATOM     36  C   UNL A   1      40.097  28.566  31.174  1.00  0.00     0.031 A 
ATOM     37  C   UNL A   1      40.980  28.432  32.386  1.00  0.00     0.074 A 
ATOM     38  C   UNL A   1      39.164  29.536  31.122  1.00  0.00     0.049 A 
ATOM     39  N   UNL A   1      41.076  29.227  33.422  1.00  0.00    -0.248 NA
ATOM     40  C   UNL A   1      41.851  27.249  32.460  1.00  0.00     0.031 C 
ATOM     41  C   UNL A   1      38.190  29.706  30.041  1.00  0.00     0.029 A 
ATOM     42  N   UNL A   1      38.891  30.571  31.981  1.00  0.00    -0.354 N 
ATOM     43  C   UNL A   1      42.024  28.650  34.260  1.00  0.00     0.074 A 
ATOM     44  C   UNL A   1      42.422  27.401  33.648  1.00  0.00     0.031 C 
ATOM     45  C   UNL A   1      37.470  30.816  30.269  1.00  0.00     0.029 A 
ATOM     46  C   UNL A   1      37.912  31.423  31.522  1.00  0.00     0.049 A 
ATOM     47  H   UNL A   1      39.351  30.693  32.843  1.00  0.00     0.167 HD
ATOM     48  C   UNL A   1      42.542  29.137  35.413  1.00  0.00     0.037 A 
ATOM     49  C   UNL A   1      37.440  32.574  32.038  1.00  0.00     0.037 A 
ATOM     50  C   UNL A   1      42.154  30.394  35.999  1.00  0.00     0.049 A 
ATOM     51  C   UNL A   1      38.036  33.100  33.316  1.00  0.00     0.074 A 
ATOM     52  C   UNL A   1      42.674  31.015  37.122  1.00  0.00     0.029 A 
ATOM     53  N   UNL A   1      41.148  31.217  35.516  1.00  0.00    -0.354 N 
ATOM     54  N   UNL A   1      39.015  32.600  34.033  1.00  0.00    -0.248 NA
ATOM     55  C   UNL A   1      37.469  34.343  33.855  1.00  0.00     0.031 C 
ATOM     56  C   UNL A   1      41.951  32.191  37.344  1.00  0.00     0.029 A 
ATOM     57  C   UNL A   1      41.009  32.325  36.335  1.00  0.00     0.049 A 
ATOM     58  H   UNL A   1      40.612  31.041  34.710  1.00  0.00     0.167 HD
ATOM     59  C   UNL A   1      39.183  33.469  35.106  1.00  0.00     0.074 A 
ATOM     60  C   UNL A   1      38.224  34.541  34.928  1.00  0.00     0.031 C 
ATOM     61  C   UNL A   1      40.046  33.381  36.148  1.00  0.00     0.037 A 
BRANCH  48  62
ATOM     62  C   UNL A   1      43.615  28.336  36.102  1.00  0.00     0.058 A 
ATOM     63  C   UNL A   1      43.293  27.234  36.911  1.00  0.00     0.135 A 
ATOM     64  C   UNL A   1      44.975  28.617  35.892  1.00  0.00     0.135 A 
ATOM     65  F   UNL A   1      42.010  26.923  37.153  1.00  0.00    -0.206 F 
ATOM     66  C   UNL A   1      44.280  26.451  37.502  1.00  0.00     0.059 A 
ATOM     67  C   UNL A   1      45.979  27.831  36.452  1.00  0.00     0.059 A 
ATOM     68  F   UNL A   1      45.340  29.656  35.124  1.00  0.00    -0.206 F 
ATOM     69  C   UNL A   1      45.621  26.754  37.263  1.00  0.00     0.060 A 
BRANCH  69  70
ATOM     70  S   UNL A   1      46.883  25.706  38.017  1.00  0.00     0.124 S 
ATOM     71  O   UNL A   1      46.191  24.424  38.096  1.00  0.00    -0.237 OA
ATOM     72  O   UNL A   1      47.970  25.780  37.044  1.00  0.00    -0.237 OA
ATOM     73  O   UNL A   1      47.146  26.355  39.297  1.00  0.00    -0.744 OA
ENDBRANCH  69  70
ENDBRANCH  48  62
BRANCH  49  74
ATOM     74  C   UNL A   1      36.380  33.328  31.316  1.00  0.00     0.058 A 
ATOM     75  C   UNL A   1      36.662  33.997  30.117  1.00  0.00     0.135 A 
ATOM     76  C   UNL A   1      35.059  33.365  31.789  1.00  0.00     0.135 A 
ATOM     77  F   UNL A   1      37.911  33.997  29.625  1.00  0.00    -0.206 F 
ATOM     78  C   UNL A   1      35.676  34.684  29.416  1.00  0.00     0.059 A 
ATOM     79  C   UNL A   1      34.050  34.023  31.093  1.00  0.00     0.059 A 
ATOM     80  F   UNL A   1      34.734  32.726  32.925  1.00  0.00    -0.206 F 
ATOM     81  C   UNL A   1      34.371  34.686  29.909  1.00  0.00     0.060 A 
BRANCH  81  82
ATOM     82  S   UNL A   1      33.091  35.539  28.962  1.00  0.00     0.124 S 
ATOM     83  O   UNL A   1      32.275  36.116  30.022  1.00  0.00    -0.237 OA
ATOM     84  O   UNL A   1      33.876  36.483  28.172  1.00  0.00    -0.237 OA
ATOM     85  O   UNL A   1      32.464  34.463  28.198  1.00  0.00    -0.744 OA
ENDBRANCH  81  82
ENDBRANCH  49  74
BRANCH  61  86
ATOM     86  C   UNL A   1      39.989  34.456  37.197  1.00  0.00     0.058 A 
ATOM     87  C   UNL A   1      40.686  35.663  37.035  1.00  0.00     0.135 A 
ATOM     88  C   UNL A   1      39.146  34.327  38.313  1.00  0.00     0.135 A 
ATOM     89  F   UNL A   1      41.512  35.831  35.991  1.00  0.00    -0.206 F 
ATOM     90  C   UNL A   1      40.547  36.707  37.942  1.00  0.00     0.059 A 
ATOM     91  C   UNL A   1      38.971  35.369  39.218  1.00  0.00     0.059 A 
ATOM     92  F   UNL A   1      38.451  33.195  38.509  1.00  0.00    -0.206 F 
ATOM     93  C   UNL A   1      39.675  36.556  39.023  1.00  0.00     0.060 A 
BRANCH  93  94
ATOM     94  S   UNL A   1      39.447  37.954  40.142  1.00  0.00     0.124 S 
ATOM     95  O   UNL A   1      40.668  38.719  39.913  1.00  0.00    -0.237 OA
ATOM     96  O   UNL A   1      38.217  38.557  39.637  1.00  0.00    -0.237 OA
ATOM     97  O   UNL A   1      39.338  37.326  41.456  1.00  0.00    -0.744 OA
ENDBRANCH  93  94
ENDBRANCH  61  86
ENDBRANCH  35  36
ENDBRANCH  28  30
ENDBRANCH  27  28
ENDBRANCH  26  27
ENDBRANCH   1  26
TORSDOF 19
ENDMDL
