MODEL 1
REMARK VINA RESULT:     -10.9      0.000      0.000
REMARK SMILES CC(C)[NH2+][C@]1(C(=O)OCCOC(=O)c2ccc(-c3c4nc(c(-c5c(F)cc(S(=O)(=O)[O-])cc5F)c5ccc([nH]5)c(-c5c(F)cc(S(=O)(=O)[O-])cc5F)c5nc(c(-c6c(F)cc(S(=O)(=O)[O-])cc6F)c6ccc3[nH]6)C=C5)C=C4)cc2)CCC[C@@H](Sc2nnnn2C)C1
REMARK SMILES IDX 10 1 9 2 8 3 6 4 7 5 5 6 80 7 91 8 81 9 83 10 82 11 4 12
REMARK SMILES IDX 2 15 1 16 3 17 84 18 85 19 86 20 89 21 87 22 88 23 90 24
REMARK SMILES IDX 11 25 12 26 13 27 14 28 15 29 79 30 16 31 78 32 17 33 18 34
REMARK SMILES IDX 19 35 72 36 20 37 77 38 71 39 73 40 21 41 76 42 70 43 69 44
REMARK SMILES IDX 22 46 56 47 35 48 55 49 36 50 39 51 54 52 74 53 37 54 38 55
REMARK SMILES IDX 53 57 75 58 40 59 23 60 24 61 33 62 25 63 26 64 32 65 34 66
REMARK SMILES IDX 27 67 28 68 29 69 30 70 31 71 57 72 58 73 67 74 59 75 60 76
REMARK SMILES IDX 66 77 68 78 61 79 62 80 63 81 64 82 65 83 41 84 42 85 51 86
REMARK SMILES IDX 43 87 44 88 50 89 52 90 45 91 46 92 47 93 48 94 49 95
REMARK H PARENT 4 13 4 14 73 45 39 56
REMARK Flexibility Score: inf
ROOT
ATOM      1  C   UNL A   1      32.566  29.939  26.989  1.00  0.00     0.275 C 
ENDROOT
BRANCH   1   2
ATOM      2  C   UNL A   1      32.723  29.809  25.474  1.00  0.00     0.274 C 
BRANCH   2   3
ATOM      3  O   UNL A   1      33.132  28.484  25.078  1.00  0.00    -0.457 OA
BRANCH   3   4
ATOM      4  C   UNL A   1      33.057  28.219  23.736  1.00  0.00     0.368 C 
ATOM      5  O   UNL A   1      33.326  29.053  22.878  1.00  0.00    -0.245 OA
BRANCH   4   6
ATOM      6  C   UNL A   1      32.553  26.756  23.456  1.00  0.00     0.195 C 
ATOM      7  C   UNL A   1      33.451  26.098  22.372  1.00  0.00     0.081 C 
ATOM      8  C   UNL A   1      32.703  25.933  24.747  1.00  0.00     0.096 C 
ATOM      9  C   UNL A   1      33.183  24.603  22.164  1.00  0.00     0.008 C 
ATOM     10  C   UNL A   1      32.397  24.445  24.560  1.00  0.00     0.061 C 
ATOM     11  C   UNL A   1      33.275  23.818  23.472  1.00  0.00     0.015 C 
BRANCH   6  12
ATOM     12  N   UNL A   1      31.163  26.776  22.930  1.00  0.00    -0.330 N 
ATOM     13  H   UNL A   1      31.191  27.266  22.035  1.00  0.00     0.347 HD
ATOM     14  H   UNL A   1      30.900  25.790  22.909  1.00  0.00     0.347 HD
BRANCH  12  15
ATOM     15  C   UNL A   1      30.100  27.398  23.724  1.00  0.00     0.176 C 
ATOM     16  C   UNL A   1      29.528  28.545  22.882  1.00  0.00     0.075 C 
ATOM     17  C   UNL A   1      28.968  26.427  24.066  1.00  0.00     0.075 C 
ENDBRANCH  12  15
ENDBRANCH   6  12
BRANCH  10  18
ATOM     18  S   UNL A   1      32.485  23.575  26.171  1.00  0.00    -0.081 SA
BRANCH  18  19
ATOM     19  C   UNL A   1      32.630  21.917  25.720  1.00  0.00     0.209 A 
ATOM     20  N   UNL A   1      31.639  21.136  25.353  1.00  0.00    -0.102 NA
ATOM     21  N   UNL A   1      33.778  21.178  25.741  1.00  0.00    -0.224 N 
ATOM     22  N   UNL A   1      32.197  19.902  25.123  1.00  0.00    -0.023 NA
ATOM     23  N   UNL A   1      33.503  19.918  25.354  1.00  0.00    -0.045 NA
ATOM     24  C   UNL A   1      35.131  21.531  26.062  1.00  0.00     0.179 C 
ENDBRANCH  18  19
ENDBRANCH  10  18
ENDBRANCH   4   6
ENDBRANCH   3   4
ENDBRANCH   2   3
ENDBRANCH   1   2
BRANCH   1  25
ATOM     25  O   UNL A   1      33.736  29.469  27.678  1.00  0.00    -0.458 OA
BRANCH  25  26
ATOM     26  C   UNL A   1      34.564  30.445  28.116  1.00  0.00     0.338 C 
ATOM     27  O   UNL A   1      34.269  31.591  28.408  1.00  0.00    -0.246 OA
BRANCH  26  28
ATOM     28  C   UNL A   1      35.919  29.907  28.274  1.00  0.00     0.060 A 
ATOM     29  C   UNL A   1      36.321  29.457  29.532  1.00  0.00     0.016 A 
ATOM     30  C   UNL A   1      36.827  29.975  27.220  1.00  0.00     0.016 A 
ATOM     31  C   UNL A   1      37.650  29.142  29.771  1.00  0.00     0.010 A 
ATOM     32  C   UNL A   1      38.151  29.587  27.442  1.00  0.00     0.010 A 
ATOM     33  C   UNL A   1      38.574  29.193  28.724  1.00  0.00    -0.014 A 
BRANCH  33  34
ATOM     34  C   UNL A   1      39.992  28.850  28.973  1.00  0.00     0.031 A 
ATOM     35  C   UNL A   1      40.935  29.907  29.463  1.00  0.00     0.074 A 
ATOM     36  C   UNL A   1      40.425  27.598  28.737  1.00  0.00     0.049 A 
ATOM     37  N   UNL A   1      42.239  29.883  29.529  1.00  0.00    -0.248 NA
ATOM     38  C   UNL A   1      40.328  31.165  29.929  1.00  0.00     0.031 C 
ATOM     39  C   UNL A   1      39.582  26.477  28.313  1.00  0.00     0.029 A 
ATOM     40  N   UNL A   1      41.686  27.063  28.797  1.00  0.00    -0.354 N 
ATOM     41  C   UNL A   1      42.615  31.139  29.988  1.00  0.00     0.074 A 
ATOM     42  C   UNL A   1      41.401  31.897  30.197  1.00  0.00     0.031 C 
ATOM     43  C   UNL A   1      40.350  25.392  28.138  1.00  0.00     0.029 A 
ATOM     44  C   UNL A   1      41.743  25.760  28.363  1.00  0.00     0.049 A 
ATOM     45  H   UNL A   1      42.471  27.562  29.118  1.00  0.00     0.167 HD
ATOM     46  C   UNL A   1      43.867  31.611  30.198  1.00  0.00     0.037 A 
ATOM     47  C   UNL A   1      42.804  24.970  28.114  1.00  0.00     0.037 A 
ATOM     48  C   UNL A   1      45.059  30.824  30.020  1.00  0.00     0.049 A 
ATOM     49  C   UNL A   1      44.183  25.519  28.331  1.00  0.00     0.074 A 
ATOM     50  C   UNL A   1      46.375  31.191  30.229  1.00  0.00     0.029 A 
ATOM     51  N   UNL A   1      45.074  29.503  29.590  1.00  0.00    -0.354 N 
ATOM     52  N   UNL A   1      44.535  26.717  28.734  1.00  0.00    -0.248 NA
ATOM     53  C   UNL A   1      45.310  24.622  28.049  1.00  0.00     0.031 C 
ATOM     54  C   UNL A   1      47.189  30.103  29.896  1.00  0.00     0.029 A 
ATOM     55  C   UNL A   1      46.377  29.045  29.512  1.00  0.00     0.049 A 
ATOM     56  H   UNL A   1      44.274  28.971  29.372  1.00  0.00     0.167 HD
ATOM     57  C   UNL A   1      45.923  26.717  28.762  1.00  0.00     0.074 A 
ATOM     58  C   UNL A   1      46.346  25.394  28.346  1.00  0.00     0.031 C 
ATOM     59  C   UNL A   1      46.770  27.720  29.100  1.00  0.00     0.037 A 
BRANCH  46  60
ATOM     60  C   UNL A   1      44.005  33.054  30.592  1.00  0.00     0.058 A 
ATOM     61  C   UNL A   1      44.135  34.078  29.642  1.00  0.00     0.135 A 
ATOM     62  C   UNL A   1      44.009  33.413  31.950  1.00  0.00     0.135 A 
ATOM     63  F   UNL A   1      44.158  33.787  28.332  1.00  0.00    -0.206 F 
ATOM     64  C   UNL A   1      44.295  35.407  30.025  1.00  0.00     0.059 A 
ATOM     65  C   UNL A   1      44.146  34.737  32.355  1.00  0.00     0.059 A 
ATOM     66  F   UNL A   1      43.891  32.471  32.899  1.00  0.00    -0.206 F 
ATOM     67  C   UNL A   1      44.307  35.726  31.386  1.00  0.00     0.060 A 
BRANCH  67  68
ATOM     68  S   UNL A   1      44.538  37.448  31.874  1.00  0.00     0.124 S 
ATOM     69  O   UNL A   1      45.990  37.581  31.791  1.00  0.00    -0.237 OA
ATOM     70  O   UNL A   1      43.777  38.170  30.858  1.00  0.00    -0.237 OA
ATOM     71  O   UNL A   1      43.979  37.496  33.221  1.00  0.00    -0.744 OA
ENDBRANCH  67  68
ENDBRANCH  46  60
BRANCH  47  72
ATOM     72  C   UNL A   1      42.580  23.603  27.578  1.00  0.00     0.058 A 
ATOM     73  C   UNL A   1      42.626  23.349  26.201  1.00  0.00     0.135 A 
ATOM     74  C   UNL A   1      42.391  22.512  28.441  1.00  0.00     0.135 A 
ATOM     75  F   UNL A   1      42.800  24.361  25.337  1.00  0.00    -0.206 F 
ATOM     76  C   UNL A   1      42.502  22.059  25.696  1.00  0.00     0.059 A 
ATOM     77  C   UNL A   1      42.286  21.210  27.962  1.00  0.00     0.059 A 
ATOM     78  F   UNL A   1      42.355  22.703  29.769  1.00  0.00    -0.206 F 
ATOM     79  C   UNL A   1      42.341  20.994  26.586  1.00  0.00     0.060 A 
BRANCH  79  80
ATOM     80  S   UNL A   1      42.275  19.312  25.930  1.00  0.00     0.124 S 
ATOM     81  O   UNL A   1      42.831  18.543  27.036  1.00  0.00    -0.237 OA
ATOM     82  O   UNL A   1      40.848  19.133  25.681  1.00  0.00    -0.237 OA
ATOM     83  O   UNL A   1      43.105  19.389  24.730  1.00  0.00    -0.744 OA
ENDBRANCH  79  80
ENDBRANCH  47  72
BRANCH  59  84
ATOM     84  C   UNL A   1      48.239  27.421  29.057  1.00  0.00     0.058 A 
ATOM     85  C   UNL A   1      48.980  27.562  27.875  1.00  0.00     0.135 A 
ATOM     86  C   UNL A   1      48.923  27.065  30.230  1.00  0.00     0.135 A 
ATOM     87  F   UNL A   1      48.366  27.891  26.728  1.00  0.00    -0.206 F 
ATOM     88  C   UNL A   1      50.355  27.356  27.856  1.00  0.00     0.059 A 
ATOM     89  C   UNL A   1      50.300  26.873  30.237  1.00  0.00     0.059 A 
ATOM     90  F   UNL A   1      48.255  26.925  31.387  1.00  0.00    -0.206 F 
ATOM     91  C   UNL A   1      51.007  27.017  29.044  1.00  0.00     0.060 A 
BRANCH  91  92
ATOM     92  S   UNL A   1      52.800  26.812  29.022  1.00  0.00     0.124 S 
ATOM     93  O   UNL A   1      53.024  26.047  30.245  1.00  0.00    -0.237 OA
ATOM     94  O   UNL A   1      53.020  26.088  27.773  1.00  0.00    -0.237 OA
ATOM     95  O   UNL A   1      53.297  28.185  29.038  1.00  0.00    -0.744 OA
ENDBRANCH  91  92
ENDBRANCH  59  84
ENDBRANCH  33  34
ENDBRANCH  26  28
ENDBRANCH  25  26
ENDBRANCH   1  25
TORSDOF 18
ENDMDL
MODEL 2
REMARK VINA RESULT:     -10.8      2.062      2.883
REMARK SMILES CC(C)[NH2+][C@]1(C(=O)OCCOC(=O)c2ccc(-c3c4nc(c(-c5c(F)cc(S(=O)(=O)[O-])cc5F)c5ccc([nH]5)c(-c5c(F)cc(S(=O)(=O)[O-])cc5F)c5nc(c(-c6c(F)cc(S(=O)(=O)[O-])cc6F)c6ccc3[nH]6)C=C5)C=C4)cc2)CCC[C@@H](Sc2nnnn2C)C1
REMARK SMILES IDX 10 1 9 2 8 3 6 4 7 5 5 6 80 7 91 8 81 9 83 10 82 11 4 12
REMARK SMILES IDX 2 15 1 16 3 17 84 18 85 19 86 20 89 21 87 22 88 23 90 24
REMARK SMILES IDX 11 25 12 26 13 27 14 28 15 29 79 30 16 31 78 32 17 33 18 34
REMARK SMILES IDX 19 35 72 36 20 37 77 38 71 39 73 40 21 41 76 42 70 43 69 44
REMARK SMILES IDX 22 46 56 47 35 48 55 49 36 50 39 51 54 52 74 53 37 54 38 55
REMARK SMILES IDX 53 57 75 58 40 59 23 60 24 61 33 62 25 63 26 64 32 65 34 66
REMARK SMILES IDX 27 67 28 68 29 69 30 70 31 71 57 72 58 73 67 74 59 75 60 76
REMARK SMILES IDX 66 77 68 78 61 79 62 80 63 81 64 82 65 83 41 84 42 85 51 86
REMARK SMILES IDX 43 87 44 88 50 89 52 90 45 91 46 92 47 93 48 94 49 95
REMARK H PARENT 4 13 4 14 73 45 39 56
REMARK Flexibility Score: inf
ROOT
ATOM      1  C   UNL A   1      34.190  31.369  27.774  1.00  0.00     0.275 C 
ENDROOT
BRANCH   1   2
ATOM      2  C   UNL A   1      33.003  30.594  27.201  1.00  0.00     0.274 C 
BRANCH   2   3
ATOM      3  O   UNL A   1      33.271  30.075  25.884  1.00  0.00    -0.457 OA
BRANCH   3   4
ATOM      4  C   UNL A   1      33.284  28.710  25.778  1.00  0.00     0.368 C 
ATOM      5  O   UNL A   1      33.688  27.978  26.675  1.00  0.00    -0.245 OA
BRANCH   4   6
ATOM      6  C   UNL A   1      32.765  28.226  24.374  1.00  0.00     0.195 C 
ATOM      7  C   UNL A   1      33.978  27.900  23.459  1.00  0.00     0.081 C 
ATOM      8  C   UNL A   1      31.968  26.926  24.570  1.00  0.00     0.096 C 
ATOM      9  C   UNL A   1      33.598  27.226  22.136  1.00  0.00     0.008 C 
ATOM     10  C   UNL A   1      31.546  26.265  23.255  1.00  0.00     0.061 C 
ATOM     11  C   UNL A   1      32.752  25.972  22.356  1.00  0.00     0.015 C 
BRANCH   6  12
ATOM     12  N   UNL A   1      31.983  29.301  23.709  1.00  0.00    -0.330 N 
ATOM     13  H   UNL A   1      32.332  30.189  24.071  1.00  0.00     0.347 HD
ATOM     14  H   UNL A   1      32.125  29.120  22.714  1.00  0.00     0.347 HD
BRANCH  12  15
ATOM     15  C   UNL A   1      30.525  29.325  23.850  1.00  0.00     0.176 C 
ATOM     16  C   UNL A   1      30.156  30.691  24.440  1.00  0.00     0.075 C 
ATOM     17  C   UNL A   1      29.796  29.151  22.516  1.00  0.00     0.075 C 
ENDBRANCH  12  15
ENDBRANCH   6  12
BRANCH  10  18
ATOM     18  S   UNL A   1      30.503  24.796  23.593  1.00  0.00    -0.081 SA
BRANCH  18  19
ATOM     19  C   UNL A   1      31.025  24.288  25.156  1.00  0.00     0.209 A 
ATOM     20  N   UNL A   1      30.426  24.570  26.290  1.00  0.00    -0.102 NA
ATOM     21  N   UNL A   1      32.160  23.581  25.430  1.00  0.00    -0.224 N 
ATOM     22  N   UNL A   1      31.197  24.004  27.275  1.00  0.00    -0.023 NA
ATOM     23  N   UNL A   1      32.256  23.394  26.760  1.00  0.00    -0.045 NA
ATOM     24  C   UNL A   1      33.167  23.025  24.571  1.00  0.00     0.179 C 
ENDBRANCH  18  19
ENDBRANCH  10  18
ENDBRANCH   4   6
ENDBRANCH   3   4
ENDBRANCH   2   3
ENDBRANCH   1   2
BRANCH   1  25
ATOM     25  O   UNL A   1      35.356  30.537  27.878  1.00  0.00    -0.458 OA
BRANCH  25  26
ATOM     26  C   UNL A   1      36.046  30.673  29.034  1.00  0.00     0.338 C 
ATOM     27  O   UNL A   1      35.655  31.171  30.075  1.00  0.00    -0.246 OA
BRANCH  26  28
ATOM     28  C   UNL A   1      37.365  30.048  28.896  1.00  0.00     0.060 A 
ATOM     29  C   UNL A   1      38.120  29.810  30.045  1.00  0.00     0.016 A 
ATOM     30  C   UNL A   1      37.908  29.828  27.632  1.00  0.00     0.016 A 
ATOM     31  C   UNL A   1      39.447  29.422  29.943  1.00  0.00     0.010 A 
ATOM     32  C   UNL A   1      39.222  29.366  27.531  1.00  0.00     0.010 A 
ATOM     33  C   UNL A   1      40.006  29.185  28.684  1.00  0.00    -0.014 A 
BRANCH  33  34
ATOM     34  C   UNL A   1      41.420  28.762  28.572  1.00  0.00     0.031 A 
ATOM     35  C   UNL A   1      42.510  29.786  28.678  1.00  0.00     0.074 A 
ATOM     36  C   UNL A   1      41.712  27.467  28.354  1.00  0.00     0.049 A 
ATOM     37  N   UNL A   1      43.778  29.673  28.389  1.00  0.00    -0.248 NA
ATOM     38  C   UNL A   1      42.115  31.119  29.162  1.00  0.00     0.031 C 
ATOM     39  C   UNL A   1      40.733  26.378  28.291  1.00  0.00     0.029 A 
ATOM     40  N   UNL A   1      42.914  26.849  28.123  1.00  0.00    -0.354 N 
ATOM     41  C   UNL A   1      44.324  30.933  28.599  1.00  0.00     0.074 A 
ATOM     42  C   UNL A   1      43.252  31.792  29.052  1.00  0.00     0.031 C 
ATOM     43  C   UNL A   1      41.372  25.229  28.025  1.00  0.00     0.029 A 
ATOM     44  C   UNL A   1      42.788  25.514  27.824  1.00  0.00     0.049 A 
ATOM     45  H   UNL A   1      43.779  27.315  28.166  1.00  0.00     0.167 HD
ATOM     46  C   UNL A   1      45.605  31.330  28.412  1.00  0.00     0.037 A 
ATOM     47  C   UNL A   1      43.701  24.631  27.377  1.00  0.00     0.037 A 
ATOM     48  C   UNL A   1      46.663  30.447  27.996  1.00  0.00     0.049 A 
ATOM     49  C   UNL A   1      45.109  25.096  27.153  1.00  0.00     0.074 A 
ATOM     50  C   UNL A   1      48.001  30.734  27.802  1.00  0.00     0.029 A 
ATOM     51  N   UNL A   1      46.498  29.097  27.714  1.00  0.00    -0.354 N 
ATOM     52  N   UNL A   1      45.614  26.295  27.322  1.00  0.00    -0.248 NA
ATOM     53  C   UNL A   1      46.071  24.098  26.668  1.00  0.00     0.031 C 
ATOM     54  C   UNL A   1      48.640  29.566  27.371  1.00  0.00     0.029 A 
ATOM     55  C   UNL A   1      47.706  28.541  27.331  1.00  0.00     0.049 A 
ATOM     56  H   UNL A   1      45.645  28.608  27.776  1.00  0.00     0.167 HD
ATOM     57  C   UNL A   1      46.954  26.197  26.972  1.00  0.00     0.074 A 
ATOM     58  C   UNL A   1      47.184  24.816  26.592  1.00  0.00     0.031 C 
ATOM     59  C   UNL A   1      47.907  27.161  26.964  1.00  0.00     0.037 A 
BRANCH  46  60
ATOM     60  C   UNL A   1      45.914  32.787  28.605  1.00  0.00     0.058 A 
ATOM     61  C   UNL A   1      46.244  33.321  29.860  1.00  0.00     0.135 A 
ATOM     62  C   UNL A   1      45.876  33.664  27.508  1.00  0.00     0.135 A 
ATOM     63  F   UNL A   1      46.276  32.531  30.944  1.00  0.00    -0.206 F 
ATOM     64  C   UNL A   1      46.496  34.680  30.027  1.00  0.00     0.059 A 
ATOM     65  C   UNL A   1      46.145  35.022  27.648  1.00  0.00     0.059 A 
ATOM     66  F   UNL A   1      45.562  33.204  26.286  1.00  0.00    -0.206 F 
ATOM     67  C   UNL A   1      46.436  35.524  28.915  1.00  0.00     0.060 A 
BRANCH  67  68
ATOM     68  S   UNL A   1      46.741  37.289  29.145  1.00  0.00     0.124 S 
ATOM     69  O   UNL A   1      46.804  37.385  30.601  1.00  0.00    -0.237 OA
ATOM     70  O   UNL A   1      48.006  37.485  28.442  1.00  0.00    -0.237 OA
ATOM     71  O   UNL A   1      45.580  37.917  28.524  1.00  0.00    -0.744 OA
ENDBRANCH  67  68
ENDBRANCH  46  60
BRANCH  47  72
ATOM     72  C   UNL A   1      43.274  23.243  27.062  1.00  0.00     0.058 A 
ATOM     73  C   UNL A   1      43.171  22.800  25.738  1.00  0.00     0.135 A 
ATOM     74  C   UNL A   1      43.035  22.313  28.086  1.00  0.00     0.135 A 
ATOM     75  F   UNL A   1      43.386  23.655  24.725  1.00  0.00    -0.206 F 
ATOM     76  C   UNL A   1      42.854  21.480  25.436  1.00  0.00     0.059 A 
ATOM     77  C   UNL A   1      42.738  20.982  27.811  1.00  0.00     0.059 A 
ATOM     78  F   UNL A   1      43.136  22.687  29.372  1.00  0.00    -0.206 F 
ATOM     79  C   UNL A   1      42.649  20.575  26.481  1.00  0.00     0.060 A 
BRANCH  79  80
ATOM     80  S   UNL A   1      42.331  18.842  26.083  1.00  0.00     0.124 S 
ATOM     81  O   UNL A   1      40.920  18.880  25.715  1.00  0.00    -0.237 OA
ATOM     82  O   UNL A   1      43.269  18.598  24.993  1.00  0.00    -0.237 OA
ATOM     83  O   UNL A   1      42.642  18.151  27.331  1.00  0.00    -0.744 OA
ENDBRANCH  79  80
ENDBRANCH  47  72
BRANCH  59  84
ATOM     84  C   UNL A   1      49.291  26.754  26.554  1.00  0.00     0.058 A 
ATOM     85  C   UNL A   1      50.211  26.253  27.485  1.00  0.00     0.135 A 
ATOM     86  C   UNL A   1      49.670  26.793  25.203  1.00  0.00     0.135 A 
ATOM     87  F   UNL A   1      49.896  26.205  28.789  1.00  0.00    -0.206 F 
ATOM     88  C   UNL A   1      51.468  25.806  27.090  1.00  0.00     0.059 A 
ATOM     89  C   UNL A   1      50.913  26.335  24.784  1.00  0.00     0.059 A 
ATOM     90  F   UNL A   1      48.818  27.260  24.275  1.00  0.00    -0.206 F 
ATOM     91  C   UNL A   1      51.808  25.847  25.736  1.00  0.00     0.060 A 
BRANCH  91  92
ATOM     92  S   UNL A   1      53.416  25.208  25.225  1.00  0.00     0.124 S 
ATOM     93  O   UNL A   1      54.302  25.815  26.214  1.00  0.00    -0.237 OA
ATOM     94  O   UNL A   1      53.233  23.764  25.340  1.00  0.00    -0.237 OA
ATOM     95  O   UNL A   1      53.561  25.707  23.860  1.00  0.00    -0.744 OA
ENDBRANCH  91  92
ENDBRANCH  59  84
ENDBRANCH  33  34
ENDBRANCH  26  28
ENDBRANCH  25  26
ENDBRANCH   1  25
TORSDOF 18
ENDMDL
MODEL 3
REMARK VINA RESULT:     -10.8      5.330     10.910
REMARK SMILES CC(C)[NH2+][C@]1(C(=O)OCCOC(=O)c2ccc(-c3c4nc(c(-c5c(F)cc(S(=O)(=O)[O-])cc5F)c5ccc([nH]5)c(-c5c(F)cc(S(=O)(=O)[O-])cc5F)c5nc(c(-c6c(F)cc(S(=O)(=O)[O-])cc6F)c6ccc3[nH]6)C=C5)C=C4)cc2)CCC[C@@H](Sc2nnnn2C)C1
REMARK SMILES IDX 10 1 9 2 8 3 6 4 7 5 5 6 80 7 91 8 81 9 83 10 82 11 4 12
REMARK SMILES IDX 2 15 1 16 3 17 84 18 85 19 86 20 89 21 87 22 88 23 90 24
REMARK SMILES IDX 11 25 12 26 13 27 14 28 15 29 79 30 16 31 78 32 17 33 18 34
REMARK SMILES IDX 19 35 72 36 20 37 77 38 71 39 73 40 21 41 76 42 70 43 69 44
REMARK SMILES IDX 22 46 56 47 35 48 55 49 36 50 39 51 54 52 74 53 37 54 38 55
REMARK SMILES IDX 53 57 75 58 40 59 23 60 24 61 33 62 25 63 26 64 32 65 34 66
REMARK SMILES IDX 27 67 28 68 29 69 30 70 31 71 57 72 58 73 67 74 59 75 60 76
REMARK SMILES IDX 66 77 68 78 61 79 62 80 63 81 64 82 65 83 41 84 42 85 51 86
REMARK SMILES IDX 43 87 44 88 50 89 52 90 45 91 46 92 47 93 48 94 49 95
REMARK H PARENT 4 13 4 14 73 45 39 56
REMARK Flexibility Score: inf
ROOT
ATOM      1  C   UNL A   1      39.327  22.324  26.599  1.00  0.00     0.275 C 
ENDROOT
BRANCH   1   2
ATOM      2  C   UNL A   1      38.414  21.740  25.522  1.00  0.00     0.274 C 
BRANCH   2   3
ATOM      3  O   UNL A   1      37.065  21.545  25.993  1.00  0.00    -0.457 OA
BRANCH   3   4
ATOM      4  C   UNL A   1      36.077  21.808  25.083  1.00  0.00     0.368 C 
ATOM      5  O   UNL A   1      36.311  22.143  23.926  1.00  0.00    -0.245 OA
BRANCH   4   6
ATOM      6  C   UNL A   1      34.645  21.670  25.717  1.00  0.00     0.195 C 
ATOM      7  C   UNL A   1      34.673  22.199  27.178  1.00  0.00     0.081 C 
ATOM      8  C   UNL A   1      33.671  22.556  24.921  1.00  0.00     0.096 C 
ATOM      9  C   UNL A   1      33.289  22.304  27.830  1.00  0.00     0.008 C 
ATOM     10  C   UNL A   1      32.273  22.635  25.541  1.00  0.00     0.061 C 
ATOM     11  C   UNL A   1      32.322  23.135  26.988  1.00  0.00     0.015 C 
BRANCH   6  12
ATOM     12  N   UNL A   1      34.233  20.243  25.769  1.00  0.00    -0.330 N 
ATOM     13  H   UNL A   1      34.961  19.742  26.279  1.00  0.00     0.347 HD
ATOM     14  H   UNL A   1      33.307  20.275  26.197  1.00  0.00     0.347 HD
BRANCH  12  15
ATOM     15  C   UNL A   1      34.008  19.512  24.519  1.00  0.00     0.176 C 
ATOM     16  C   UNL A   1      34.874  18.248  24.580  1.00  0.00     0.075 C 
ATOM     17  C   UNL A   1      32.547  19.099  24.326  1.00  0.00     0.075 C 
ENDBRANCH  12  15
ENDBRANCH   6  12
BRANCH  10  18
ATOM     18  S   UNL A   1      31.158  23.610  24.460  1.00  0.00    -0.081 SA
BRANCH  18  19
ATOM     19  C   UNL A   1      32.127  23.920  23.067  1.00  0.00     0.209 A 
ATOM     20  N   UNL A   1      32.653  23.005  22.285  1.00  0.00    -0.102 NA
ATOM     21  N   UNL A   1      32.526  25.148  22.626  1.00  0.00    -0.224 N 
ATOM     22  N   UNL A   1      33.369  23.690  21.334  1.00  0.00    -0.023 NA
ATOM     23  N   UNL A   1      33.295  25.000  21.531  1.00  0.00    -0.045 NA
ATOM     24  C   UNL A   1      32.241  26.471  23.106  1.00  0.00     0.179 C 
ENDBRANCH  18  19
ENDBRANCH  10  18
ENDBRANCH   4   6
ENDBRANCH   3   4
ENDBRANCH   2   3
ENDBRANCH   1   2
BRANCH   1  25
ATOM     25  O   UNL A   1      39.327  23.760  26.562  1.00  0.00    -0.458 OA
BRANCH  25  26
ATOM     26  C   UNL A   1      40.539  24.330  26.755  1.00  0.00     0.338 C 
ATOM     27  O   UNL A   1      41.601  24.000  26.258  1.00  0.00    -0.246 OA
BRANCH  26  28
ATOM     28  C   UNL A   1      40.397  25.503  27.624  1.00  0.00     0.060 A 
ATOM     29  C   UNL A   1      41.328  26.536  27.515  1.00  0.00     0.016 A 
ATOM     30  C   UNL A   1      39.435  25.517  28.631  1.00  0.00     0.016 A 
ATOM     31  C   UNL A   1      41.356  27.556  28.455  1.00  0.00     0.010 A 
ATOM     32  C   UNL A   1      39.417  26.583  29.534  1.00  0.00     0.010 A 
ATOM     33  C   UNL A   1      40.393  27.594  29.466  1.00  0.00    -0.014 A 
BRANCH  33  34
ATOM     34  C   UNL A   1      40.414  28.685  30.466  1.00  0.00     0.031 A 
ATOM     35  C   UNL A   1      41.359  28.607  31.627  1.00  0.00     0.074 A 
ATOM     36  C   UNL A   1      39.570  29.724  30.335  1.00  0.00     0.049 A 
ATOM     37  N   UNL A   1      41.386  29.323  32.718  1.00  0.00    -0.248 NA
ATOM     38  C   UNL A   1      42.406  27.575  31.554  1.00  0.00     0.031 C 
ATOM     39  C   UNL A   1      38.649  29.930  29.214  1.00  0.00     0.029 A 
ATOM     40  N   UNL A   1      39.334  30.792  31.161  1.00  0.00    -0.354 N 
ATOM     41  C   UNL A   1      42.412  28.794  33.490  1.00  0.00     0.074 A 
ATOM     42  C   UNL A   1      42.993  27.705  32.736  1.00  0.00     0.031 C 
ATOM     43  C   UNL A   1      37.938  31.046  29.430  1.00  0.00     0.029 A 
ATOM     44  C   UNL A   1      38.299  31.590  30.734  1.00  0.00     0.049 A 
ATOM     45  H   UNL A   1      39.852  30.970  31.978  1.00  0.00     0.167 HD
ATOM     46  C   UNL A   1      42.816  29.182  34.723  1.00  0.00     0.037 A 
ATOM     47  C   UNL A   1      37.669  32.606  31.352  1.00  0.00     0.037 A 
ATOM     48  C   UNL A   1      42.247  30.295  35.437  1.00  0.00     0.049 A 
ATOM     49  C   UNL A   1      38.116  33.006  32.727  1.00  0.00     0.074 A 
ATOM     50  C   UNL A   1      42.595  30.793  36.679  1.00  0.00     0.029 A 
ATOM     51  N   UNL A   1      41.207  31.085  34.965  1.00  0.00    -0.354 N 
ATOM     52  N   UNL A   1      39.065  32.482  33.466  1.00  0.00    -0.248 NA
ATOM     53  C   UNL A   1      37.402  34.121  33.362  1.00  0.00     0.031 C 
ATOM     54  C   UNL A   1      41.745  31.865  36.972  1.00  0.00     0.029 A 
ATOM     55  C   UNL A   1      40.890  32.058  35.897  1.00  0.00     0.049 A 
ATOM     56  H   UNL A   1      40.761  30.970  34.095  1.00  0.00     0.167 HD
ATOM     57  C   UNL A   1      39.070  33.207  34.650  1.00  0.00     0.074 A 
ATOM     58  C   UNL A   1      38.035  34.216  34.523  1.00  0.00     0.031 C 
ATOM     59  C   UNL A   1      39.858  33.053  35.742  1.00  0.00     0.037 A 
BRANCH  46  60
ATOM     60  C   UNL A   1      43.884  28.365  35.391  1.00  0.00     0.058 A 
ATOM     61  C   UNL A   1      45.249  28.647  35.234  1.00  0.00     0.135 A 
ATOM     62  C   UNL A   1      43.529  27.275  36.203  1.00  0.00     0.135 A 
ATOM     63  F   UNL A   1      45.644  29.665  34.453  1.00  0.00    -0.206 F 
ATOM     64  C   UNL A   1      46.228  27.859  35.835  1.00  0.00     0.059 A 
ATOM     65  C   UNL A   1      44.489  26.487  36.831  1.00  0.00     0.059 A 
ATOM     66  F   UNL A   1      42.236  26.960  36.384  1.00  0.00    -0.206 F 
ATOM     67  C   UNL A   1      45.837  26.776  36.625  1.00  0.00     0.060 A 
BRANCH  67  68
ATOM     68  S   UNL A   1      47.112  25.745  37.382  1.00  0.00     0.124 S 
ATOM     69  O   UNL A   1      46.304  24.743  38.070  1.00  0.00    -0.237 OA
ATOM     70  O   UNL A   1      47.861  25.267  36.223  1.00  0.00    -0.237 OA
ATOM     71  O   UNL A   1      47.830  26.676  38.247  1.00  0.00    -0.744 OA
ENDBRANCH  67  68
ENDBRANCH  46  60
BRANCH  47  72
ATOM     72  C   UNL A   1      36.518  33.261  30.680  1.00  0.00     0.058 A 
ATOM     73  C   UNL A   1      35.204  33.035  31.111  1.00  0.00     0.135 A 
ATOM     74  C   UNL A   1      36.718  34.186  29.643  1.00  0.00     0.135 A 
ATOM     75  F   UNL A   1      34.963  32.156  32.097  1.00  0.00    -0.206 F 
ATOM     76  C   UNL A   1      34.128  33.708  30.543  1.00  0.00     0.059 A 
ATOM     77  C   UNL A   1      35.661  34.888  29.075  1.00  0.00     0.059 A 
ATOM     78  F   UNL A   1      37.961  34.448  29.206  1.00  0.00    -0.206 F 
ATOM     79  C   UNL A   1      34.367  34.641  29.531  1.00  0.00     0.060 A 
BRANCH  79  80
ATOM     80  S   UNL A   1      32.976  35.580  28.864  1.00  0.00     0.124 S 
ATOM     81  O   UNL A   1      32.336  34.588  28.008  1.00  0.00    -0.237 OA
ATOM     82  O   UNL A   1      32.244  35.949  30.071  1.00  0.00    -0.237 OA
ATOM     83  O   UNL A   1      33.624  36.690  28.172  1.00  0.00    -0.744 OA
ENDBRANCH  79  80
ENDBRANCH  47  72
BRANCH  59  84
ATOM     84  C   UNL A   1      39.650  34.009  36.878  1.00  0.00     0.058 A 
ATOM     85  C   UNL A   1      38.835  33.680  37.971  1.00  0.00     0.135 A 
ATOM     86  C   UNL A   1      40.335  35.234  36.909  1.00  0.00     0.135 A 
ATOM     87  F   UNL A   1      38.153  32.524  37.981  1.00  0.00    -0.206 F 
ATOM     88  C   UNL A   1      38.702  34.537  39.058  1.00  0.00     0.059 A 
ATOM     89  C   UNL A   1      40.232  36.097  37.993  1.00  0.00     0.059 A 
ATOM     90  F   UNL A   1      41.132  35.588  35.887  1.00  0.00    -0.206 F 
ATOM     91  C   UNL A   1      39.410  35.742  39.062  1.00  0.00     0.060 A 
BRANCH  91  92
ATOM     92  S   UNL A   1      39.281  36.819  40.504  1.00  0.00     0.124 S 
ATOM     93  O   UNL A   1      40.683  36.987  40.872  1.00  0.00    -0.237 OA
ATOM     94  O   UNL A   1      38.624  38.002  39.956  1.00  0.00    -0.237 OA
ATOM     95  O   UNL A   1      38.474  36.039  41.438  1.00  0.00    -0.744 OA
ENDBRANCH  91  92
ENDBRANCH  59  84
ENDBRANCH  33  34
ENDBRANCH  26  28
ENDBRANCH  25  26
ENDBRANCH   1  25
TORSDOF 18
ENDMDL
