MODEL 1
REMARK VINA RESULT:     -10.6      0.000      0.000
REMARK SMILES O=C(OCCOC(=O)c1cccc(CS(=O)(=O)NCc2ccccc2)c1)c1ccc(-c2c3nc(c(-c4c(F)cc(S(=O)(=O)[O-])cc4F)c4ccc([nH]4)c(-c4c(F)cc(S(=O)(=O)[O-])cc4F)c4nc(c(-c5c(F)cc(S(=O)(=O)[O-])cc5F)c5ccc2[nH]5)C=C4)C=C3)cc1
REMARK SMILES IDX 5 1 4 2 3 3 2 4 1 5 27 6 28 7 92 8 29 9 91 10 30 11 31 12
REMARK SMILES IDX 32 13 85 14 33 15 90 16 84 17 86 18 34 19 89 20 83 21 82 22
REMARK SMILES IDX 35 24 69 25 48 26 68 27 49 28 52 29 67 30 87 31 50 32 51 33
REMARK SMILES IDX 66 35 88 36 53 37 36 38 37 39 46 40 38 41 39 42 45 43 47 44
REMARK SMILES IDX 40 45 41 46 42 47 43 48 44 49 70 50 71 51 80 52 72 53 73 54
REMARK SMILES IDX 79 55 81 56 74 57 75 58 76 59 77 60 78 61 54 62 55 63 64 64
REMARK SMILES IDX 56 65 57 66 63 67 65 68 58 69 59 70 60 71 61 72 62 73 6 74
REMARK SMILES IDX 7 75 8 76 9 77 10 78 26 79 11 80 13 81 12 82 14 83 15 84
REMARK SMILES IDX 16 85 17 86 18 87 19 89 20 90 21 91 25 92 22 93 24 94 23 95
REMARK H PARENT 86 23 52 34 18 88
REMARK Flexibility Score: inf
ROOT
ATOM      1  C   UNL A   1      35.651  22.398  24.486  1.00  0.00     0.275 C 
ENDROOT
BRANCH   1   2
ATOM      2  C   UNL A   1      37.026  23.039  24.717  1.00  0.00     0.275 C 
BRANCH   2   3
ATOM      3  O   UNL A   1      37.655  22.686  25.962  1.00  0.00    -0.458 OA
BRANCH   3   4
ATOM      4  C   UNL A   1      38.949  22.776  26.357  1.00  0.00     0.338 C 
ATOM      5  O   UNL A   1      39.597  21.734  26.457  1.00  0.00    -0.246 OA
BRANCH   4   6
ATOM      6  C   UNL A   1      39.606  24.047  26.809  1.00  0.00     0.060 A 
ATOM      7  C   UNL A   1      40.083  25.066  25.986  1.00  0.00     0.016 A 
ATOM      8  C   UNL A   1      39.702  24.243  28.202  1.00  0.00     0.016 A 
ATOM      9  C   UNL A   1      40.547  26.269  26.514  1.00  0.00     0.010 A 
ATOM     10  C   UNL A   1      40.134  25.462  28.738  1.00  0.00     0.010 A 
ATOM     11  C   UNL A   1      40.550  26.490  27.889  1.00  0.00    -0.014 A 
BRANCH  11  12
ATOM     12  C   UNL A   1      41.128  27.752  28.399  1.00  0.00     0.031 A 
ATOM     13  C   UNL A   1      42.617  27.904  28.380  1.00  0.00     0.074 A 
ATOM     14  C   UNL A   1      40.337  28.793  28.728  1.00  0.00     0.049 A 
ATOM     15  N   UNL A   1      43.333  28.959  28.656  1.00  0.00    -0.248 NA
ATOM     16  C   UNL A   1      43.400  26.741  27.924  1.00  0.00     0.031 C 
ATOM     17  C   UNL A   1      38.879  28.810  28.614  1.00  0.00     0.029 A 
ATOM     18  N   UNL A   1      40.633  30.042  29.212  1.00  0.00    -0.354 N 
ATOM     19  C   UNL A   1      44.635  28.615  28.327  1.00  0.00     0.074 A 
ATOM     20  C   UNL A   1      44.632  27.225  27.935  1.00  0.00     0.031 C 
ATOM     21  C   UNL A   1      38.406  29.975  29.088  1.00  0.00     0.029 A 
ATOM     22  C   UNL A   1      39.521  30.784  29.543  1.00  0.00     0.049 A 
ATOM     23  H   UNL A   1      41.554  30.376  29.313  1.00  0.00     0.167 HD
ATOM     24  C   UNL A   1      45.723  29.414  28.295  1.00  0.00     0.037 A 
ATOM     25  C   UNL A   1      39.412  31.979  30.151  1.00  0.00     0.037 A 
ATOM     26  C   UNL A   1      45.711  30.786  28.719  1.00  0.00     0.049 A 
ATOM     27  C   UNL A   1      40.672  32.774  30.332  1.00  0.00     0.074 A 
ATOM     28  C   UNL A   1      46.765  31.678  28.783  1.00  0.00     0.029 A 
ATOM     29  N   UNL A   1      44.583  31.463  29.170  1.00  0.00    -0.354 N 
ATOM     30  N   UNL A   1      41.898  32.440  30.002  1.00  0.00    -0.248 NA
ATOM     31  C   UNL A   1      40.539  34.123  30.888  1.00  0.00     0.031 C 
ATOM     32  C   UNL A   1      46.286  32.875  29.326  1.00  0.00     0.029 A 
ATOM     33  C   UNL A   1      44.922  32.750  29.546  1.00  0.00     0.049 A 
ATOM     34  H   UNL A   1      43.677  31.081  29.215  1.00  0.00     0.167 HD
ATOM     35  C   UNL A   1      42.676  33.560  30.252  1.00  0.00     0.074 A 
ATOM     36  C   UNL A   1      41.777  34.579  30.762  1.00  0.00     0.031 C 
ATOM     37  C   UNL A   1      44.006  33.739  30.058  1.00  0.00     0.037 A 
BRANCH  24  38
ATOM     38  C   UNL A   1      46.997  28.806  27.788  1.00  0.00     0.058 A 
ATOM     39  C   UNL A   1      47.947  28.256  28.666  1.00  0.00     0.135 A 
ATOM     40  C   UNL A   1      47.280  28.780  26.415  1.00  0.00     0.135 A 
ATOM     41  F   UNL A   1      47.742  28.291  29.994  1.00  0.00    -0.206 F 
ATOM     42  C   UNL A   1      49.138  27.712  28.201  1.00  0.00     0.059 A 
ATOM     43  C   UNL A   1      48.454  28.218  25.924  1.00  0.00     0.059 A 
ATOM     44  F   UNL A   1      46.415  29.313  25.537  1.00  0.00    -0.206 F 
ATOM     45  C   UNL A   1      49.380  27.694  26.826  1.00  0.00     0.060 A 
BRANCH  45  46
ATOM     46  S   UNL A   1      50.922  26.964  26.236  1.00  0.00     0.124 S 
ATOM     47  O   UNL A   1      51.435  28.025  25.374  1.00  0.00    -0.237 OA
ATOM     48  O   UNL A   1      51.655  26.746  27.479  1.00  0.00    -0.237 OA
ATOM     49  O   UNL A   1      50.483  25.754  25.548  1.00  0.00    -0.744 OA
ENDBRANCH  45  46
ENDBRANCH  24  38
BRANCH  25  50
ATOM     50  C   UNL A   1      38.090  32.488  30.617  1.00  0.00     0.058 A 
ATOM     51  C   UNL A   1      37.235  33.219  29.781  1.00  0.00     0.135 A 
ATOM     52  C   UNL A   1      37.676  32.283  31.947  1.00  0.00     0.135 A 
ATOM     53  F   UNL A   1      37.574  33.433  28.501  1.00  0.00    -0.206 F 
ATOM     54  C   UNL A   1      36.046  33.769  30.253  1.00  0.00     0.059 A 
ATOM     55  C   UNL A   1      36.480  32.805  32.437  1.00  0.00     0.059 A 
ATOM     56  F   UNL A   1      38.443  31.564  32.782  1.00  0.00    -0.206 F 
ATOM     57  C   UNL A   1      35.681  33.566  31.586  1.00  0.00     0.060 A 
BRANCH  57  58
ATOM     58  S   UNL A   1      34.145  34.318  32.176  1.00  0.00     0.124 S 
ATOM     59  O   UNL A   1      34.644  35.506  32.860  1.00  0.00    -0.237 OA
ATOM     60  O   UNL A   1      33.428  34.558  30.929  1.00  0.00    -0.237 OA
ATOM     61  O   UNL A   1      33.567  33.295  33.041  1.00  0.00    -0.744 OA
ENDBRANCH  57  58
ENDBRANCH  25  50
BRANCH  37  62
ATOM     62  C   UNL A   1      44.554  35.100  30.372  1.00  0.00     0.058 A 
ATOM     63  C   UNL A   1      44.580  36.122  29.411  1.00  0.00     0.135 A 
ATOM     64  C   UNL A   1      45.043  35.387  31.657  1.00  0.00     0.135 A 
ATOM     65  F   UNL A   1      44.132  35.893  28.167  1.00  0.00    -0.206 F 
ATOM     66  C   UNL A   1      45.112  37.372  29.701  1.00  0.00     0.059 A 
ATOM     67  C   UNL A   1      45.544  36.642  31.980  1.00  0.00     0.059 A 
ATOM     68  F   UNL A   1      45.029  34.445  32.614  1.00  0.00    -0.206 F 
ATOM     69  C   UNL A   1      45.592  37.621  30.989  1.00  0.00     0.060 A 
BRANCH  69  70
ATOM     70  S   UNL A   1      46.266  39.253  31.355  1.00  0.00     0.124 S 
ATOM     71  O   UNL A   1      45.454  39.654  32.498  1.00  0.00    -0.237 OA
ATOM     72  O   UNL A   1      47.665  38.955  31.642  1.00  0.00    -0.237 OA
ATOM     73  O   UNL A   1      46.030  40.001  30.123  1.00  0.00    -0.744 OA
ENDBRANCH  69  70
ENDBRANCH  37  62
ENDBRANCH  11  12
ENDBRANCH   4   6
ENDBRANCH   3   4
ENDBRANCH   2   3
ENDBRANCH   1   2
BRANCH   1  74
ATOM     74  O   UNL A   1      34.561  23.321  24.616  1.00  0.00    -0.458 OA
BRANCH  74  75
ATOM     75  C   UNL A   1      34.353  24.125  23.542  1.00  0.00     0.338 C 
ATOM     76  O   UNL A   1      34.366  23.801  22.365  1.00  0.00    -0.246 OA
BRANCH  75  77
ATOM     77  C   UNL A   1      33.950  25.458  24.022  1.00  0.00     0.060 A 
ATOM     78  C   UNL A   1      33.922  25.689  25.399  1.00  0.00     0.016 A 
ATOM     79  C   UNL A   1      33.577  26.466  23.129  1.00  0.00     0.020 A 
ATOM     80  C   UNL A   1      33.655  26.972  25.875  1.00  0.00     0.001 A 
ATOM     81  C   UNL A   1      33.181  27.725  23.615  1.00  0.00    -0.031 A 
ATOM     82  C   UNL A   1      33.327  27.995  24.981  1.00  0.00     0.005 A 
BRANCH  81  83
ATOM     83  C   UNL A   1      32.605  28.756  22.678  1.00  0.00     0.189 C 
BRANCH  83  84
ATOM     84  S   UNL A   1      30.832  29.017  22.859  1.00  0.00     0.216 S 
ATOM     85  O   UNL A   1      30.555  29.641  24.131  1.00  0.00    -0.212 OA
ATOM     86  O   UNL A   1      30.390  29.671  21.643  1.00  0.00    -0.212 OA
BRANCH  84  87
ATOM     87  N   UNL A   1      30.071  27.544  22.779  1.00  0.00    -0.211 NA
ATOM     88  H   UNL A   1      30.776  26.913  22.399  1.00  0.00     0.141 HD
BRANCH  87  89
ATOM     89  C   UNL A   1      29.444  26.786  23.854  1.00  0.00     0.134 C 
BRANCH  89  90
ATOM     90  C   UNL A   1      30.094  25.539  24.395  1.00  0.00    -0.033 A 
ATOM     91  C   UNL A   1      30.220  25.347  25.775  1.00  0.00     0.005 A 
ATOM     92  C   UNL A   1      30.458  24.475  23.563  1.00  0.00     0.005 A 
ATOM     93  C   UNL A   1      30.719  24.144  26.286  1.00  0.00     0.000 A 
ATOM     94  C   UNL A   1      30.963  23.278  24.061  1.00  0.00     0.000 A 
ATOM     95  C   UNL A   1      31.095  23.112  25.429  1.00  0.00     0.000 A 
ENDBRANCH  89  90
ENDBRANCH  87  89
ENDBRANCH  84  87
ENDBRANCH  83  84
ENDBRANCH  81  83
ENDBRANCH  75  77
ENDBRANCH  74  75
ENDBRANCH   1  74
TORSDOF 19
ENDMDL
MODEL 2
REMARK VINA RESULT:     -10.4      6.127      9.132
REMARK SMILES O=C(OCCOC(=O)c1cccc(CS(=O)(=O)NCc2ccccc2)c1)c1ccc(-c2c3nc(c(-c4c(F)cc(S(=O)(=O)[O-])cc4F)c4ccc([nH]4)c(-c4c(F)cc(S(=O)(=O)[O-])cc4F)c4nc(c(-c5c(F)cc(S(=O)(=O)[O-])cc5F)c5ccc2[nH]5)C=C4)C=C3)cc1
REMARK SMILES IDX 5 1 4 2 3 3 2 4 1 5 27 6 28 7 92 8 29 9 91 10 30 11 31 12
REMARK SMILES IDX 32 13 85 14 33 15 90 16 84 17 86 18 34 19 89 20 83 21 82 22
REMARK SMILES IDX 35 24 69 25 48 26 68 27 49 28 52 29 67 30 87 31 50 32 51 33
REMARK SMILES IDX 66 35 88 36 53 37 36 38 37 39 46 40 38 41 39 42 45 43 47 44
REMARK SMILES IDX 40 45 41 46 42 47 43 48 44 49 70 50 71 51 80 52 72 53 73 54
REMARK SMILES IDX 79 55 81 56 74 57 75 58 76 59 77 60 78 61 54 62 55 63 64 64
REMARK SMILES IDX 56 65 57 66 63 67 65 68 58 69 59 70 60 71 61 72 62 73 6 74
REMARK SMILES IDX 7 75 8 76 9 77 10 78 26 79 11 80 13 81 12 82 14 83 15 84
REMARK SMILES IDX 16 85 17 86 18 87 19 89 20 90 21 91 25 92 22 93 24 94 23 95
REMARK H PARENT 86 23 52 34 18 88
REMARK Flexibility Score: inf
ROOT
ATOM      1  C   UNL A   1      40.978  21.699  27.823  1.00  0.00     0.275 C 
ENDROOT
BRANCH   1   2
ATOM      2  C   UNL A   1      40.729  22.897  26.898  1.00  0.00     0.275 C 
BRANCH   2   3
ATOM      3  O   UNL A   1      41.900  23.675  26.589  1.00  0.00    -0.458 OA
BRANCH   3   4
ATOM      4  C   UNL A   1      42.078  25.018  26.525  1.00  0.00     0.338 C 
ATOM      5  O   UNL A   1      42.707  25.473  25.570  1.00  0.00    -0.246 OA
BRANCH   4   6
ATOM      6  C   UNL A   1      41.678  25.974  27.610  1.00  0.00     0.060 A 
ATOM      7  C   UNL A   1      40.477  25.960  28.318  1.00  0.00     0.016 A 
ATOM      8  C   UNL A   1      42.633  26.944  27.976  1.00  0.00     0.016 A 
ATOM      9  C   UNL A   1      40.264  26.806  29.404  1.00  0.00     0.010 A 
ATOM     10  C   UNL A   1      42.440  27.773  29.088  1.00  0.00     0.010 A 
ATOM     11  C   UNL A   1      41.252  27.697  29.818  1.00  0.00    -0.014 A 
BRANCH  11  12
ATOM     12  C   UNL A   1      40.943  28.628  30.926  1.00  0.00     0.031 A 
ATOM     13  C   UNL A   1      41.718  28.489  32.199  1.00  0.00     0.074 A 
ATOM     14  C   UNL A   1      40.102  29.665  30.745  1.00  0.00     0.049 A 
ATOM     15  N   UNL A   1      41.709  29.264  33.247  1.00  0.00    -0.248 NA
ATOM     16  C   UNL A   1      42.680  27.374  32.276  1.00  0.00     0.031 C 
ATOM     17  C   UNL A   1      39.430  29.994  29.488  1.00  0.00     0.029 A 
ATOM     18  N   UNL A   1      39.670  30.644  31.603  1.00  0.00    -0.354 N 
ATOM     19  C   UNL A   1      42.717  28.782  34.068  1.00  0.00     0.074 A 
ATOM     20  C   UNL A   1      43.247  27.588  33.452  1.00  0.00     0.031 C 
ATOM     21  C   UNL A   1      38.615  31.046  29.677  1.00  0.00     0.029 A 
ATOM     22  C   UNL A   1      38.701  31.462  31.064  1.00  0.00     0.049 A 
ATOM     23  H   UNL A   1      40.019  30.752  32.517  1.00  0.00     0.167 HD
ATOM     24  C   UNL A   1      43.199  29.333  35.203  1.00  0.00     0.037 A 
ATOM     25  C   UNL A   1      37.960  32.433  31.627  1.00  0.00     0.037 A 
ATOM     26  C   UNL A   1      42.637  30.505  35.816  1.00  0.00     0.049 A 
ATOM     27  C   UNL A   1      38.353  32.887  33.003  1.00  0.00     0.074 A 
ATOM     28  C   UNL A   1      43.007  31.121  36.996  1.00  0.00     0.029 A 
ATOM     29  N   UNL A   1      41.570  31.230  35.300  1.00  0.00    -0.354 N 
ATOM     30  N   UNL A   1      39.322  32.430  33.763  1.00  0.00    -0.248 NA
ATOM     31  C   UNL A   1      37.621  34.023  33.569  1.00  0.00     0.031 C 
ATOM     32  C   UNL A   1      42.126  32.184  37.223  1.00  0.00     0.029 A 
ATOM     33  C   UNL A   1      41.245  32.268  36.155  1.00  0.00     0.049 A 
ATOM     34  H   UNL A   1      41.112  31.033  34.451  1.00  0.00     0.167 HD
ATOM     35  C   UNL A   1      39.357  33.262  34.871  1.00  0.00     0.074 A 
ATOM     36  C   UNL A   1      38.310  34.248  34.679  1.00  0.00     0.031 C 
ATOM     37  C   UNL A   1      40.191  33.229  35.940  1.00  0.00     0.037 A 
BRANCH  24  38
ATOM     38  C   UNL A   1      44.381  28.660  35.836  1.00  0.00     0.058 A 
ATOM     39  C   UNL A   1      45.697  29.028  35.508  1.00  0.00     0.135 A 
ATOM     40  C   UNL A   1      44.200  27.631  36.771  1.00  0.00     0.135 A 
ATOM     41  F   UNL A   1      45.925  29.981  34.588  1.00  0.00    -0.206 F 
ATOM     42  C   UNL A   1      46.793  28.390  36.077  1.00  0.00     0.059 A 
ATOM     43  C   UNL A   1      45.281  26.996  37.372  1.00  0.00     0.059 A 
ATOM     44  F   UNL A   1      42.962  27.228  37.101  1.00  0.00    -0.206 F 
ATOM     45  C   UNL A   1      46.574  27.377  37.013  1.00  0.00     0.060 A 
BRANCH  45  46
ATOM     46  S   UNL A   1      48.008  26.574  37.758  1.00  0.00     0.124 S 
ATOM     47  O   UNL A   1      48.784  26.208  36.577  1.00  0.00    -0.237 OA
ATOM     48  O   UNL A   1      48.568  27.643  38.579  1.00  0.00    -0.237 OA
ATOM     49  O   UNL A   1      47.426  25.458  38.497  1.00  0.00    -0.744 OA
ENDBRANCH  45  46
ENDBRANCH  24  38
BRANCH  25  50
ATOM     50  C   UNL A   1      36.802  33.035  30.905  1.00  0.00     0.058 A 
ATOM     51  C   UNL A   1      36.968  33.983  29.886  1.00  0.00     0.135 A 
ATOM     52  C   UNL A   1      35.484  32.694  31.263  1.00  0.00     0.135 A 
ATOM     53  F   UNL A   1      38.202  34.336  29.495  1.00  0.00    -0.206 F 
ATOM     54  C   UNL A   1      35.879  34.607  29.283  1.00  0.00     0.059 A 
ATOM     55  C   UNL A   1      34.377  33.289  30.659  1.00  0.00     0.059 A 
ATOM     56  F   UNL A   1      35.267  31.769  32.212  1.00  0.00    -0.206 F 
ATOM     57  C   UNL A   1      34.585  34.261  29.683  1.00  0.00     0.060 A 
BRANCH  57  58
ATOM     58  S   UNL A   1      33.193  35.110  28.902  1.00  0.00     0.124 S 
ATOM     59  O   UNL A   1      32.335  35.386  30.050  1.00  0.00    -0.237 OA
ATOM     60  O   UNL A   1      33.844  36.270  28.303  1.00  0.00    -0.237 OA
ATOM     61  O   UNL A   1      32.674  34.128  27.955  1.00  0.00    -0.744 OA
ENDBRANCH  57  58
ENDBRANCH  25  50
BRANCH  37  62
ATOM     62  C   UNL A   1      40.017  34.313  36.962  1.00  0.00     0.058 A 
ATOM     63  C   UNL A   1      40.750  35.508  36.899  1.00  0.00     0.135 A 
ATOM     64  C   UNL A   1      39.093  34.158  38.008  1.00  0.00     0.135 A 
ATOM     65  F   UNL A   1      41.651  35.698  35.923  1.00  0.00    -0.206 F 
ATOM     66  C   UNL A   1      40.602  36.497  37.863  1.00  0.00     0.059 A 
ATOM     67  C   UNL A   1      38.902  35.150  38.961  1.00  0.00     0.059 A 
ATOM     68  F   UNL A   1      38.360  33.037  38.105  1.00  0.00    -0.206 F 
ATOM     69  C   UNL A   1      39.675  36.307  38.890  1.00  0.00     0.060 A 
BRANCH  69  70
ATOM     70  S   UNL A   1      39.485  37.606  40.126  1.00  0.00     0.124 S 
ATOM     71  O   UNL A   1      40.813  38.208  40.124  1.00  0.00    -0.237 OA
ATOM     72  O   UNL A   1      38.417  38.422  39.558  1.00  0.00    -0.237 OA
ATOM     73  O   UNL A   1      39.129  36.872  41.337  1.00  0.00    -0.744 OA
ENDBRANCH  69  70
ENDBRANCH  37  62
ENDBRANCH  11  12
ENDBRANCH   4   6
ENDBRANCH   3   4
ENDBRANCH   2   3
ENDBRANCH   1   2
BRANCH   1  74
ATOM     74  O   UNL A   1      42.156  20.954  27.489  1.00  0.00    -0.458 OA
BRANCH  74  75
ATOM     75  C   UNL A   1      41.994  20.018  26.519  1.00  0.00     0.338 C 
ATOM     76  O   UNL A   1      40.965  19.426  26.230  1.00  0.00    -0.246 OA
BRANCH  75  77
ATOM     77  C   UNL A   1      43.241  19.922  25.741  1.00  0.00     0.060 A 
ATOM     78  C   UNL A   1      43.510  18.734  25.058  1.00  0.00     0.016 A 
ATOM     79  C   UNL A   1      44.154  20.980  25.704  1.00  0.00     0.020 A 
ATOM     80  C   UNL A   1      44.625  18.658  24.225  1.00  0.00     0.001 A 
ATOM     81  C   UNL A   1      45.345  20.856  24.966  1.00  0.00    -0.031 A 
ATOM     82  C   UNL A   1      45.515  19.732  24.149  1.00  0.00     0.005 A 
BRANCH  81  83
ATOM     83  C   UNL A   1      46.414  21.913  25.065  1.00  0.00     0.189 C 
BRANCH  83  84
ATOM     84  S   UNL A   1      45.896  23.548  24.513  1.00  0.00     0.216 S 
ATOM     85  O   UNL A   1      47.005  24.230  23.889  1.00  0.00    -0.212 OA
ATOM     86  O   UNL A   1      44.674  23.355  23.760  1.00  0.00    -0.212 OA
BRANCH  84  87
ATOM     87  N   UNL A   1      45.379  24.411  25.834  1.00  0.00    -0.211 NA
ATOM     88  H   UNL A   1      44.528  23.934  26.133  1.00  0.00     0.141 HD
BRANCH  87  89
ATOM     89  C   UNL A   1      46.094  24.692  27.072  1.00  0.00     0.134 C 
BRANCH  89  90
ATOM     90  C   UNL A   1      45.454  24.415  28.407  1.00  0.00    -0.033 A 
ATOM     91  C   UNL A   1      45.600  25.320  29.465  1.00  0.00     0.005 A 
ATOM     92  C   UNL A   1      44.583  23.337  28.601  1.00  0.00     0.005 A 
ATOM     93  C   UNL A   1      44.917  25.126  30.670  1.00  0.00     0.000 A 
ATOM     94  C   UNL A   1      43.907  23.131  29.799  1.00  0.00     0.000 A 
ATOM     95  C   UNL A   1      44.076  24.029  30.839  1.00  0.00     0.000 A 
ENDBRANCH  89  90
ENDBRANCH  87  89
ENDBRANCH  84  87
ENDBRANCH  83  84
ENDBRANCH  81  83
ENDBRANCH  75  77
ENDBRANCH  74  75
ENDBRANCH   1  74
TORSDOF 19
ENDMDL
MODEL 3
REMARK VINA RESULT:     -10.3      1.228      2.253
REMARK SMILES O=C(OCCOC(=O)c1cccc(CS(=O)(=O)NCc2ccccc2)c1)c1ccc(-c2c3nc(c(-c4c(F)cc(S(=O)(=O)[O-])cc4F)c4ccc([nH]4)c(-c4c(F)cc(S(=O)(=O)[O-])cc4F)c4nc(c(-c5c(F)cc(S(=O)(=O)[O-])cc5F)c5ccc2[nH]5)C=C4)C=C3)cc1
REMARK SMILES IDX 5 1 4 2 3 3 2 4 1 5 27 6 28 7 92 8 29 9 91 10 30 11 31 12
REMARK SMILES IDX 32 13 85 14 33 15 90 16 84 17 86 18 34 19 89 20 83 21 82 22
REMARK SMILES IDX 35 24 69 25 48 26 68 27 49 28 52 29 67 30 87 31 50 32 51 33
REMARK SMILES IDX 66 35 88 36 53 37 36 38 37 39 46 40 38 41 39 42 45 43 47 44
REMARK SMILES IDX 40 45 41 46 42 47 43 48 44 49 70 50 71 51 80 52 72 53 73 54
REMARK SMILES IDX 79 55 81 56 74 57 75 58 76 59 77 60 78 61 54 62 55 63 64 64
REMARK SMILES IDX 56 65 57 66 63 67 65 68 58 69 59 70 60 71 61 72 62 73 6 74
REMARK SMILES IDX 7 75 8 76 9 77 10 78 26 79 11 80 13 81 12 82 14 83 15 84
REMARK SMILES IDX 16 85 17 86 18 87 19 89 20 90 21 91 25 92 22 93 24 94 23 95
REMARK H PARENT 86 23 52 34 18 88
REMARK Flexibility Score: inf
ROOT
ATOM      1  C   UNL A   1      34.973  23.194  25.636  1.00  0.00     0.275 C 
ENDROOT
BRANCH   1   2
ATOM      2  C   UNL A   1      36.417  23.675  25.445  1.00  0.00     0.275 C 
BRANCH   2   3
ATOM      3  O   UNL A   1      37.426  22.706  25.783  1.00  0.00    -0.458 OA
BRANCH   3   4
ATOM      4  C   UNL A   1      38.650  22.862  26.344  1.00  0.00     0.338 C 
ATOM      5  O   UNL A   1      39.351  21.861  26.493  1.00  0.00    -0.246 OA
BRANCH   4   6
ATOM      6  C   UNL A   1      39.154  24.153  26.920  1.00  0.00     0.060 A 
ATOM      7  C   UNL A   1      39.048  24.559  28.249  1.00  0.00     0.016 A 
ATOM      8  C   UNL A   1      39.843  25.008  26.035  1.00  0.00     0.016 A 
ATOM      9  C   UNL A   1      39.677  25.714  28.708  1.00  0.00     0.010 A 
ATOM     10  C   UNL A   1      40.506  26.152  26.496  1.00  0.00     0.010 A 
ATOM     11  C   UNL A   1      40.434  26.505  27.846  1.00  0.00    -0.014 A 
BRANCH  11  12
ATOM     12  C   UNL A   1      41.013  27.762  28.367  1.00  0.00     0.031 A 
ATOM     13  C   UNL A   1      42.503  27.901  28.376  1.00  0.00     0.074 A 
ATOM     14  C   UNL A   1      40.225  28.810  28.680  1.00  0.00     0.049 A 
ATOM     15  N   UNL A   1      43.222  28.950  28.665  1.00  0.00    -0.248 NA
ATOM     16  C   UNL A   1      43.285  26.731  27.936  1.00  0.00     0.031 C 
ATOM     17  C   UNL A   1      38.769  28.840  28.537  1.00  0.00     0.029 A 
ATOM     18  N   UNL A   1      40.522  30.056  29.168  1.00  0.00    -0.354 N 
ATOM     19  C   UNL A   1      44.528  28.594  28.362  1.00  0.00     0.074 A 
ATOM     20  C   UNL A   1      44.521  27.204  27.971  1.00  0.00     0.031 C 
ATOM     21  C   UNL A   1      38.297  30.009  29.001  1.00  0.00     0.029 A 
ATOM     22  C   UNL A   1      39.410  30.808  29.477  1.00  0.00     0.049 A 
ATOM     23  H   UNL A   1      41.443  30.382  29.287  1.00  0.00     0.167 HD
ATOM     24  C   UNL A   1      45.622  29.384  28.350  1.00  0.00     0.037 A 
ATOM     25  C   UNL A   1      39.300  32.004  30.083  1.00  0.00     0.037 A 
ATOM     26  C   UNL A   1      45.614  30.757  28.774  1.00  0.00     0.049 A 
ATOM     27  C   UNL A   1      40.563  32.789  30.288  1.00  0.00     0.074 A 
ATOM     28  C   UNL A   1      46.675  31.639  28.858  1.00  0.00     0.029 A 
ATOM     29  N   UNL A   1      44.484  31.443  29.202  1.00  0.00    -0.354 N 
ATOM     30  N   UNL A   1      41.792  32.444  29.982  1.00  0.00    -0.248 NA
ATOM     31  C   UNL A   1      40.430  34.140  30.841  1.00  0.00     0.031 C 
ATOM     32  C   UNL A   1      46.196  32.840  29.391  1.00  0.00     0.029 A 
ATOM     33  C   UNL A   1      44.827  32.728  29.584  1.00  0.00     0.049 A 
ATOM     34  H   UNL A   1      43.574  31.070  29.230  1.00  0.00     0.167 HD
ATOM     35  C   UNL A   1      42.574  33.558  30.246  1.00  0.00     0.074 A 
ATOM     36  C   UNL A   1      41.675  34.585  30.739  1.00  0.00     0.031 C 
ATOM     37  C   UNL A   1      43.909  33.726  30.078  1.00  0.00     0.037 A 
BRANCH  24  38
ATOM     38  C   UNL A   1      46.902  28.765  27.869  1.00  0.00     0.058 A 
ATOM     39  C   UNL A   1      47.808  28.167  28.761  1.00  0.00     0.135 A 
ATOM     40  C   UNL A   1      47.231  28.775  26.507  1.00  0.00     0.135 A 
ATOM     41  F   UNL A   1      47.558  28.166  30.082  1.00  0.00    -0.206 F 
ATOM     42  C   UNL A   1      49.003  27.613  28.320  1.00  0.00     0.059 A 
ATOM     43  C   UNL A   1      48.410  28.204  26.039  1.00  0.00     0.059 A 
ATOM     44  F   UNL A   1      46.409  29.354  25.617  1.00  0.00    -0.206 F 
ATOM     45  C   UNL A   1      49.293  27.632  26.954  1.00  0.00     0.060 A 
BRANCH  45  46
ATOM     46  S   UNL A   1      50.839  26.888  26.395  1.00  0.00     0.124 S 
ATOM     47  O   UNL A   1      51.163  26.010  27.516  1.00  0.00    -0.237 OA
ATOM     48  O   UNL A   1      50.432  26.219  25.163  1.00  0.00    -0.237 OA
ATOM     49  O   UNL A   1      51.725  28.035  26.221  1.00  0.00    -0.744 OA
ENDBRANCH  45  46
ENDBRANCH  24  38
BRANCH  25  50
ATOM     50  C   UNL A   1      37.973  32.526  30.522  1.00  0.00     0.058 A 
ATOM     51  C   UNL A   1      37.135  33.252  29.666  1.00  0.00     0.135 A 
ATOM     52  C   UNL A   1      37.538  32.337  31.848  1.00  0.00     0.135 A 
ATOM     53  F   UNL A   1      37.495  33.452  28.389  1.00  0.00    -0.206 F 
ATOM     54  C   UNL A   1      35.942  33.814  30.113  1.00  0.00     0.059 A 
ATOM     55  C   UNL A   1      36.337  32.870  32.314  1.00  0.00     0.059 A 
ATOM     56  F   UNL A   1      38.287  31.622  32.702  1.00  0.00    -0.206 F 
ATOM     57  C   UNL A   1      35.555  33.626  31.443  1.00  0.00     0.060 A 
BRANCH  57  58
ATOM     58  S   UNL A   1      34.015  34.393  32.002  1.00  0.00     0.124 S 
ATOM     59  O   UNL A   1      33.307  34.582  30.740  1.00  0.00    -0.237 OA
ATOM     60  O   UNL A   1      33.472  33.368  32.887  1.00  0.00    -0.237 OA
ATOM     61  O   UNL A   1      34.455  35.617  32.662  1.00  0.00    -0.744 OA
ENDBRANCH  57  58
ENDBRANCH  25  50
BRANCH  37  62
ATOM     62  C   UNL A   1      44.463  35.082  30.402  1.00  0.00     0.058 A 
ATOM     63  C   UNL A   1      44.508  36.106  29.444  1.00  0.00     0.135 A 
ATOM     64  C   UNL A   1      44.939  35.362  31.693  1.00  0.00     0.135 A 
ATOM     65  F   UNL A   1      44.073  35.883  28.194  1.00  0.00    -0.206 F 
ATOM     66  C   UNL A   1      45.045  37.351  29.744  1.00  0.00     0.059 A 
ATOM     67  C   UNL A   1      45.444  36.613  32.025  1.00  0.00     0.059 A 
ATOM     68  F   UNL A   1      44.907  34.418  32.648  1.00  0.00    -0.206 F 
ATOM     69  C   UNL A   1      45.511  37.593  31.038  1.00  0.00     0.060 A 
BRANCH  69  70
ATOM     70  S   UNL A   1      46.192  39.220  31.415  1.00  0.00     0.124 S 
ATOM     71  O   UNL A   1      46.884  38.961  32.673  1.00  0.00    -0.237 OA
ATOM     72  O   UNL A   1      47.047  39.475  30.261  1.00  0.00    -0.237 OA
ATOM     73  O   UNL A   1      45.008  40.069  31.512  1.00  0.00    -0.744 OA
ENDBRANCH  69  70
ENDBRANCH  37  62
ENDBRANCH  11  12
ENDBRANCH   4   6
ENDBRANCH   3   4
ENDBRANCH   2   3
ENDBRANCH   1   2
BRANCH   1  74
ATOM     74  O   UNL A   1      34.116  24.178  26.231  1.00  0.00    -0.458 OA
BRANCH  74  75
ATOM     75  C   UNL A   1      32.855  23.757  26.506  1.00  0.00     0.338 C 
ATOM     76  O   UNL A   1      32.516  22.957  27.365  1.00  0.00    -0.246 OA
BRANCH  75  77
ATOM     77  C   UNL A   1      31.907  24.539  25.694  1.00  0.00     0.060 A 
ATOM     78  C   UNL A   1      30.774  25.066  26.317  1.00  0.00     0.016 A 
ATOM     79  C   UNL A   1      32.115  24.732  24.325  1.00  0.00     0.020 A 
ATOM     80  C   UNL A   1      29.922  25.903  25.599  1.00  0.00     0.001 A 
ATOM     81  C   UNL A   1      31.186  25.470  23.570  1.00  0.00    -0.031 A 
ATOM     82  C   UNL A   1      30.153  26.136  24.241  1.00  0.00     0.005 A 
BRANCH  81  83
ATOM     83  C   UNL A   1      31.303  25.531  22.069  1.00  0.00     0.189 C 
BRANCH  83  84
ATOM     84  S   UNL A   1      32.971  25.847  21.466  1.00  0.00     0.216 S 
ATOM     85  O   UNL A   1      33.925  25.087  22.237  1.00  0.00    -0.212 OA
ATOM     86  O   UNL A   1      32.925  25.668  20.028  1.00  0.00    -0.212 OA
BRANCH  84  87
ATOM     87  N   UNL A   1      33.289  27.469  21.621  1.00  0.00    -0.211 NA
ATOM     88  H   UNL A   1      32.378  27.918  21.523  1.00  0.00     0.141 HD
BRANCH  87  89
ATOM     89  C   UNL A   1      33.923  28.167  22.731  1.00  0.00     0.134 C 
BRANCH  89  90
ATOM     90  C   UNL A   1      33.206  28.332  24.046  1.00  0.00    -0.033 A 
ATOM     91  C   UNL A   1      33.725  27.764  25.214  1.00  0.00     0.005 A 
ATOM     92  C   UNL A   1      32.091  29.168  24.180  1.00  0.00     0.005 A 
ATOM     93  C   UNL A   1      33.127  28.007  26.455  1.00  0.00     0.000 A 
ATOM     94  C   UNL A   1      31.483  29.408  25.408  1.00  0.00     0.000 A 
ATOM     95  C   UNL A   1      32.003  28.824  26.550  1.00  0.00     0.000 A 
ENDBRANCH  89  90
ENDBRANCH  87  89
ENDBRANCH  84  87
ENDBRANCH  83  84
ENDBRANCH  81  83
ENDBRANCH  75  77
ENDBRANCH  74  75
ENDBRANCH   1  74
TORSDOF 19
ENDMDL
