MODEL 1
REMARK VINA RESULT:     -13.0      0.000      0.000
REMARK SMILES O=C(OCCOC(=O)[C@@H]1[C@@H](C(=O)Nc2cccc([N+](=O)[O-])c2)[C@@H]2C=C[C@H]1O2)c1ccc(-c2c3nc(c(-c4c(F)cc(S(=O)(=O)[O-])cc4F)c4ccc([nH]4)c(-c4c(F)cc(S(=O)(=O)[O-])cc4F)c4nc(c(-c5c(F)cc(S(=O)(=O)[O-])cc5F)c5ccc2[nH]5)C=C4)C=C3)cc1
REMARK SMILES IDX 4 1 3 2 2 3 1 4 28 5 29 6 93 7 30 8 92 9 31 10 32 11 33 12
REMARK SMILES IDX 86 13 34 14 91 15 85 16 87 17 35 18 90 19 84 20 83 21 36 23
REMARK SMILES IDX 70 24 49 25 69 26 50 27 53 28 68 29 88 30 51 31 52 32 67 34
REMARK SMILES IDX 89 35 54 36 37 37 38 38 47 39 39 40 40 41 46 42 48 43 41 44
REMARK SMILES IDX 42 45 43 46 44 47 45 48 71 49 72 50 81 51 73 52 74 53 80 54
REMARK SMILES IDX 82 55 75 56 76 57 77 58 78 59 79 60 55 61 56 62 65 63 57 64
REMARK SMILES IDX 58 65 64 66 66 67 59 68 60 69 61 70 62 71 63 72 5 73 6 74
REMARK SMILES IDX 7 75 8 76 9 77 10 78 26 79 23 80 25 81 27 82 24 83 11 84
REMARK SMILES IDX 12 85 13 86 14 88 15 89 22 90 16 91 18 92 17 93 19 94 20 95
REMARK SMILES IDX 21 96
REMARK H PARENT 87 22 53 33 13 87
REMARK Flexibility Score: inf
ROOT
ATOM      1  C   UNL A   1      38.506  23.042  25.902  1.00  0.00     0.275 C 
ENDROOT
BRANCH   1   2
ATOM      2  O   UNL A   1      39.871  22.687  26.264  1.00  0.00    -0.458 OA
BRANCH   2   3
ATOM      3  C   UNL A   1      40.900  23.486  26.705  1.00  0.00     0.338 C 
ATOM      4  O   UNL A   1      41.979  23.483  26.123  1.00  0.00    -0.246 OA
BRANCH   3   5
ATOM      5  C   UNL A   1      40.818  24.181  28.044  1.00  0.00     0.060 A 
ATOM      6  C   UNL A   1      42.269  24.487  28.541  1.00  0.00     0.016 A 
ATOM      7  C   UNL A   1      39.509  25.245  28.322  1.00  0.00     0.016 A 
ATOM      8  C   UNL A   1      42.694  26.037  29.114  1.00  0.00     0.010 A 
ATOM      9  C   UNL A   1      39.592  26.781  29.071  1.00  0.00     0.010 A 
ATOM     10  C   UNL A   1      41.153  27.355  29.578  1.00  0.00    -0.014 A 
BRANCH  10  11
ATOM     11  C   UNL A   1      40.974  28.500  30.956  1.00  0.00     0.031 A 
ATOM     12  C   UNL A   1      42.065  28.500  32.082  1.00  0.00     0.074 A 
ATOM     13  C   UNL A   1      40.577  29.836  31.000  1.00  0.00     0.049 A 
ATOM     14  N   UNL A   1      42.177  29.393  33.048  1.00  0.00    -0.248 NA
ATOM     15  C   UNL A   1      43.202  27.566  32.071  1.00  0.00     0.031 C 
ATOM     16  C   UNL A   1      40.448  30.822  29.916  1.00  0.00     0.029 A 
ATOM     17  N   UNL A   1      39.688  30.381  31.931  1.00  0.00    -0.354 N 
ATOM     18  C   UNL A   1      43.345  29.120  33.735  1.00  0.00     0.074 A 
ATOM     19  C   UNL A   1      43.957  27.996  33.078  1.00  0.00     0.031 C 
ATOM     20  C   UNL A   1      39.246  31.395  29.989  1.00  0.00     0.029 A 
ATOM     21  C   UNL A   1      38.785  31.258  31.338  1.00  0.00     0.049 A 
ATOM     22  H   UNL A   1      39.700  30.169  32.893  1.00  0.00     0.167 HD
ATOM     23  C   UNL A   1      43.827  29.752  34.830  1.00  0.00     0.037 A 
ATOM     24  C   UNL A   1      37.980  32.250  31.762  1.00  0.00     0.037 A 
ATOM     25  C   UNL A   1      43.189  30.894  35.444  1.00  0.00     0.049 A 
ATOM     26  C   UNL A   1      38.490  32.886  32.989  1.00  0.00     0.074 A 
ATOM     27  C   UNL A   1      43.514  31.511  36.639  1.00  0.00     0.029 A 
ATOM     28  N   UNL A   1      42.091  31.576  34.930  1.00  0.00    -0.354 N 
ATOM     29  N   UNL A   1      39.606  32.584  33.601  1.00  0.00    -0.248 NA
ATOM     30  C   UNL A   1      37.765  34.034  33.524  1.00  0.00     0.031 C 
ATOM     31  C   UNL A   1      42.542  32.476  36.909  1.00  0.00     0.029 A 
ATOM     32  C   UNL A   1      41.670  32.538  35.836  1.00  0.00     0.049 A 
ATOM     33  H   UNL A   1      41.675  31.402  34.054  1.00  0.00     0.167 HD
ATOM     34  C   UNL A   1      39.689  33.465  34.643  1.00  0.00     0.074 A 
ATOM     35  C   UNL A   1      38.590  34.405  34.492  1.00  0.00     0.031 C 
ATOM     36  C   UNL A   1      40.552  33.430  35.676  1.00  0.00     0.037 A 
BRANCH  23  37
ATOM     37  C   UNL A   1      44.966  29.107  35.564  1.00  0.00     0.058 A 
ATOM     38  C   UNL A   1      44.822  28.065  36.489  1.00  0.00     0.135 A 
ATOM     39  C   UNL A   1      46.270  29.531  35.249  1.00  0.00     0.135 A 
ATOM     40  F   UNL A   1      43.601  27.645  36.855  1.00  0.00    -0.206 F 
ATOM     41  C   UNL A   1      45.937  27.448  37.059  1.00  0.00     0.059 A 
ATOM     42  C   UNL A   1      47.393  28.912  35.781  1.00  0.00     0.059 A 
ATOM     43  F   UNL A   1      46.460  30.542  34.386  1.00  0.00    -0.206 F 
ATOM     44  C   UNL A   1      47.216  27.867  36.681  1.00  0.00     0.060 A 
BRANCH  44  45
ATOM     45  S   UNL A   1      48.651  27.002  37.353  1.00  0.00     0.124 S 
ATOM     46  O   UNL A   1      48.413  25.637  36.895  1.00  0.00    -0.237 OA
ATOM     47  O   UNL A   1      49.758  27.703  36.712  1.00  0.00    -0.237 OA
ATOM     48  O   UNL A   1      48.530  27.208  38.794  1.00  0.00    -0.744 OA
ENDBRANCH  44  45
ENDBRANCH  23  37
BRANCH  24  49
ATOM     49  C   UNL A   1      36.909  32.839  30.901  1.00  0.00     0.058 A 
ATOM     50  C   UNL A   1      37.089  33.921  30.026  1.00  0.00     0.135 A 
ATOM     51  C   UNL A   1      35.613  32.300  30.986  1.00  0.00     0.135 A 
ATOM     52  F   UNL A   1      38.317  34.417  29.803  1.00  0.00    -0.206 F 
ATOM     53  C   UNL A   1      36.022  34.498  29.336  1.00  0.00     0.059 A 
ATOM     54  C   UNL A   1      34.536  32.841  30.290  1.00  0.00     0.059 A 
ATOM     55  F   UNL A   1      35.384  31.214  31.737  1.00  0.00    -0.206 F 
ATOM     56  C   UNL A   1      34.746  33.954  29.481  1.00  0.00     0.060 A 
BRANCH  56  57
ATOM     57  S   UNL A   1      33.385  34.668  28.533  1.00  0.00     0.124 S 
ATOM     58  O   UNL A   1      34.031  35.811  27.900  1.00  0.00    -0.237 OA
ATOM     59  O   UNL A   1      33.033  33.559  27.653  1.00  0.00    -0.237 OA
ATOM     60  O   UNL A   1      32.396  34.985  29.559  1.00  0.00    -0.744 OA
ENDBRANCH  56  57
ENDBRANCH  24  49
BRANCH  36  61
ATOM     61  C   UNL A   1      40.223  34.375  36.773  1.00  0.00     0.058 A 
ATOM     62  C   UNL A   1      39.367  33.977  37.814  1.00  0.00     0.135 A 
ATOM     63  C   UNL A   1      40.759  35.665  36.788  1.00  0.00     0.135 A 
ATOM     64  F   UNL A   1      38.807  32.755  37.808  1.00  0.00    -0.206 F 
ATOM     65  C   UNL A   1      39.034  34.846  38.832  1.00  0.00     0.059 A 
ATOM     66  C   UNL A   1      40.479  36.534  37.827  1.00  0.00     0.059 A 
ATOM     67  F   UNL A   1      41.566  36.078  35.798  1.00  0.00    -0.206 F 
ATOM     68  C   UNL A   1      39.614  36.115  38.839  1.00  0.00     0.060 A 
BRANCH  68  69
ATOM     69  S   UNL A   1      39.253  37.191  40.233  1.00  0.00     0.124 S 
ATOM     70  O   UNL A   1      38.442  36.320  41.075  1.00  0.00    -0.237 OA
ATOM     71  O   UNL A   1      40.590  37.495  40.733  1.00  0.00    -0.237 OA
ATOM     72  O   UNL A   1      38.546  38.310  39.620  1.00  0.00    -0.744 OA
ENDBRANCH  68  69
ENDBRANCH  36  61
ENDBRANCH  10  11
ENDBRANCH   3   5
ENDBRANCH   2   3
ENDBRANCH   1   2
BRANCH   1  73
ATOM     73  C   UNL A   1      37.496  21.854  25.669  1.00  0.00     0.274 C 
BRANCH  73  74
ATOM     74  O   UNL A   1      36.964  21.632  24.331  1.00  0.00    -0.462 OA
BRANCH  74  75
ATOM     75  C   UNL A   1      36.232  22.616  23.726  1.00  0.00     0.312 C 
ATOM     76  O   UNL A   1      36.384  22.913  22.550  1.00  0.00    -0.252 OA
BRANCH  75  77
ATOM     77  C   UNL A   1      35.145  23.225  24.651  1.00  0.00     0.147 C 
ATOM     78  C   UNL A   1      33.743  22.146  24.834  1.00  0.00     0.129 C 
ATOM     79  C   UNL A   1      34.441  24.935  24.224  1.00  0.00     0.157 C 
ATOM     80  C   UNL A   1      32.336  23.138  24.647  1.00  0.00     0.155 C 
ATOM     81  C   UNL A   1      32.952  25.332  22.616  1.00  0.00     0.004 C 
ATOM     82  O   UNL A   1      33.493  24.163  25.581  1.00  0.00    -0.365 OA
ATOM     83  C   UNL A   1      31.728  24.160  22.946  1.00  0.00     0.004 C 
BRANCH  78  84
ATOM     84  C   UNL A   1      33.648  21.496  26.220  1.00  0.00     0.231 C 
ATOM     85  O   UNL A   1      33.891  22.127  27.252  1.00  0.00    -0.274 OA
ATOM     86  N   UNL A   1      33.262  20.183  26.373  1.00  0.00    -0.325 N 
ATOM     87  H   UNL A   1      33.134  19.927  27.315  1.00  0.00     0.169 HD
BRANCH  86  88
ATOM     88  C   UNL A   1      33.008  19.125  25.477  1.00  0.00     0.048 A 
ATOM     89  C   UNL A   1      32.559  19.459  24.191  1.00  0.00     0.026 A 
ATOM     90  C   UNL A   1      33.222  17.780  25.753  1.00  0.00     0.111 A 
ATOM     91  C   UNL A   1      32.554  18.508  23.158  1.00  0.00     0.009 A 
ATOM     92  C   UNL A   1      33.216  16.827  24.721  1.00  0.00     0.271 A 
ATOM     93  C   UNL A   1      32.946  17.197  23.406  1.00  0.00     0.086 A 
BRANCH  92  94
ATOM     94  N   UNL A   1      33.517  15.430  25.045  1.00  0.00     0.062 N 
ATOM     95  O   UNL A   1      32.582  14.619  25.050  1.00  0.00    -0.258 OA
ATOM     96  O   UNL A   1      34.698  15.143  25.301  1.00  0.00    -0.258 OA
ENDBRANCH  92  94
ENDBRANCH  86  88
ENDBRANCH  78  84
ENDBRANCH  75  77
ENDBRANCH  74  75
ENDBRANCH  73  74
ENDBRANCH   1  73
TORSDOF 17
ENDMDL
MODEL 2
REMARK VINA RESULT:     -12.9      6.782     12.314
REMARK SMILES O=C(OCCOC(=O)[C@@H]1[C@@H](C(=O)Nc2cccc([N+](=O)[O-])c2)[C@@H]2C=C[C@H]1O2)c1ccc(-c2c3nc(c(-c4c(F)cc(S(=O)(=O)[O-])cc4F)c4ccc([nH]4)c(-c4c(F)cc(S(=O)(=O)[O-])cc4F)c4nc(c(-c5c(F)cc(S(=O)(=O)[O-])cc5F)c5ccc2[nH]5)C=C4)C=C3)cc1
REMARK SMILES IDX 4 1 3 2 2 3 1 4 28 5 29 6 93 7 30 8 92 9 31 10 32 11 33 12
REMARK SMILES IDX 86 13 34 14 91 15 85 16 87 17 35 18 90 19 84 20 83 21 36 23
REMARK SMILES IDX 70 24 49 25 69 26 50 27 53 28 68 29 88 30 51 31 52 32 67 34
REMARK SMILES IDX 89 35 54 36 37 37 38 38 47 39 39 40 40 41 46 42 48 43 41 44
REMARK SMILES IDX 42 45 43 46 44 47 45 48 71 49 72 50 81 51 73 52 74 53 80 54
REMARK SMILES IDX 82 55 75 56 76 57 77 58 78 59 79 60 55 61 56 62 65 63 57 64
REMARK SMILES IDX 58 65 64 66 66 67 59 68 60 69 61 70 62 71 63 72 5 73 6 74
REMARK SMILES IDX 7 75 8 76 9 77 10 78 26 79 23 80 25 81 27 82 24 83 11 84
REMARK SMILES IDX 12 85 13 86 14 88 15 89 22 90 16 91 18 92 17 93 19 94 20 95
REMARK SMILES IDX 21 96
REMARK H PARENT 87 22 53 33 13 87
REMARK Flexibility Score: inf
ROOT
ATOM      1  C   UNL A   1      33.837  31.067  27.598  1.00  0.00     0.275 C 
ENDROOT
BRANCH   1   2
ATOM      2  O   UNL A   1      34.810  30.785  28.644  1.00  0.00    -0.458 OA
BRANCH   2   3
ATOM      3  C   UNL A   1      35.818  31.576  29.144  1.00  0.00     0.338 C 
ATOM      4  O   UNL A   1      35.558  32.500  29.907  1.00  0.00    -0.246 OA
BRANCH   3   5
ATOM      5  C   UNL A   1      37.216  31.495  28.577  1.00  0.00     0.060 A 
ATOM      6  C   UNL A   1      38.188  32.270  29.526  1.00  0.00     0.016 A 
ATOM      7  C   UNL A   1      37.675  30.063  27.763  1.00  0.00     0.016 A 
ATOM      8  C   UNL A   1      39.653  31.569  30.047  1.00  0.00     0.010 A 
ATOM      9  C   UNL A   1      39.167  29.241  27.920  1.00  0.00     0.010 A 
ATOM     10  C   UNL A   1      40.336  29.884  29.035  1.00  0.00    -0.014 A 
BRANCH  10  11
ATOM     11  C   UNL A   1      42.000  29.429  28.520  1.00  0.00     0.031 A 
ATOM     12  C   UNL A   1      43.154  30.476  28.692  1.00  0.00     0.074 A 
ATOM     13  C   UNL A   1      42.719  28.244  28.666  1.00  0.00     0.049 A 
ATOM     14  N   UNL A   1      44.443  30.234  28.539  1.00  0.00    -0.248 NA
ATOM     15  C   UNL A   1      42.914  31.828  29.219  1.00  0.00     0.031 C 
ATOM     16  C   UNL A   1      42.465  27.081  29.531  1.00  0.00     0.029 A 
ATOM     17  N   UNL A   1      43.486  27.639  27.666  1.00  0.00    -0.354 N 
ATOM     18  C   UNL A   1      45.129  31.371  28.922  1.00  0.00     0.074 A 
ATOM     19  C   UNL A   1      44.141  32.322  29.359  1.00  0.00     0.031 C 
ATOM     20  C   UNL A   1      42.516  25.971  28.795  1.00  0.00     0.029 A 
ATOM     21  C   UNL A   1      43.308  26.258  27.637  1.00  0.00     0.049 A 
ATOM     22  H   UNL A   1      44.079  28.131  27.054  1.00  0.00     0.167 HD
ATOM     23  C   UNL A   1      46.464  31.585  28.880  1.00  0.00     0.037 A 
ATOM     24  C   UNL A   1      43.988  25.207  27.143  1.00  0.00     0.037 A 
ATOM     25  C   UNL A   1      47.424  30.592  28.456  1.00  0.00     0.049 A 
ATOM     26  C   UNL A   1      45.432  25.481  27.049  1.00  0.00     0.074 A 
ATOM     27  C   UNL A   1      48.780  30.757  28.234  1.00  0.00     0.029 A 
ATOM     28  N   UNL A   1      47.133  29.263  28.168  1.00  0.00    -0.354 N 
ATOM     29  N   UNL A   1      46.030  26.582  27.426  1.00  0.00    -0.248 NA
ATOM     30  C   UNL A   1      46.312  24.403  26.606  1.00  0.00     0.031 C 
ATOM     31  C   UNL A   1      49.280  29.571  27.694  1.00  0.00     0.029 A 
ATOM     32  C   UNL A   1      48.266  28.630  27.676  1.00  0.00     0.049 A 
ATOM     33  H   UNL A   1      46.255  28.834  28.295  1.00  0.00     0.167 HD
ATOM     34  C   UNL A   1      47.360  26.358  27.203  1.00  0.00     0.074 A 
ATOM     35  C   UNL A   1      47.494  24.968  26.800  1.00  0.00     0.031 C 
ATOM     36  C   UNL A   1      48.359  27.259  27.247  1.00  0.00     0.037 A 
BRANCH  23  37
ATOM     37  C   UNL A   1      46.954  32.990  29.086  1.00  0.00     0.058 A 
ATOM     38  C   UNL A   1      47.417  33.495  30.307  1.00  0.00     0.135 A 
ATOM     39  C   UNL A   1      47.017  33.831  27.960  1.00  0.00     0.135 A 
ATOM     40  F   UNL A   1      47.346  32.751  31.421  1.00  0.00    -0.206 F 
ATOM     41  C   UNL A   1      47.949  34.782  30.399  1.00  0.00     0.059 A 
ATOM     42  C   UNL A   1      47.569  35.103  28.022  1.00  0.00     0.059 A 
ATOM     43  F   UNL A   1      46.564  33.402  26.771  1.00  0.00    -0.206 F 
ATOM     44  C   UNL A   1      48.038  35.567  29.246  1.00  0.00     0.060 A 
BRANCH  44  45
ATOM     45  S   UNL A   1      48.812  37.195  29.357  1.00  0.00     0.124 S 
ATOM     46  O   UNL A   1      49.237  37.224  30.753  1.00  0.00    -0.237 OA
ATOM     47  O   UNL A   1      49.881  37.092  28.369  1.00  0.00    -0.237 OA
ATOM     48  O   UNL A   1      47.729  38.113  29.013  1.00  0.00    -0.744 OA
ENDBRANCH  44  45
ENDBRANCH  23  37
BRANCH  24  49
ATOM     49  C   UNL A   1      43.390  23.841  27.041  1.00  0.00     0.058 A 
ATOM     50  C   UNL A   1      43.366  22.897  28.080  1.00  0.00     0.135 A 
ATOM     51  C   UNL A   1      42.834  23.445  25.811  1.00  0.00     0.135 A 
ATOM     52  F   UNL A   1      43.772  23.235  29.313  1.00  0.00    -0.206 F 
ATOM     53  C   UNL A   1      42.896  21.597  27.885  1.00  0.00     0.059 A 
ATOM     54  C   UNL A   1      42.337  22.163  25.598  1.00  0.00     0.059 A 
ATOM     55  F   UNL A   1      42.747  24.322  24.800  1.00  0.00    -0.206 F 
ATOM     56  C   UNL A   1      42.389  21.238  26.636  1.00  0.00     0.060 A 
BRANCH  56  57
ATOM     57  S   UNL A   1      41.725  19.574  26.415  1.00  0.00     0.124 S 
ATOM     58  O   UNL A   1      40.303  19.842  26.243  1.00  0.00    -0.237 OA
ATOM     59  O   UNL A   1      42.445  19.132  25.225  1.00  0.00    -0.237 OA
ATOM     60  O   UNL A   1      42.099  18.899  27.654  1.00  0.00    -0.744 OA
ENDBRANCH  56  57
ENDBRANCH  24  49
BRANCH  36  61
ATOM     61  C   UNL A   1      49.650  26.762  26.709  1.00  0.00     0.058 A 
ATOM     62  C   UNL A   1      50.545  26.075  27.547  1.00  0.00     0.135 A 
ATOM     63  C   UNL A   1      49.991  26.966  25.370  1.00  0.00     0.135 A 
ATOM     64  F   UNL A   1      50.262  25.895  28.848  1.00  0.00    -0.206 F 
ATOM     65  C   UNL A   1      51.759  25.623  27.071  1.00  0.00     0.059 A 
ATOM     66  C   UNL A   1      51.179  26.476  24.861  1.00  0.00     0.059 A 
ATOM     67  F   UNL A   1      49.162  27.635  24.552  1.00  0.00    -0.206 F 
ATOM     68  C   UNL A   1      52.055  25.810  25.720  1.00  0.00     0.060 A 
BRANCH  68  69
ATOM     69  S   UNL A   1      53.591  25.115  25.097  1.00  0.00     0.124 S 
ATOM     70  O   UNL A   1      53.561  25.538  23.702  1.00  0.00    -0.237 OA
ATOM     71  O   UNL A   1      54.583  25.772  25.941  1.00  0.00    -0.237 OA
ATOM     72  O   UNL A   1      53.428  23.683  25.323  1.00  0.00    -0.744 OA
ENDBRANCH  68  69
ENDBRANCH  36  61
ENDBRANCH  10  11
ENDBRANCH   3   5
ENDBRANCH   2   3
ENDBRANCH   1   2
BRANCH   1  73
ATOM     73  C   UNL A   1      33.246  29.830  26.819  1.00  0.00     0.274 C 
BRANCH  73  74
ATOM     74  O   UNL A   1      32.872  28.637  27.568  1.00  0.00    -0.462 OA
BRANCH  74  75
ATOM     75  C   UNL A   1      32.365  27.555  26.901  1.00  0.00     0.312 C 
ATOM     76  O   UNL A   1      31.301  27.039  27.209  1.00  0.00    -0.252 OA
BRANCH  75  77
ATOM     77  C   UNL A   1      33.223  27.135  25.678  1.00  0.00     0.147 C 
ATOM     78  C   UNL A   1      32.311  27.239  24.155  1.00  0.00     0.129 C 
ATOM     79  C   UNL A   1      34.039  25.421  25.686  1.00  0.00     0.157 C 
ATOM     80  C   UNL A   1      32.641  25.778  23.287  1.00  0.00     0.155 C 
ATOM     81  C   UNL A   1      32.975  23.504  25.296  1.00  0.00     0.004 C 
ATOM     82  O   UNL A   1      34.217  26.217  24.053  1.00  0.00    -0.365 OA
ATOM     83  C   UNL A   1      32.127  23.841  23.831  1.00  0.00     0.004 C 
BRANCH  78  84
ATOM     84  C   UNL A   1      32.752  28.400  23.256  1.00  0.00     0.231 C 
ATOM     85  O   UNL A   1      33.943  28.673  23.084  1.00  0.00    -0.274 OA
ATOM     86  N   UNL A   1      31.836  29.175  22.580  1.00  0.00    -0.325 N 
ATOM     87  H   UNL A   1      32.256  29.808  21.954  1.00  0.00     0.169 HD
BRANCH  86  88
ATOM     88  C   UNL A   1      30.429  29.258  22.586  1.00  0.00     0.048 A 
ATOM     89  C   UNL A   1      29.710  28.057  22.660  1.00  0.00     0.026 A 
ATOM     90  C   UNL A   1      29.702  30.443  22.579  1.00  0.00     0.111 A 
ATOM     91  C   UNL A   1      28.336  28.054  22.954  1.00  0.00     0.009 A 
ATOM     92  C   UNL A   1      28.329  30.442  22.873  1.00  0.00     0.271 A 
ATOM     93  C   UNL A   1      27.652  29.252  23.126  1.00  0.00     0.086 A 
BRANCH  92  94
ATOM     94  N   UNL A   1      27.615  31.721  22.926  1.00  0.00     0.062 N 
ATOM     95  O   UNL A   1      27.845  32.553  22.038  1.00  0.00    -0.258 OA
ATOM     96  O   UNL A   1      26.822  31.896  23.865  1.00  0.00    -0.258 OA
ENDBRANCH  92  94
ENDBRANCH  86  88
ENDBRANCH  78  84
ENDBRANCH  75  77
ENDBRANCH  74  75
ENDBRANCH  73  74
ENDBRANCH   1  73
TORSDOF 17
ENDMDL
MODEL 3
REMARK VINA RESULT:     -12.6      1.034      8.205
REMARK SMILES O=C(OCCOC(=O)[C@@H]1[C@@H](C(=O)Nc2cccc([N+](=O)[O-])c2)[C@@H]2C=C[C@H]1O2)c1ccc(-c2c3nc(c(-c4c(F)cc(S(=O)(=O)[O-])cc4F)c4ccc([nH]4)c(-c4c(F)cc(S(=O)(=O)[O-])cc4F)c4nc(c(-c5c(F)cc(S(=O)(=O)[O-])cc5F)c5ccc2[nH]5)C=C4)C=C3)cc1
REMARK SMILES IDX 4 1 3 2 2 3 1 4 28 5 29 6 93 7 30 8 92 9 31 10 32 11 33 12
REMARK SMILES IDX 86 13 34 14 91 15 85 16 87 17 35 18 90 19 84 20 83 21 36 23
REMARK SMILES IDX 70 24 49 25 69 26 50 27 53 28 68 29 88 30 51 31 52 32 67 34
REMARK SMILES IDX 89 35 54 36 37 37 38 38 47 39 39 40 40 41 46 42 48 43 41 44
REMARK SMILES IDX 42 45 43 46 44 47 45 48 71 49 72 50 81 51 73 52 74 53 80 54
REMARK SMILES IDX 82 55 75 56 76 57 77 58 78 59 79 60 55 61 56 62 65 63 57 64
REMARK SMILES IDX 58 65 64 66 66 67 59 68 60 69 61 70 62 71 63 72 5 73 6 74
REMARK SMILES IDX 7 75 8 76 9 77 10 78 26 79 23 80 25 81 27 82 24 83 11 84
REMARK SMILES IDX 12 85 13 86 14 88 15 89 22 90 16 91 18 92 17 93 19 94 20 95
REMARK SMILES IDX 21 96
REMARK H PARENT 87 22 53 33 13 87
REMARK Flexibility Score: inf
ROOT
ATOM      1  C   UNL A   1      39.419  21.888  26.134  1.00  0.00     0.275 C 
ENDROOT
BRANCH   1   2
ATOM      2  O   UNL A   1      40.662  22.326  26.756  1.00  0.00    -0.458 OA
BRANCH   2   3
ATOM      3  C   UNL A   1      41.215  23.583  26.827  1.00  0.00     0.338 C 
ATOM      4  O   UNL A   1      41.927  23.998  25.919  1.00  0.00    -0.246 OA
BRANCH   3   5
ATOM      5  C   UNL A   1      41.175  24.372  28.115  1.00  0.00     0.060 A 
ATOM      6  C   UNL A   1      42.610  24.917  28.414  1.00  0.00     0.016 A 
ATOM      7  C   UNL A   1      39.761  25.265  28.470  1.00  0.00     0.016 A 
ATOM      8  C   UNL A   1      42.861  26.553  28.824  1.00  0.00     0.010 A 
ATOM      9  C   UNL A   1      39.697  26.856  29.095  1.00  0.00     0.010 A 
ATOM     10  C   UNL A   1      41.202  27.681  29.374  1.00  0.00    -0.014 A 
BRANCH  10  11
ATOM     11  C   UNL A   1      41.005  28.905  30.680  1.00  0.00     0.031 A 
ATOM     12  C   UNL A   1      39.808  29.913  30.593  1.00  0.00     0.074 A 
ATOM     13  C   UNL A   1      41.145  28.807  32.063  1.00  0.00     0.049 A 
ATOM     14  N   UNL A   1      39.423  30.737  31.551  1.00  0.00    -0.248 NA
ATOM     15  C   UNL A   1      38.869  29.919  29.461  1.00  0.00     0.031 C 
ATOM     16  C   UNL A   1      41.219  27.619  32.928  1.00  0.00     0.029 A 
ATOM     17  N   UNL A   1      41.804  29.737  32.873  1.00  0.00    -0.354 N 
ATOM     18  C   UNL A   1      38.251  31.341  31.135  1.00  0.00     0.074 A 
ATOM     19  C   UNL A   1      37.935  30.784  29.846  1.00  0.00     0.031 C 
ATOM     20  C   UNL A   1      42.280  27.728  33.728  1.00  0.00     0.029 A 
ATOM     21  C   UNL A   1      42.596  29.120  33.837  1.00  0.00     0.049 A 
ATOM     22  H   UNL A   1      41.717  30.713  32.773  1.00  0.00     0.167 HD
ATOM     23  C   UNL A   1      37.537  32.292  31.780  1.00  0.00     0.037 A 
ATOM     24  C   UNL A   1      43.151  29.483  35.008  1.00  0.00     0.037 A 
ATOM     25  C   UNL A   1      37.880  32.805  33.086  1.00  0.00     0.049 A 
ATOM     26  C   UNL A   1      42.393  30.560  35.667  1.00  0.00     0.074 A 
ATOM     27  C   UNL A   1      37.309  33.871  33.759  1.00  0.00     0.029 A 
ATOM     28  N   UNL A   1      38.888  32.311  33.907  1.00  0.00    -0.354 N 
ATOM     29  N   UNL A   1      41.286  31.099  35.224  1.00  0.00    -0.248 NA
ATOM     30  C   UNL A   1      42.829  31.004  36.987  1.00  0.00     0.031 C 
ATOM     31  C   UNL A   1      38.051  34.101  34.920  1.00  0.00     0.029 A 
ATOM     32  C   UNL A   1      39.017  33.116  35.029  1.00  0.00     0.049 A 
ATOM     33  H   UNL A   1      39.429  31.509  33.720  1.00  0.00     0.167 HD
ATOM     34  C   UNL A   1      40.923  32.002  36.184  1.00  0.00     0.074 A 
ATOM     35  C   UNL A   1      41.842  31.831  37.297  1.00  0.00     0.031 C 
ATOM     36  C   UNL A   1      39.965  32.944  36.098  1.00  0.00     0.037 A 
BRANCH  23  37
ATOM     37  C   UNL A   1      36.455  32.995  31.012  1.00  0.00     0.058 A 
ATOM     38  C   UNL A   1      35.085  32.838  31.253  1.00  0.00     0.135 A 
ATOM     39  C   UNL A   1      36.849  33.926  30.033  1.00  0.00     0.135 A 
ATOM     40  F   UNL A   1      34.651  31.938  32.148  1.00  0.00    -0.206 F 
ATOM     41  C   UNL A   1      34.140  33.600  30.563  1.00  0.00     0.059 A 
ATOM     42  C   UNL A   1      35.929  34.715  29.358  1.00  0.00     0.059 A 
ATOM     43  F   UNL A   1      38.151  34.096  29.749  1.00  0.00    -0.206 F 
ATOM     44  C   UNL A   1      34.577  34.549  29.634  1.00  0.00     0.060 A 
BRANCH  44  45
ATOM     45  S   UNL A   1      33.353  35.594  28.815  1.00  0.00     0.124 S 
ATOM     46  O   UNL A   1      34.196  36.409  27.946  1.00  0.00    -0.237 OA
ATOM     47  O   UNL A   1      32.512  34.610  28.143  1.00  0.00    -0.237 OA
ATOM     48  O   UNL A   1      32.719  36.308  29.920  1.00  0.00    -0.744 OA
ENDBRANCH  44  45
ENDBRANCH  23  37
BRANCH  24  49
ATOM     49  C   UNL A   1      44.191  28.656  35.694  1.00  0.00     0.058 A 
ATOM     50  C   UNL A   1      45.573  28.755  35.466  1.00  0.00     0.135 A 
ATOM     51  C   UNL A   1      43.768  27.681  36.616  1.00  0.00     0.135 A 
ATOM     52  F   UNL A   1      46.064  29.733  34.689  1.00  0.00    -0.206 F 
ATOM     53  C   UNL A   1      46.483  27.874  36.053  1.00  0.00     0.059 A 
ATOM     54  C   UNL A   1      44.658  26.807  37.233  1.00  0.00     0.059 A 
ATOM     55  F   UNL A   1      42.472  27.586  36.946  1.00  0.00    -0.206 F 
ATOM     56  C   UNL A   1      46.013  26.898  36.931  1.00  0.00     0.060 A 
BRANCH  56  57
ATOM     57  S   UNL A   1      47.206  25.807  37.734  1.00  0.00     0.124 S 
ATOM     58  O   UNL A   1      48.433  26.588  37.642  1.00  0.00    -0.237 OA
ATOM     59  O   UNL A   1      46.626  25.675  39.067  1.00  0.00    -0.237 OA
ATOM     60  O   UNL A   1      47.159  24.600  36.914  1.00  0.00    -0.744 OA
ENDBRANCH  56  57
ENDBRANCH  24  49
BRANCH  36  61
ATOM     61  C   UNL A   1      39.984  33.932  37.206  1.00  0.00     0.058 A 
ATOM     62  C   UNL A   1      40.782  35.086  37.109  1.00  0.00     0.135 A 
ATOM     63  C   UNL A   1      39.214  33.732  38.354  1.00  0.00     0.135 A 
ATOM     64  F   UNL A   1      41.561  35.289  36.034  1.00  0.00    -0.206 F 
ATOM     65  C   UNL A   1      40.829  36.006  38.137  1.00  0.00     0.059 A 
ATOM     66  C   UNL A   1      39.208  34.667  39.373  1.00  0.00     0.059 A 
ATOM     67  F   UNL A   1      38.457  32.630  38.482  1.00  0.00    -0.206 F 
ATOM     68  C   UNL A   1      40.020  35.796  39.255  1.00  0.00     0.060 A 
BRANCH  68  69
ATOM     69  S   UNL A   1      40.013  37.062  40.530  1.00  0.00     0.124 S 
ATOM     70  O   UNL A   1      38.739  36.807  41.191  1.00  0.00    -0.237 OA
ATOM     71  O   UNL A   1      41.207  36.724  41.297  1.00  0.00    -0.237 OA
ATOM     72  O   UNL A   1      40.090  38.306  39.771  1.00  0.00    -0.744 OA
ENDBRANCH  68  69
ENDBRANCH  36  61
ENDBRANCH  10  11
ENDBRANCH   3   5
ENDBRANCH   2   3
ENDBRANCH   1   2
BRANCH   1  73
ATOM     73  C   UNL A   1      38.129  22.742  26.437  1.00  0.00     0.274 C 
BRANCH  73  74
ATOM     74  O   UNL A   1      37.711  23.755  25.477  1.00  0.00    -0.462 OA
BRANCH  74  75
ATOM     75  C   UNL A   1      36.552  23.576  24.772  1.00  0.00     0.312 C 
ATOM     76  O   UNL A   1      36.546  23.166  23.621  1.00  0.00    -0.252 OA
BRANCH  75  77
ATOM     77  C   UNL A   1      35.278  23.850  25.613  1.00  0.00     0.147 C 
ATOM     78  C   UNL A   1      34.037  22.600  25.372  1.00  0.00     0.129 C 
ATOM     79  C   UNL A   1      34.393  25.517  25.406  1.00  0.00     0.157 C 
ATOM     80  C   UNL A   1      32.536  23.436  25.155  1.00  0.00     0.155 C 
ATOM     81  C   UNL A   1      33.083  26.056  23.688  1.00  0.00     0.004 C 
ATOM     82  O   UNL A   1      33.401  24.378  26.432  1.00  0.00    -0.365 OA
ATOM     83  C   UNL A   1      32.011  24.707  23.600  1.00  0.00     0.004 C 
BRANCH  78  84
ATOM     84  C   UNL A   1      33.859  21.673  26.581  1.00  0.00     0.231 C 
ATOM     85  O   UNL A   1      34.135  22.039  27.726  1.00  0.00    -0.274 OA
ATOM     86  N   UNL A   1      33.356  20.398  26.442  1.00  0.00    -0.325 N 
ATOM     87  H   UNL A   1      33.189  19.955  27.306  1.00  0.00     0.169 HD
BRANCH  86  88
ATOM     88  C   UNL A   1      33.029  19.589  25.336  1.00  0.00     0.048 A 
ATOM     89  C   UNL A   1      32.238  20.160  24.328  1.00  0.00     0.026 A 
ATOM     90  C   UNL A   1      33.476  18.288  25.142  1.00  0.00     0.111 A 
ATOM     91  C   UNL A   1      32.101  19.536  23.077  1.00  0.00     0.009 A 
ATOM     92  C   UNL A   1      33.340  17.663  23.892  1.00  0.00     0.271 A 
ATOM     93  C   UNL A   1      32.709  18.309  22.833  1.00  0.00     0.086 A 
BRANCH  92  94
ATOM     94  N   UNL A   1      33.889  16.316  23.709  1.00  0.00     0.062 N 
ATOM     95  O   UNL A   1      33.840  15.533  24.667  1.00  0.00    -0.258 OA
ATOM     96  O   UNL A   1      34.378  16.042  22.601  1.00  0.00    -0.258 OA
ENDBRANCH  92  94
ENDBRANCH  86  88
ENDBRANCH  78  84
ENDBRANCH  75  77
ENDBRANCH  74  75
ENDBRANCH  73  74
ENDBRANCH   1  73
TORSDOF 17
ENDMDL
