MODEL 1
REMARK VINA RESULT:     -13.5      0.000      0.000
REMARK SMILES O=C(Cn1nc(C(=O)OCCOC(=O)c2ccc(-c3c4nc(c(-c5c(F)cc(S(=O)(=O)[O-])cc5F)c5ccc([nH]5)c(-c5c(F)cc(S(=O)(=O)[O-])cc5F)c5nc(c(-c6c(F)cc(S(=O)(=O)[O-])cc6F)c6ccc3[nH]6)C=C5)C=C4)cc2)c2ccccc2c1=O)Nc1ccc2c(c1)C(=O)c1ccccc1C2=O
REMARK SMILES IDX 10 1 9 2 7 3 8 4 6 5 4 6 5 7 87 8 86 9 88 10 81 11 85 12
REMARK SMILES IDX 82 13 84 14 83 15 3 16 2 17 1 18 89 19 90 21 91 22 95 23
REMARK SMILES IDX 92 24 94 25 93 26 96 27 104 28 97 29 98 30 103 31 105 32
REMARK SMILES IDX 99 33 102 34 100 35 101 36 11 37 12 38 13 39 14 40 15 41
REMARK SMILES IDX 16 42 80 43 17 44 79 45 18 46 19 47 20 48 73 49 21 50 78 51
REMARK SMILES IDX 72 52 74 53 22 54 77 55 71 56 70 57 23 59 57 60 36 61 56 62
REMARK SMILES IDX 37 63 40 64 55 65 75 66 38 67 39 68 54 70 76 71 41 72 24 73
REMARK SMILES IDX 25 74 34 75 26 76 27 77 33 78 35 79 28 80 29 81 30 82 31 83
REMARK SMILES IDX 32 84 58 85 59 86 68 87 60 88 61 89 67 90 69 91 62 92 63 93
REMARK SMILES IDX 64 94 65 95 66 96 42 97 43 98 52 99 44 100 45 101 51 102
REMARK SMILES IDX 53 103 46 104 47 105 48 106 49 107 50 108
REMARK H PARENT 89 20 74 58 40 69
REMARK Flexibility Score: inf
ROOT
ATOM      1  C   UNL A   1      45.626  24.461  24.685  1.00  0.00     0.275 C 
ENDROOT
BRANCH   1   2
ATOM      2  O   UNL A   1      45.031  23.325  25.359  1.00  0.00    -0.457 OA
BRANCH   2   3
ATOM      3  C   UNL A   1      44.052  22.727  24.645  1.00  0.00     0.359 C 
ATOM      4  O   UNL A   1      43.916  22.723  23.436  1.00  0.00    -0.244 OA
BRANCH   3   5
ATOM      5  C   UNL A   1      43.066  21.988  25.546  1.00  0.00     0.176 A 
ATOM      6  N   UNL A   1      41.116  22.004  26.807  1.00  0.00    -0.219 N 
ATOM      7  N   UNL A   1      42.034  22.657  25.989  1.00  0.00    -0.161 NA
ATOM      8  C   UNL A   1      41.288  20.691  27.259  1.00  0.00     0.275 A 
ATOM      9  C   UNL A   1      42.435  19.943  26.719  1.00  0.00     0.051 A 
ATOM     10  O   UNL A   1      40.504  20.118  28.011  1.00  0.00    -0.267 OA
ATOM     11  C   UNL A   1      43.289  20.557  25.812  1.00  0.00     0.022 A 
ATOM     12  C   UNL A   1      42.591  18.586  27.037  1.00  0.00     0.014 A 
ATOM     13  C   UNL A   1      44.268  19.794  25.165  1.00  0.00     0.011 A 
ATOM     14  C   UNL A   1      43.585  17.836  26.416  1.00  0.00     0.001 A 
ATOM     15  C   UNL A   1      44.407  18.435  25.466  1.00  0.00     0.001 A 
BRANCH   6  16
ATOM     16  C   UNL A   1      39.792  22.614  27.041  1.00  0.00     0.248 C 
BRANCH  16  17
ATOM     17  C   UNL A   1      38.629  22.324  26.090  1.00  0.00     0.246 C 
ATOM     18  O   UNL A   1      38.640  21.357  25.330  1.00  0.00    -0.273 OA
ATOM     19  N   UNL A   1      37.700  23.329  26.059  1.00  0.00    -0.324 N 
ATOM     20  H   UNL A   1      37.925  24.129  26.587  1.00  0.00     0.169 HD
BRANCH  19  21
ATOM     21  C   UNL A   1      36.481  23.375  25.385  1.00  0.00     0.042 A 
ATOM     22  C   UNL A   1      36.342  23.648  24.016  1.00  0.00     0.027 A 
ATOM     23  C   UNL A   1      35.385  22.960  26.132  1.00  0.00     0.039 A 
ATOM     24  C   UNL A   1      35.137  23.351  23.361  1.00  0.00     0.015 A 
ATOM     25  C   UNL A   1      34.200  22.663  25.480  1.00  0.00     0.036 A 
ATOM     26  C   UNL A   1      34.097  22.779  24.094  1.00  0.00     0.034 A 
ATOM     27  C   UNL A   1      33.214  21.866  26.217  1.00  0.00     0.194 C 
ATOM     28  C   UNL A   1      33.057  21.967  23.416  1.00  0.00     0.194 C 
ATOM     29  O   UNL A   1      32.928  22.084  27.383  1.00  0.00    -0.289 OA
ATOM     30  C   UNL A   1      32.804  20.653  25.502  1.00  0.00     0.034 A 
ATOM     31  C   UNL A   1      32.741  20.689  24.107  1.00  0.00     0.034 A 
ATOM     32  O   UNL A   1      32.616  22.246  22.313  1.00  0.00    -0.289 OA
ATOM     33  C   UNL A   1      32.796  19.449  26.198  1.00  0.00     0.013 A 
ATOM     34  C   UNL A   1      32.654  19.500  23.389  1.00  0.00     0.013 A 
ATOM     35  C   UNL A   1      32.802  18.260  25.478  1.00  0.00     0.001 A 
ATOM     36  C   UNL A   1      32.720  18.284  24.081  1.00  0.00     0.001 A 
ENDBRANCH  19  21
ENDBRANCH  16  17
ENDBRANCH   6  16
ENDBRANCH   3   5
ENDBRANCH   2   3
ENDBRANCH   1   2
BRANCH   1  37
ATOM     37  C   UNL A   1      45.130  25.775  25.288  1.00  0.00     0.275 C 
BRANCH  37  38
ATOM     38  O   UNL A   1      44.054  25.476  26.183  1.00  0.00    -0.458 OA
BRANCH  38  39
ATOM     39  C   UNL A   1      42.896  26.151  25.994  1.00  0.00     0.338 C 
ATOM     40  O   UNL A   1      42.165  26.155  25.025  1.00  0.00    -0.246 OA
BRANCH  39  41
ATOM     41  C   UNL A   1      42.619  26.763  27.296  1.00  0.00     0.060 A 
ATOM     42  C   UNL A   1      41.752  26.172  28.209  1.00  0.00     0.016 A 
ATOM     43  C   UNL A   1      43.175  28.021  27.533  1.00  0.00     0.016 A 
ATOM     44  C   UNL A   1      41.384  26.897  29.343  1.00  0.00     0.010 A 
ATOM     45  C   UNL A   1      42.834  28.722  28.679  1.00  0.00     0.010 A 
ATOM     46  C   UNL A   1      41.907  28.185  29.576  1.00  0.00    -0.014 A 
BRANCH  46  47
ATOM     47  C   UNL A   1      41.518  28.965  30.774  1.00  0.00     0.031 A 
ATOM     48  C   UNL A   1      42.344  28.930  32.031  1.00  0.00     0.074 A 
ATOM     49  C   UNL A   1      40.371  29.666  30.730  1.00  0.00     0.049 A 
ATOM     50  N   UNL A   1      42.177  29.598  33.143  1.00  0.00    -0.248 NA
ATOM     51  C   UNL A   1      43.478  27.990  32.067  1.00  0.00     0.031 C 
ATOM     52  C   UNL A   1      39.430  29.665  29.609  1.00  0.00     0.029 A 
ATOM     53  N   UNL A   1      39.816  30.530  31.635  1.00  0.00    -0.354 N 
ATOM     54  C   UNL A   1      43.164  29.150  34.013  1.00  0.00     0.074 A 
ATOM     55  C   UNL A   1      43.896  28.114  33.320  1.00  0.00     0.031 C 
ATOM     56  C   UNL A   1      38.453  30.551  29.858  1.00  0.00     0.029 A 
ATOM     57  C   UNL A   1      38.699  31.170  31.156  1.00  0.00     0.049 A 
ATOM     58  H   UNL A   1      40.180  30.678  32.538  1.00  0.00     0.167 HD
ATOM     59  C   UNL A   1      43.449  29.589  35.264  1.00  0.00     0.037 A 
ATOM     60  C   UNL A   1      37.984  32.179  31.686  1.00  0.00     0.037 A 
ATOM     61  C   UNL A   1      42.749  30.671  35.909  1.00  0.00     0.049 A 
ATOM     62  C   UNL A   1      38.410  32.757  33.003  1.00  0.00     0.074 A 
ATOM     63  C   UNL A   1      43.008  31.259  37.135  1.00  0.00     0.029 A 
ATOM     64  N   UNL A   1      41.664  31.343  35.364  1.00  0.00    -0.354 N 
ATOM     65  N   UNL A   1      39.396  32.381  33.782  1.00  0.00    -0.248 NA
ATOM     66  C   UNL A   1      37.641  33.902  33.506  1.00  0.00     0.031 C 
ATOM     67  C   UNL A   1      42.072  32.280  37.336  1.00  0.00     0.029 A 
ATOM     68  C   UNL A   1      41.246  32.343  36.225  1.00  0.00     0.049 A 
ATOM     69  H   UNL A   1      41.252  31.139  34.494  1.00  0.00     0.167 HD
ATOM     70  C   UNL A   1      39.369  33.245  34.869  1.00  0.00     0.074 A 
ATOM     71  C   UNL A   1      38.286  34.179  34.632  1.00  0.00     0.031 C 
ATOM     72  C   UNL A   1      40.163  33.259  35.966  1.00  0.00     0.037 A 
BRANCH  59  73
ATOM     73  C   UNL A   1      44.584  28.931  36.003  1.00  0.00     0.058 A 
ATOM     74  C   UNL A   1      44.371  27.816  36.830  1.00  0.00     0.135 A 
ATOM     75  C   UNL A   1      45.904  29.383  35.847  1.00  0.00     0.135 A 
ATOM     76  F   UNL A   1      43.128  27.348  37.023  1.00  0.00    -0.206 F 
ATOM     77  C   UNL A   1      45.419  27.193  37.499  1.00  0.00     0.059 A 
ATOM     78  C   UNL A   1      46.973  28.759  36.487  1.00  0.00     0.059 A 
ATOM     79  F   UNL A   1      46.168  30.443  35.066  1.00  0.00    -0.206 F 
ATOM     80  C   UNL A   1      46.717  27.673  37.324  1.00  0.00     0.060 A 
BRANCH  80  81
ATOM     81  S   UNL A   1      48.066  26.851  38.199  1.00  0.00     0.124 S 
ATOM     82  O   UNL A   1      47.704  25.447  38.032  1.00  0.00    -0.237 OA
ATOM     83  O   UNL A   1      49.239  27.295  37.453  1.00  0.00    -0.237 OA
ATOM     84  O   UNL A   1      47.956  27.372  39.557  1.00  0.00    -0.744 OA
ENDBRANCH  80  81
ENDBRANCH  59  73
BRANCH  60  85
ATOM     85  C   UNL A   1      36.876  32.770  30.897  1.00  0.00     0.058 A 
ATOM     86  C   UNL A   1      35.549  32.397  31.153  1.00  0.00     0.135 A 
ATOM     87  C   UNL A   1      37.107  33.772  29.943  1.00  0.00     0.135 A 
ATOM     88  F   UNL A   1      35.284  31.448  32.064  1.00  0.00    -0.206 F 
ATOM     89  C   UNL A   1      34.485  32.993  30.489  1.00  0.00     0.059 A 
ATOM     90  C   UNL A   1      36.057  34.397  29.278  1.00  0.00     0.059 A 
ATOM     91  F   UNL A   1      38.358  34.182  29.688  1.00  0.00    -0.206 F 
ATOM     92  C   UNL A   1      34.749  33.998  29.556  1.00  0.00     0.060 A 
BRANCH  92  93
ATOM     93  S   UNL A   1      33.353  34.823  28.761  1.00  0.00     0.124 S 
ATOM     94  O   UNL A   1      32.515  35.150  29.907  1.00  0.00    -0.237 OA
ATOM     95  O   UNL A   1      34.001  35.952  28.100  1.00  0.00    -0.237 OA
ATOM     96  O   UNL A   1      32.827  33.799  27.862  1.00  0.00    -0.744 OA
ENDBRANCH  92  93
ENDBRANCH  60  85
BRANCH  72  97
ATOM     97  C   UNL A   1      39.885  34.308  37.000  1.00  0.00     0.058 A 
ATOM     98  C   UNL A   1      39.033  34.047  38.084  1.00  0.00     0.135 A 
ATOM     99  C   UNL A   1      40.527  35.554  36.947  1.00  0.00     0.135 A 
ATOM    100  F   UNL A   1      38.393  32.870  38.173  1.00  0.00    -0.206 F 
ATOM    101  C   UNL A   1      38.820  34.992  39.080  1.00  0.00     0.059 A 
ATOM    102  C   UNL A   1      40.342  36.508  37.942  1.00  0.00     0.059 A 
ATOM    103  F   UNL A   1      41.356  35.845  35.932  1.00  0.00    -0.206 F 
ATOM    104  C   UNL A   1      39.482  36.219  39.002  1.00  0.00     0.060 A 
BRANCH 104 105
ATOM    105  S   UNL A   1      39.236  37.417  40.329  1.00  0.00     0.124 S 
ATOM    106  O   UNL A   1      38.235  38.302  39.744  1.00  0.00    -0.237 OA
ATOM    107  O   UNL A   1      38.774  36.575  41.429  1.00  0.00    -0.237 OA
ATOM    108  O   UNL A   1      40.562  38.000  40.510  1.00  0.00    -0.744 OA
ENDBRANCH 104 105
ENDBRANCH  72  97
ENDBRANCH  46  47
ENDBRANCH  39  41
ENDBRANCH  38  39
ENDBRANCH  37  38
ENDBRANCH   1  37
TORSDOF 17
ENDMDL
MODEL 2
REMARK VINA RESULT:     -13.2     10.228     18.319
REMARK SMILES O=C(Cn1nc(C(=O)OCCOC(=O)c2ccc(-c3c4nc(c(-c5c(F)cc(S(=O)(=O)[O-])cc5F)c5ccc([nH]5)c(-c5c(F)cc(S(=O)(=O)[O-])cc5F)c5nc(c(-c6c(F)cc(S(=O)(=O)[O-])cc6F)c6ccc3[nH]6)C=C5)C=C4)cc2)c2ccccc2c1=O)Nc1ccc2c(c1)C(=O)c1ccccc1C2=O
REMARK SMILES IDX 10 1 9 2 7 3 8 4 6 5 4 6 5 7 87 8 86 9 88 10 81 11 85 12
REMARK SMILES IDX 82 13 84 14 83 15 3 16 2 17 1 18 89 19 90 21 91 22 95 23
REMARK SMILES IDX 92 24 94 25 93 26 96 27 104 28 97 29 98 30 103 31 105 32
REMARK SMILES IDX 99 33 102 34 100 35 101 36 11 37 12 38 13 39 14 40 15 41
REMARK SMILES IDX 16 42 80 43 17 44 79 45 18 46 19 47 20 48 73 49 21 50 78 51
REMARK SMILES IDX 72 52 74 53 22 54 77 55 71 56 70 57 23 59 57 60 36 61 56 62
REMARK SMILES IDX 37 63 40 64 55 65 75 66 38 67 39 68 54 70 76 71 41 72 24 73
REMARK SMILES IDX 25 74 34 75 26 76 27 77 33 78 35 79 28 80 29 81 30 82 31 83
REMARK SMILES IDX 32 84 58 85 59 86 68 87 60 88 61 89 67 90 69 91 62 92 63 93
REMARK SMILES IDX 64 94 65 95 66 96 42 97 43 98 52 99 44 100 45 101 51 102
REMARK SMILES IDX 53 103 46 104 47 105 48 106 49 107 50 108
REMARK H PARENT 89 20 74 58 40 69
REMARK Flexibility Score: inf
ROOT
ATOM      1  C   UNL A   1      45.654  39.248  28.324  1.00  0.00     0.275 C 
ENDROOT
BRANCH   1   2
ATOM      2  O   UNL A   1      44.846  39.495  27.148  1.00  0.00    -0.457 OA
BRANCH   2   3
ATOM      3  C   UNL A   1      43.833  40.363  27.364  1.00  0.00     0.359 C 
ATOM      4  O   UNL A   1      43.023  40.343  28.273  1.00  0.00    -0.244 OA
BRANCH   3   5
ATOM      5  C   UNL A   1      43.794  41.461  26.305  1.00  0.00     0.176 A 
ATOM      6  N   UNL A   1      42.990  42.248  24.273  1.00  0.00    -0.219 N 
ATOM      7  N   UNL A   1      43.048  41.258  25.251  1.00  0.00    -0.161 NA
ATOM      8  C   UNL A   1      43.762  43.414  24.313  1.00  0.00     0.275 A 
ATOM      9  C   UNL A   1      44.565  43.642  25.525  1.00  0.00     0.051 A 
ATOM     10  O   UNL A   1      43.747  44.275  23.438  1.00  0.00    -0.267 OA
ATOM     11  C   UNL A   1      44.536  42.709  26.554  1.00  0.00     0.022 A 
ATOM     12  C   UNL A   1      45.263  44.848  25.679  1.00  0.00     0.014 A 
ATOM     13  C   UNL A   1      45.153  43.010  27.773  1.00  0.00     0.011 A 
ATOM     14  C   UNL A   1      45.903  45.134  26.881  1.00  0.00     0.001 A 
ATOM     15  C   UNL A   1      45.830  44.225  27.933  1.00  0.00     0.001 A 
BRANCH   6  16
ATOM     16  C   UNL A   1      41.919  42.201  23.258  1.00  0.00     0.248 C 
BRANCH  16  17
ATOM     17  C   UNL A   1      42.258  42.325  21.771  1.00  0.00     0.246 C 
ATOM     18  O   UNL A   1      42.896  41.457  21.178  1.00  0.00    -0.273 OA
ATOM     19  N   UNL A   1      41.938  43.549  21.250  1.00  0.00    -0.324 N 
ATOM     20  H   UNL A   1      41.602  44.210  21.897  1.00  0.00     0.169 HD
BRANCH  19  21
ATOM     21  C   UNL A   1      42.020  43.988  19.929  1.00  0.00     0.042 A 
ATOM     22  C   UNL A   1      40.915  44.185  19.088  1.00  0.00     0.027 A 
ATOM     23  C   UNL A   1      43.287  44.390  19.526  1.00  0.00     0.039 A 
ATOM     24  C   UNL A   1      41.055  44.931  17.908  1.00  0.00     0.015 A 
ATOM     25  C   UNL A   1      43.420  45.132  18.364  1.00  0.00     0.036 A 
ATOM     26  C   UNL A   1      42.304  45.471  17.600  1.00  0.00     0.034 A 
ATOM     27  C   UNL A   1      44.676  45.866  18.180  1.00  0.00     0.194 C 
ATOM     28  C   UNL A   1      42.413  46.664  16.725  1.00  0.00     0.194 C 
ATOM     29  O   UNL A   1      45.768  45.372  18.408  1.00  0.00    -0.289 OA
ATOM     30  C   UNL A   1      44.475  47.299  17.942  1.00  0.00     0.034 A 
ATOM     31  C   UNL A   1      43.342  47.706  17.234  1.00  0.00     0.034 A 
ATOM     32  O   UNL A   1      41.688  46.843  15.759  1.00  0.00    -0.289 OA
ATOM     33  C   UNL A   1      45.235  48.202  18.678  1.00  0.00     0.013 A 
ATOM     34  C   UNL A   1      42.963  49.045  17.250  1.00  0.00     0.013 A 
ATOM     35  C   UNL A   1      44.805  49.520  18.769  1.00  0.00     0.001 A 
ATOM     36  C   UNL A   1      43.681  49.943  18.049  1.00  0.00     0.001 A 
ENDBRANCH  19  21
ENDBRANCH  16  17
ENDBRANCH   6  16
ENDBRANCH   3   5
ENDBRANCH   2   3
ENDBRANCH   1   2
BRANCH   1  37
ATOM     37  C   UNL A   1      45.527  37.794  28.778  1.00  0.00     0.275 C 
BRANCH  37  38
ATOM     38  O   UNL A   1      46.812  37.357  29.234  1.00  0.00    -0.458 OA
BRANCH  38  39
ATOM     39  C   UNL A   1      47.676  36.913  28.291  1.00  0.00     0.338 C 
ATOM     40  O   UNL A   1      48.582  37.509  27.746  1.00  0.00    -0.246 OA
BRANCH  39  41
ATOM     41  C   UNL A   1      47.385  35.481  28.180  1.00  0.00     0.060 A 
ATOM     42  C   UNL A   1      46.951  34.915  26.986  1.00  0.00     0.016 A 
ATOM     43  C   UNL A   1      47.454  34.732  29.356  1.00  0.00     0.016 A 
ATOM     44  C   UNL A   1      46.510  33.591  26.998  1.00  0.00     0.010 A 
ATOM     45  C   UNL A   1      47.049  33.406  29.353  1.00  0.00     0.010 A 
ATOM     46  C   UNL A   1      46.537  32.834  28.186  1.00  0.00    -0.014 A 
BRANCH  46  47
ATOM     47  C   UNL A   1      46.066  31.430  28.211  1.00  0.00     0.031 A 
ATOM     48  C   UNL A   1      44.641  31.090  28.559  1.00  0.00     0.074 A 
ATOM     49  C   UNL A   1      46.960  30.456  27.967  1.00  0.00     0.049 A 
ATOM     50  N   UNL A   1      44.055  29.921  28.568  1.00  0.00    -0.248 NA
ATOM     51  C   UNL A   1      43.773  32.194  29.001  1.00  0.00     0.031 C 
ATOM     52  C   UNL A   1      48.392  30.668  27.748  1.00  0.00     0.029 A 
ATOM     53  N   UNL A   1      46.797  29.103  27.841  1.00  0.00    -0.354 N 
ATOM     54  C   UNL A   1      42.763  30.142  29.031  1.00  0.00     0.074 A 
ATOM     55  C   UNL A   1      42.664  31.550  29.344  1.00  0.00     0.031 C 
ATOM     56  C   UNL A   1      48.964  29.495  27.433  1.00  0.00     0.029 A 
ATOM     57  C   UNL A   1      47.940  28.456  27.439  1.00  0.00     0.049 A 
ATOM     58  H   UNL A   1      45.946  28.640  28.019  1.00  0.00     0.167 HD
ATOM     59  C   UNL A   1      41.746  29.253  29.153  1.00  0.00     0.037 A 
ATOM     60  C   UNL A   1      48.128  27.176  27.069  1.00  0.00     0.037 A 
ATOM     61  C   UNL A   1      41.847  27.868  28.770  1.00  0.00     0.049 A 
ATOM     62  C   UNL A   1      46.953  26.244  27.061  1.00  0.00     0.074 A 
ATOM     63  C   UNL A   1      40.859  26.899  28.765  1.00  0.00     0.029 A 
ATOM     64  N   UNL A   1      43.004  27.262  28.302  1.00  0.00    -0.354 N 
ATOM     65  N   UNL A   1      45.714  26.483  27.422  1.00  0.00    -0.248 NA
ATOM     66  C   UNL A   1      47.192  24.876  26.582  1.00  0.00     0.031 C 
ATOM     67  C   UNL A   1      41.423  25.703  28.302  1.00  0.00     0.029 A 
ATOM     68  C   UNL A   1      42.754  25.935  27.997  1.00  0.00     0.049 A 
ATOM     69  H   UNL A   1      43.875  27.710  28.200  1.00  0.00     0.167 HD
ATOM     70  C   UNL A   1      45.024  25.296  27.213  1.00  0.00     0.074 A 
ATOM     71  C   UNL A   1      45.978  24.349  26.668  1.00  0.00     0.031 C 
ATOM     72  C   UNL A   1      43.722  25.013  27.458  1.00  0.00     0.037 A 
BRANCH  59  73
ATOM     73  C   UNL A   1      40.429  29.754  29.683  1.00  0.00     0.058 A 
ATOM     74  C   UNL A   1      40.254  30.053  31.044  1.00  0.00     0.135 A 
ATOM     75  C   UNL A   1      39.346  29.987  28.820  1.00  0.00     0.135 A 
ATOM     76  F   UNL A   1      41.252  29.841  31.915  1.00  0.00    -0.206 F 
ATOM     77  C   UNL A   1      39.045  30.534  31.535  1.00  0.00     0.059 A 
ATOM     78  C   UNL A   1      38.133  30.493  29.286  1.00  0.00     0.059 A 
ATOM     79  F   UNL A   1      39.457  29.722  27.509  1.00  0.00    -0.206 F 
ATOM     80  C   UNL A   1      37.989  30.749  30.649  1.00  0.00     0.060 A 
BRANCH  80  81
ATOM     81  S   UNL A   1      36.427  31.376  31.304  1.00  0.00     0.124 S 
ATOM     82  O   UNL A   1      35.864  30.173  31.908  1.00  0.00    -0.237 OA
ATOM     83  O   UNL A   1      36.870  32.406  32.239  1.00  0.00    -0.237 OA
ATOM     84  O   UNL A   1      35.735  31.867  30.117  1.00  0.00    -0.744 OA
ENDBRANCH  80  81
ENDBRANCH  59  73
BRANCH  60  85
ATOM     85  C   UNL A   1      49.457  26.759  26.563  1.00  0.00     0.058 A 
ATOM     86  C   UNL A   1      50.394  26.178  27.430  1.00  0.00     0.135 A 
ATOM     87  C   UNL A   1      49.786  26.849  25.202  1.00  0.00     0.135 A 
ATOM     88  F   UNL A   1      50.115  26.065  28.738  1.00  0.00    -0.206 F 
ATOM     89  C   UNL A   1      51.614  25.702  26.969  1.00  0.00     0.059 A 
ATOM     90  C   UNL A   1      50.995  26.362  24.714  1.00  0.00     0.059 A 
ATOM     91  F   UNL A   1      48.909  27.369  24.331  1.00  0.00    -0.206 F 
ATOM     92  C   UNL A   1      51.903  25.793  25.607  1.00  0.00     0.060 A 
BRANCH  92  93
ATOM     93  S   UNL A   1      53.458  25.095  25.008  1.00  0.00     0.124 S 
ATOM     94  O   UNL A   1      53.257  23.674  25.262  1.00  0.00    -0.237 OA
ATOM     95  O   UNL A   1      53.455  25.500  23.606  1.00  0.00    -0.237 OA
ATOM     96  O   UNL A   1      54.462  25.752  25.840  1.00  0.00    -0.744 OA
ENDBRANCH  92  93
ENDBRANCH  60  85
BRANCH  72  97
ATOM     97  C   UNL A   1      43.253  23.623  27.149  1.00  0.00     0.058 A 
ATOM     98  C   UNL A   1      42.952  23.237  25.835  1.00  0.00     0.135 A 
ATOM     99  C   UNL A   1      43.171  22.653  28.160  1.00  0.00     0.135 A 
ATOM    100  F   UNL A   1      43.011  24.134  24.836  1.00  0.00    -0.206 F 
ATOM    101  C   UNL A   1      42.578  21.934  25.531  1.00  0.00     0.059 A 
ATOM    102  C   UNL A   1      42.816  21.339  27.877  1.00  0.00     0.059 A 
ATOM    103  F   UNL A   1      43.456  22.976  29.431  1.00  0.00    -0.206 F 
ATOM    104  C   UNL A   1      42.516  20.991  26.559  1.00  0.00     0.060 A 
BRANCH 104 105
ATOM    105  S   UNL A   1      42.079  19.290  26.142  1.00  0.00     0.124 S 
ATOM    106  O   UNL A   1      42.949  19.036  24.999  1.00  0.00    -0.237 OA
ATOM    107  O   UNL A   1      42.416  18.571  27.367  1.00  0.00    -0.237 OA
ATOM    108  O   UNL A   1      40.653  19.370  25.841  1.00  0.00    -0.744 OA
ENDBRANCH 104 105
ENDBRANCH  72  97
ENDBRANCH  46  47
ENDBRANCH  39  41
ENDBRANCH  38  39
ENDBRANCH  37  38
ENDBRANCH   1  37
TORSDOF 17
ENDMDL
MODEL 3
REMARK VINA RESULT:     -13.2      1.145      2.070
REMARK SMILES O=C(Cn1nc(C(=O)OCCOC(=O)c2ccc(-c3c4nc(c(-c5c(F)cc(S(=O)(=O)[O-])cc5F)c5ccc([nH]5)c(-c5c(F)cc(S(=O)(=O)[O-])cc5F)c5nc(c(-c6c(F)cc(S(=O)(=O)[O-])cc6F)c6ccc3[nH]6)C=C5)C=C4)cc2)c2ccccc2c1=O)Nc1ccc2c(c1)C(=O)c1ccccc1C2=O
REMARK SMILES IDX 10 1 9 2 7 3 8 4 6 5 4 6 5 7 87 8 86 9 88 10 81 11 85 12
REMARK SMILES IDX 82 13 84 14 83 15 3 16 2 17 1 18 89 19 90 21 91 22 95 23
REMARK SMILES IDX 92 24 94 25 93 26 96 27 104 28 97 29 98 30 103 31 105 32
REMARK SMILES IDX 99 33 102 34 100 35 101 36 11 37 12 38 13 39 14 40 15 41
REMARK SMILES IDX 16 42 80 43 17 44 79 45 18 46 19 47 20 48 73 49 21 50 78 51
REMARK SMILES IDX 72 52 74 53 22 54 77 55 71 56 70 57 23 59 57 60 36 61 56 62
REMARK SMILES IDX 37 63 40 64 55 65 75 66 38 67 39 68 54 70 76 71 41 72 24 73
REMARK SMILES IDX 25 74 34 75 26 76 27 77 33 78 35 79 28 80 29 81 30 82 31 83
REMARK SMILES IDX 32 84 58 85 59 86 68 87 60 88 61 89 67 90 69 91 62 92 63 93
REMARK SMILES IDX 64 94 65 95 66 96 42 97 43 98 52 99 44 100 45 101 51 102
REMARK SMILES IDX 53 103 46 104 47 105 48 106 49 107 50 108
REMARK H PARENT 89 20 74 58 40 69
REMARK Flexibility Score: inf
ROOT
ATOM      1  C   UNL A   1      45.702  24.412  24.630  1.00  0.00     0.275 C 
ENDROOT
BRANCH   1   2
ATOM      2  O   UNL A   1      45.097  23.268  25.279  1.00  0.00    -0.457 OA
BRANCH   2   3
ATOM      3  C   UNL A   1      44.125  22.683  24.545  1.00  0.00     0.359 C 
ATOM      4  O   UNL A   1      44.032  22.653  23.332  1.00  0.00    -0.244 OA
BRANCH   3   5
ATOM      5  C   UNL A   1      43.085  21.998  25.427  1.00  0.00     0.176 A 
ATOM      6  N   UNL A   1      41.070  22.091  26.578  1.00  0.00    -0.219 N 
ATOM      7  N   UNL A   1      42.038  22.696  25.779  1.00  0.00    -0.161 NA
ATOM      8  C   UNL A   1      41.205  20.802  27.104  1.00  0.00     0.275 A 
ATOM      9  C   UNL A   1      42.371  20.020  26.666  1.00  0.00     0.051 A 
ATOM     10  O   UNL A   1      40.376  20.273  27.840  1.00  0.00    -0.267 OA
ATOM     11  C   UNL A   1      43.280  20.580  25.777  1.00  0.00     0.022 A 
ATOM     12  C   UNL A   1      42.497  18.679  27.060  1.00  0.00     0.014 A 
ATOM     13  C   UNL A   1      44.284  19.779  25.222  1.00  0.00     0.011 A 
ATOM     14  C   UNL A   1      43.516  17.892  26.532  1.00  0.00     0.001 A 
ATOM     15  C   UNL A   1      44.394  18.436  25.599  1.00  0.00     0.001 A 
BRANCH   6  16
ATOM     16  C   UNL A   1      39.742  22.722  26.709  1.00  0.00     0.248 C 
BRANCH  16  17
ATOM     17  C   UNL A   1      38.530  22.126  25.990  1.00  0.00     0.246 C 
ATOM     18  O   UNL A   1      38.643  21.195  25.194  1.00  0.00    -0.273 OA
ATOM     19  N   UNL A   1      37.382  22.843  26.192  1.00  0.00    -0.324 N 
ATOM     20  H   UNL A   1      37.488  23.676  26.705  1.00  0.00     0.169 HD
BRANCH  19  21
ATOM     21  C   UNL A   1      36.084  22.556  25.772  1.00  0.00     0.042 A 
ATOM     22  C   UNL A   1      35.228  21.644  26.408  1.00  0.00     0.027 A 
ATOM     23  C   UNL A   1      35.607  23.370  24.752  1.00  0.00     0.039 A 
ATOM     24  C   UNL A   1      33.853  21.661  26.128  1.00  0.00     0.015 A 
ATOM     25  C   UNL A   1      34.249  23.387  24.483  1.00  0.00     0.036 A 
ATOM     26  C   UNL A   1      33.364  22.600  25.220  1.00  0.00     0.034 A 
ATOM     27  C   UNL A   1      33.737  24.517  23.701  1.00  0.00     0.194 C 
ATOM     28  C   UNL A   1      31.948  23.036  25.279  1.00  0.00     0.194 C 
ATOM     29  O   UNL A   1      34.296  24.935  22.701  1.00  0.00    -0.289 OA
ATOM     30  C   UNL A   1      32.647  25.234  24.372  1.00  0.00     0.034 A 
ATOM     31  C   UNL A   1      31.763  24.508  25.174  1.00  0.00     0.034 A 
ATOM     32  O   UNL A   1      31.032  22.276  25.548  1.00  0.00    -0.289 OA
ATOM     33  C   UNL A   1      32.715  26.621  24.439  1.00  0.00     0.013 A 
ATOM     34  C   UNL A   1      30.919  25.179  26.053  1.00  0.00     0.013 A 
ATOM     35  C   UNL A   1      31.937  27.285  25.381  1.00  0.00     0.001 A 
ATOM     36  C   UNL A   1      31.035  26.569  26.176  1.00  0.00     0.001 A 
ENDBRANCH  19  21
ENDBRANCH  16  17
ENDBRANCH   6  16
ENDBRANCH   3   5
ENDBRANCH   2   3
ENDBRANCH   1   2
BRANCH   1  37
ATOM     37  C   UNL A   1      45.214  25.718  25.257  1.00  0.00     0.275 C 
BRANCH  37  38
ATOM     38  O   UNL A   1      44.113  25.413  26.119  1.00  0.00    -0.458 OA
BRANCH  38  39
ATOM     39  C   UNL A   1      42.967  26.103  25.914  1.00  0.00     0.338 C 
ATOM     40  O   UNL A   1      42.256  26.127  24.931  1.00  0.00    -0.246 OA
BRANCH  39  41
ATOM     41  C   UNL A   1      42.669  26.702  27.218  1.00  0.00     0.060 A 
ATOM     42  C   UNL A   1      41.783  26.106  28.109  1.00  0.00     0.016 A 
ATOM     43  C   UNL A   1      43.228  27.955  27.479  1.00  0.00     0.016 A 
ATOM     44  C   UNL A   1      41.399  26.820  29.244  1.00  0.00     0.010 A 
ATOM     45  C   UNL A   1      42.870  28.644  28.626  1.00  0.00     0.010 A 
ATOM     46  C   UNL A   1      41.924  28.103  29.500  1.00  0.00    -0.014 A 
BRANCH  46  47
ATOM     47  C   UNL A   1      41.518  28.872  30.699  1.00  0.00     0.031 A 
ATOM     48  C   UNL A   1      42.316  28.811  31.974  1.00  0.00     0.074 A 
ATOM     49  C   UNL A   1      40.380  29.587  30.640  1.00  0.00     0.049 A 
ATOM     50  N   UNL A   1      42.132  29.467  33.090  1.00  0.00    -0.248 NA
ATOM     51  C   UNL A   1      43.439  27.859  32.022  1.00  0.00     0.031 C 
ATOM     52  C   UNL A   1      39.463  29.610  29.499  1.00  0.00     0.029 A 
ATOM     53  N   UNL A   1      39.815  30.445  31.544  1.00  0.00    -0.354 N 
ATOM     54  C   UNL A   1      43.095  28.997  33.976  1.00  0.00     0.074 A 
ATOM     55  C   UNL A   1      43.831  27.961  33.286  1.00  0.00     0.031 C 
ATOM     56  C   UNL A   1      38.491  30.504  29.739  1.00  0.00     0.029 A 
ATOM     57  C   UNL A   1      38.716  31.103  31.050  1.00  0.00     0.049 A 
ATOM     58  H   UNL A   1      40.161  30.577  32.457  1.00  0.00     0.167 HD
ATOM     59  C   UNL A   1      43.358  29.416  35.238  1.00  0.00     0.037 A 
ATOM     60  C   UNL A   1      38.000  32.114  31.577  1.00  0.00     0.037 A 
ATOM     61  C   UNL A   1      42.656  30.498  35.882  1.00  0.00     0.049 A 
ATOM     62  C   UNL A   1      38.404  32.670  32.910  1.00  0.00     0.074 A 
ATOM     63  C   UNL A   1      42.895  31.067  37.121  1.00  0.00     0.029 A 
ATOM     64  N   UNL A   1      41.590  31.189  35.323  1.00  0.00    -0.354 N 
ATOM     65  N   UNL A   1      39.369  32.273  33.705  1.00  0.00    -0.248 NA
ATOM     66  C   UNL A   1      37.637  33.817  33.412  1.00  0.00     0.031 C 
ATOM     67  C   UNL A   1      41.965  32.096  37.315  1.00  0.00     0.029 A 
ATOM     68  C   UNL A   1      41.165  32.183  36.187  1.00  0.00     0.049 A 
ATOM     69  H   UNL A   1      41.196  31.001  34.441  1.00  0.00     0.167 HD
ATOM     70  C   UNL A   1      39.328  33.123  34.803  1.00  0.00     0.074 A 
ATOM     71  C   UNL A   1      38.260  34.073  34.555  1.00  0.00     0.031 C 
ATOM     72  C   UNL A   1      40.098  33.114  35.918  1.00  0.00     0.037 A 
BRANCH  59  73
ATOM     73  C   UNL A   1      44.469  28.737  35.993  1.00  0.00     0.058 A 
ATOM     74  C   UNL A   1      44.224  27.619  36.807  1.00  0.00     0.135 A 
ATOM     75  C   UNL A   1      45.799  29.170  35.864  1.00  0.00     0.135 A 
ATOM     76  F   UNL A   1      42.971  27.167  36.974  1.00  0.00    -0.206 F 
ATOM     77  C   UNL A   1      45.251  26.976  37.491  1.00  0.00     0.059 A 
ATOM     78  C   UNL A   1      46.846  28.525  36.520  1.00  0.00     0.059 A 
ATOM     79  F   UNL A   1      46.092  30.231  35.096  1.00  0.00    -0.206 F 
ATOM     80  C   UNL A   1      46.559  27.437  37.343  1.00  0.00     0.060 A 
BRANCH  80  81
ATOM     81  S   UNL A   1      47.879  26.589  38.236  1.00  0.00     0.124 S 
ATOM     82  O   UNL A   1      49.045  27.372  37.839  1.00  0.00    -0.237 OA
ATOM     83  O   UNL A   1      47.462  26.737  39.627  1.00  0.00    -0.237 OA
ATOM     84  O   UNL A   1      47.825  25.229  37.710  1.00  0.00    -0.744 OA
ENDBRANCH  80  81
ENDBRANCH  59  73
BRANCH  60  85
ATOM     85  C   UNL A   1      36.917  32.727  30.772  1.00  0.00     0.058 A 
ATOM     86  C   UNL A   1      35.584  32.337  30.968  1.00  0.00     0.135 A 
ATOM     87  C   UNL A   1      37.173  33.765  29.865  1.00  0.00     0.135 A 
ATOM     88  F   UNL A   1      35.294  31.353  31.834  1.00  0.00    -0.206 F 
ATOM     89  C   UNL A   1      34.540  32.951  30.289  1.00  0.00     0.059 A 
ATOM     90  C   UNL A   1      36.143  34.408  29.187  1.00  0.00     0.059 A 
ATOM     91  F   UNL A   1      38.430  34.191  29.669  1.00  0.00    -0.206 F 
ATOM     92  C   UNL A   1      34.829  33.991  29.404  1.00  0.00     0.060 A 
BRANCH  92  93
ATOM     93  S   UNL A   1      33.456  34.838  28.591  1.00  0.00     0.124 S 
ATOM     94  O   UNL A   1      32.814  33.739  27.882  1.00  0.00    -0.237 OA
ATOM     95  O   UNL A   1      32.718  35.384  29.726  1.00  0.00    -0.237 OA
ATOM     96  O   UNL A   1      34.124  35.829  27.753  1.00  0.00    -0.744 OA
ENDBRANCH  92  93
ENDBRANCH  60  85
BRANCH  72  97
ATOM     97  C   UNL A   1      39.809  34.152  36.959  1.00  0.00     0.058 A 
ATOM     98  C   UNL A   1      39.062  33.840  38.104  1.00  0.00     0.135 A 
ATOM     99  C   UNL A   1      40.339  35.447  36.847  1.00  0.00     0.135 A 
ATOM    100  F   UNL A   1      38.529  32.616  38.251  1.00  0.00    -0.206 F 
ATOM    101  C   UNL A   1      38.843  34.780  39.104  1.00  0.00     0.059 A 
ATOM    102  C   UNL A   1      40.148  36.398  37.843  1.00  0.00     0.059 A 
ATOM    103  F   UNL A   1      41.066  35.788  35.771  1.00  0.00    -0.206 F 
ATOM    104  C   UNL A   1      39.394  36.056  38.966  1.00  0.00     0.060 A 
BRANCH 104 105
ATOM    105  S   UNL A   1      39.146  37.250  40.296  1.00  0.00     0.124 S 
ATOM    106  O   UNL A   1      40.521  37.552  40.679  1.00  0.00    -0.237 OA
ATOM    107  O   UNL A   1      38.424  38.325  39.622  1.00  0.00    -0.237 OA
ATOM    108  O   UNL A   1      38.370  36.503  41.282  1.00  0.00    -0.744 OA
ENDBRANCH 104 105
ENDBRANCH  72  97
ENDBRANCH  46  47
ENDBRANCH  39  41
ENDBRANCH  38  39
ENDBRANCH  37  38
ENDBRANCH   1  37
TORSDOF 17
ENDMDL
