MODEL 1
REMARK VINA RESULT:     -10.8      0.000      0.000
REMARK SMILES CC(C)([NH2+]C[C@@H]1COc2ccccc21)C(=O)OCCOC(=O)c1ccc(-c2c3nc(c(-c4c(F)cc(S(=O)(=O)[O-])cc4F)c4ccc([nH]4)c(-c4c(F)cc(S(=O)(=O)[O-])cc4F)c4nc(c(-c5c(F)cc(S(=O)(=O)[O-])cc5F)c5ccc2[nH]5)C=C4)C=C3)cc1
REMARK SMILES IDX 18 1 17 2 15 3 16 4 2 5 1 6 3 7 4 8 5 11 6 12 7 13 14 14
REMARK SMILES IDX 8 15 9 16 13 17 10 18 12 19 11 20 19 21 20 22 21 23 22 24
REMARK SMILES IDX 23 25 24 26 88 27 25 28 87 29 26 30 27 31 28 32 81 33 29 34
REMARK SMILES IDX 86 35 80 36 82 37 30 38 85 39 79 40 78 41 31 43 65 44 44 45
REMARK SMILES IDX 64 46 45 47 48 48 63 49 83 50 46 51 47 52 62 54 84 55 49 56
REMARK SMILES IDX 32 57 33 58 42 59 34 60 35 61 41 62 43 63 36 64 37 65 38 66
REMARK SMILES IDX 39 67 40 68 66 69 67 70 76 71 68 72 69 73 75 74 77 75 70 76
REMARK SMILES IDX 71 77 72 78 73 79 74 80 50 81 51 82 60 83 52 84 53 85 59 86
REMARK SMILES IDX 61 87 54 88 55 89 56 90 57 91 58 92
REMARK H PARENT 4 9 4 10 82 42 48 53
REMARK Flexibility Score: inf
ROOT
ATOM      1  C   UNL A   1      33.594  31.978  27.835  1.00  0.00     0.274 C 
ENDROOT
BRANCH   1   2
ATOM      2  O   UNL A   1      33.371  30.565  27.638  1.00  0.00    -0.457 OA
BRANCH   2   3
ATOM      3  C   UNL A   1      32.578  30.197  26.597  1.00  0.00     0.367 C 
ATOM      4  O   UNL A   1      31.730  30.936  26.105  1.00  0.00    -0.245 OA
BRANCH   3   5
ATOM      5  C   UNL A   1      32.764  28.724  26.136  1.00  0.00     0.188 C 
ATOM      6  C   UNL A   1      31.847  27.816  26.987  1.00  0.00     0.092 C 
ATOM      7  C   UNL A   1      34.206  28.336  26.496  1.00  0.00     0.092 C 
BRANCH   5   8
ATOM      8  N   UNL A   1      32.348  28.404  24.741  1.00  0.00    -0.332 N 
ATOM      9  H   UNL A   1      33.098  28.739  24.136  1.00  0.00     0.347 HD
ATOM     10  H   UNL A   1      31.429  28.844  24.689  1.00  0.00     0.347 HD
BRANCH   8  11
ATOM     11  C   UNL A   1      32.051  27.039  24.303  1.00  0.00     0.273 C 
BRANCH  11  12
ATOM     12  C   UNL A   1      33.176  26.319  23.569  1.00  0.00     0.116 C 
ATOM     13  C   UNL A   1      32.715  25.613  22.291  1.00  0.00     0.244 C 
ATOM     14  C   UNL A   1      33.846  25.161  24.219  1.00  0.00     0.006 A 
ATOM     15  O   UNL A   1      33.680  24.578  21.985  1.00  0.00    -0.492 OA
ATOM     16  C   UNL A   1      34.186  24.255  23.221  1.00  0.00     0.123 A 
ATOM     17  C   UNL A   1      34.300  25.000  25.515  1.00  0.00     0.008 A 
ATOM     18  C   UNL A   1      35.013  23.181  23.465  1.00  0.00     0.047 A 
ATOM     19  C   UNL A   1      35.119  23.903  25.789  1.00  0.00     0.001 A 
ATOM     20  C   UNL A   1      35.485  23.008  24.768  1.00  0.00     0.004 A 
ENDBRANCH  11  12
ENDBRANCH   8  11
ENDBRANCH   5   8
ENDBRANCH   3   5
ENDBRANCH   2   3
ENDBRANCH   1   2
BRANCH   1  21
ATOM     21  C   UNL A   1      34.843  32.198  28.684  1.00  0.00     0.275 C 
BRANCH  21  22
ATOM     22  O   UNL A   1      35.525  30.942  28.800  1.00  0.00    -0.458 OA
BRANCH  22  23
ATOM     23  C   UNL A   1      36.250  30.750  29.924  1.00  0.00     0.338 C 
ATOM     24  O   UNL A   1      35.905  30.977  31.074  1.00  0.00    -0.246 OA
BRANCH  23  25
ATOM     25  C   UNL A   1      37.554  30.177  29.539  1.00  0.00     0.060 A 
ATOM     26  C   UNL A   1      38.414  29.716  30.534  1.00  0.00     0.016 A 
ATOM     27  C   UNL A   1      37.963  30.153  28.209  1.00  0.00     0.016 A 
ATOM     28  C   UNL A   1      39.703  29.297  30.225  1.00  0.00     0.010 A 
ATOM     29  C   UNL A   1      39.227  29.641  27.886  1.00  0.00     0.010 A 
ATOM     30  C   UNL A   1      40.124  29.236  28.893  1.00  0.00    -0.014 A 
BRANCH  30  31
ATOM     31  C   UNL A   1      41.516  28.809  28.574  1.00  0.00     0.031 A 
ATOM     32  C   UNL A   1      42.649  29.796  28.690  1.00  0.00     0.074 A 
ATOM     33  C   UNL A   1      41.783  27.533  28.223  1.00  0.00     0.049 A 
ATOM     34  N   UNL A   1      43.895  29.674  28.312  1.00  0.00    -0.248 NA
ATOM     35  C   UNL A   1      42.333  31.099  29.298  1.00  0.00     0.031 C 
ATOM     36  C   UNL A   1      40.798  26.455  28.119  1.00  0.00     0.029 A 
ATOM     37  N   UNL A   1      42.972  26.921  27.906  1.00  0.00    -0.354 N 
ATOM     38  C   UNL A   1      44.493  30.902  28.571  1.00  0.00     0.074 A 
ATOM     39  C   UNL A   1      43.474  31.755  29.145  1.00  0.00     0.031 C 
ATOM     40  C   UNL A   1      41.425  25.309  27.813  1.00  0.00     0.029 A 
ATOM     41  C   UNL A   1      42.844  25.582  27.617  1.00  0.00     0.049 A 
ATOM     42  H   UNL A   1      43.834  27.397  27.887  1.00  0.00     0.167 HD
ATOM     43  C   UNL A   1      45.773  31.285  28.347  1.00  0.00     0.037 A 
ATOM     44  C   UNL A   1      43.758  24.680  27.207  1.00  0.00     0.037 A 
ATOM     45  C   UNL A   1      46.802  30.414  27.843  1.00  0.00     0.049 A 
ATOM     46  C   UNL A   1      45.176  25.123  26.977  1.00  0.00     0.074 A 
ATOM     47  C   UNL A   1      48.130  30.706  27.585  1.00  0.00     0.029 A 
ATOM     48  N   UNL A   1      46.624  29.071  27.544  1.00  0.00    -0.354 N 
ATOM     49  N   UNL A   1      45.704  26.312  27.146  1.00  0.00    -0.248 NA
ATOM     50  C   UNL A   1      46.115  24.111  26.474  1.00  0.00     0.031 C 
ATOM     51  C   UNL A   1      48.752  29.545  27.112  1.00  0.00     0.029 A 
ATOM     52  C   UNL A   1      47.817  28.522  27.104  1.00  0.00     0.049 A 
ATOM     53  H   UNL A   1      45.776  28.580  27.631  1.00  0.00     0.167 HD
ATOM     54  C   UNL A   1      47.035  26.192  26.767  1.00  0.00     0.074 A 
ATOM     55  C   UNL A   1      47.239  24.809  26.388  1.00  0.00     0.031 C 
ATOM     56  C   UNL A   1      47.999  27.144  26.725  1.00  0.00     0.037 A 
BRANCH  43  57
ATOM     57  C   UNL A   1      46.120  32.723  28.611  1.00  0.00     0.058 A 
ATOM     58  C   UNL A   1      46.044  33.705  27.611  1.00  0.00     0.135 A 
ATOM     59  C   UNL A   1      46.525  33.124  29.895  1.00  0.00     0.135 A 
ATOM     60  F   UNL A   1      45.684  33.370  26.362  1.00  0.00    -0.206 F 
ATOM     61  C   UNL A   1      46.382  35.030  27.869  1.00  0.00     0.059 A 
ATOM     62  C   UNL A   1      46.846  34.447  30.180  1.00  0.00     0.059 A 
ATOM     63  F   UNL A   1      46.616  32.223  30.886  1.00  0.00    -0.206 F 
ATOM     64  C   UNL A   1      46.788  35.390  29.155  1.00  0.00     0.060 A 
BRANCH  64  65
ATOM     65  S   UNL A   1      47.230  37.110  29.479  1.00  0.00     0.124 S 
ATOM     66  O   UNL A   1      48.131  37.392  28.365  1.00  0.00    -0.237 OA
ATOM     67  O   UNL A   1      45.936  37.784  29.432  1.00  0.00    -0.237 OA
ATOM     68  O   UNL A   1      47.857  37.057  30.795  1.00  0.00    -0.744 OA
ENDBRANCH  64  65
ENDBRANCH  43  57
BRANCH  44  69
ATOM     69  C   UNL A   1      43.348  23.274  26.952  1.00  0.00     0.058 A 
ATOM     70  C   UNL A   1      43.253  22.774  25.645  1.00  0.00     0.135 A 
ATOM     71  C   UNL A   1      43.063  22.396  28.010  1.00  0.00     0.135 A 
ATOM     72  F   UNL A   1      43.501  23.579  24.600  1.00  0.00    -0.206 F 
ATOM     73  C   UNL A   1      42.892  21.454  25.394  1.00  0.00     0.059 A 
ATOM     74  C   UNL A   1      42.725  21.067  27.786  1.00  0.00     0.059 A 
ATOM     75  F   UNL A   1      43.148  22.824  29.280  1.00  0.00    -0.206 F 
ATOM     76  C   UNL A   1      42.635  20.606  26.473  1.00  0.00     0.060 A 
BRANCH  76  77
ATOM     77  S   UNL A   1      42.240  18.873  26.149  1.00  0.00     0.124 S 
ATOM     78  O   UNL A   1      43.205  18.544  25.105  1.00  0.00    -0.237 OA
ATOM     79  O   UNL A   1      42.471  18.251  27.450  1.00  0.00    -0.237 OA
ATOM     80  O   UNL A   1      40.843  18.924  25.729  1.00  0.00    -0.744 OA
ENDBRANCH  76  77
ENDBRANCH  44  69
BRANCH  56  81
ATOM     81  C   UNL A   1      49.360  26.715  26.258  1.00  0.00     0.058 A 
ATOM     82  C   UNL A   1      50.264  26.082  27.124  1.00  0.00     0.135 A 
ATOM     83  C   UNL A   1      49.755  26.919  24.927  1.00  0.00     0.135 A 
ATOM     84  F   UNL A   1      49.933  25.871  28.409  1.00  0.00    -0.206 F 
ATOM     85  C   UNL A   1      51.526  25.689  26.694  1.00  0.00     0.059 A 
ATOM     86  C   UNL A   1      51.006  26.517  24.470  1.00  0.00     0.059 A 
ATOM     87  F   UNL A   1      48.923  27.512  24.057  1.00  0.00    -0.206 F 
ATOM     88  C   UNL A   1      51.890  25.916  25.366  1.00  0.00     0.060 A 
BRANCH  88  89
ATOM     89  S   UNL A   1      53.528  25.394  24.811  1.00  0.00     0.124 S 
ATOM     90  O   UNL A   1      54.392  26.308  25.550  1.00  0.00    -0.237 OA
ATOM     91  O   UNL A   1      53.575  23.997  25.232  1.00  0.00    -0.237 OA
ATOM     92  O   UNL A   1      53.477  25.604  23.367  1.00  0.00    -0.744 OA
ENDBRANCH  88  89
ENDBRANCH  56  81
ENDBRANCH  30  31
ENDBRANCH  23  25
ENDBRANCH  22  23
ENDBRANCH  21  22
ENDBRANCH   1  21
TORSDOF 17
ENDMDL
MODEL 2
REMARK VINA RESULT:     -10.7      1.761      8.794
REMARK SMILES CC(C)([NH2+]C[C@@H]1COc2ccccc21)C(=O)OCCOC(=O)c1ccc(-c2c3nc(c(-c4c(F)cc(S(=O)(=O)[O-])cc4F)c4ccc([nH]4)c(-c4c(F)cc(S(=O)(=O)[O-])cc4F)c4nc(c(-c5c(F)cc(S(=O)(=O)[O-])cc5F)c5ccc2[nH]5)C=C4)C=C3)cc1
REMARK SMILES IDX 18 1 17 2 15 3 16 4 2 5 1 6 3 7 4 8 5 11 6 12 7 13 14 14
REMARK SMILES IDX 8 15 9 16 13 17 10 18 12 19 11 20 19 21 20 22 21 23 22 24
REMARK SMILES IDX 23 25 24 26 88 27 25 28 87 29 26 30 27 31 28 32 81 33 29 34
REMARK SMILES IDX 86 35 80 36 82 37 30 38 85 39 79 40 78 41 31 43 65 44 44 45
REMARK SMILES IDX 64 46 45 47 48 48 63 49 83 50 46 51 47 52 62 54 84 55 49 56
REMARK SMILES IDX 32 57 33 58 42 59 34 60 35 61 41 62 43 63 36 64 37 65 38 66
REMARK SMILES IDX 39 67 40 68 66 69 67 70 76 71 68 72 69 73 75 74 77 75 70 76
REMARK SMILES IDX 71 77 72 78 73 79 74 80 50 81 51 82 60 83 52 84 53 85 59 86
REMARK SMILES IDX 61 87 54 88 55 89 56 90 57 91 58 92
REMARK H PARENT 4 9 4 10 82 42 48 53
REMARK Flexibility Score: inf
ROOT
ATOM      1  C   UNL A   1      34.821  31.604  27.915  1.00  0.00     0.274 C 
ENDROOT
BRANCH   1   2
ATOM      2  O   UNL A   1      33.822  30.606  27.611  1.00  0.00    -0.457 OA
BRANCH   2   3
ATOM      3  C   UNL A   1      34.261  29.392  27.188  1.00  0.00     0.367 C 
ATOM      4  O   UNL A   1      35.425  29.019  27.307  1.00  0.00    -0.245 OA
BRANCH   3   5
ATOM      5  C   UNL A   1      33.189  28.541  26.451  1.00  0.00     0.188 C 
ATOM      6  C   UNL A   1      31.933  28.438  27.345  1.00  0.00     0.092 C 
ATOM      7  C   UNL A   1      33.761  27.118  26.349  1.00  0.00     0.092 C 
BRANCH   5   8
ATOM      8  N   UNL A   1      32.649  29.102  25.180  1.00  0.00    -0.332 N 
ATOM      9  H   UNL A   1      32.542  28.313  24.543  1.00  0.00     0.347 HD
ATOM     10  H   UNL A   1      33.330  29.831  24.966  1.00  0.00     0.347 HD
BRANCH   8  11
ATOM     11  C   UNL A   1      31.388  29.845  25.123  1.00  0.00     0.273 C 
BRANCH  11  12
ATOM     12  C   UNL A   1      30.378  29.358  24.092  1.00  0.00     0.116 C 
ATOM     13  C   UNL A   1      31.024  28.709  22.866  1.00  0.00     0.244 C 
ATOM     14  C   UNL A   1      29.527  30.350  23.382  1.00  0.00     0.006 A 
ATOM     15  O   UNL A   1      30.070  28.771  21.777  1.00  0.00    -0.492 OA
ATOM     16  C   UNL A   1      29.323  29.883  22.088  1.00  0.00     0.123 A 
ATOM     17  C   UNL A   1      28.829  31.442  23.864  1.00  0.00     0.008 A 
ATOM     18  C   UNL A   1      28.399  30.457  21.244  1.00  0.00     0.047 A 
ATOM     19  C   UNL A   1      27.906  32.055  23.015  1.00  0.00     0.001 A 
ATOM     20  C   UNL A   1      27.682  31.557  21.719  1.00  0.00     0.004 A 
ENDBRANCH  11  12
ENDBRANCH   8  11
ENDBRANCH   5   8
ENDBRANCH   3   5
ENDBRANCH   2   3
ENDBRANCH   1   2
BRANCH   1  21
ATOM     21  C   UNL A   1      34.983  31.740  29.427  1.00  0.00     0.275 C 
BRANCH  21  22
ATOM     22  O   UNL A   1      36.379  31.622  29.733  1.00  0.00    -0.458 OA
BRANCH  22  23
ATOM     23  C   UNL A   1      36.756  30.523  30.423  1.00  0.00     0.338 C 
ATOM     24  O   UNL A   1      36.136  29.961  31.314  1.00  0.00    -0.246 OA
BRANCH  23  25
ATOM     25  C   UNL A   1      38.061  30.075  29.900  1.00  0.00     0.060 A 
ATOM     26  C   UNL A   1      39.060  29.700  30.796  1.00  0.00     0.016 A 
ATOM     27  C   UNL A   1      38.328  30.085  28.534  1.00  0.00     0.016 A 
ATOM     28  C   UNL A   1      40.343  29.403  30.352  1.00  0.00     0.010 A 
ATOM     29  C   UNL A   1      39.595  29.694  28.077  1.00  0.00     0.010 A 
ATOM     30  C   UNL A   1      40.626  29.378  28.982  1.00  0.00    -0.014 A 
BRANCH  30  31
ATOM     31  C   UNL A   1      42.011  29.084  28.516  1.00  0.00     0.031 A 
ATOM     32  C   UNL A   1      42.351  27.711  27.996  1.00  0.00     0.074 A 
ATOM     33  C   UNL A   1      42.957  30.046  28.513  1.00  0.00     0.049 A 
ATOM     34  N   UNL A   1      43.520  27.206  27.694  1.00  0.00    -0.248 NA
ATOM     35  C   UNL A   1      41.229  26.777  27.805  1.00  0.00     0.031 C 
ATOM     36  C   UNL A   1      42.762  31.434  28.939  1.00  0.00     0.029 A 
ATOM     37  N   UNL A   1      44.273  30.007  28.120  1.00  0.00    -0.354 N 
ATOM     38  C   UNL A   1      43.283  25.881  27.346  1.00  0.00     0.074 A 
ATOM     39  C   UNL A   1      41.858  25.661  27.468  1.00  0.00     0.031 C 
ATOM     40  C   UNL A   1      43.895  32.122  28.738  1.00  0.00     0.029 A 
ATOM     41  C   UNL A   1      44.924  31.212  28.248  1.00  0.00     0.049 A 
ATOM     42  H   UNL A   1      44.710  29.193  27.779  1.00  0.00     0.167 HD
ATOM     43  C   UNL A   1      44.174  24.934  26.964  1.00  0.00     0.037 A 
ATOM     44  C   UNL A   1      46.213  31.544  28.031  1.00  0.00     0.037 A 
ATOM     45  C   UNL A   1      45.580  25.174  26.775  1.00  0.00     0.049 A 
ATOM     46  C   UNL A   1      47.181  30.480  27.594  1.00  0.00     0.074 A 
ATOM     47  C   UNL A   1      46.563  24.281  26.385  1.00  0.00     0.029 A 
ATOM     48  N   UNL A   1      46.200  26.405  26.935  1.00  0.00    -0.354 N 
ATOM     49  N   UNL A   1      46.954  29.211  27.352  1.00  0.00    -0.248 NA
ATOM     50  C   UNL A   1      48.583  30.886  27.429  1.00  0.00     0.031 C 
ATOM     51  C   UNL A   1      47.782  24.967  26.330  1.00  0.00     0.029 A 
ATOM     52  C   UNL A   1      47.552  26.294  26.655  1.00  0.00     0.049 A 
ATOM     53  H   UNL A   1      45.747  27.235  27.209  1.00  0.00     0.167 HD
ATOM     54  C   UNL A   1      48.186  28.666  27.010  1.00  0.00     0.074 A 
ATOM     55  C   UNL A   1      49.148  29.749  27.047  1.00  0.00     0.031 C 
ATOM     56  C   UNL A   1      48.495  27.382  26.703  1.00  0.00     0.037 A 
BRANCH  43  57
ATOM     57  C   UNL A   1      43.654  23.539  26.763  1.00  0.00     0.058 A 
ATOM     58  C   UNL A   1      43.459  22.992  25.485  1.00  0.00     0.135 A 
ATOM     59  C   UNL A   1      43.357  22.732  27.874  1.00  0.00     0.135 A 
ATOM     60  F   UNL A   1      43.707  23.728  24.390  1.00  0.00    -0.206 F 
ATOM     61  C   UNL A   1      42.963  21.702  25.316  1.00  0.00     0.059 A 
ATOM     62  C   UNL A   1      42.882  21.433  27.728  1.00  0.00     0.059 A 
ATOM     63  F   UNL A   1      43.524  23.208  29.118  1.00  0.00    -0.206 F 
ATOM     64  C   UNL A   1      42.672  20.933  26.443  1.00  0.00     0.060 A 
BRANCH  64  65
ATOM     65  S   UNL A   1      42.024  19.264  26.214  1.00  0.00     0.124 S 
ATOM     66  O   UNL A   1      42.847  18.781  25.109  1.00  0.00    -0.237 OA
ATOM     67  O   UNL A   1      42.280  18.645  27.511  1.00  0.00    -0.237 OA
ATOM     68  O   UNL A   1      40.617  19.487  25.899  1.00  0.00    -0.744 OA
ENDBRANCH  64  65
ENDBRANCH  43  57
BRANCH  44  69
ATOM     69  C   UNL A   1      46.667  32.941  28.259  1.00  0.00     0.058 A 
ATOM     70  C   UNL A   1      46.576  33.905  27.244  1.00  0.00     0.135 A 
ATOM     71  C   UNL A   1      47.180  33.345  29.501  1.00  0.00     0.135 A 
ATOM     72  F   UNL A   1      46.106  33.563  26.035  1.00  0.00    -0.206 F 
ATOM     73  C   UNL A   1      46.976  35.221  27.452  1.00  0.00     0.059 A 
ATOM     74  C   UNL A   1      47.563  34.660  29.740  1.00  0.00     0.059 A 
ATOM     75  F   UNL A   1      47.280  32.462  30.507  1.00  0.00    -0.206 F 
ATOM     76  C   UNL A   1      47.464  35.590  28.707  1.00  0.00     0.060 A 
BRANCH  76  77
ATOM     77  S   UNL A   1      47.912  37.316  28.999  1.00  0.00     0.124 S 
ATOM     78  O   UNL A   1      48.565  37.232  30.301  1.00  0.00    -0.237 OA
ATOM     79  O   UNL A   1      48.784  37.609  27.865  1.00  0.00    -0.237 OA
ATOM     80  O   UNL A   1      46.623  38.001  28.979  1.00  0.00    -0.744 OA
ENDBRANCH  76  77
ENDBRANCH  44  69
BRANCH  56  81
ATOM     81  C   UNL A   1      49.931  27.086  26.380  1.00  0.00     0.058 A 
ATOM     82  C   UNL A   1      50.840  26.706  27.378  1.00  0.00     0.135 A 
ATOM     83  C   UNL A   1      50.396  27.164  25.058  1.00  0.00     0.135 A 
ATOM     84  F   UNL A   1      50.444  26.624  28.658  1.00  0.00    -0.206 F 
ATOM     85  C   UNL A   1      52.172  26.437  27.080  1.00  0.00     0.059 A 
ATOM     86  C   UNL A   1      51.719  26.881  24.735  1.00  0.00     0.059 A 
ATOM     87  F   UNL A   1      49.561  27.515  24.067  1.00  0.00    -0.206 F 
ATOM     88  C   UNL A   1      52.603  26.532  25.756  1.00  0.00     0.060 A 
BRANCH  88  89
ATOM     89  S   UNL A   1      54.331  26.172  25.375  1.00  0.00     0.124 S 
ATOM     90  O   UNL A   1      54.934  26.194  26.703  1.00  0.00    -0.237 OA
ATOM     91  O   UNL A   1      54.249  24.863  24.736  1.00  0.00    -0.237 OA
ATOM     92  O   UNL A   1      54.716  27.269  24.491  1.00  0.00    -0.744 OA
ENDBRANCH  88  89
ENDBRANCH  56  81
ENDBRANCH  30  31
ENDBRANCH  23  25
ENDBRANCH  22  23
ENDBRANCH  21  22
ENDBRANCH   1  21
TORSDOF 17
ENDMDL
MODEL 3
REMARK VINA RESULT:     -10.6      2.590      3.611
REMARK SMILES CC(C)([NH2+]C[C@@H]1COc2ccccc21)C(=O)OCCOC(=O)c1ccc(-c2c3nc(c(-c4c(F)cc(S(=O)(=O)[O-])cc4F)c4ccc([nH]4)c(-c4c(F)cc(S(=O)(=O)[O-])cc4F)c4nc(c(-c5c(F)cc(S(=O)(=O)[O-])cc5F)c5ccc2[nH]5)C=C4)C=C3)cc1
REMARK SMILES IDX 18 1 17 2 15 3 16 4 2 5 1 6 3 7 4 8 5 11 6 12 7 13 14 14
REMARK SMILES IDX 8 15 9 16 13 17 10 18 12 19 11 20 19 21 20 22 21 23 22 24
REMARK SMILES IDX 23 25 24 26 88 27 25 28 87 29 26 30 27 31 28 32 81 33 29 34
REMARK SMILES IDX 86 35 80 36 82 37 30 38 85 39 79 40 78 41 31 43 65 44 44 45
REMARK SMILES IDX 64 46 45 47 48 48 63 49 83 50 46 51 47 52 62 54 84 55 49 56
REMARK SMILES IDX 32 57 33 58 42 59 34 60 35 61 41 62 43 63 36 64 37 65 38 66
REMARK SMILES IDX 39 67 40 68 66 69 67 70 76 71 68 72 69 73 75 74 77 75 70 76
REMARK SMILES IDX 71 77 72 78 73 79 74 80 50 81 51 82 60 83 52 84 53 85 59 86
REMARK SMILES IDX 61 87 54 88 55 89 56 90 57 91 58 92
REMARK H PARENT 4 9 4 10 82 42 48 53
REMARK Flexibility Score: inf
ROOT
ATOM      1  C   UNL A   1      31.702  28.663  26.528  1.00  0.00     0.274 C 
ENDROOT
BRANCH   1   2
ATOM      2  O   UNL A   1      32.517  28.151  25.451  1.00  0.00    -0.457 OA
BRANCH   2   3
ATOM      3  C   UNL A   1      31.940  27.268  24.596  1.00  0.00     0.367 C 
ATOM      4  O   UNL A   1      30.790  27.388  24.181  1.00  0.00    -0.245 OA
BRANCH   3   5
ATOM      5  C   UNL A   1      32.820  26.034  24.253  1.00  0.00     0.188 C 
ATOM      6  C   UNL A   1      34.031  26.004  25.213  1.00  0.00     0.092 C 
ATOM      7  C   UNL A   1      33.392  26.286  22.849  1.00  0.00     0.092 C 
BRANCH   5   8
ATOM      8  N   UNL A   1      32.200  24.694  24.456  1.00  0.00    -0.332 N 
ATOM      9  H   UNL A   1      31.246  24.867  24.770  1.00  0.00     0.347 HD
ATOM     10  H   UNL A   1      32.864  24.250  25.092  1.00  0.00     0.347 HD
BRANCH   8  11
ATOM     11  C   UNL A   1      32.102  23.702  23.384  1.00  0.00     0.273 C 
BRANCH  11  12
ATOM     12  C   UNL A   1      32.881  22.411  23.600  1.00  0.00     0.116 C 
ATOM     13  C   UNL A   1      32.477  21.663  24.873  1.00  0.00     0.244 C 
ATOM     14  C   UNL A   1      34.346  22.478  23.850  1.00  0.00     0.006 A 
ATOM     15  O   UNL A   1      33.578  20.797  25.245  1.00  0.00    -0.492 OA
ATOM     16  C   UNL A   1      34.671  21.453  24.732  1.00  0.00     0.123 A 
ATOM     17  C   UNL A   1      35.330  23.217  23.221  1.00  0.00     0.008 A 
ATOM     18  C   UNL A   1      35.978  21.105  24.992  1.00  0.00     0.047 A 
ATOM     19  C   UNL A   1      36.662  22.896  23.490  1.00  0.00     0.001 A 
ATOM     20  C   UNL A   1      36.983  21.839  24.359  1.00  0.00     0.004 A 
ENDBRANCH  11  12
ENDBRANCH   8  11
ENDBRANCH   5   8
ENDBRANCH   3   5
ENDBRANCH   2   3
ENDBRANCH   1   2
BRANCH   1  21
ATOM     21  C   UNL A   1      32.326  29.931  27.103  1.00  0.00     0.275 C 
BRANCH  21  22
ATOM     22  O   UNL A   1      33.728  29.690  27.281  1.00  0.00    -0.458 OA
BRANCH  22  23
ATOM     23  C   UNL A   1      34.405  30.586  28.033  1.00  0.00     0.338 C 
ATOM     24  O   UNL A   1      33.970  31.618  28.524  1.00  0.00    -0.246 OA
BRANCH  23  25
ATOM     25  C   UNL A   1      35.787  30.098  28.199  1.00  0.00     0.060 A 
ATOM     26  C   UNL A   1      36.217  29.691  29.461  1.00  0.00     0.016 A 
ATOM     27  C   UNL A   1      36.683  30.102  27.134  1.00  0.00     0.016 A 
ATOM     28  C   UNL A   1      37.547  29.354  29.688  1.00  0.00     0.010 A 
ATOM     29  C   UNL A   1      38.001  29.672  27.341  1.00  0.00     0.010 A 
ATOM     30  C   UNL A   1      38.457  29.322  28.627  1.00  0.00    -0.014 A 
BRANCH  30  31
ATOM     31  C   UNL A   1      39.886  28.985  28.885  1.00  0.00     0.031 A 
ATOM     32  C   UNL A   1      40.781  29.987  29.565  1.00  0.00     0.074 A 
ATOM     33  C   UNL A   1      40.378  27.773  28.554  1.00  0.00     0.049 A 
ATOM     34  N   UNL A   1      42.078  29.955  29.739  1.00  0.00    -0.248 NA
ATOM     35  C   UNL A   1      40.136  31.192  30.109  1.00  0.00     0.031 C 
ATOM     36  C   UNL A   1      39.618  26.683  27.937  1.00  0.00     0.029 A 
ATOM     37  N   UNL A   1      41.637  27.245  28.710  1.00  0.00    -0.354 N 
ATOM     38  C   UNL A   1      42.410  31.160  30.346  1.00  0.00     0.074 A 
ATOM     39  C   UNL A   1      41.179  31.899  30.518  1.00  0.00     0.031 C 
ATOM     40  C   UNL A   1      40.408  25.606  27.813  1.00  0.00     0.029 A 
ATOM     41  C   UNL A   1      41.752  25.948  28.263  1.00  0.00     0.049 A 
ATOM     42  H   UNL A   1      42.387  27.747  29.104  1.00  0.00     0.167 HD
ATOM     43  C   UNL A   1      43.632  31.609  30.723  1.00  0.00     0.037 A 
ATOM     44  C   UNL A   1      42.825  25.135  28.189  1.00  0.00     0.037 A 
ATOM     45  C   UNL A   1      44.845  30.843  30.616  1.00  0.00     0.049 A 
ATOM     46  C   UNL A   1      44.168  25.650  28.625  1.00  0.00     0.074 A 
ATOM     47  C   UNL A   1      46.131  31.209  30.974  1.00  0.00     0.029 A 
ATOM     48  N   UNL A   1      44.919  29.542  30.139  1.00  0.00    -0.354 N 
ATOM     49  N   UNL A   1      44.478  26.825  29.118  1.00  0.00    -0.248 NA
ATOM     50  C   UNL A   1      45.311  24.740  28.467  1.00  0.00     0.031 C 
ATOM     51  C   UNL A   1      46.987  30.137  30.695  1.00  0.00     0.029 A 
ATOM     52  C   UNL A   1      46.228  29.092  30.192  1.00  0.00     0.049 A 
ATOM     53  H   UNL A   1      44.154  29.017  29.811  1.00  0.00     0.167 HD
ATOM     54  C   UNL A   1      45.852  26.798  29.327  1.00  0.00     0.074 A 
ATOM     55  C   UNL A   1      46.308  25.480  28.934  1.00  0.00     0.031 C 
ATOM     56  C   UNL A   1      46.664  27.779  29.790  1.00  0.00     0.037 A 
BRANCH  43  57
ATOM     57  C   UNL A   1      43.718  33.014  31.250  1.00  0.00     0.058 A 
ATOM     58  C   UNL A   1      43.647  33.302  32.621  1.00  0.00     0.135 A 
ATOM     59  C   UNL A   1      43.887  34.089  30.362  1.00  0.00     0.135 A 
ATOM     60  F   UNL A   1      43.465  32.312  33.511  1.00  0.00    -0.206 F 
ATOM     61  C   UNL A   1      43.715  34.609  33.093  1.00  0.00     0.059 A 
ATOM     62  C   UNL A   1      43.979  35.402  30.812  1.00  0.00     0.059 A 
ATOM     63  F   UNL A   1      43.958  33.868  29.039  1.00  0.00    -0.206 F 
ATOM     64  C   UNL A   1      43.874  35.653  32.180  1.00  0.00     0.060 A 
BRANCH  64  65
ATOM     65  S   UNL A   1      43.954  37.347  32.800  1.00  0.00     0.124 S 
ATOM     66  O   UNL A   1      42.865  37.352  33.772  1.00  0.00    -0.237 OA
ATOM     67  O   UNL A   1      45.301  37.416  33.358  1.00  0.00    -0.237 OA
ATOM     68  O   UNL A   1      43.734  38.155  31.605  1.00  0.00    -0.744 OA
ENDBRANCH  64  65
ENDBRANCH  43  57
BRANCH  44  69
ATOM     69  C   UNL A   1      42.675  23.759  27.647  1.00  0.00     0.058 A 
ATOM     70  C   UNL A   1      42.791  23.508  26.273  1.00  0.00     0.135 A 
ATOM     71  C   UNL A   1      42.434  22.666  28.495  1.00  0.00     0.135 A 
ATOM     72  F   UNL A   1      43.007  24.522  25.421  1.00  0.00    -0.206 F 
ATOM     73  C   UNL A   1      42.675  22.221  25.755  1.00  0.00     0.059 A 
ATOM     74  C   UNL A   1      42.339  21.368  28.004  1.00  0.00     0.059 A 
ATOM     75  F   UNL A   1      42.323  22.853  29.819  1.00  0.00    -0.206 F 
ATOM     76  C   UNL A   1      42.454  21.156  26.631  1.00  0.00     0.060 A 
BRANCH  76  77
ATOM     77  S   UNL A   1      42.380  19.478  25.967  1.00  0.00     0.124 S 
ATOM     78  O   UNL A   1      40.962  19.354  25.644  1.00  0.00    -0.237 OA
ATOM     79  O   UNL A   1      43.290  19.551  24.827  1.00  0.00    -0.237 OA
ATOM     80  O   UNL A   1      42.850  18.660  27.080  1.00  0.00    -0.744 OA
ENDBRANCH  76  77
ENDBRANCH  44  69
BRANCH  56  81
ATOM     81  C   UNL A   1      48.126  27.456  29.901  1.00  0.00     0.058 A 
ATOM     82  C   UNL A   1      49.007  27.683  28.833  1.00  0.00     0.135 A 
ATOM     83  C   UNL A   1      48.654  26.935  31.093  1.00  0.00     0.135 A 
ATOM     84  F   UNL A   1      48.547  28.174  27.671  1.00  0.00    -0.206 F 
ATOM     85  C   UNL A   1      50.360  27.379  28.933  1.00  0.00     0.059 A 
ATOM     86  C   UNL A   1      50.008  26.642  31.221  1.00  0.00     0.059 A 
ATOM     87  F   UNL A   1      47.853  26.709  32.146  1.00  0.00    -0.206 F 
ATOM     88  C   UNL A   1      50.850  26.854  30.130  1.00  0.00     0.060 A 
BRANCH  88  89
ATOM     89  S   UNL A   1      52.611  26.471  30.256  1.00  0.00     0.124 S 
ATOM     90  O   UNL A   1      52.599  25.341  31.178  1.00  0.00    -0.237 OA
ATOM     91  O   UNL A   1      52.967  26.160  28.875  1.00  0.00    -0.237 OA
ATOM     92  O   UNL A   1      53.187  27.706  30.781  1.00  0.00    -0.744 OA
ENDBRANCH  88  89
ENDBRANCH  56  81
ENDBRANCH  30  31
ENDBRANCH  23  25
ENDBRANCH  22  23
ENDBRANCH  21  22
ENDBRANCH   1  21
TORSDOF 17
ENDMDL
