MODEL 1
REMARK VINA RESULT:      -9.7      0.000      0.000
REMARK SMILES O=C(N[C@H](CCBr)C(=O)OCCOC(=O)c1ccc(-c2c3nc(c(-c4c(F)cc(S(=O)(=O)[O-])cc4F)c4ccc([nH]4)c(-c4c(F)cc(S(=O)(=O)[O-])cc4F)c4nc(c(-c5c(F)cc(S(=O)(=O)[O-])cc5F)c5ccc2[nH]5)C=C4)C=C3)cc1)OCc1ccccc1
REMARK SMILES IDX 11 1 10 2 8 3 9 4 4 5 3 6 1 7 2 8 82 10 83 11 84 12 85 13
REMARK SMILES IDX 89 14 86 15 88 16 87 17 5 18 6 19 7 20 12 21 13 22 14 23
REMARK SMILES IDX 15 24 16 25 17 26 81 27 18 28 80 29 19 30 20 31 21 32 74 33
REMARK SMILES IDX 22 34 79 35 73 36 75 37 23 38 78 39 72 40 71 41 24 43 58 44
REMARK SMILES IDX 37 45 57 46 38 47 41 48 56 49 76 50 39 51 40 52 55 54 77 55
REMARK SMILES IDX 42 56 25 57 26 58 35 59 27 60 28 61 34 62 36 63 29 64 30 65
REMARK SMILES IDX 31 66 32 67 33 68 59 69 60 70 69 71 61 72 62 73 68 74 70 75
REMARK SMILES IDX 63 76 64 77 65 78 66 79 67 80 43 81 44 82 53 83 45 84 46 85
REMARK SMILES IDX 52 86 54 87 47 88 48 89 49 90 50 91 51 92
REMARK H PARENT 3 9 75 42 41 53
REMARK Flexibility Score: inf
ROOT
ATOM      1  C   UNL A   1      32.033  27.611  26.127  1.00  0.00     0.274 C 
ENDROOT
BRANCH   1   2
ATOM      2  O   UNL A   1      32.459  26.244  26.291  1.00  0.00    -0.461 OA
BRANCH   2   3
ATOM      3  C   UNL A   1      31.536  25.293  26.041  1.00  0.00     0.328 C 
ATOM      4  O   UNL A   1      30.380  25.328  26.463  1.00  0.00    -0.250 OA
BRANCH   3   5
ATOM      5  C   UNL A   1      32.049  24.110  25.207  1.00  0.00     0.196 C 
BRANCH   5   6
ATOM      6  N   UNL A   1      32.379  24.755  23.906  1.00  0.00    -0.308 N 
ATOM      7  O   UNL A   1      33.807  25.573  22.341  1.00  0.00    -0.225 OA
ATOM      8  C   UNL A   1      33.575  24.797  23.262  1.00  0.00     0.408 C 
ATOM      9  H   UNL A   1      31.634  25.211  23.453  1.00  0.00     0.168 HD
BRANCH   8  10
ATOM     10  O   UNL A   1      34.465  23.935  23.774  1.00  0.00    -0.445 OA
BRANCH  10  11
ATOM     11  C   UNL A   1      35.221  24.369  24.905  1.00  0.00     0.270 C 
BRANCH  11  12
ATOM     12  C   UNL A   1      36.375  23.431  25.197  1.00  0.00    -0.011 A 
ATOM     13  C   UNL A   1      37.492  23.883  25.917  1.00  0.00     0.007 A 
ATOM     14  C   UNL A   1      36.358  22.100  24.756  1.00  0.00     0.007 A 
ATOM     15  C   UNL A   1      38.568  23.036  26.179  1.00  0.00     0.000 A 
ATOM     16  C   UNL A   1      37.449  21.259  24.996  1.00  0.00     0.000 A 
ATOM     17  C   UNL A   1      38.555  21.729  25.704  1.00  0.00     0.000 A 
ENDBRANCH  11  12
ENDBRANCH  10  11
ENDBRANCH   8  10
ENDBRANCH   5   6
BRANCH   5  18
ATOM     18  C   UNL A   1      31.183  22.841  25.076  1.00  0.00     0.048 C 
BRANCH  18  19
ATOM     19  C   UNL A   1      31.771  21.494  25.455  1.00  0.00     0.083 C 
ATOM     20  Br  UNL A   1      32.831  20.728  24.021  1.00  0.00    -0.093 Br
ENDBRANCH  18  19
ENDBRANCH   5  18
ENDBRANCH   3   5
ENDBRANCH   2   3
ENDBRANCH   1   2
BRANCH   1  21
ATOM     21  C   UNL A   1      32.374  28.450  27.360  1.00  0.00     0.275 C 
BRANCH  21  22
ATOM     22  O   UNL A   1      33.799  28.552  27.571  1.00  0.00    -0.458 OA
BRANCH  22  23
ATOM     23  C   UNL A   1      34.231  29.816  27.764  1.00  0.00     0.338 C 
ATOM     24  O   UNL A   1      33.570  30.835  27.654  1.00  0.00    -0.246 OA
BRANCH  23  25
ATOM     25  C   UNL A   1      35.637  29.896  28.156  1.00  0.00     0.060 A 
ATOM     26  C   UNL A   1      36.603  30.089  27.166  1.00  0.00     0.016 A 
ATOM     27  C   UNL A   1      35.998  29.487  29.440  1.00  0.00     0.016 A 
ATOM     28  C   UNL A   1      37.940  29.819  27.453  1.00  0.00     0.010 A 
ATOM     29  C   UNL A   1      37.344  29.259  29.734  1.00  0.00     0.010 A 
ATOM     30  C   UNL A   1      38.322  29.393  28.735  1.00  0.00    -0.014 A 
BRANCH  30  31
ATOM     31  C   UNL A   1      39.747  29.097  29.035  1.00  0.00     0.031 A 
ATOM     32  C   UNL A   1      40.648  30.147  29.629  1.00  0.00     0.074 A 
ATOM     33  C   UNL A   1      40.233  27.875  28.749  1.00  0.00     0.049 A 
ATOM     34  N   UNL A   1      41.936  30.096  29.859  1.00  0.00    -0.248 NA
ATOM     35  C   UNL A   1      40.024  31.423  30.009  1.00  0.00     0.031 C 
ATOM     36  C   UNL A   1      39.455  26.773  28.177  1.00  0.00     0.029 A 
ATOM     37  N   UNL A   1      41.493  27.354  28.890  1.00  0.00    -0.354 N 
ATOM     38  C   UNL A   1      42.284  31.338  30.382  1.00  0.00     0.074 A 
ATOM     39  C   UNL A   1      41.070  32.127  30.422  1.00  0.00     0.031 C 
ATOM     40  C   UNL A   1      40.251  25.704  28.031  1.00  0.00     0.029 A 
ATOM     41  C   UNL A   1      41.605  26.061  28.439  1.00  0.00     0.049 A 
ATOM     42  H   UNL A   1      42.245  27.859  29.276  1.00  0.00     0.167 HD
ATOM     43  C   UNL A   1      43.501  31.774  30.791  1.00  0.00     0.037 A 
ATOM     44  C   UNL A   1      42.681  25.260  28.336  1.00  0.00     0.037 A 
ATOM     45  C   UNL A   1      44.701  30.973  30.763  1.00  0.00     0.049 A 
ATOM     46  C   UNL A   1      44.023  25.775  28.776  1.00  0.00     0.074 A 
ATOM     47  C   UNL A   1      45.978  31.316  31.176  1.00  0.00     0.029 A 
ATOM     48  N   UNL A   1      44.774  29.669  30.293  1.00  0.00    -0.354 N 
ATOM     49  N   UNL A   1      44.333  26.951  29.266  1.00  0.00    -0.248 NA
ATOM     50  C   UNL A   1      45.158  24.855  28.645  1.00  0.00     0.031 C 
ATOM     51  C   UNL A   1      46.829  30.233  30.922  1.00  0.00     0.029 A 
ATOM     52  C   UNL A   1      46.075  29.199  30.394  1.00  0.00     0.049 A 
ATOM     53  H   UNL A   1      44.014  29.152  29.941  1.00  0.00     0.167 HD
ATOM     54  C   UNL A   1      45.699  26.907  29.519  1.00  0.00     0.074 A 
ATOM     55  C   UNL A   1      46.148  25.580  29.146  1.00  0.00     0.031 C 
ATOM     56  C   UNL A   1      46.509  27.877  30.011  1.00  0.00     0.037 A 
BRANCH  43  57
ATOM     57  C   UNL A   1      43.608  33.193  31.288  1.00  0.00     0.058 A 
ATOM     58  C   UNL A   1      43.529  33.509  32.653  1.00  0.00     0.135 A 
ATOM     59  C   UNL A   1      43.838  34.247  30.387  1.00  0.00     0.135 A 
ATOM     60  F   UNL A   1      43.298  32.546  33.558  1.00  0.00    -0.206 F 
ATOM     61  C   UNL A   1      43.643  34.822  33.106  1.00  0.00     0.059 A 
ATOM     62  C   UNL A   1      43.982  35.564  30.819  1.00  0.00     0.059 A 
ATOM     63  F   UNL A   1      43.928  34.003  29.070  1.00  0.00    -0.206 F 
ATOM     64  C   UNL A   1      43.866  35.843  32.179  1.00  0.00     0.060 A 
BRANCH  64  65
ATOM     65  S   UNL A   1      44.007  37.540  32.781  1.00  0.00     0.124 S 
ATOM     66  O   UNL A   1      43.799  38.302  31.553  1.00  0.00    -0.237 OA
ATOM     67  O   UNL A   1      42.929  37.615  33.762  1.00  0.00    -0.237 OA
ATOM     68  O   UNL A   1      45.357  37.596  33.332  1.00  0.00    -0.744 OA
ENDBRANCH  64  65
ENDBRANCH  43  57
BRANCH  44  69
ATOM     69  C   UNL A   1      42.529  23.891  27.780  1.00  0.00     0.058 A 
ATOM     70  C   UNL A   1      42.480  23.676  26.396  1.00  0.00     0.135 A 
ATOM     71  C   UNL A   1      42.456  22.770  28.621  1.00  0.00     0.135 A 
ATOM     72  F   UNL A   1      42.540  24.718  25.553  1.00  0.00    -0.206 F 
ATOM     73  C   UNL A   1      42.350  22.399  25.863  1.00  0.00     0.059 A 
ATOM     74  C   UNL A   1      42.355  21.479  28.113  1.00  0.00     0.059 A 
ATOM     75  F   UNL A   1      42.517  22.923  29.954  1.00  0.00    -0.206 F 
ATOM     76  C   UNL A   1      42.292  21.306  26.730  1.00  0.00     0.060 A 
BRANCH  76  77
ATOM     77  S   UNL A   1      42.176  19.646  26.029  1.00  0.00     0.124 S 
ATOM     78  O   UNL A   1      42.600  18.823  27.155  1.00  0.00    -0.237 OA
ATOM     79  O   UNL A   1      40.763  19.562  25.671  1.00  0.00    -0.237 OA
ATOM     80  O   UNL A   1      43.099  19.695  24.898  1.00  0.00    -0.744 OA
ENDBRANCH  76  77
ENDBRANCH  44  69
BRANCH  56  81
ATOM     81  C   UNL A   1      47.958  27.521  30.197  1.00  0.00     0.058 A 
ATOM     82  C   UNL A   1      48.915  27.778  29.202  1.00  0.00     0.135 A 
ATOM     83  C   UNL A   1      48.395  26.913  31.384  1.00  0.00     0.135 A 
ATOM     84  F   UNL A   1      48.548  28.351  28.044  1.00  0.00    -0.206 F 
ATOM     85  C   UNL A   1      50.246  27.406  29.360  1.00  0.00     0.059 A 
ATOM     86  C   UNL A   1      49.727  26.558  31.577  1.00  0.00     0.059 A 
ATOM     87  F   UNL A   1      47.524  26.655  32.373  1.00  0.00    -0.206 F 
ATOM     88  C   UNL A   1      50.641  26.791  30.549  1.00  0.00     0.060 A 
BRANCH  88  89
ATOM     89  S   UNL A   1      52.370  26.307  30.744  1.00  0.00     0.124 S 
ATOM     90  O   UNL A   1      52.249  25.118  31.579  1.00  0.00    -0.237 OA
ATOM     91  O   UNL A   1      52.788  26.074  29.365  1.00  0.00    -0.237 OA
ATOM     92  O   UNL A   1      52.976  27.469  31.388  1.00  0.00    -0.744 OA
ENDBRANCH  88  89
ENDBRANCH  56  81
ENDBRANCH  30  31
ENDBRANCH  23  25
ENDBRANCH  22  23
ENDBRANCH  21  22
ENDBRANCH   1  21
TORSDOF 20
ENDMDL
MODEL 2
REMARK VINA RESULT:      -9.5      1.420      2.249
REMARK SMILES O=C(N[C@H](CCBr)C(=O)OCCOC(=O)c1ccc(-c2c3nc(c(-c4c(F)cc(S(=O)(=O)[O-])cc4F)c4ccc([nH]4)c(-c4c(F)cc(S(=O)(=O)[O-])cc4F)c4nc(c(-c5c(F)cc(S(=O)(=O)[O-])cc5F)c5ccc2[nH]5)C=C4)C=C3)cc1)OCc1ccccc1
REMARK SMILES IDX 11 1 10 2 8 3 9 4 4 5 3 6 1 7 2 8 82 10 83 11 84 12 85 13
REMARK SMILES IDX 89 14 86 15 88 16 87 17 5 18 6 19 7 20 12 21 13 22 14 23
REMARK SMILES IDX 15 24 16 25 17 26 81 27 18 28 80 29 19 30 20 31 21 32 74 33
REMARK SMILES IDX 22 34 79 35 73 36 75 37 23 38 78 39 72 40 71 41 24 43 58 44
REMARK SMILES IDX 37 45 57 46 38 47 41 48 56 49 76 50 39 51 40 52 55 54 77 55
REMARK SMILES IDX 42 56 25 57 26 58 35 59 27 60 28 61 34 62 36 63 29 64 30 65
REMARK SMILES IDX 31 66 32 67 33 68 59 69 60 70 69 71 61 72 62 73 68 74 70 75
REMARK SMILES IDX 63 76 64 77 65 78 66 79 67 80 43 81 44 82 53 83 45 84 46 85
REMARK SMILES IDX 52 86 54 87 47 88 48 89 49 90 50 91 51 92
REMARK H PARENT 3 9 75 42 41 53
REMARK Flexibility Score: inf
ROOT
ATOM      1  C   UNL A   1      33.120  29.092  25.606  1.00  0.00     0.274 C 
ENDROOT
BRANCH   1   2
ATOM      2  O   UNL A   1      33.599  28.175  24.603  1.00  0.00    -0.461 OA
BRANCH   2   3
ATOM      3  C   UNL A   1      32.992  28.229  23.399  1.00  0.00     0.328 C 
ATOM      4  O   UNL A   1      33.154  29.139  22.587  1.00  0.00    -0.250 OA
BRANCH   3   5
ATOM      5  C   UNL A   1      32.026  27.068  23.121  1.00  0.00     0.196 C 
BRANCH   5   6
ATOM      6  N   UNL A   1      32.296  26.763  21.689  1.00  0.00    -0.308 N 
ATOM      7  O   UNL A   1      33.054  25.460  19.991  1.00  0.00    -0.225 OA
ATOM      8  C   UNL A   1      32.587  25.564  21.120  1.00  0.00     0.408 C 
ATOM      9  H   UNL A   1      32.261  27.531  21.074  1.00  0.00     0.168 HD
BRANCH   8  10
ATOM     10  O   UNL A   1      32.346  24.533  21.942  1.00  0.00    -0.445 OA
BRANCH  10  11
ATOM     11  C   UNL A   1      33.379  23.558  22.090  1.00  0.00     0.270 C 
BRANCH  11  12
ATOM     12  C   UNL A   1      33.854  23.464  23.525  1.00  0.00    -0.011 A 
ATOM     13  C   UNL A   1      33.719  22.263  24.240  1.00  0.00     0.007 A 
ATOM     14  C   UNL A   1      34.434  24.565  24.172  1.00  0.00     0.007 A 
ATOM     15  C   UNL A   1      34.137  22.167  25.567  1.00  0.00     0.000 A 
ATOM     16  C   UNL A   1      34.828  24.475  25.511  1.00  0.00     0.000 A 
ATOM     17  C   UNL A   1      34.676  23.277  26.208  1.00  0.00     0.000 A 
ENDBRANCH  11  12
ENDBRANCH  10  11
ENDBRANCH   8  10
ENDBRANCH   5   6
BRANCH   5  18
ATOM     18  C   UNL A   1      30.529  27.230  23.456  1.00  0.00     0.048 C 
BRANCH  18  19
ATOM     19  C   UNL A   1      29.870  26.255  24.415  1.00  0.00     0.083 C 
ATOM     20  Br  UNL A   1      31.021  25.811  25.913  1.00  0.00    -0.093 Br
ENDBRANCH  18  19
ENDBRANCH   5  18
ENDBRANCH   3   5
ENDBRANCH   2   3
ENDBRANCH   1   2
BRANCH   1  21
ATOM     21  C   UNL A   1      33.546  28.652  27.008  1.00  0.00     0.275 C 
BRANCH  21  22
ATOM     22  O   UNL A   1      33.379  29.704  27.982  1.00  0.00    -0.458 OA
BRANCH  22  23
ATOM     23  C   UNL A   1      34.405  30.581  28.018  1.00  0.00     0.338 C 
ATOM     24  O   UNL A   1      34.329  31.793  27.915  1.00  0.00    -0.246 OA
BRANCH  23  25
ATOM     25  C   UNL A   1      35.706  29.945  28.218  1.00  0.00     0.060 A 
ATOM     26  C   UNL A   1      36.065  29.536  29.504  1.00  0.00     0.016 A 
ATOM     27  C   UNL A   1      36.658  30.032  27.201  1.00  0.00     0.016 A 
ATOM     28  C   UNL A   1      37.402  29.262  29.787  1.00  0.00     0.010 A 
ATOM     29  C   UNL A   1      37.988  29.715  27.479  1.00  0.00     0.010 A 
ATOM     30  C   UNL A   1      38.378  29.357  28.781  1.00  0.00    -0.014 A 
BRANCH  30  31
ATOM     31  C   UNL A   1      39.803  29.073  29.087  1.00  0.00     0.031 A 
ATOM     32  C   UNL A   1      40.690  30.127  29.695  1.00  0.00     0.074 A 
ATOM     33  C   UNL A   1      40.302  27.858  28.795  1.00  0.00     0.049 A 
ATOM     34  N   UNL A   1      41.978  30.088  29.932  1.00  0.00    -0.248 NA
ATOM     35  C   UNL A   1      40.051  31.395  30.080  1.00  0.00     0.031 C 
ATOM     36  C   UNL A   1      39.539  26.753  28.211  1.00  0.00     0.029 A 
ATOM     37  N   UNL A   1      41.568  27.349  28.940  1.00  0.00    -0.354 N 
ATOM     38  C   UNL A   1      42.310  31.329  30.466  1.00  0.00     0.074 A 
ATOM     39  C   UNL A   1      41.088  32.106  30.504  1.00  0.00     0.031 C 
ATOM     40  C   UNL A   1      40.346  25.693  28.062  1.00  0.00     0.029 A 
ATOM     41  C   UNL A   1      41.694  26.059  28.481  1.00  0.00     0.049 A 
ATOM     42  H   UNL A   1      42.312  27.858  29.335  1.00  0.00     0.167 HD
ATOM     43  C   UNL A   1      43.520  31.774  30.885  1.00  0.00     0.037 A 
ATOM     44  C   UNL A   1      42.779  25.271  28.378  1.00  0.00     0.037 A 
ATOM     45  C   UNL A   1      44.728  30.985  30.858  1.00  0.00     0.049 A 
ATOM     46  C   UNL A   1      44.113  25.795  28.829  1.00  0.00     0.074 A 
ATOM     47  C   UNL A   1      45.999  31.337  31.282  1.00  0.00     0.029 A 
ATOM     48  N   UNL A   1      44.817  29.685  30.379  1.00  0.00    -0.354 N 
ATOM     49  N   UNL A   1      44.408  26.971  29.330  1.00  0.00    -0.248 NA
ATOM     50  C   UNL A   1      45.259  24.887  28.699  1.00  0.00     0.031 C 
ATOM     51  C   UNL A   1      46.862  30.265  31.024  1.00  0.00     0.029 A 
ATOM     52  C   UNL A   1      46.122  29.227  30.484  1.00  0.00     0.049 A 
ATOM     53  H   UNL A   1      44.064  29.164  30.019  1.00  0.00     0.167 HD
ATOM     54  C   UNL A   1      45.773  26.939  29.590  1.00  0.00     0.074 A 
ATOM     55  C   UNL A   1      46.238  25.619  29.211  1.00  0.00     0.031 C 
ATOM     56  C   UNL A   1      46.571  27.913  30.095  1.00  0.00     0.037 A 
BRANCH  43  57
ATOM     57  C   UNL A   1      43.610  33.190  31.393  1.00  0.00     0.058 A 
ATOM     58  C   UNL A   1      43.463  33.502  32.754  1.00  0.00     0.135 A 
ATOM     59  C   UNL A   1      43.892  34.247  30.509  1.00  0.00     0.135 A 
ATOM     60  F   UNL A   1      43.181  32.536  33.641  1.00  0.00    -0.206 F 
ATOM     61  C   UNL A   1      43.562  34.812  33.217  1.00  0.00     0.059 A 
ATOM     62  C   UNL A   1      44.021  35.560  30.953  1.00  0.00     0.059 A 
ATOM     63  F   UNL A   1      44.048  34.007  29.198  1.00  0.00    -0.206 F 
ATOM     64  C   UNL A   1      43.838  35.835  32.308  1.00  0.00     0.060 A 
BRANCH  64  65
ATOM     65  S   UNL A   1      43.958  37.529  32.923  1.00  0.00     0.124 S 
ATOM     66  O   UNL A   1      42.845  37.574  33.867  1.00  0.00    -0.237 OA
ATOM     67  O   UNL A   1      45.291  37.554  33.515  1.00  0.00    -0.237 OA
ATOM     68  O   UNL A   1      43.794  38.341  31.721  1.00  0.00    -0.744 OA
ENDBRANCH  64  65
ENDBRANCH  43  57
BRANCH  44  69
ATOM     69  C   UNL A   1      42.644  23.904  27.811  1.00  0.00     0.058 A 
ATOM     70  C   UNL A   1      42.542  22.784  28.647  1.00  0.00     0.135 A 
ATOM     71  C   UNL A   1      42.588  23.695  26.424  1.00  0.00     0.135 A 
ATOM     72  F   UNL A   1      42.596  22.934  29.980  1.00  0.00    -0.206 F 
ATOM     73  C   UNL A   1      42.403  21.501  28.131  1.00  0.00     0.059 A 
ATOM     74  C   UNL A   1      42.421  22.425  25.883  1.00  0.00     0.059 A 
ATOM     75  F   UNL A   1      42.663  24.738  25.583  1.00  0.00    -0.206 F 
ATOM     76  C   UNL A   1      42.340  21.332  26.746  1.00  0.00     0.060 A 
BRANCH  76  77
ATOM     77  S   UNL A   1      42.106  19.669  26.084  1.00  0.00     0.124 S 
ATOM     78  O   UNL A   1      43.066  19.654  24.986  1.00  0.00    -0.237 OA
ATOM     79  O   UNL A   1      42.436  18.832  27.234  1.00  0.00    -0.237 OA
ATOM     80  O   UNL A   1      40.699  19.658  25.694  1.00  0.00    -0.744 OA
ENDBRANCH  76  77
ENDBRANCH  44  69
BRANCH  56  81
ATOM     81  C   UNL A   1      48.022  27.570  30.287  1.00  0.00     0.058 A 
ATOM     82  C   UNL A   1      48.975  27.801  29.281  1.00  0.00     0.135 A 
ATOM     83  C   UNL A   1      48.466  27.001  31.491  1.00  0.00     0.135 A 
ATOM     84  F   UNL A   1      48.602  28.336  28.108  1.00  0.00    -0.206 F 
ATOM     85  C   UNL A   1      50.308  27.440  29.446  1.00  0.00     0.059 A 
ATOM     86  C   UNL A   1      49.800  26.658  31.689  1.00  0.00     0.059 A 
ATOM     87  F   UNL A   1      47.599  26.768  32.490  1.00  0.00    -0.206 F 
ATOM     88  C   UNL A   1      50.710  26.864  30.652  1.00  0.00     0.060 A 
BRANCH  88  89
ATOM     89  S   UNL A   1      52.442  26.395  30.856  1.00  0.00     0.124 S 
ATOM     90  O   UNL A   1      52.980  27.556  31.556  1.00  0.00    -0.237 OA
ATOM     91  O   UNL A   1      52.345  25.169  31.642  1.00  0.00    -0.237 OA
ATOM     92  O   UNL A   1      52.908  26.217  29.483  1.00  0.00    -0.744 OA
ENDBRANCH  88  89
ENDBRANCH  56  81
ENDBRANCH  30  31
ENDBRANCH  23  25
ENDBRANCH  22  23
ENDBRANCH  21  22
ENDBRANCH   1  21
TORSDOF 20
ENDMDL
MODEL 3
REMARK VINA RESULT:      -9.4      1.507      2.513
REMARK SMILES O=C(N[C@H](CCBr)C(=O)OCCOC(=O)c1ccc(-c2c3nc(c(-c4c(F)cc(S(=O)(=O)[O-])cc4F)c4ccc([nH]4)c(-c4c(F)cc(S(=O)(=O)[O-])cc4F)c4nc(c(-c5c(F)cc(S(=O)(=O)[O-])cc5F)c5ccc2[nH]5)C=C4)C=C3)cc1)OCc1ccccc1
REMARK SMILES IDX 11 1 10 2 8 3 9 4 4 5 3 6 1 7 2 8 82 10 83 11 84 12 85 13
REMARK SMILES IDX 89 14 86 15 88 16 87 17 5 18 6 19 7 20 12 21 13 22 14 23
REMARK SMILES IDX 15 24 16 25 17 26 81 27 18 28 80 29 19 30 20 31 21 32 74 33
REMARK SMILES IDX 22 34 79 35 73 36 75 37 23 38 78 39 72 40 71 41 24 43 58 44
REMARK SMILES IDX 37 45 57 46 38 47 41 48 56 49 76 50 39 51 40 52 55 54 77 55
REMARK SMILES IDX 42 56 25 57 26 58 35 59 27 60 28 61 34 62 36 63 29 64 30 65
REMARK SMILES IDX 31 66 32 67 33 68 59 69 60 70 69 71 61 72 62 73 68 74 70 75
REMARK SMILES IDX 63 76 64 77 65 78 66 79 67 80 43 81 44 82 53 83 45 84 46 85
REMARK SMILES IDX 52 86 54 87 47 88 48 89 49 90 50 91 51 92
REMARK H PARENT 3 9 75 42 41 53
REMARK Flexibility Score: inf
ROOT
ATOM      1  C   UNL A   1      33.754  27.642  24.974  1.00  0.00     0.274 C 
ENDROOT
BRANCH   1   2
ATOM      2  O   UNL A   1      33.818  26.320  25.545  1.00  0.00    -0.461 OA
BRANCH   2   3
ATOM      3  C   UNL A   1      32.652  25.650  25.643  1.00  0.00     0.328 C 
ATOM      4  O   UNL A   1      31.904  25.709  26.619  1.00  0.00    -0.250 OA
BRANCH   3   5
ATOM      5  C   UNL A   1      32.329  24.752  24.440  1.00  0.00     0.196 C 
BRANCH   5   6
ATOM      6  N   UNL A   1      33.682  24.319  23.992  1.00  0.00    -0.308 N 
ATOM      7  O   UNL A   1      35.351  22.804  23.723  1.00  0.00    -0.225 OA
ATOM      8  C   UNL A   1      34.157  23.056  23.833  1.00  0.00     0.408 C 
ATOM      9  H   UNL A   1      34.316  25.043  23.785  1.00  0.00     0.168 HD
BRANCH   8  10
ATOM     10  O   UNL A   1      33.183  22.135  23.855  1.00  0.00    -0.445 OA
BRANCH  10  11
ATOM     11  C   UNL A   1      33.259  21.125  24.862  1.00  0.00     0.270 C 
BRANCH  11  12
ATOM     12  C   UNL A   1      33.364  19.740  24.255  1.00  0.00    -0.011 A 
ATOM     13  C   UNL A   1      32.416  19.304  23.315  1.00  0.00     0.007 A 
ATOM     14  C   UNL A   1      34.399  18.866  24.616  1.00  0.00     0.007 A 
ATOM     15  C   UNL A   1      32.490  18.026  22.761  1.00  0.00     0.000 A 
ATOM     16  C   UNL A   1      34.457  17.575  24.080  1.00  0.00     0.000 A 
ATOM     17  C   UNL A   1      33.500  17.156  23.156  1.00  0.00     0.000 A 
ENDBRANCH  11  12
ENDBRANCH  10  11
ENDBRANCH   8  10
ENDBRANCH   5   6
BRANCH   5  18
ATOM     18  C   UNL A   1      31.437  25.294  23.306  1.00  0.00     0.048 C 
BRANCH  18  19
ATOM     19  C   UNL A   1      30.101  25.929  23.646  1.00  0.00     0.083 C 
ATOM     20  Br  UNL A   1      30.169  27.867  23.557  1.00  0.00    -0.093 Br
ENDBRANCH  18  19
ENDBRANCH   5  18
ENDBRANCH   3   5
ENDBRANCH   2   3
ENDBRANCH   1   2
BRANCH   1  21
ATOM     21  C   UNL A   1      33.239  28.661  25.993  1.00  0.00     0.275 C 
BRANCH  21  22
ATOM     22  O   UNL A   1      33.962  28.595  27.241  1.00  0.00    -0.458 OA
BRANCH  22  23
ATOM     23  C   UNL A   1      34.326  29.802  27.724  1.00  0.00     0.338 C 
ATOM     24  O   UNL A   1      33.610  30.780  27.852  1.00  0.00    -0.246 OA
BRANCH  23  25
ATOM     25  C   UNL A   1      35.730  29.867  28.128  1.00  0.00     0.060 A 
ATOM     26  C   UNL A   1      36.704  30.066  27.148  1.00  0.00     0.016 A 
ATOM     27  C   UNL A   1      36.079  29.438  29.409  1.00  0.00     0.016 A 
ATOM     28  C   UNL A   1      38.038  29.783  27.440  1.00  0.00     0.010 A 
ATOM     29  C   UNL A   1      37.420  29.196  29.710  1.00  0.00     0.010 A 
ATOM     30  C   UNL A   1      38.408  29.337  28.720  1.00  0.00    -0.014 A 
BRANCH  30  31
ATOM     31  C   UNL A   1      39.828  29.028  29.026  1.00  0.00     0.031 A 
ATOM     32  C   UNL A   1      40.735  30.067  29.628  1.00  0.00     0.074 A 
ATOM     33  C   UNL A   1      40.303  27.801  28.740  1.00  0.00     0.049 A 
ATOM     34  N   UNL A   1      42.022  30.004  29.864  1.00  0.00    -0.248 NA
ATOM     35  C   UNL A   1      40.121  31.348  30.008  1.00  0.00     0.031 C 
ATOM     36  C   UNL A   1      39.519  26.708  28.161  1.00  0.00     0.029 A 
ATOM     37  N   UNL A   1      41.559  27.269  28.886  1.00  0.00    -0.354 N 
ATOM     38  C   UNL A   1      42.378  31.241  30.393  1.00  0.00     0.074 A 
ATOM     39  C   UNL A   1      41.171  32.042  30.428  1.00  0.00     0.031 C 
ATOM     40  C   UNL A   1      40.305  25.632  28.016  1.00  0.00     0.029 A 
ATOM     41  C   UNL A   1      41.661  25.975  28.432  1.00  0.00     0.049 A 
ATOM     42  H   UNL A   1      42.313  27.765  29.277  1.00  0.00     0.167 HD
ATOM     43  C   UNL A   1      43.597  31.665  30.809  1.00  0.00     0.037 A 
ATOM     44  C   UNL A   1      42.730  25.165  28.332  1.00  0.00     0.037 A 
ATOM     45  C   UNL A   1      44.790  30.853  30.784  1.00  0.00     0.049 A 
ATOM     46  C   UNL A   1      44.074  25.667  28.780  1.00  0.00     0.074 A 
ATOM     47  C   UNL A   1      46.067  31.183  31.205  1.00  0.00     0.029 A 
ATOM     48  N   UNL A   1      44.853  29.549  30.312  1.00  0.00    -0.354 N 
ATOM     49  N   UNL A   1      44.392  26.839  29.275  1.00  0.00    -0.248 NA
ATOM     50  C   UNL A   1      45.202  24.736  28.653  1.00  0.00     0.031 C 
ATOM     51  C   UNL A   1      46.910  30.093  30.952  1.00  0.00     0.029 A 
ATOM     52  C   UNL A   1      46.149  29.067  30.418  1.00  0.00     0.049 A 
ATOM     53  H   UNL A   1      44.090  29.041  29.955  1.00  0.00     0.167 HD
ATOM     54  C   UNL A   1      45.756  26.781  29.535  1.00  0.00     0.074 A 
ATOM     55  C   UNL A   1      46.195  25.451  29.161  1.00  0.00     0.031 C 
ATOM     56  C   UNL A   1      46.573  27.743  30.034  1.00  0.00     0.037 A 
BRANCH  43  57
ATOM     57  C   UNL A   1      43.714  33.081  31.309  1.00  0.00     0.058 A 
ATOM     58  C   UNL A   1      43.955  34.158  30.441  1.00  0.00     0.135 A 
ATOM     59  C   UNL A   1      43.538  33.371  32.674  1.00  0.00     0.135 A 
ATOM     60  F   UNL A   1      44.144  33.941  29.131  1.00  0.00    -0.206 F 
ATOM     61  C   UNL A   1      44.048  35.467  30.910  1.00  0.00     0.059 A 
ATOM     62  C   UNL A   1      43.600  34.675  33.161  1.00  0.00     0.059 A 
ATOM     63  F   UNL A   1      43.300  32.382  33.549  1.00  0.00    -0.206 F 
ATOM     64  C   UNL A   1      43.872  35.714  32.273  1.00  0.00     0.060 A 
BRANCH  64  65
ATOM     65  S   UNL A   1      44.001  37.415  32.866  1.00  0.00     0.124 S 
ATOM     66  O   UNL A   1      45.331  37.413  33.468  1.00  0.00    -0.237 OA
ATOM     67  O   UNL A   1      43.864  38.187  31.635  1.00  0.00    -0.237 OA
ATOM     68  O   UNL A   1      42.889  37.534  33.804  1.00  0.00    -0.744 OA
ENDBRANCH  64  65
ENDBRANCH  43  57
BRANCH  44  69
ATOM     69  C   UNL A   1      42.568  23.799  27.772  1.00  0.00     0.058 A 
ATOM     70  C   UNL A   1      42.574  23.581  26.388  1.00  0.00     0.135 A 
ATOM     71  C   UNL A   1      42.430  22.682  28.611  1.00  0.00     0.135 A 
ATOM     72  F   UNL A   1      42.698  24.620  25.546  1.00  0.00    -0.206 F 
ATOM     73  C   UNL A   1      42.436  22.307  25.851  1.00  0.00     0.059 A 
ATOM     74  C   UNL A   1      42.319  21.393  28.100  1.00  0.00     0.059 A 
ATOM     75  F   UNL A   1      42.437  22.836  29.945  1.00  0.00    -0.206 F 
ATOM     76  C   UNL A   1      42.312  21.218  26.716  1.00  0.00     0.060 A 
BRANCH  76  77
ATOM     77  S   UNL A   1      42.186  19.560  26.013  1.00  0.00     0.124 S 
ATOM     78  O   UNL A   1      42.646  18.735  27.124  1.00  0.00    -0.237 OA
ATOM     79  O   UNL A   1      40.764  19.470  25.694  1.00  0.00    -0.237 OA
ATOM     80  O   UNL A   1      43.077  19.618  24.857  1.00  0.00    -0.744 OA
ENDBRANCH  76  77
ENDBRANCH  44  69
BRANCH  56  81
ATOM     81  C   UNL A   1      48.018  27.373  30.227  1.00  0.00     0.058 A 
ATOM     82  C   UNL A   1      48.472  26.758  31.405  1.00  0.00     0.135 A 
ATOM     83  C   UNL A   1      48.961  27.639  29.222  1.00  0.00     0.135 A 
ATOM     84  F   UNL A   1      47.611  26.488  32.400  1.00  0.00    -0.206 F 
ATOM     85  C   UNL A   1      49.816  26.459  31.598  1.00  0.00     0.059 A 
ATOM     86  C   UNL A   1      50.307  27.323  29.381  1.00  0.00     0.059 A 
ATOM     87  F   UNL A   1      48.580  28.216  28.071  1.00  0.00    -0.206 F 
ATOM     88  C   UNL A   1      50.727  26.751  30.582  1.00  0.00     0.060 A 
BRANCH  88  89
ATOM     89  S   UNL A   1      52.472  26.364  30.842  1.00  0.00     0.124 S 
ATOM     90  O   UNL A   1      52.937  26.170  29.473  1.00  0.00    -0.237 OA
ATOM     91  O   UNL A   1      52.963  27.562  31.515  1.00  0.00    -0.237 OA
ATOM     92  O   UNL A   1      52.432  25.160  31.669  1.00  0.00    -0.744 OA
ENDBRANCH  88  89
ENDBRANCH  56  81
ENDBRANCH  30  31
ENDBRANCH  23  25
ENDBRANCH  22  23
ENDBRANCH  21  22
ENDBRANCH   1  21
TORSDOF 20
ENDMDL
