MODEL 1
REMARK VINA RESULT:     -11.0      0.000      0.000
REMARK SMILES CC1(C)NC(=O)N(CCC(=O)N2CCC[C@H]2C(=O)OCCOC(=O)c2ccc(-c3c4nc(c(-c5c(F)cc(S(=O)(=O)[O-])cc5F)c5ccc([nH]5)c(-c5c(F)cc(S(=O)(=O)[O-])cc5F)c5nc(c(-c6c(F)cc(S(=O)(=O)[O-])cc6F)c6ccc3[nH]6)C=C5)C=C4)cc2)C1=O
REMARK SMILES IDX 20 1 19 2 17 3 18 4 16 5 12 6 13 7 14 8 15 9 10 10 11 11
REMARK SMILES IDX 9 12 8 13 7 14 1 15 2 16 3 17 4 18 91 19 5 20 92 22 6 23
REMARK SMILES IDX 21 24 22 25 23 26 24 27 25 28 26 29 90 30 27 31 89 32 28 33
REMARK SMILES IDX 29 34 30 35 83 36 31 37 88 38 82 39 84 40 32 41 87 42 81 43
REMARK SMILES IDX 80 44 33 46 67 47 46 48 66 49 47 50 50 51 65 52 85 53 48 54
REMARK SMILES IDX 49 55 64 57 86 58 51 59 34 60 35 61 44 62 36 63 37 64 43 65
REMARK SMILES IDX 45 66 38 67 39 68 40 69 41 70 42 71 68 72 69 73 78 74 70 75
REMARK SMILES IDX 71 76 77 77 79 78 72 79 73 80 74 81 75 82 76 83 52 84 53 85
REMARK SMILES IDX 62 86 54 87 55 88 61 89 63 90 56 91 57 92 58 93 59 94 60 95
REMARK H PARENT 4 21 84 45 50 56
REMARK Flexibility Score: inf
ROOT
ATOM      1  C   UNL A   1      36.296  20.481  25.113  1.00  0.00     0.274 C 
ENDROOT
BRANCH   1   2
ATOM      2  O   UNL A   1      35.209  21.280  24.559  1.00  0.00    -0.461 OA
BRANCH   2   3
ATOM      3  C   UNL A   1      34.263  21.813  25.381  1.00  0.00     0.328 C 
ATOM      4  O   UNL A   1      33.942  21.331  26.459  1.00  0.00    -0.250 OA
BRANCH   3   5
ATOM      5  C   UNL A   1      33.577  23.032  24.705  1.00  0.00     0.195 C 
ATOM      6  N   UNL A   1      33.196  24.094  25.623  1.00  0.00    -0.329 N 
ATOM      7  C   UNL A   1      34.010  25.266  25.376  1.00  0.00     0.120 C 
ATOM      8  C   UNL A   1      34.123  25.244  23.865  1.00  0.00     0.024 C 
ATOM      9  C   UNL A   1      34.274  23.752  23.548  1.00  0.00     0.039 C 
BRANCH   6  10
ATOM     10  C   UNL A   1      32.034  24.132  26.363  1.00  0.00     0.225 C 
ATOM     11  O   UNL A   1      32.021  23.819  27.555  1.00  0.00    -0.275 OA
BRANCH  10  12
ATOM     12  C   UNL A   1      30.739  24.490  25.645  1.00  0.00     0.122 C 
BRANCH  12  13
ATOM     13  C   UNL A   1      30.147  25.908  25.780  1.00  0.00     0.140 C 
BRANCH  13  14
ATOM     14  N   UNL A   1      30.996  27.112  25.725  1.00  0.00    -0.262 N 
ATOM     15  C   UNL A   1      33.902  28.546  26.773  1.00  0.00     0.045 C 
ATOM     16  C   UNL A   1      32.470  28.895  26.376  1.00  0.00     0.115 C 
ATOM     17  C   UNL A   1      32.086  30.237  26.997  1.00  0.00     0.045 C 
ATOM     18  N   UNL A   1      32.247  28.796  24.959  1.00  0.00    -0.324 N 
ATOM     19  C   UNL A   1      31.495  27.794  26.791  1.00  0.00     0.255 C 
ATOM     20  C   UNL A   1      31.433  27.733  24.602  1.00  0.00     0.325 C 
ATOM     21  H   UNL A   1      32.634  29.422  24.306  1.00  0.00     0.166 HD
ATOM     22  O   UNL A   1      31.164  27.595  27.934  1.00  0.00    -0.272 OA
ATOM     23  O   UNL A   1      31.151  27.454  23.450  1.00  0.00    -0.248 OA
ENDBRANCH  13  14
ENDBRANCH  12  13
ENDBRANCH  10  12
ENDBRANCH   6  10
ENDBRANCH   3   5
ENDBRANCH   2   3
ENDBRANCH   1   2
BRANCH   1  24
ATOM     24  C   UNL A   1      37.769  20.980  24.958  1.00  0.00     0.275 C 
BRANCH  24  25
ATOM     25  O   UNL A   1      38.241  21.904  25.988  1.00  0.00    -0.458 OA
BRANCH  25  26
ATOM     26  C   UNL A   1      38.196  23.234  25.658  1.00  0.00     0.338 C 
ATOM     27  O   UNL A   1      37.484  23.700  24.777  1.00  0.00    -0.246 OA
BRANCH  26  28
ATOM     28  C   UNL A   1      39.006  24.151  26.545  1.00  0.00     0.060 A 
ATOM     29  C   UNL A   1      38.805  24.202  27.913  1.00  0.00     0.016 A 
ATOM     30  C   UNL A   1      39.815  25.152  26.003  1.00  0.00     0.016 A 
ATOM     31  C   UNL A   1      39.090  25.363  28.647  1.00  0.00     0.010 A 
ATOM     32  C   UNL A   1      40.328  26.197  26.814  1.00  0.00     0.010 A 
ATOM     33  C   UNL A   1      39.910  26.374  28.147  1.00  0.00    -0.014 A 
BRANCH  33  34
ATOM     34  C   UNL A   1      40.309  27.576  28.983  1.00  0.00     0.031 A 
ATOM     35  C   UNL A   1      41.603  27.553  29.782  1.00  0.00     0.074 A 
ATOM     36  C   UNL A   1      39.559  28.706  29.058  1.00  0.00     0.049 A 
ATOM     37  N   UNL A   1      41.951  28.256  30.833  1.00  0.00    -0.248 NA
ATOM     38  C   UNL A   1      42.636  26.602  29.342  1.00  0.00     0.031 C 
ATOM     39  C   UNL A   1      38.352  29.005  28.281  1.00  0.00     0.029 A 
ATOM     40  N   UNL A   1      39.698  29.835  29.846  1.00  0.00    -0.354 N 
ATOM     41  C   UNL A   1      43.192  27.763  31.237  1.00  0.00     0.074 A 
ATOM     42  C   UNL A   1      43.545  26.715  30.303  1.00  0.00     0.031 C 
ATOM     43  C   UNL A   1      37.902  30.229  28.581  1.00  0.00     0.029 A 
ATOM     44  C   UNL A   1      38.667  30.744  29.701  1.00  0.00     0.049 A 
ATOM     45  H   UNL A   1      40.459  29.977  30.454  1.00  0.00     0.167 HD
ATOM     46  C   UNL A   1      43.952  28.136  32.298  1.00  0.00     0.037 A 
ATOM     47  C   UNL A   1      38.295  31.816  30.433  1.00  0.00     0.037 A 
ATOM     48  C   UNL A   1      43.621  29.233  33.175  1.00  0.00     0.049 A 
ATOM     49  C   UNL A   1      39.086  32.159  31.664  1.00  0.00     0.074 A 
ATOM     50  C   UNL A   1      44.296  29.677  34.302  1.00  0.00     0.029 A 
ATOM     51  N   UNL A   1      42.533  30.078  33.009  1.00  0.00    -0.354 N 
ATOM     52  N   UNL A   1      40.169  31.586  32.131  1.00  0.00    -0.248 NA
ATOM     53  C   UNL A   1      38.589  33.271  32.486  1.00  0.00     0.031 C 
ATOM     54  C   UNL A   1      43.587  30.755  34.843  1.00  0.00     0.029 A 
ATOM     55  C   UNL A   1      42.506  31.026  34.018  1.00  0.00     0.049 A 
ATOM     56  H   UNL A   1      41.875  30.013  32.279  1.00  0.00     0.167 HD
ATOM     57  C   UNL A   1      40.496  32.284  33.287  1.00  0.00     0.074 A 
ATOM     58  C   UNL A   1      39.506  33.330  33.440  1.00  0.00     0.031 C 
ATOM     59  C   UNL A   1      41.524  32.074  34.147  1.00  0.00     0.037 A 
BRANCH  46  60
ATOM     60  C   UNL A   1      45.171  27.305  32.623  1.00  0.00     0.058 A 
ATOM     61  C   UNL A   1      45.118  26.149  33.416  1.00  0.00     0.135 A 
ATOM     62  C   UNL A   1      46.427  27.678  32.109  1.00  0.00     0.135 A 
ATOM     63  F   UNL A   1      43.951  25.745  33.944  1.00  0.00    -0.206 F 
ATOM     64  C   UNL A   1      46.266  25.420  33.725  1.00  0.00     0.059 A 
ATOM     65  C   UNL A   1      47.582  26.947  32.378  1.00  0.00     0.059 A 
ATOM     66  F   UNL A   1      46.545  28.770  31.337  1.00  0.00    -0.206 F 
ATOM     67  C   UNL A   1      47.495  25.830  33.204  1.00  0.00     0.060 A 
BRANCH  67  68
ATOM     68  S   UNL A   1      48.978  24.890  33.631  1.00  0.00     0.124 S 
ATOM     69  O   UNL A   1      49.651  24.804  32.338  1.00  0.00    -0.237 OA
ATOM     70  O   UNL A   1      49.617  25.749  34.622  1.00  0.00    -0.237 OA
ATOM     71  O   UNL A   1      48.449  23.630  34.145  1.00  0.00    -0.744 OA
ENDBRANCH  67  68
ENDBRANCH  46  60
BRANCH  47  72
ATOM     72  C   UNL A   1      37.055  32.580  30.086  1.00  0.00     0.058 A 
ATOM     73  C   UNL A   1      35.808  32.231  30.627  1.00  0.00     0.135 A 
ATOM     74  C   UNL A   1      37.090  33.673  29.201  1.00  0.00     0.135 A 
ATOM     75  F   UNL A   1      35.709  31.186  31.461  1.00  0.00    -0.206 F 
ATOM     76  C   UNL A   1      34.646  32.927  30.300  1.00  0.00     0.059 A 
ATOM     77  C   UNL A   1      35.949  34.408  28.890  1.00  0.00     0.059 A 
ATOM     78  F   UNL A   1      38.251  34.060  28.652  1.00  0.00    -0.206 F 
ATOM     79  C   UNL A   1      34.728  34.021  29.437  1.00  0.00     0.060 A 
BRANCH  79  80
ATOM     80  S   UNL A   1      33.225  34.952  29.062  1.00  0.00     0.124 S 
ATOM     81  O   UNL A   1      32.569  34.990  30.363  1.00  0.00    -0.237 OA
ATOM     82  O   UNL A   1      33.765  36.220  28.580  1.00  0.00    -0.237 OA
ATOM     83  O   UNL A   1      32.568  34.134  28.046  1.00  0.00    -0.744 OA
ENDBRANCH  79  80
ENDBRANCH  47  72
BRANCH  59  84
ATOM     84  C   UNL A   1      41.667  33.032  35.297  1.00  0.00     0.058 A 
ATOM     85  C   UNL A   1      42.428  34.206  35.196  1.00  0.00     0.135 A 
ATOM     86  C   UNL A   1      40.992  32.789  36.504  1.00  0.00     0.135 A 
ATOM     87  F   UNL A   1      43.104  34.481  34.069  1.00  0.00    -0.206 F 
ATOM     88  C   UNL A   1      42.529  35.099  36.259  1.00  0.00     0.059 A 
ATOM     89  C   UNL A   1      41.054  33.681  37.569  1.00  0.00     0.059 A 
ATOM     90  F   UNL A   1      40.248  31.681  36.651  1.00  0.00    -0.206 F 
ATOM     91  C   UNL A   1      41.835  34.828  37.440  1.00  0.00     0.060 A 
BRANCH  91  92
ATOM     92  S   UNL A   1      41.943  36.014  38.796  1.00  0.00     0.124 S 
ATOM     93  O   UNL A   1      41.637  35.173  39.948  1.00  0.00    -0.237 OA
ATOM     94  O   UNL A   1      43.323  36.477  38.696  1.00  0.00    -0.237 OA
ATOM     95  O   UNL A   1      40.930  37.010  38.459  1.00  0.00    -0.744 OA
ENDBRANCH  91  92
ENDBRANCH  59  84
ENDBRANCH  33  34
ENDBRANCH  26  28
ENDBRANCH  25  26
ENDBRANCH  24  25
ENDBRANCH   1  24
TORSDOF 18
ENDMDL
MODEL 2
REMARK VINA RESULT:     -10.8      4.105     10.039
REMARK SMILES CC1(C)NC(=O)N(CCC(=O)N2CCC[C@H]2C(=O)OCCOC(=O)c2ccc(-c3c4nc(c(-c5c(F)cc(S(=O)(=O)[O-])cc5F)c5ccc([nH]5)c(-c5c(F)cc(S(=O)(=O)[O-])cc5F)c5nc(c(-c6c(F)cc(S(=O)(=O)[O-])cc6F)c6ccc3[nH]6)C=C5)C=C4)cc2)C1=O
REMARK SMILES IDX 20 1 19 2 17 3 18 4 16 5 12 6 13 7 14 8 15 9 10 10 11 11
REMARK SMILES IDX 9 12 8 13 7 14 1 15 2 16 3 17 4 18 91 19 5 20 92 22 6 23
REMARK SMILES IDX 21 24 22 25 23 26 24 27 25 28 26 29 90 30 27 31 89 32 28 33
REMARK SMILES IDX 29 34 30 35 83 36 31 37 88 38 82 39 84 40 32 41 87 42 81 43
REMARK SMILES IDX 80 44 33 46 67 47 46 48 66 49 47 50 50 51 65 52 85 53 48 54
REMARK SMILES IDX 49 55 64 57 86 58 51 59 34 60 35 61 44 62 36 63 37 64 43 65
REMARK SMILES IDX 45 66 38 67 39 68 40 69 41 70 42 71 68 72 69 73 78 74 70 75
REMARK SMILES IDX 71 76 77 77 79 78 72 79 73 80 74 81 75 82 76 83 52 84 53 85
REMARK SMILES IDX 62 86 54 87 55 88 61 89 63 90 56 91 57 92 58 93 59 94 60 95
REMARK H PARENT 4 21 84 45 50 56
REMARK Flexibility Score: inf
ROOT
ATOM      1  C   UNL A   1      31.777  29.261  26.380  1.00  0.00     0.274 C 
ENDROOT
BRANCH   1   2
ATOM      2  O   UNL A   1      32.113  29.050  24.977  1.00  0.00    -0.461 OA
BRANCH   2   3
ATOM      3  C   UNL A   1      31.649  27.951  24.320  1.00  0.00     0.328 C 
ATOM      4  O   UNL A   1      30.539  27.874  23.811  1.00  0.00    -0.250 OA
BRANCH   3   5
ATOM      5  C   UNL A   1      32.672  26.785  24.414  1.00  0.00     0.195 C 
ATOM      6  N   UNL A   1      32.088  25.497  24.751  1.00  0.00    -0.329 N 
ATOM      7  C   UNL A   1      32.190  24.604  23.616  1.00  0.00     0.120 C 
ATOM      8  C   UNL A   1      33.553  24.969  23.064  1.00  0.00     0.024 C 
ATOM      9  C   UNL A   1      33.602  26.492  23.234  1.00  0.00     0.039 C 
BRANCH   6  10
ATOM     10  C   UNL A   1      31.806  25.057  26.027  1.00  0.00     0.225 C 
ATOM     11  O   UNL A   1      31.528  25.846  26.932  1.00  0.00    -0.275 OA
BRANCH  10  12
ATOM     12  C   UNL A   1      31.931  23.566  26.314  1.00  0.00     0.122 C 
BRANCH  12  13
ATOM     13  C   UNL A   1      33.254  22.992  26.859  1.00  0.00     0.140 C 
BRANCH  13  14
ATOM     14  N   UNL A   1      34.297  22.459  25.962  1.00  0.00    -0.262 N 
ATOM     15  C   UNL A   1      37.639  21.988  25.513  1.00  0.00     0.045 C 
ATOM     16  C   UNL A   1      36.349  22.228  24.734  1.00  0.00     0.115 C 
ATOM     17  C   UNL A   1      36.687  22.827  23.369  1.00  0.00     0.045 C 
ATOM     18  N   UNL A   1      35.500  21.069  24.694  1.00  0.00    -0.324 N 
ATOM     19  C   UNL A   1      35.391  23.129  25.512  1.00  0.00     0.255 C 
ATOM     20  C   UNL A   1      34.345  21.205  25.448  1.00  0.00     0.325 C 
ATOM     21  H   UNL A   1      35.717  20.257  24.182  1.00  0.00     0.166 HD
ATOM     22  O   UNL A   1      35.562  24.315  25.657  1.00  0.00    -0.272 OA
ATOM     23  O   UNL A   1      33.512  20.326  25.575  1.00  0.00    -0.248 OA
ENDBRANCH  13  14
ENDBRANCH  12  13
ENDBRANCH  10  12
ENDBRANCH   6  10
ENDBRANCH   3   5
ENDBRANCH   2   3
ENDBRANCH   1   2
BRANCH   1  24
ATOM     24  C   UNL A   1      32.924  29.511  27.412  1.00  0.00     0.275 C 
BRANCH  24  25
ATOM     25  O   UNL A   1      33.656  30.767  27.261  1.00  0.00    -0.458 OA
BRANCH  25  26
ATOM     26  C   UNL A   1      34.515  31.080  28.281  1.00  0.00     0.338 C 
ATOM     27  O   UNL A   1      34.270  31.897  29.161  1.00  0.00    -0.246 OA
BRANCH  26  28
ATOM     28  C   UNL A   1      35.777  30.251  28.345  1.00  0.00     0.060 A 
ATOM     29  C   UNL A   1      36.233  29.713  29.534  1.00  0.00     0.016 A 
ATOM     30  C   UNL A   1      36.659  30.195  27.263  1.00  0.00     0.016 A 
ATOM     31  C   UNL A   1      37.597  29.456  29.740  1.00  0.00     0.010 A 
ATOM     32  C   UNL A   1      37.973  29.681  27.417  1.00  0.00     0.010 A 
ATOM     33  C   UNL A   1      38.503  29.372  28.684  1.00  0.00    -0.014 A 
BRANCH  33  34
ATOM     34  C   UNL A   1      39.956  28.984  28.897  1.00  0.00     0.031 A 
ATOM     35  C   UNL A   1      40.958  30.017  29.386  1.00  0.00     0.074 A 
ATOM     36  C   UNL A   1      40.424  27.728  28.674  1.00  0.00     0.049 A 
ATOM     37  N   UNL A   1      42.264  30.038  29.269  1.00  0.00    -0.248 NA
ATOM     38  C   UNL A   1      40.411  31.189  30.090  1.00  0.00     0.031 C 
ATOM     39  C   UNL A   1      39.626  26.548  28.330  1.00  0.00     0.029 A 
ATOM     40  N   UNL A   1      41.714  27.225  28.698  1.00  0.00    -0.354 N 
ATOM     41  C   UNL A   1      42.681  31.263  29.791  1.00  0.00     0.074 A 
ATOM     42  C   UNL A   1      41.489  31.947  30.245  1.00  0.00     0.031 C 
ATOM     43  C   UNL A   1      40.415  25.471  28.231  1.00  0.00     0.029 A 
ATOM     44  C   UNL A   1      41.800  25.899  28.321  1.00  0.00     0.049 A 
ATOM     45  H   UNL A   1      42.496  27.762  28.957  1.00  0.00     0.167 HD
ATOM     46  C   UNL A   1      43.937  31.775  29.864  1.00  0.00     0.037 A 
ATOM     47  C   UNL A   1      42.848  25.120  27.978  1.00  0.00     0.037 A 
ATOM     48  C   UNL A   1      45.122  31.048  29.476  1.00  0.00     0.049 A 
ATOM     49  C   UNL A   1      44.223  25.726  27.965  1.00  0.00     0.074 A 
ATOM     50  C   UNL A   1      46.439  31.478  29.471  1.00  0.00     0.029 A 
ATOM     51  N   UNL A   1      45.136  29.728  29.047  1.00  0.00    -0.354 N 
ATOM     52  N   UNL A   1      44.590  26.938  28.306  1.00  0.00    -0.248 NA
ATOM     53  C   UNL A   1      45.321  24.874  27.491  1.00  0.00     0.031 C 
ATOM     54  C   UNL A   1      47.240  30.436  28.991  1.00  0.00     0.029 A 
ATOM     55  C   UNL A   1      46.432  29.334  28.758  1.00  0.00     0.049 A 
ATOM     56  H   UNL A   1      44.340  29.156  28.961  1.00  0.00     0.167 HD
ATOM     57  C   UNL A   1      45.965  26.985  28.111  1.00  0.00     0.074 A 
ATOM     58  C   UNL A   1      46.365  25.676  27.638  1.00  0.00     0.031 C 
ATOM     59  C   UNL A   1      46.819  28.021  28.305  1.00  0.00     0.037 A 
BRANCH  46  60
ATOM     60  C   UNL A   1      44.092  33.212  30.302  1.00  0.00     0.058 A 
ATOM     61  C   UNL A   1      44.428  33.578  31.615  1.00  0.00     0.135 A 
ATOM     62  C   UNL A   1      43.908  34.250  29.370  1.00  0.00     0.135 A 
ATOM     63  F   UNL A   1      44.608  32.635  32.554  1.00  0.00    -0.206 F 
ATOM     64  C   UNL A   1      44.533  34.915  31.998  1.00  0.00     0.059 A 
ATOM     65  C   UNL A   1      44.038  35.591  29.722  1.00  0.00     0.059 A 
ATOM     66  F   UNL A   1      43.592  33.966  28.097  1.00  0.00    -0.206 F 
ATOM     67  C   UNL A   1      44.332  35.915  31.044  1.00  0.00     0.060 A 
BRANCH  67  68
ATOM     68  S   UNL A   1      44.447  37.643  31.558  1.00  0.00     0.124 S 
ATOM     69  O   UNL A   1      44.004  38.336  30.352  1.00  0.00    -0.237 OA
ATOM     70  O   UNL A   1      43.530  37.694  32.692  1.00  0.00    -0.237 OA
ATOM     71  O   UNL A   1      45.859  37.808  31.890  1.00  0.00    -0.744 OA
ENDBRANCH  67  68
ENDBRANCH  46  60
BRANCH  47  72
ATOM     72  C   UNL A   1      42.631  23.713  27.515  1.00  0.00     0.058 A 
ATOM     73  C   UNL A   1      42.545  23.400  26.149  1.00  0.00     0.135 A 
ATOM     74  C   UNL A   1      42.499  22.651  28.428  1.00  0.00     0.135 A 
ATOM     75  F   UNL A   1      42.643  24.373  25.232  1.00  0.00    -0.206 F 
ATOM     76  C   UNL A   1      42.330  22.096  25.708  1.00  0.00     0.059 A 
ATOM     77  C   UNL A   1      42.322  21.335  28.010  1.00  0.00     0.059 A 
ATOM     78  F   UNL A   1      42.575  22.883  29.748  1.00  0.00    -0.206 F 
ATOM     79  C   UNL A   1      42.228  21.068  26.647  1.00  0.00     0.060 A 
BRANCH  79  80
ATOM     80  S   UNL A   1      42.005  19.372  26.063  1.00  0.00     0.124 S 
ATOM     81  O   UNL A   1      40.592  19.366  25.705  1.00  0.00    -0.237 OA
ATOM     82  O   UNL A   1      42.948  19.306  24.950  1.00  0.00    -0.237 OA
ATOM     83  O   UNL A   1      42.366  18.566  27.226  1.00  0.00    -0.744 OA
ENDBRANCH  79  80
ENDBRANCH  47  72
BRANCH  59  84
ATOM     84  C   UNL A   1      48.279  27.764  28.064  1.00  0.00     0.058 A 
ATOM     85  C   UNL A   1      49.103  27.183  29.040  1.00  0.00     0.135 A 
ATOM     86  C   UNL A   1      48.851  28.065  26.817  1.00  0.00     0.135 A 
ATOM     87  F   UNL A   1      48.611  26.888  30.254  1.00  0.00    -0.206 F 
ATOM     88  C   UNL A   1      50.449  26.925  28.794  1.00  0.00     0.059 A 
ATOM     89  C   UNL A   1      50.185  27.788  26.538  1.00  0.00     0.059 A 
ATOM     90  F   UNL A   1      48.105  28.619  25.847  1.00  0.00    -0.206 F 
ATOM     91  C   UNL A   1      50.978  27.228  27.538  1.00  0.00     0.060 A 
BRANCH  91  92
ATOM     92  S   UNL A   1      52.714  26.851  27.219  1.00  0.00     0.124 S 
ATOM     93  O   UNL A   1      53.335  27.231  28.484  1.00  0.00    -0.237 OA
ATOM     94  O   UNL A   1      52.675  25.419  26.937  1.00  0.00    -0.237 OA
ATOM     95  O   UNL A   1      53.043  27.699  26.078  1.00  0.00    -0.744 OA
ENDBRANCH  91  92
ENDBRANCH  59  84
ENDBRANCH  33  34
ENDBRANCH  26  28
ENDBRANCH  25  26
ENDBRANCH  24  25
ENDBRANCH   1  24
TORSDOF 18
ENDMDL
MODEL 3
REMARK VINA RESULT:     -10.7      1.156      2.951
REMARK SMILES CC1(C)NC(=O)N(CCC(=O)N2CCC[C@H]2C(=O)OCCOC(=O)c2ccc(-c3c4nc(c(-c5c(F)cc(S(=O)(=O)[O-])cc5F)c5ccc([nH]5)c(-c5c(F)cc(S(=O)(=O)[O-])cc5F)c5nc(c(-c6c(F)cc(S(=O)(=O)[O-])cc6F)c6ccc3[nH]6)C=C5)C=C4)cc2)C1=O
REMARK SMILES IDX 20 1 19 2 17 3 18 4 16 5 12 6 13 7 14 8 15 9 10 10 11 11
REMARK SMILES IDX 9 12 8 13 7 14 1 15 2 16 3 17 4 18 91 19 5 20 92 22 6 23
REMARK SMILES IDX 21 24 22 25 23 26 24 27 25 28 26 29 90 30 27 31 89 32 28 33
REMARK SMILES IDX 29 34 30 35 83 36 31 37 88 38 82 39 84 40 32 41 87 42 81 43
REMARK SMILES IDX 80 44 33 46 67 47 46 48 66 49 47 50 50 51 65 52 85 53 48 54
REMARK SMILES IDX 49 55 64 57 86 58 51 59 34 60 35 61 44 62 36 63 37 64 43 65
REMARK SMILES IDX 45 66 38 67 39 68 40 69 41 70 42 71 68 72 69 73 78 74 70 75
REMARK SMILES IDX 71 76 77 77 79 78 72 79 73 80 74 81 75 82 76 83 52 84 53 85
REMARK SMILES IDX 62 86 54 87 55 88 61 89 63 90 56 91 57 92 58 93 59 94 60 95
REMARK H PARENT 4 21 84 45 50 56
REMARK Flexibility Score: inf
ROOT
ATOM      1  C   UNL A   1      35.179  24.093  25.776  1.00  0.00     0.274 C 
ENDROOT
BRANCH   1   2
ATOM      2  O   UNL A   1      34.565  25.316  25.275  1.00  0.00    -0.461 OA
BRANCH   2   3
ATOM      3  C   UNL A   1      33.423  25.791  25.845  1.00  0.00     0.328 C 
ATOM      4  O   UNL A   1      32.540  25.081  26.306  1.00  0.00    -0.250 OA
BRANCH   3   5
ATOM      5  C   UNL A   1      33.351  27.338  25.716  1.00  0.00     0.195 C 
ATOM      6  N   UNL A   1      32.002  27.880  25.710  1.00  0.00    -0.329 N 
ATOM      7  C   UNL A   1      31.779  28.642  26.921  1.00  0.00     0.120 C 
ATOM      8  C   UNL A   1      33.124  29.313  27.111  1.00  0.00     0.024 C 
ATOM      9  C   UNL A   1      34.119  28.220  26.704  1.00  0.00     0.039 C 
BRANCH   6  10
ATOM     10  C   UNL A   1      31.183  27.973  24.606  1.00  0.00     0.225 C 
ATOM     11  O   UNL A   1      30.911  29.062  24.096  1.00  0.00    -0.275 OA
BRANCH  10  12
ATOM     12  C   UNL A   1      30.547  26.693  24.077  1.00  0.00     0.122 C 
BRANCH  12  13
ATOM     13  C   UNL A   1      31.069  26.051  22.775  1.00  0.00     0.140 C 
BRANCH  13  14
ATOM     14  N   UNL A   1      31.882  24.821  22.787  1.00  0.00    -0.262 N 
ATOM     15  C   UNL A   1      31.979  21.514  21.983  1.00  0.00     0.045 C 
ATOM     16  C   UNL A   1      32.528  22.516  22.995  1.00  0.00     0.115 C 
ATOM     17  C   UNL A   1      32.936  21.777  24.268  1.00  0.00     0.045 C 
ATOM     18  N   UNL A   1      33.542  23.369  22.437  1.00  0.00    -0.324 N 
ATOM     19  C   UNL A   1      31.511  23.615  23.294  1.00  0.00     0.255 C 
ATOM     20  C   UNL A   1      33.132  24.684  22.281  1.00  0.00     0.325 C 
ATOM     21  H   UNL A   1      34.440  23.051  22.189  1.00  0.00     0.166 HD
ATOM     22  O   UNL A   1      30.518  23.440  23.959  1.00  0.00    -0.272 OA
ATOM     23  O   UNL A   1      33.829  25.556  21.794  1.00  0.00    -0.248 OA
ENDBRANCH  13  14
ENDBRANCH  12  13
ENDBRANCH  10  12
ENDBRANCH   6  10
ENDBRANCH   3   5
ENDBRANCH   2   3
ENDBRANCH   1   2
BRANCH   1  24
ATOM     24  C   UNL A   1      36.207  23.330  24.879  1.00  0.00     0.275 C 
BRANCH  24  25
ATOM     25  O   UNL A   1      37.571  23.856  24.881  1.00  0.00    -0.458 OA
BRANCH  25  26
ATOM     26  C   UNL A   1      38.437  23.255  25.758  1.00  0.00     0.338 C 
ATOM     27  O   UNL A   1      38.663  22.051  25.785  1.00  0.00    -0.246 OA
BRANCH  26  28
ATOM     28  C   UNL A   1      39.221  24.195  26.644  1.00  0.00     0.060 A 
ATOM     29  C   UNL A   1      39.020  24.242  28.011  1.00  0.00     0.016 A 
ATOM     30  C   UNL A   1      40.001  25.219  26.100  1.00  0.00     0.016 A 
ATOM     31  C   UNL A   1      39.273  25.411  28.744  1.00  0.00     0.010 A 
ATOM     32  C   UNL A   1      40.485  26.278  26.910  1.00  0.00     0.010 A 
ATOM     33  C   UNL A   1      40.063  26.444  28.243  1.00  0.00    -0.014 A 
BRANCH  33  34
ATOM     34  C   UNL A   1      40.429  27.658  29.078  1.00  0.00     0.031 A 
ATOM     35  C   UNL A   1      41.710  27.662  29.897  1.00  0.00     0.074 A 
ATOM     36  C   UNL A   1      39.658  28.775  29.134  1.00  0.00     0.049 A 
ATOM     37  N   UNL A   1      42.029  28.376  30.949  1.00  0.00    -0.248 NA
ATOM     38  C   UNL A   1      42.766  26.725  29.480  1.00  0.00     0.031 C 
ATOM     39  C   UNL A   1      38.460  29.049  28.335  1.00  0.00     0.029 A 
ATOM     40  N   UNL A   1      39.766  29.911  29.917  1.00  0.00    -0.354 N 
ATOM     41  C   UNL A   1      43.271  27.906  31.376  1.00  0.00     0.074 A 
ATOM     42  C   UNL A   1      43.657  26.859  30.454  1.00  0.00     0.031 C 
ATOM     43  C   UNL A   1      37.984  30.267  28.621  1.00  0.00     0.029 A 
ATOM     44  C   UNL A   1      38.723  30.802  29.750  1.00  0.00     0.049 A 
ATOM     45  H   UNL A   1      40.515  30.070  30.536  1.00  0.00     0.167 HD
ATOM     46  C   UNL A   1      44.009  28.299  32.447  1.00  0.00     0.037 A 
ATOM     47  C   UNL A   1      38.321  31.872  30.470  1.00  0.00     0.037 A 
ATOM     48  C   UNL A   1      43.645  29.395  33.312  1.00  0.00     0.049 A 
ATOM     49  C   UNL A   1      39.086  32.235  31.711  1.00  0.00     0.074 A 
ATOM     50  C   UNL A   1      44.294  29.857  34.446  1.00  0.00     0.029 A 
ATOM     51  N   UNL A   1      42.545  30.221  33.123  1.00  0.00    -0.354 N 
ATOM     52  N   UNL A   1      40.171  31.684  32.199  1.00  0.00    -0.248 NA
ATOM     53  C   UNL A   1      38.557  33.344  32.518  1.00  0.00     0.031 C 
ATOM     54  C   UNL A   1      43.559  30.926  34.969  1.00  0.00     0.029 A 
ATOM     55  C   UNL A   1      42.487  31.174  34.126  1.00  0.00     0.049 A 
ATOM     56  H   UNL A   1      41.901  30.140  32.383  1.00  0.00     0.167 HD
ATOM     57  C   UNL A   1      40.468  32.394  33.355  1.00  0.00     0.074 A 
ATOM     58  C   UNL A   1      39.459  33.424  33.486  1.00  0.00     0.031 C 
ATOM     59  C   UNL A   1      41.485  32.206  34.233  1.00  0.00     0.037 A 
BRANCH  46  60
ATOM     60  C   UNL A   1      45.236  27.490  32.796  1.00  0.00     0.058 A 
ATOM     61  C   UNL A   1      46.527  27.838  32.368  1.00  0.00     0.135 A 
ATOM     62  C   UNL A   1      45.110  26.339  33.595  1.00  0.00     0.135 A 
ATOM     63  F   UNL A   1      46.713  28.920  31.595  1.00  0.00    -0.206 F 
ATOM     64  C   UNL A   1      47.637  27.053  32.680  1.00  0.00     0.059 A 
ATOM     65  C   UNL A   1      46.208  25.558  33.946  1.00  0.00     0.059 A 
ATOM     66  F   UNL A   1      43.903  25.956  34.043  1.00  0.00    -0.206 F 
ATOM     67  C   UNL A   1      47.466  25.913  33.466  1.00  0.00     0.060 A 
BRANCH  67  68
ATOM     68  S   UNL A   1      48.909  24.893  33.843  1.00  0.00     0.124 S 
ATOM     69  O   UNL A   1      49.578  24.842  32.547  1.00  0.00    -0.237 OA
ATOM     70  O   UNL A   1      49.583  25.674  34.875  1.00  0.00    -0.237 OA
ATOM     71  O   UNL A   1      48.328  23.632  34.297  1.00  0.00    -0.744 OA
ENDBRANCH  67  68
ENDBRANCH  46  60
BRANCH  47  72
ATOM     72  C   UNL A   1      37.075  32.613  30.098  1.00  0.00     0.058 A 
ATOM     73  C   UNL A   1      35.830  32.268  30.647  1.00  0.00     0.135 A 
ATOM     74  C   UNL A   1      37.100  33.681  29.181  1.00  0.00     0.135 A 
ATOM     75  F   UNL A   1      35.739  31.246  31.511  1.00  0.00    -0.206 F 
ATOM     76  C   UNL A   1      34.661  32.942  30.298  1.00  0.00     0.059 A 
ATOM     77  C   UNL A   1      35.952  34.394  28.847  1.00  0.00     0.059 A 
ATOM     78  F   UNL A   1      38.259  34.063  28.623  1.00  0.00    -0.206 F 
ATOM     79  C   UNL A   1      34.734  34.011  29.403  1.00  0.00     0.060 A 
BRANCH  79  80
ATOM     80  S   UNL A   1      33.223  34.915  28.999  1.00  0.00     0.124 S 
ATOM     81  O   UNL A   1      32.608  34.038  28.011  1.00  0.00    -0.237 OA
ATOM     82  O   UNL A   1      32.555  34.987  30.296  1.00  0.00    -0.237 OA
ATOM     83  O   UNL A   1      33.720  36.190  28.490  1.00  0.00    -0.744 OA
ENDBRANCH  79  80
ENDBRANCH  47  72
BRANCH  59  84
ATOM     84  C   UNL A   1      41.594  33.173  35.378  1.00  0.00     0.058 A 
ATOM     85  C   UNL A   1      40.988  32.927  36.620  1.00  0.00     0.135 A 
ATOM     86  C   UNL A   1      42.359  34.343  35.242  1.00  0.00     0.135 A 
ATOM     87  F   UNL A   1      40.236  31.830  36.801  1.00  0.00    -0.206 F 
ATOM     88  C   UNL A   1      41.120  33.818  37.681  1.00  0.00     0.059 A 
ATOM     89  C   UNL A   1      42.530  35.232  36.298  1.00  0.00     0.059 A 
ATOM     90  F   UNL A   1      42.962  34.624  34.075  1.00  0.00    -0.206 F 
ATOM     91  C   UNL A   1      41.897  34.965  37.510  1.00  0.00     0.060 A 
BRANCH  91  92
ATOM     92  S   UNL A   1      42.093  36.091  38.907  1.00  0.00     0.124 S 
ATOM     93  O   UNL A   1      40.986  37.017  38.697  1.00  0.00    -0.237 OA
ATOM     94  O   UNL A   1      41.962  35.194  40.051  1.00  0.00    -0.237 OA
ATOM     95  O   UNL A   1      43.427  36.651  38.709  1.00  0.00    -0.744 OA
ENDBRANCH  91  92
ENDBRANCH  59  84
ENDBRANCH  33  34
ENDBRANCH  26  28
ENDBRANCH  25  26
ENDBRANCH  24  25
ENDBRANCH   1  24
TORSDOF 18
ENDMDL
