MODEL 1
REMARK VINA RESULT:     -13.2      0.000      0.000
REMARK SMILES CC1=C([C@H](NC(=O)[C@@H]2C=C(c3ccccc3)NN2C)C(=O)OCCOC(=O)c2ccc(-c3c4nc(c(-c5c(F)cc(S(=O)(=O)[O-])cc5F)c5ccc([nH]5)c(-c5c(F)cc(S(=O)(=O)[O-])cc5F)c5nc(c(-c6c(F)cc(S(=O)(=O)[O-])cc6F)c6ccc3[nH]6)C=C5)C=C4)cc2)[C@@H](C)N=N1
REMARK SMILES IDX 23 1 22 2 20 3 21 4 4 5 3 6 1 7 2 8 97 9 94 10 96 11 95 12
REMARK SMILES IDX 5 13 6 14 7 16 8 17 9 18 18 19 10 20 17 21 19 22 11 24 12 25
REMARK SMILES IDX 16 26 13 27 15 28 14 29 24 30 25 31 26 32 27 33 28 34 29 35
REMARK SMILES IDX 93 36 30 37 92 38 31 39 32 40 33 41 86 42 34 43 91 44 85 45
REMARK SMILES IDX 87 46 35 47 90 48 84 49 83 50 36 52 70 53 49 54 69 55 50 56
REMARK SMILES IDX 53 57 68 58 88 59 51 60 52 61 67 63 89 64 54 65 37 66 38 67
REMARK SMILES IDX 47 68 39 69 40 70 46 71 48 72 41 73 42 74 43 75 44 76 45 77
REMARK SMILES IDX 71 78 72 79 81 80 73 81 74 82 80 83 82 84 75 85 76 86 77 87
REMARK SMILES IDX 78 88 79 89 55 90 56 91 65 92 57 93 58 94 64 95 66 96 59 97
REMARK SMILES IDX 60 98 61 99 62 100 63 101
REMARK H PARENT 5 15 17 23 87 51 53 62
REMARK Flexibility Score: inf
ROOT
ATOM      1  C   UNL A   1      31.912  29.329  26.211  1.00  0.00     0.274 C 
ENDROOT
BRANCH   1   2
ATOM      2  O   UNL A   1      32.685  28.176  26.609  1.00  0.00    -0.460 OA
BRANCH   2   3
ATOM      3  C   UNL A   1      33.523  27.683  25.668  1.00  0.00     0.333 C 
ATOM      4  O   UNL A   1      34.362  28.384  25.103  1.00  0.00    -0.249 OA
BRANCH   3   5
ATOM      5  C   UNL A   1      33.364  26.149  25.387  1.00  0.00     0.223 C 
BRANCH   5   6
ATOM      6  C   UNL A   1      32.428  26.045  24.184  1.00  0.00     0.012 C 
ATOM      7  C   UNL A   1      29.951  26.293  24.952  1.00  0.00     0.069 C 
ATOM      8  C   UNL A   1      31.095  26.102  24.007  1.00  0.00     0.064 C 
ATOM      9  N   UNL A   1      30.736  25.939  22.688  1.00  0.00    -0.160 NA
ATOM     10  C   UNL A   1      32.976  25.865  22.791  1.00  0.00     0.156 C 
ATOM     11  N   UNL A   1      31.747  25.772  21.962  1.00  0.00    -0.181 NA
ATOM     12  C   UNL A   1      33.813  24.615  22.566  1.00  0.00     0.040 C 
ENDBRANCH   5   6
BRANCH   5  13
ATOM     13  N   UNL A   1      32.922  25.116  26.339  1.00  0.00    -0.338 N 
ATOM     14  C   UNL A   1      32.771  23.763  26.374  1.00  0.00     0.244 C 
ATOM     15  H   UNL A   1      32.662  25.518  27.198  1.00  0.00     0.164 HD
ATOM     16  O   UNL A   1      31.939  23.363  27.199  1.00  0.00    -0.273 OA
BRANCH  14  17
ATOM     17  C   UNL A   1      33.610  22.818  25.523  1.00  0.00     0.191 C 
ATOM     18  C   UNL A   1      32.808  21.711  24.906  1.00  0.00     0.031 C 
ATOM     19  N   UNL A   1      34.655  22.123  26.373  1.00  0.00    -0.210 NA
ATOM     20  C   UNL A   1      33.409  20.567  25.220  1.00  0.00     0.054 C 
ATOM     21  N   UNL A   1      34.420  20.768  26.115  1.00  0.00    -0.318 N 
ATOM     22  C   UNL A   1      36.019  22.386  25.915  1.00  0.00     0.132 C 
ATOM     23  H   UNL A   1      34.929  20.037  26.534  1.00  0.00     0.182 HD
BRANCH  20  24
ATOM     24  C   UNL A   1      33.334  19.272  24.575  1.00  0.00    -0.001 A 
ATOM     25  C   UNL A   1      32.323  19.109  23.617  1.00  0.00     0.010 A 
ATOM     26  C   UNL A   1      34.359  18.336  24.682  1.00  0.00     0.010 A 
ATOM     27  C   UNL A   1      32.402  18.077  22.690  1.00  0.00     0.001 A 
ATOM     28  C   UNL A   1      34.401  17.265  23.790  1.00  0.00     0.001 A 
ATOM     29  C   UNL A   1      33.446  17.156  22.777  1.00  0.00     0.000 A 
ENDBRANCH  20  24
ENDBRANCH  14  17
ENDBRANCH   5  13
ENDBRANCH   3   5
ENDBRANCH   2   3
ENDBRANCH   1   2
BRANCH   1  30
ATOM     30  C   UNL A   1      32.478  30.617  26.825  1.00  0.00     0.275 C 
BRANCH  30  31
ATOM     31  O   UNL A   1      33.352  30.363  27.939  1.00  0.00    -0.458 OA
BRANCH  31  32
ATOM     32  C   UNL A   1      34.250  31.351  28.183  1.00  0.00     0.338 C 
ATOM     33  O   UNL A   1      33.977  32.526  28.249  1.00  0.00    -0.246 OA
BRANCH  32  34
ATOM     34  C   UNL A   1      35.637  30.863  28.327  1.00  0.00     0.060 A 
ATOM     35  C   UNL A   1      36.601  31.819  28.678  1.00  0.00     0.016 A 
ATOM     36  C   UNL A   1      36.001  29.540  28.059  1.00  0.00     0.016 A 
ATOM     37  C   UNL A   1      37.936  31.467  28.709  1.00  0.00     0.010 A 
ATOM     38  C   UNL A   1      37.339  29.179  28.122  1.00  0.00     0.010 A 
ATOM     39  C   UNL A   1      38.297  30.142  28.451  1.00  0.00    -0.014 A 
BRANCH  39  40
ATOM     40  C   UNL A   1      39.633  29.730  28.878  1.00  0.00     0.031 A 
ATOM     41  C   UNL A   1      39.797  29.825  30.339  1.00  0.00     0.074 A 
ATOM     42  C   UNL A   1      40.571  29.197  28.080  1.00  0.00     0.049 A 
ATOM     43  N   UNL A   1      40.550  30.663  30.967  1.00  0.00    -0.248 NA
ATOM     44  C   UNL A   1      38.874  29.075  31.205  1.00  0.00     0.031 C 
ATOM     45  C   UNL A   1      40.398  28.963  26.665  1.00  0.00     0.029 A 
ATOM     46  N   UNL A   1      41.806  28.676  28.323  1.00  0.00    -0.354 N 
ATOM     47  C   UNL A   1      40.438  30.300  32.298  1.00  0.00     0.074 A 
ATOM     48  C   UNL A   1      39.226  29.535  32.408  1.00  0.00     0.031 C 
ATOM     49  C   UNL A   1      41.357  28.145  26.198  1.00  0.00     0.029 A 
ATOM     50  C   UNL A   1      42.289  27.891  27.276  1.00  0.00     0.049 A 
ATOM     51  H   UNL A   1      42.308  28.838  29.154  1.00  0.00     0.167 HD
ATOM     52  C   UNL A   1      41.552  30.315  33.078  1.00  0.00     0.037 A 
ATOM     53  C   UNL A   1      43.373  27.076  27.253  1.00  0.00     0.037 A 
ATOM     54  C   UNL A   1      42.575  31.162  32.505  1.00  0.00     0.049 A 
ATOM     55  C   UNL A   1      44.308  27.602  28.273  1.00  0.00     0.074 A 
ATOM     56  C   UNL A   1      42.653  32.487  32.126  1.00  0.00     0.029 A 
ATOM     57  N   UNL A   1      43.626  30.519  31.897  1.00  0.00    -0.354 N 
ATOM     58  N   UNL A   1      44.891  28.768  28.172  1.00  0.00    -0.248 NA
ATOM     59  C   UNL A   1      44.261  27.050  29.619  1.00  0.00     0.031 C 
ATOM     60  C   UNL A   1      43.561  32.525  31.027  1.00  0.00     0.029 A 
ATOM     61  C   UNL A   1      44.045  31.234  30.806  1.00  0.00     0.049 A 
ATOM     62  H   UNL A   1      44.021  29.670  32.200  1.00  0.00     0.167 HD
ATOM     63  C   UNL A   1      44.843  29.290  29.455  1.00  0.00     0.074 A 
ATOM     64  C   UNL A   1      44.598  28.138  30.318  1.00  0.00     0.031 C 
ATOM     65  C   UNL A   1      44.699  30.635  29.658  1.00  0.00     0.037 A 
BRANCH  52  66
ATOM     66  C   UNL A   1      41.890  29.191  34.039  1.00  0.00     0.058 A 
ATOM     67  C   UNL A   1      41.979  27.881  33.529  1.00  0.00     0.135 A 
ATOM     68  C   UNL A   1      41.810  29.289  35.449  1.00  0.00     0.135 A 
ATOM     69  F   UNL A   1      42.054  27.669  32.205  1.00  0.00    -0.206 F 
ATOM     70  C   UNL A   1      41.893  26.756  34.349  1.00  0.00     0.059 A 
ATOM     71  C   UNL A   1      41.779  28.184  36.285  1.00  0.00     0.059 A 
ATOM     72  F   UNL A   1      41.655  30.450  36.094  1.00  0.00    -0.206 F 
ATOM     73  C   UNL A   1      41.772  26.921  35.725  1.00  0.00     0.060 A 
BRANCH  73  74
ATOM     74  S   UNL A   1      41.542  25.483  36.779  1.00  0.00     0.124 S 
ATOM     75  O   UNL A   1      41.327  24.436  35.788  1.00  0.00    -0.237 OA
ATOM     76  O   UNL A   1      42.809  25.438  37.502  1.00  0.00    -0.237 OA
ATOM     77  O   UNL A   1      40.379  25.844  37.584  1.00  0.00    -0.744 OA
ENDBRANCH  73  74
ENDBRANCH  52  66
BRANCH  53  78
ATOM     78  C   UNL A   1      43.474  25.743  26.592  1.00  0.00     0.058 A 
ATOM     79  C   UNL A   1      44.303  25.524  25.478  1.00  0.00     0.135 A 
ATOM     80  C   UNL A   1      42.941  24.580  27.194  1.00  0.00     0.135 A 
ATOM     81  F   UNL A   1      44.867  26.562  24.844  1.00  0.00    -0.206 F 
ATOM     82  C   UNL A   1      44.623  24.235  25.023  1.00  0.00     0.059 A 
ATOM     83  C   UNL A   1      43.233  23.292  26.752  1.00  0.00     0.059 A 
ATOM     84  F   UNL A   1      42.179  24.651  28.296  1.00  0.00    -0.206 F 
ATOM     85  C   UNL A   1      44.099  23.123  25.682  1.00  0.00     0.060 A 
BRANCH  85  86
ATOM     86  S   UNL A   1      44.647  21.460  25.225  1.00  0.00     0.124 S 
ATOM     87  O   UNL A   1      44.624  21.522  23.768  1.00  0.00    -0.237 OA
ATOM     88  O   UNL A   1      45.968  21.391  25.840  1.00  0.00    -0.237 OA
ATOM     89  O   UNL A   1      43.638  20.592  25.826  1.00  0.00    -0.744 OA
ENDBRANCH  85  86
ENDBRANCH  53  78
BRANCH  65  90
ATOM     90  C   UNL A   1      45.083  31.562  28.533  1.00  0.00     0.058 A 
ATOM     91  C   UNL A   1      44.274  31.875  27.427  1.00  0.00     0.135 A 
ATOM     92  C   UNL A   1      46.290  32.269  28.664  1.00  0.00     0.135 A 
ATOM     93  F   UNL A   1      43.067  31.312  27.272  1.00  0.00    -0.206 F 
ATOM     94  C   UNL A   1      44.666  32.823  26.477  1.00  0.00     0.059 A 
ATOM     95  C   UNL A   1      46.686  33.236  27.746  1.00  0.00     0.059 A 
ATOM     96  F   UNL A   1      47.081  32.056  29.730  1.00  0.00    -0.206 F 
ATOM     97  C   UNL A   1      45.876  33.500  26.646  1.00  0.00     0.060 A 
BRANCH  97  98
ATOM     98  S   UNL A   1      46.355  34.768  25.452  1.00  0.00     0.124 S 
ATOM     99  O   UNL A   1      45.523  34.437  24.301  1.00  0.00    -0.237 OA
ATOM    100  O   UNL A   1      46.010  36.005  26.148  1.00  0.00    -0.237 OA
ATOM    101  O   UNL A   1      47.787  34.545  25.271  1.00  0.00    -0.744 OA
ENDBRANCH  97  98
ENDBRANCH  65  90
ENDBRANCH  39  40
ENDBRANCH  32  34
ENDBRANCH  31  32
ENDBRANCH  30  31
ENDBRANCH   1  30
TORSDOF 18
ENDMDL
MODEL 2
REMARK VINA RESULT:     -13.1      1.687      2.374
REMARK SMILES CC1=C([C@H](NC(=O)[C@@H]2C=C(c3ccccc3)NN2C)C(=O)OCCOC(=O)c2ccc(-c3c4nc(c(-c5c(F)cc(S(=O)(=O)[O-])cc5F)c5ccc([nH]5)c(-c5c(F)cc(S(=O)(=O)[O-])cc5F)c5nc(c(-c6c(F)cc(S(=O)(=O)[O-])cc6F)c6ccc3[nH]6)C=C5)C=C4)cc2)[C@@H](C)N=N1
REMARK SMILES IDX 23 1 22 2 20 3 21 4 4 5 3 6 1 7 2 8 97 9 94 10 96 11 95 12
REMARK SMILES IDX 5 13 6 14 7 16 8 17 9 18 18 19 10 20 17 21 19 22 11 24 12 25
REMARK SMILES IDX 16 26 13 27 15 28 14 29 24 30 25 31 26 32 27 33 28 34 29 35
REMARK SMILES IDX 93 36 30 37 92 38 31 39 32 40 33 41 86 42 34 43 91 44 85 45
REMARK SMILES IDX 87 46 35 47 90 48 84 49 83 50 36 52 70 53 49 54 69 55 50 56
REMARK SMILES IDX 53 57 68 58 88 59 51 60 52 61 67 63 89 64 54 65 37 66 38 67
REMARK SMILES IDX 47 68 39 69 40 70 46 71 48 72 41 73 42 74 43 75 44 76 45 77
REMARK SMILES IDX 71 78 72 79 81 80 73 81 74 82 80 83 82 84 75 85 76 86 77 87
REMARK SMILES IDX 78 88 79 89 55 90 56 91 65 92 57 93 58 94 64 95 66 96 59 97
REMARK SMILES IDX 60 98 61 99 62 100 63 101
REMARK H PARENT 5 15 17 23 87 51 53 62
REMARK Flexibility Score: inf
ROOT
ATOM      1  C   UNL A   1      31.782  29.540  27.148  1.00  0.00     0.274 C 
ENDROOT
BRANCH   1   2
ATOM      2  O   UNL A   1      32.608  28.569  26.468  1.00  0.00    -0.460 OA
BRANCH   2   3
ATOM      3  C   UNL A   1      32.054  27.347  26.300  1.00  0.00     0.333 C 
ATOM      4  O   UNL A   1      31.338  26.827  27.156  1.00  0.00    -0.249 OA
BRANCH   3   5
ATOM      5  C   UNL A   1      32.363  26.670  24.921  1.00  0.00     0.223 C 
BRANCH   5   6
ATOM      6  C   UNL A   1      31.558  27.456  23.887  1.00  0.00     0.012 C 
ATOM      7  C   UNL A   1      29.114  26.557  23.786  1.00  0.00     0.069 C 
ATOM      8  C   UNL A   1      30.288  27.418  23.440  1.00  0.00     0.064 C 
ATOM      9  N   UNL A   1      30.050  28.359  22.465  1.00  0.00    -0.160 NA
ATOM     10  C   UNL A   1      32.182  28.595  23.122  1.00  0.00     0.156 C 
ATOM     11  N   UNL A   1      31.083  29.031  22.223  1.00  0.00    -0.181 NA
ATOM     12  C   UNL A   1      33.394  28.238  22.277  1.00  0.00     0.040 C 
ENDBRANCH   5   6
BRANCH   5  13
ATOM     13  N   UNL A   1      32.197  25.249  24.574  1.00  0.00    -0.338 N 
ATOM     14  C   UNL A   1      32.896  24.086  24.685  1.00  0.00     0.244 C 
ATOM     15  H   UNL A   1      31.328  25.093  24.138  1.00  0.00     0.164 HD
ATOM     16  O   UNL A   1      32.590  23.224  23.852  1.00  0.00    -0.273 OA
BRANCH  14  17
ATOM     17  C   UNL A   1      33.918  23.841  25.789  1.00  0.00     0.191 C 
ATOM     18  C   UNL A   1      35.320  24.188  25.382  1.00  0.00     0.031 C 
ATOM     19  N   UNL A   1      33.963  22.371  26.154  1.00  0.00    -0.210 NA
ATOM     20  C   UNL A   1      36.077  23.125  25.639  1.00  0.00     0.054 C 
ATOM     21  N   UNL A   1      35.318  22.053  26.010  1.00  0.00    -0.318 N 
ATOM     22  C   UNL A   1      33.644  22.130  27.561  1.00  0.00     0.132 C 
ATOM     23  H   UNL A   1      35.685  21.152  26.160  1.00  0.00     0.182 HD
BRANCH  20  24
ATOM     24  C   UNL A   1      37.508  23.034  25.844  1.00  0.00    -0.001 A 
ATOM     25  C   UNL A   1      38.114  24.113  26.505  1.00  0.00     0.010 A 
ATOM     26  C   UNL A   1      38.206  21.843  25.656  1.00  0.00     0.010 A 
ATOM     27  C   UNL A   1      39.370  23.960  27.081  1.00  0.00     0.001 A 
ATOM     28  C   UNL A   1      39.491  21.715  26.181  1.00  0.00     0.001 A 
ATOM     29  C   UNL A   1      40.056  22.756  26.919  1.00  0.00     0.000 A 
ENDBRANCH  20  24
ENDBRANCH  14  17
ENDBRANCH   5  13
ENDBRANCH   3   5
ENDBRANCH   2   3
ENDBRANCH   1   2
BRANCH   1  30
ATOM     30  C   UNL A   1      32.430  30.930  27.134  1.00  0.00     0.275 C 
BRANCH  30  31
ATOM     31  O   UNL A   1      33.866  30.872  27.064  1.00  0.00    -0.458 OA
BRANCH  31  32
ATOM     32  C   UNL A   1      34.500  31.364  28.159  1.00  0.00     0.338 C 
ATOM     33  O   UNL A   1      34.018  32.156  28.934  1.00  0.00    -0.246 OA
BRANCH  32  34
ATOM     34  C   UNL A   1      35.883  30.868  28.311  1.00  0.00     0.060 A 
ATOM     35  C   UNL A   1      36.827  31.790  28.786  1.00  0.00     0.016 A 
ATOM     36  C   UNL A   1      36.266  29.577  27.937  1.00  0.00     0.016 A 
ATOM     37  C   UNL A   1      38.162  31.440  28.836  1.00  0.00     0.010 A 
ATOM     38  C   UNL A   1      37.602  29.214  28.019  1.00  0.00     0.010 A 
ATOM     39  C   UNL A   1      38.541  30.146  28.471  1.00  0.00    -0.014 A 
BRANCH  39  40
ATOM     40  C   UNL A   1      39.862  29.699  28.911  1.00  0.00     0.031 A 
ATOM     41  C   UNL A   1      40.008  29.770  30.375  1.00  0.00     0.074 A 
ATOM     42  C   UNL A   1      40.799  29.158  28.117  1.00  0.00     0.049 A 
ATOM     43  N   UNL A   1      40.770  30.581  31.026  1.00  0.00    -0.248 NA
ATOM     44  C   UNL A   1      39.058  29.027  31.218  1.00  0.00     0.031 C 
ATOM     45  C   UNL A   1      40.641  28.949  26.697  1.00  0.00     0.029 A 
ATOM     46  N   UNL A   1      42.020  28.608  28.369  1.00  0.00    -0.354 N 
ATOM     47  C   UNL A   1      40.632  30.202  32.349  1.00  0.00     0.074 A 
ATOM     48  C   UNL A   1      39.402  29.461  32.431  1.00  0.00     0.031 C 
ATOM     49  C   UNL A   1      41.589  28.117  26.231  1.00  0.00     0.029 A 
ATOM     50  C   UNL A   1      42.501  27.828  27.317  1.00  0.00     0.049 A 
ATOM     51  H   UNL A   1      42.514  28.747  29.209  1.00  0.00     0.167 HD
ATOM     52  C   UNL A   1      41.735  30.182  33.144  1.00  0.00     0.037 A 
ATOM     53  C   UNL A   1      43.567  26.990  27.296  1.00  0.00     0.037 A 
ATOM     54  C   UNL A   1      42.784  31.015  32.598  1.00  0.00     0.049 A 
ATOM     55  C   UNL A   1      44.499  27.481  28.336  1.00  0.00     0.074 A 
ATOM     56  C   UNL A   1      42.895  32.344  32.239  1.00  0.00     0.029 A 
ATOM     57  N   UNL A   1      43.829  30.359  31.994  1.00  0.00    -0.354 N 
ATOM     58  N   UNL A   1      45.108  28.636  28.261  1.00  0.00    -0.248 NA
ATOM     59  C   UNL A   1      44.422  26.911  29.673  1.00  0.00     0.031 C 
ATOM     60  C   UNL A   1      43.818  32.378  31.153  1.00  0.00     0.029 A 
ATOM     61  C   UNL A   1      44.277  31.081  30.919  1.00  0.00     0.049 A 
ATOM     62  H   UNL A   1      44.202  29.498  32.290  1.00  0.00     0.167 HD
ATOM     63  C   UNL A   1      45.053  29.140  29.551  1.00  0.00     0.074 A 
ATOM     64  C   UNL A   1      44.772  27.981  30.394  1.00  0.00     0.031 C 
ATOM     65  C   UNL A   1      44.934  30.484  29.771  1.00  0.00     0.037 A 
BRANCH  52  66
ATOM     66  C   UNL A   1      42.036  29.037  34.092  1.00  0.00     0.058 A 
ATOM     67  C   UNL A   1      42.133  27.737  33.560  1.00  0.00     0.135 A 
ATOM     68  C   UNL A   1      41.912  29.109  35.501  1.00  0.00     0.135 A 
ATOM     69  F   UNL A   1      42.248  27.550  32.235  1.00  0.00    -0.206 F 
ATOM     70  C   UNL A   1      42.014  26.596  34.354  1.00  0.00     0.059 A 
ATOM     71  C   UNL A   1      41.849  27.987  36.314  1.00  0.00     0.059 A 
ATOM     72  F   UNL A   1      41.745  30.257  36.164  1.00  0.00    -0.206 F 
ATOM     73  C   UNL A   1      41.852  26.736  35.729  1.00  0.00     0.060 A 
BRANCH  73  74
ATOM     74  S   UNL A   1      41.580  25.279  36.747  1.00  0.00     0.124 S 
ATOM     75  O   UNL A   1      42.780  25.284  37.575  1.00  0.00    -0.237 OA
ATOM     76  O   UNL A   1      40.330  25.616  37.420  1.00  0.00    -0.237 OA
ATOM     77  O   UNL A   1      41.488  24.201  35.767  1.00  0.00    -0.744 OA
ENDBRANCH  73  74
ENDBRANCH  52  66
BRANCH  53  78
ATOM     78  C   UNL A   1      43.649  25.665  26.618  1.00  0.00     0.058 A 
ATOM     79  C   UNL A   1      44.376  25.480  25.429  1.00  0.00     0.135 A 
ATOM     80  C   UNL A   1      43.213  24.482  27.257  1.00  0.00     0.135 A 
ATOM     81  F   UNL A   1      44.845  26.540  24.754  1.00  0.00    -0.206 F 
ATOM     82  C   UNL A   1      44.694  24.205  24.935  1.00  0.00     0.059 A 
ATOM     83  C   UNL A   1      43.504  23.206  26.778  1.00  0.00     0.059 A 
ATOM     84  F   UNL A   1      42.556  24.521  28.425  1.00  0.00    -0.206 F 
ATOM     85  C   UNL A   1      44.271  23.073  25.630  1.00  0.00     0.060 A 
BRANCH  85  86
ATOM     86  S   UNL A   1      44.828  21.431  25.109  1.00  0.00     0.124 S 
ATOM     87  O   UNL A   1      44.735  21.525  23.657  1.00  0.00    -0.237 OA
ATOM     88  O   UNL A   1      46.177  21.374  25.660  1.00  0.00    -0.237 OA
ATOM     89  O   UNL A   1      43.864  20.530  25.737  1.00  0.00    -0.744 OA
ENDBRANCH  85  86
ENDBRANCH  53  78
BRANCH  65  90
ATOM     90  C   UNL A   1      45.354  31.420  28.666  1.00  0.00     0.058 A 
ATOM     91  C   UNL A   1      44.608  31.691  27.506  1.00  0.00     0.135 A 
ATOM     92  C   UNL A   1      46.519  32.177  28.869  1.00  0.00     0.135 A 
ATOM     93  F   UNL A   1      43.438  31.077  27.278  1.00  0.00    -0.206 F 
ATOM     94  C   UNL A   1      45.022  32.648  26.575  1.00  0.00     0.059 A 
ATOM     95  C   UNL A   1      46.935  33.154  27.970  1.00  0.00     0.059 A 
ATOM     96  F   UNL A   1      47.246  32.004  29.987  1.00  0.00    -0.206 F 
ATOM     97  C   UNL A   1      46.189  33.376  26.817  1.00  0.00     0.060 A 
BRANCH  97  98
ATOM     98  S   UNL A   1      46.693  34.655  25.645  1.00  0.00     0.124 S 
ATOM     99  O   UNL A   1      46.692  35.853  26.478  1.00  0.00    -0.237 OA
ATOM    100  O   UNL A   1      48.006  34.187  25.209  1.00  0.00    -0.237 OA
ATOM    101  O   UNL A   1      45.654  34.609  24.620  1.00  0.00    -0.744 OA
ENDBRANCH  97  98
ENDBRANCH  65  90
ENDBRANCH  39  40
ENDBRANCH  32  34
ENDBRANCH  31  32
ENDBRANCH  30  31
ENDBRANCH   1  30
TORSDOF 18
ENDMDL
MODEL 3
REMARK VINA RESULT:     -12.8      2.715      9.619
REMARK SMILES CC1=C([C@H](NC(=O)[C@@H]2C=C(c3ccccc3)NN2C)C(=O)OCCOC(=O)c2ccc(-c3c4nc(c(-c5c(F)cc(S(=O)(=O)[O-])cc5F)c5ccc([nH]5)c(-c5c(F)cc(S(=O)(=O)[O-])cc5F)c5nc(c(-c6c(F)cc(S(=O)(=O)[O-])cc6F)c6ccc3[nH]6)C=C5)C=C4)cc2)[C@@H](C)N=N1
REMARK SMILES IDX 23 1 22 2 20 3 21 4 4 5 3 6 1 7 2 8 97 9 94 10 96 11 95 12
REMARK SMILES IDX 5 13 6 14 7 16 8 17 9 18 18 19 10 20 17 21 19 22 11 24 12 25
REMARK SMILES IDX 16 26 13 27 15 28 14 29 24 30 25 31 26 32 27 33 28 34 29 35
REMARK SMILES IDX 93 36 30 37 92 38 31 39 32 40 33 41 86 42 34 43 91 44 85 45
REMARK SMILES IDX 87 46 35 47 90 48 84 49 83 50 36 52 70 53 49 54 69 55 50 56
REMARK SMILES IDX 53 57 68 58 88 59 51 60 52 61 67 63 89 64 54 65 37 66 38 67
REMARK SMILES IDX 47 68 39 69 40 70 46 71 48 72 41 73 42 74 43 75 44 76 45 77
REMARK SMILES IDX 71 78 72 79 81 80 73 81 74 82 80 83 82 84 75 85 76 86 77 87
REMARK SMILES IDX 78 88 79 89 55 90 56 91 65 92 57 93 58 94 64 95 66 96 59 97
REMARK SMILES IDX 60 98 61 99 62 100 63 101
REMARK H PARENT 5 15 17 23 87 51 53 62
REMARK Flexibility Score: inf
ROOT
ATOM      1  C   UNL A   1      36.677  22.632  23.810  1.00  0.00     0.274 C 
ENDROOT
BRANCH   1   2
ATOM      2  O   UNL A   1      35.912  23.745  24.322  1.00  0.00    -0.460 OA
BRANCH   2   3
ATOM      3  C   UNL A   1      34.691  23.919  23.765  1.00  0.00     0.333 C 
ATOM      4  O   UNL A   1      34.540  24.093  22.556  1.00  0.00    -0.249 OA
BRANCH   3   5
ATOM      5  C   UNL A   1      33.493  23.841  24.772  1.00  0.00     0.223 C 
BRANCH   5   6
ATOM      6  C   UNL A   1      33.279  22.353  25.044  1.00  0.00     0.012 C 
ATOM      7  C   UNL A   1      32.143  21.221  22.989  1.00  0.00     0.069 C 
ATOM      8  C   UNL A   1      32.755  21.324  24.351  1.00  0.00     0.064 C 
ATOM      9  N   UNL A   1      32.789  20.146  25.062  1.00  0.00    -0.160 NA
ATOM     10  C   UNL A   1      33.738  21.728  26.337  1.00  0.00     0.156 C 
ATOM     11  N   UNL A   1      33.302  20.316  26.195  1.00  0.00    -0.181 NA
ATOM     12  C   UNL A   1      33.124  22.305  27.603  1.00  0.00     0.040 C 
ENDBRANCH   5   6
BRANCH   5  13
ATOM     13  N   UNL A   1      32.151  24.421  24.598  1.00  0.00    -0.338 N 
ATOM     14  C   UNL A   1      31.538  25.628  24.742  1.00  0.00     0.244 C 
ATOM     15  H   UNL A   1      31.512  23.740  24.285  1.00  0.00     0.164 HD
ATOM     16  O   UNL A   1      30.317  25.561  24.937  1.00  0.00    -0.273 OA
BRANCH  14  17
ATOM     17  C   UNL A   1      32.280  26.951  24.602  1.00  0.00     0.191 C 
ATOM     18  C   UNL A   1      33.194  27.240  25.756  1.00  0.00     0.031 C 
ATOM     19  N   UNL A   1      31.302  28.109  24.572  1.00  0.00    -0.210 NA
ATOM     20  C   UNL A   1      32.889  28.454  26.204  1.00  0.00     0.054 C 
ATOM     21  N   UNL A   1      31.768  28.941  25.596  1.00  0.00    -0.318 N 
ATOM     22  C   UNL A   1      31.399  28.896  23.343  1.00  0.00     0.132 C 
ATOM     23  H   UNL A   1      31.335  29.787  25.850  1.00  0.00     0.182 HD
BRANCH  20  24
ATOM     24  C   UNL A   1      33.685  29.383  26.981  1.00  0.00    -0.001 A 
ATOM     25  C   UNL A   1      35.014  29.010  27.229  1.00  0.00     0.010 A 
ATOM     26  C   UNL A   1      33.261  30.685  27.232  1.00  0.00     0.010 A 
ATOM     27  C   UNL A   1      35.946  29.968  27.615  1.00  0.00     0.001 A 
ATOM     28  C   UNL A   1      34.185  31.629  27.679  1.00  0.00     0.001 A 
ATOM     29  C   UNL A   1      35.527  31.280  27.836  1.00  0.00     0.000 A 
ENDBRANCH  20  24
ENDBRANCH  14  17
ENDBRANCH   5  13
ENDBRANCH   3   5
ENDBRANCH   2   3
ENDBRANCH   1   2
BRANCH   1  30
ATOM     30  C   UNL A   1      37.495  21.962  24.922  1.00  0.00     0.275 C 
BRANCH  30  31
ATOM     31  O   UNL A   1      37.864  22.877  25.968  1.00  0.00    -0.458 OA
BRANCH  31  32
ATOM     32  C   UNL A   1      39.083  22.639  26.517  1.00  0.00     0.338 C 
ATOM     33  O   UNL A   1      39.620  21.558  26.553  1.00  0.00    -0.246 OA
BRANCH  32  34
ATOM     34  C   UNL A   1      39.702  23.838  27.118  1.00  0.00     0.060 A 
ATOM     35  C   UNL A   1      39.036  25.054  26.911  1.00  0.00     0.016 A 
ATOM     36  C   UNL A   1      40.924  23.794  27.797  1.00  0.00     0.016 A 
ATOM     37  C   UNL A   1      39.616  26.234  27.334  1.00  0.00     0.010 A 
ATOM     38  C   UNL A   1      41.491  24.975  28.251  1.00  0.00     0.010 A 
ATOM     39  C   UNL A   1      40.832  26.187  28.021  1.00  0.00    -0.014 A 
BRANCH  39  40
ATOM     40  C   UNL A   1      41.202  27.378  28.785  1.00  0.00     0.031 A 
ATOM     41  C   UNL A   1      42.442  27.992  28.281  1.00  0.00     0.074 A 
ATOM     42  C   UNL A   1      40.453  27.945  29.744  1.00  0.00     0.049 A 
ATOM     43  N   UNL A   1      43.577  28.028  28.892  1.00  0.00    -0.248 NA
ATOM     44  C   UNL A   1      42.502  28.413  26.872  1.00  0.00     0.031 C 
ATOM     45  C   UNL A   1      39.167  27.447  30.174  1.00  0.00     0.029 A 
ATOM     46  N   UNL A   1      40.594  29.086  30.474  1.00  0.00    -0.354 N 
ATOM     47  C   UNL A   1      44.393  28.782  28.068  1.00  0.00     0.074 A 
ATOM     48  C   UNL A   1      43.788  28.750  26.763  1.00  0.00     0.031 C 
ATOM     49  C   UNL A   1      38.519  28.373  30.902  1.00  0.00     0.029 A 
ATOM     50  C   UNL A   1      39.411  29.497  31.089  1.00  0.00     0.049 A 
ATOM     51  H   UNL A   1      41.446  29.573  30.559  1.00  0.00     0.167 HD
ATOM     52  C   UNL A   1      45.243  29.682  28.630  1.00  0.00     0.037 A 
ATOM     53  C   UNL A   1      39.141  30.668  31.717  1.00  0.00     0.037 A 
ATOM     54  C   UNL A   1      45.491  29.362  30.019  1.00  0.00     0.049 A 
ATOM     55  C   UNL A   1      40.440  31.192  32.195  1.00  0.00     0.074 A 
ATOM     56  C   UNL A   1      45.977  28.265  30.702  1.00  0.00     0.029 A 
ATOM     57  N   UNL A   1      44.852  30.148  30.947  1.00  0.00    -0.354 N 
ATOM     58  N   UNL A   1      41.156  30.595  33.111  1.00  0.00    -0.248 NA
ATOM     59  C   UNL A   1      41.171  32.127  31.352  1.00  0.00     0.031 C 
ATOM     60  C   UNL A   1      45.317  28.270  31.966  1.00  0.00     0.029 A 
ATOM     61  C   UNL A   1      44.492  29.393  32.033  1.00  0.00     0.049 A 
ATOM     62  H   UNL A   1      44.679  31.112  30.848  1.00  0.00     0.167 HD
ATOM     63  C   UNL A   1      42.461  30.707  32.658  1.00  0.00     0.074 A 
ATOM     64  C   UNL A   1      42.423  31.785  31.673  1.00  0.00     0.031 C 
ATOM     65  C   UNL A   1      43.372  29.716  32.897  1.00  0.00     0.037 A 
BRANCH  52  66
ATOM     66  C   UNL A   1      45.416  31.088  28.090  1.00  0.00     0.058 A 
ATOM     67  C   UNL A   1      44.275  31.906  27.979  1.00  0.00     0.135 A 
ATOM     68  C   UNL A   1      46.560  31.543  27.391  1.00  0.00     0.135 A 
ATOM     69  F   UNL A   1      43.132  31.568  28.596  1.00  0.00    -0.206 F 
ATOM     70  C   UNL A   1      44.244  33.032  27.156  1.00  0.00     0.059 A 
ATOM     71  C   UNL A   1      46.566  32.691  26.613  1.00  0.00     0.059 A 
ATOM     72  F   UNL A   1      47.706  30.857  27.336  1.00  0.00    -0.206 F 
ATOM     73  C   UNL A   1      45.392  33.403  26.463  1.00  0.00     0.060 A 
BRANCH  73  74
ATOM     74  S   UNL A   1      45.331  34.781  25.310  1.00  0.00     0.124 S 
ATOM     75  O   UNL A   1      44.307  35.618  25.923  1.00  0.00    -0.237 OA
ATOM     76  O   UNL A   1      46.699  35.284  25.374  1.00  0.00    -0.237 OA
ATOM     77  O   UNL A   1      44.961  34.145  24.050  1.00  0.00    -0.744 OA
ENDBRANCH  73  74
ENDBRANCH  52  66
BRANCH  53  78
ATOM     78  C   UNL A   1      37.866  31.441  31.657  1.00  0.00     0.058 A 
ATOM     79  C   UNL A   1      36.993  31.525  32.755  1.00  0.00     0.135 A 
ATOM     80  C   UNL A   1      37.591  32.324  30.588  1.00  0.00     0.135 A 
ATOM     81  F   UNL A   1      37.177  30.738  33.824  1.00  0.00    -0.206 F 
ATOM     82  C   UNL A   1      35.947  32.461  32.811  1.00  0.00     0.059 A 
ATOM     83  C   UNL A   1      36.551  33.250  30.615  1.00  0.00     0.059 A 
ATOM     84  F   UNL A   1      38.381  32.378  29.505  1.00  0.00    -0.206 F 
ATOM     85  C   UNL A   1      35.748  33.334  31.743  1.00  0.00     0.060 A 
BRANCH  85  86
ATOM     86  S   UNL A   1      34.526  34.663  31.877  1.00  0.00     0.124 S 
ATOM     87  O   UNL A   1      33.439  34.005  32.592  1.00  0.00    -0.237 OA
ATOM     88  O   UNL A   1      35.258  35.680  32.624  1.00  0.00    -0.237 OA
ATOM     89  O   UNL A   1      34.240  35.004  30.486  1.00  0.00    -0.744 OA
ENDBRANCH  85  86
ENDBRANCH  53  78
BRANCH  65  90
ATOM     90  C   UNL A   1      43.103  28.772  34.041  1.00  0.00     0.058 A 
ATOM     91  C   UNL A   1      43.487  28.986  35.376  1.00  0.00     0.135 A 
ATOM     92  C   UNL A   1      42.295  27.654  33.778  1.00  0.00     0.135 A 
ATOM     93  F   UNL A   1      44.184  30.075  35.729  1.00  0.00    -0.206 F 
ATOM     94  C   UNL A   1      43.112  28.107  36.396  1.00  0.00     0.059 A 
ATOM     95  C   UNL A   1      41.886  26.782  34.782  1.00  0.00     0.059 A 
ATOM     96  F   UNL A   1      41.848  27.426  32.531  1.00  0.00    -0.206 F 
ATOM     97  C   UNL A   1      42.309  27.006  36.089  1.00  0.00     0.060 A 
BRANCH  97  98
ATOM     98  S   UNL A   1      41.773  25.903  37.416  1.00  0.00     0.124 S 
ATOM     99  O   UNL A   1      40.481  26.471  37.784  1.00  0.00    -0.237 OA
ATOM    100  O   UNL A   1      41.729  24.604  36.750  1.00  0.00    -0.237 OA
ATOM    101  O   UNL A   1      42.824  26.042  38.422  1.00  0.00    -0.744 OA
ENDBRANCH  97  98
ENDBRANCH  65  90
ENDBRANCH  39  40
ENDBRANCH  32  34
ENDBRANCH  31  32
ENDBRANCH  30  31
ENDBRANCH   1  30
TORSDOF 18
ENDMDL
