MODEL 1
REMARK VINA RESULT:     -13.1      0.000      0.000
REMARK SMILES Cc1n[nH]c2c1[C@@]1(C(=O)N([C@@H](C)C(=O)OCCOC(=O)c3ccc(-c4c5nc(c(-c6c(F)cc(S(=O)(=O)[O-])cc6F)c6ccc([nH]6)c(-c6c(F)cc(S(=O)(=O)[O-])cc6F)c6nc(c(-c7c(F)cc(S(=O)(=O)[O-])cc7F)c7ccc4[nH]7)C=C6)C=C5)cc3)c3ccccc31)C(C#N)=C(N)O2
REMARK SMILES IDX 17 1 16 2 15 3 13 4 14 5 11 6 12 7 10 8 1 9 2 10 3 11 6 12
REMARK SMILES IDX 4 13 5 14 7 15 98 17 8 18 92 19 93 20 96 21 9 22 87 23 91 24
REMARK SMILES IDX 88 25 90 26 89 27 94 28 95 29 97 30 18 33 19 34 20 35 21 36
REMARK SMILES IDX 22 37 86 38 23 39 85 40 24 41 25 42 26 43 79 44 27 45 84 46
REMARK SMILES IDX 78 47 80 48 28 49 83 50 77 51 76 52 29 54 63 55 42 56 62 57
REMARK SMILES IDX 43 58 46 59 61 60 81 61 44 62 45 63 60 65 82 66 47 67 30 68
REMARK SMILES IDX 31 69 40 70 32 71 33 72 39 73 41 74 34 75 35 76 36 77 37 78
REMARK SMILES IDX 38 79 64 80 65 81 74 82 66 83 67 84 73 85 75 86 68 87 69 88
REMARK SMILES IDX 70 89 71 90 72 91 48 92 49 93 58 94 50 95 51 96 57 97 59 98
REMARK SMILES IDX 52 99 53 100 54 101 55 102 56 103
REMARK H PARENT 4 16 97 31 97 32 80 53 46 64
REMARK Flexibility Score: inf
ROOT
ATOM      1  C   UNL A   1      37.642  22.037  24.990  1.00  0.00     0.275 C 
ENDROOT
BRANCH   1   2
ATOM      2  C   UNL A   1      36.549  21.067  25.448  1.00  0.00     0.274 C 
BRANCH   2   3
ATOM      3  O   UNL A   1      35.254  21.499  24.965  1.00  0.00    -0.461 OA
BRANCH   3   4
ATOM      4  C   UNL A   1      34.250  21.594  25.883  1.00  0.00     0.329 C 
ATOM      5  O   UNL A   1      33.440  20.699  26.100  1.00  0.00    -0.250 OA
BRANCH   4   6
ATOM      6  C   UNL A   1      34.195  22.965  26.615  1.00  0.00     0.197 C 
ATOM      7  C   UNL A   1      33.673  22.740  28.034  1.00  0.00     0.044 C 
BRANCH   6   8
ATOM      8  N   UNL A   1      33.469  24.023  25.929  1.00  0.00    -0.297 N 
ATOM      9  C   UNL A   1      32.652  22.903  22.757  1.00  0.00     0.069 C 
ATOM     10  C   UNL A   1      32.772  24.310  22.293  1.00  0.00     0.068 A 
ATOM     11  N   UNL A   1      32.758  24.578  20.977  1.00  0.00    -0.177 NA
ATOM     12  C   UNL A   1      32.946  25.496  23.055  1.00  0.00     0.063 A 
ATOM     13  N   UNL A   1      32.951  25.908  20.904  1.00  0.00    -0.246 N 
ATOM     14  C   UNL A   1      33.063  26.490  22.124  1.00  0.00     0.222 A 
ATOM     15  C   UNL A   1      33.097  25.836  24.502  1.00  0.00     0.149 C 
ATOM     16  H   UNL A   1      33.005  26.406  20.056  1.00  0.00     0.193 HD
ATOM     17  O   UNL A   1      33.290  27.776  22.345  1.00  0.00    -0.422 OA
ATOM     18  C   UNL A   1      34.155  24.933  25.116  1.00  0.00     0.248 C 
ATOM     19  C   UNL A   1      31.821  25.416  25.148  1.00  0.00     0.002 A 
ATOM     20  C   UNL A   1      33.406  27.276  24.733  1.00  0.00     0.114 C 
ATOM     21  C   UNL A   1      33.494  28.158  23.686  1.00  0.00     0.208 C 
ATOM     22  O   UNL A   1      35.358  24.982  24.899  1.00  0.00    -0.273 OA
ATOM     23  C   UNL A   1      32.073  24.283  25.915  1.00  0.00     0.050 A 
ATOM     24  C   UNL A   1      30.561  26.003  25.037  1.00  0.00     0.008 A 
ATOM     25  C   UNL A   1      30.995  23.630  26.466  1.00  0.00     0.027 A 
ATOM     26  C   UNL A   1      29.508  25.422  25.724  1.00  0.00     0.001 A 
ATOM     27  C   UNL A   1      29.721  24.229  26.421  1.00  0.00     0.002 A 
BRANCH  20  28
ATOM     28  C   UNL A   1      33.741  27.838  26.105  1.00  0.00     0.102 C 
ATOM     29  N   UNL A   1      34.019  28.305  27.242  1.00  0.00    -0.193 NA
ENDBRANCH  20  28
BRANCH  21  30
ATOM     30  N   UNL A   1      33.795  29.486  23.790  1.00  0.00    -0.369 N 
ATOM     31  H   UNL A   1      33.144  30.162  23.493  1.00  0.00     0.159 HD
ATOM     32  H   UNL A   1      34.662  29.767  24.160  1.00  0.00     0.159 HD
ENDBRANCH  21  30
ENDBRANCH   6   8
ENDBRANCH   4   6
ENDBRANCH   3   4
ENDBRANCH   2   3
ENDBRANCH   1   2
BRANCH   1  33
ATOM     33  O   UNL A   1      38.067  22.812  26.121  1.00  0.00    -0.458 OA
BRANCH  33  34
ATOM     34  C   UNL A   1      39.321  22.554  26.556  1.00  0.00     0.338 C 
ATOM     35  O   UNL A   1      39.981  21.542  26.360  1.00  0.00    -0.246 OA
BRANCH  34  36
ATOM     36  C   UNL A   1      39.901  23.845  26.970  1.00  0.00     0.060 A 
ATOM     37  C   UNL A   1      41.106  23.955  27.671  1.00  0.00     0.016 A 
ATOM     38  C   UNL A   1      39.076  24.950  26.825  1.00  0.00     0.016 A 
ATOM     39  C   UNL A   1      41.395  25.132  28.375  1.00  0.00     0.010 A 
ATOM     40  C   UNL A   1      39.380  26.101  27.531  1.00  0.00     0.010 A 
ATOM     41  C   UNL A   1      40.469  26.174  28.393  1.00  0.00    -0.014 A 
BRANCH  41  42
ATOM     42  C   UNL A   1      40.728  27.477  29.017  1.00  0.00     0.031 A 
ATOM     43  C   UNL A   1      41.838  28.168  28.326  1.00  0.00     0.074 A 
ATOM     44  C   UNL A   1      40.018  28.160  29.947  1.00  0.00     0.049 A 
ATOM     45  N   UNL A   1      43.073  28.130  28.690  1.00  0.00    -0.248 NA
ATOM     46  C   UNL A   1      41.620  28.751  26.992  1.00  0.00     0.031 C 
ATOM     47  C   UNL A   1      38.745  27.834  30.578  1.00  0.00     0.029 A 
ATOM     48  N   UNL A   1      40.309  29.376  30.506  1.00  0.00    -0.354 N 
ATOM     49  C   UNL A   1      43.754  28.891  27.757  1.00  0.00     0.074 A 
ATOM     50  C   UNL A   1      42.876  29.016  26.625  1.00  0.00     0.031 C 
ATOM     51  C   UNL A   1      38.270  28.907  31.264  1.00  0.00     0.029 A 
ATOM     52  C   UNL A   1      39.291  29.944  31.278  1.00  0.00     0.049 A 
ATOM     53  H   UNL A   1      41.177  29.821  30.373  1.00  0.00     0.167 HD
ATOM     54  C   UNL A   1      44.873  29.579  28.106  1.00  0.00     0.037 A 
ATOM     55  C   UNL A   1      39.320  31.142  31.934  1.00  0.00     0.037 A 
ATOM     56  C   UNL A   1      45.341  29.177  29.413  1.00  0.00     0.049 A 
ATOM     57  C   UNL A   1      40.754  31.464  32.156  1.00  0.00     0.074 A 
ATOM     58  C   UNL A   1      45.737  27.977  29.973  1.00  0.00     0.029 A 
ATOM     59  N   UNL A   1      45.045  30.004  30.471  1.00  0.00    -0.354 N 
ATOM     60  N   UNL A   1      41.534  30.784  32.951  1.00  0.00    -0.248 NA
ATOM     61  C   UNL A   1      41.429  32.257  31.144  1.00  0.00     0.031 C 
ATOM     62  C   UNL A   1      45.206  27.990  31.297  1.00  0.00     0.029 A 
ATOM     63  C   UNL A   1      44.578  29.220  31.498  1.00  0.00     0.049 A 
ATOM     64  H   UNL A   1      45.150  30.983  30.490  1.00  0.00     0.167 HD
ATOM     65  C   UNL A   1      42.739  30.702  32.272  1.00  0.00     0.074 A 
ATOM     66  C   UNL A   1      42.639  31.694  31.202  1.00  0.00     0.031 C 
ATOM     67  C   UNL A   1      43.588  29.650  32.463  1.00  0.00     0.037 A 
BRANCH  54  68
ATOM     68  C   UNL A   1      45.324  30.850  27.442  1.00  0.00     0.058 A 
ATOM     69  C   UNL A   1      46.636  30.921  26.939  1.00  0.00     0.135 A 
ATOM     70  C   UNL A   1      44.620  32.073  27.497  1.00  0.00     0.135 A 
ATOM     71  F   UNL A   1      47.397  29.817  26.857  1.00  0.00    -0.206 F 
ATOM     72  C   UNL A   1      47.228  32.128  26.574  1.00  0.00     0.059 A 
ATOM     73  C   UNL A   1      45.168  33.278  27.079  1.00  0.00     0.059 A 
ATOM     74  F   UNL A   1      43.405  32.181  28.049  1.00  0.00    -0.206 F 
ATOM     75  C   UNL A   1      46.486  33.302  26.659  1.00  0.00     0.060 A 
BRANCH  75  76
ATOM     76  S   UNL A   1      47.278  34.871  26.277  1.00  0.00     0.124 S 
ATOM     77  O   UNL A   1      48.019  34.534  25.067  1.00  0.00    -0.237 OA
ATOM     78  O   UNL A   1      46.129  35.752  26.102  1.00  0.00    -0.237 OA
ATOM     79  O   UNL A   1      48.089  35.134  27.463  1.00  0.00    -0.744 OA
ENDBRANCH  75  76
ENDBRANCH  54  68
BRANCH  55  80
ATOM     80  C   UNL A   1      38.263  32.185  32.122  1.00  0.00     0.058 A 
ATOM     81  C   UNL A   1      37.793  32.963  31.039  1.00  0.00     0.135 A 
ATOM     82  C   UNL A   1      37.462  32.206  33.278  1.00  0.00     0.135 A 
ATOM     83  F   UNL A   1      38.479  33.002  29.886  1.00  0.00    -0.206 F 
ATOM     84  C   UNL A   1      36.572  33.654  31.076  1.00  0.00     0.059 A 
ATOM     85  C   UNL A   1      36.241  32.889  33.339  1.00  0.00     0.059 A 
ATOM     86  F   UNL A   1      37.797  31.477  34.353  1.00  0.00    -0.206 F 
ATOM     87  C   UNL A   1      35.785  33.586  32.224  1.00  0.00     0.060 A 
BRANCH  87  88
ATOM     88  S   UNL A   1      34.119  34.303  32.208  1.00  0.00     0.124 S 
ATOM     89  O   UNL A   1      34.364  35.655  32.696  1.00  0.00    -0.237 OA
ATOM     90  O   UNL A   1      33.747  34.191  30.802  1.00  0.00    -0.237 OA
ATOM     91  O   UNL A   1      33.371  33.437  33.116  1.00  0.00    -0.744 OA
ENDBRANCH  87  88
ENDBRANCH  55  80
BRANCH  67  92
ATOM     92  C   UNL A   1      43.356  28.742  33.647  1.00  0.00     0.058 A 
ATOM     93  C   UNL A   1      43.883  28.948  34.937  1.00  0.00     0.135 A 
ATOM     94  C   UNL A   1      42.425  27.703  33.499  1.00  0.00     0.135 A 
ATOM     95  F   UNL A   1      44.712  29.969  35.189  1.00  0.00    -0.206 F 
ATOM     96  C   UNL A   1      43.515  28.141  36.019  1.00  0.00     0.059 A 
ATOM     97  C   UNL A   1      42.021  26.907  34.568  1.00  0.00     0.059 A 
ATOM     98  F   UNL A   1      41.848  27.483  32.305  1.00  0.00    -0.206 F 
ATOM     99  C   UNL A   1      42.577  27.127  35.826  1.00  0.00     0.060 A 
BRANCH  99 100
ATOM    100  S   UNL A   1      42.038  26.139  37.240  1.00  0.00     0.124 S 
ATOM    101  O   UNL A   1      42.028  24.789  36.688  1.00  0.00    -0.237 OA
ATOM    102  O   UNL A   1      43.076  26.413  38.230  1.00  0.00    -0.237 OA
ATOM    103  O   UNL A   1      40.723  26.690  37.562  1.00  0.00    -0.744 OA
ENDBRANCH  99 100
ENDBRANCH  67  92
ENDBRANCH  41  42
ENDBRANCH  34  36
ENDBRANCH  33  34
ENDBRANCH   1  33
TORSDOF 17
ENDMDL
MODEL 2
REMARK VINA RESULT:     -12.8      2.795      9.208
REMARK SMILES Cc1n[nH]c2c1[C@@]1(C(=O)N([C@@H](C)C(=O)OCCOC(=O)c3ccc(-c4c5nc(c(-c6c(F)cc(S(=O)(=O)[O-])cc6F)c6ccc([nH]6)c(-c6c(F)cc(S(=O)(=O)[O-])cc6F)c6nc(c(-c7c(F)cc(S(=O)(=O)[O-])cc7F)c7ccc4[nH]7)C=C6)C=C5)cc3)c3ccccc31)C(C#N)=C(N)O2
REMARK SMILES IDX 17 1 16 2 15 3 13 4 14 5 11 6 12 7 10 8 1 9 2 10 3 11 6 12
REMARK SMILES IDX 4 13 5 14 7 15 98 17 8 18 92 19 93 20 96 21 9 22 87 23 91 24
REMARK SMILES IDX 88 25 90 26 89 27 94 28 95 29 97 30 18 33 19 34 20 35 21 36
REMARK SMILES IDX 22 37 86 38 23 39 85 40 24 41 25 42 26 43 79 44 27 45 84 46
REMARK SMILES IDX 78 47 80 48 28 49 83 50 77 51 76 52 29 54 63 55 42 56 62 57
REMARK SMILES IDX 43 58 46 59 61 60 81 61 44 62 45 63 60 65 82 66 47 67 30 68
REMARK SMILES IDX 31 69 40 70 32 71 33 72 39 73 41 74 34 75 35 76 36 77 37 78
REMARK SMILES IDX 38 79 64 80 65 81 74 82 66 83 67 84 73 85 75 86 68 87 69 88
REMARK SMILES IDX 70 89 71 90 72 91 48 92 49 93 58 94 50 95 51 96 57 97 59 98
REMARK SMILES IDX 52 99 53 100 54 101 55 102 56 103
REMARK H PARENT 4 16 97 31 97 32 80 53 46 64
REMARK Flexibility Score: inf
ROOT
ATOM      1  C   UNL A   1      32.994  31.472  27.411  1.00  0.00     0.275 C 
ENDROOT
BRANCH   1   2
ATOM      2  C   UNL A   1      32.413  30.311  26.600  1.00  0.00     0.274 C 
BRANCH   2   3
ATOM      3  O   UNL A   1      33.322  29.932  25.537  1.00  0.00    -0.461 OA
BRANCH   3   4
ATOM      4  C   UNL A   1      32.822  29.138  24.547  1.00  0.00     0.329 C 
ATOM      5  O   UNL A   1      31.651  29.162  24.182  1.00  0.00    -0.250 OA
BRANCH   4   6
ATOM      6  C   UNL A   1      33.867  28.161  23.938  1.00  0.00     0.197 C 
ATOM      7  C   UNL A   1      34.029  28.485  22.452  1.00  0.00     0.044 C 
BRANCH   6   8
ATOM      8  N   UNL A   1      33.618  26.745  24.162  1.00  0.00    -0.297 N 
ATOM      9  C   UNL A   1      30.251  26.326  24.847  1.00  0.00     0.069 C 
ATOM     10  C   UNL A   1      30.630  25.183  25.718  1.00  0.00     0.068 A 
ATOM     11  N   UNL A   1      29.709  24.627  26.522  1.00  0.00    -0.177 NA
ATOM     12  C   UNL A   1      31.896  24.559  25.883  1.00  0.00     0.063 A 
ATOM     13  N   UNL A   1      30.386  23.687  27.208  1.00  0.00    -0.246 N 
ATOM     14  C   UNL A   1      31.692  23.615  26.850  1.00  0.00     0.222 A 
ATOM     15  C   UNL A   1      33.274  24.756  25.339  1.00  0.00     0.149 C 
ATOM     16  H   UNL A   1      29.977  23.114  27.896  1.00  0.00     0.193 HD
ATOM     17  O   UNL A   1      32.593  22.805  27.385  1.00  0.00    -0.422 OA
ATOM     18  C   UNL A   1      33.650  26.224  25.462  1.00  0.00     0.248 C 
ATOM     19  C   UNL A   1      33.165  24.514  23.873  1.00  0.00     0.002 A 
ATOM     20  C   UNL A   1      34.287  23.876  25.989  1.00  0.00     0.114 C 
ATOM     21  C   UNL A   1      33.924  22.972  26.954  1.00  0.00     0.208 C 
ATOM     22  O   UNL A   1      33.891  26.822  26.501  1.00  0.00    -0.273 OA
ATOM     23  C   UNL A   1      33.287  25.736  23.219  1.00  0.00     0.050 A 
ATOM     24  C   UNL A   1      32.966  23.305  23.207  1.00  0.00     0.008 A 
ATOM     25  C   UNL A   1      33.049  25.765  21.865  1.00  0.00     0.027 A 
ATOM     26  C   UNL A   1      32.880  23.327  21.826  1.00  0.00     0.001 A 
ATOM     27  C   UNL A   1      32.903  24.555  21.158  1.00  0.00     0.002 A 
BRANCH  20  28
ATOM     28  C   UNL A   1      35.777  23.986  25.709  1.00  0.00     0.102 C 
ATOM     29  N   UNL A   1      37.012  24.078  25.476  1.00  0.00    -0.193 NA
ENDBRANCH  20  28
BRANCH  21  30
ATOM     30  N   UNL A   1      34.776  22.141  27.625  1.00  0.00    -0.369 N 
ATOM     31  H   UNL A   1      35.628  22.488  27.974  1.00  0.00     0.159 HD
ATOM     32  H   UNL A   1      34.539  21.195  27.758  1.00  0.00     0.159 HD
ENDBRANCH  21  30
ENDBRANCH   6   8
ENDBRANCH   4   6
ENDBRANCH   3   4
ENDBRANCH   2   3
ENDBRANCH   1   2
BRANCH   1  33
ATOM     33  O   UNL A   1      34.377  31.198  27.677  1.00  0.00    -0.458 OA
BRANCH  33  34
ATOM     34  C   UNL A   1      34.943  31.972  28.630  1.00  0.00     0.338 C 
ATOM     35  O   UNL A   1      34.410  32.864  29.276  1.00  0.00    -0.246 OA
BRANCH  34  36
ATOM     36  C   UNL A   1      36.193  31.301  29.033  1.00  0.00     0.060 A 
ATOM     37  C   UNL A   1      37.326  31.992  29.477  1.00  0.00     0.016 A 
ATOM     38  C   UNL A   1      36.274  29.949  28.738  1.00  0.00     0.016 A 
ATOM     39  C   UNL A   1      38.577  31.362  29.456  1.00  0.00     0.010 A 
ATOM     40  C   UNL A   1      37.521  29.348  28.721  1.00  0.00     0.010 A 
ATOM     41  C   UNL A   1      38.689  30.061  28.968  1.00  0.00    -0.014 A 
BRANCH  41  42
ATOM     42  C   UNL A   1      39.937  29.288  29.001  1.00  0.00     0.031 A 
ATOM     43  C   UNL A   1      40.317  28.983  30.398  1.00  0.00     0.074 A 
ATOM     44  C   UNL A   1      40.630  28.700  27.997  1.00  0.00     0.049 A 
ATOM     45  N   UNL A   1      41.130  29.682  31.112  1.00  0.00    -0.248 NA
ATOM     46  C   UNL A   1      39.566  27.970  31.156  1.00  0.00     0.031 C 
ATOM     47  C   UNL A   1      40.322  28.609  26.575  1.00  0.00     0.029 A 
ATOM     48  N   UNL A   1      41.801  27.993  28.080  1.00  0.00    -0.354 N 
ATOM     49  C   UNL A   1      41.176  29.049  32.340  1.00  0.00     0.074 A 
ATOM     50  C   UNL A   1      40.024  28.189  32.391  1.00  0.00     0.031 C 
ATOM     51  C   UNL A   1      41.154  27.720  25.968  1.00  0.00     0.029 A 
ATOM     52  C   UNL A   1      42.179  27.314  26.918  1.00  0.00     0.049 A 
ATOM     53  H   UNL A   1      42.340  27.965  28.903  1.00  0.00     0.167 HD
ATOM     54  C   UNL A   1      42.303  29.086  33.098  1.00  0.00     0.037 A 
ATOM     55  C   UNL A   1      43.288  26.537  26.737  1.00  0.00     0.037 A 
ATOM     56  C   UNL A   1      43.246  30.050  32.579  1.00  0.00     0.049 A 
ATOM     57  C   UNL A   1      44.279  26.978  27.753  1.00  0.00     0.074 A 
ATOM     58  C   UNL A   1      43.203  31.409  32.332  1.00  0.00     0.029 A 
ATOM     59  N   UNL A   1      44.298  29.568  31.837  1.00  0.00    -0.354 N 
ATOM     60  N   UNL A   1      44.855  28.149  27.742  1.00  0.00    -0.248 NA
ATOM     61  C   UNL A   1      44.282  26.291  29.032  1.00  0.00     0.031 C 
ATOM     62  C   UNL A   1      43.911  31.587  31.106  1.00  0.00     0.029 A 
ATOM     63  C   UNL A   1      44.407  30.345  30.709  1.00  0.00     0.049 A 
ATOM     64  H   UNL A   1      44.872  28.802  32.072  1.00  0.00     0.167 HD
ATOM     65  C   UNL A   1      44.883  28.536  29.072  1.00  0.00     0.074 A 
ATOM     66  C   UNL A   1      44.589  27.319  29.828  1.00  0.00     0.031 C 
ATOM     67  C   UNL A   1      44.864  29.855  29.426  1.00  0.00     0.037 A 
BRANCH  54  68
ATOM     68  C   UNL A   1      42.700  28.011  34.072  1.00  0.00     0.058 A 
ATOM     69  C   UNL A   1      42.746  28.324  35.443  1.00  0.00     0.135 A 
ATOM     70  C   UNL A   1      43.273  26.773  33.704  1.00  0.00     0.135 A 
ATOM     71  F   UNL A   1      42.242  29.483  35.896  1.00  0.00    -0.206 F 
ATOM     72  C   UNL A   1      43.369  27.496  36.373  1.00  0.00     0.059 A 
ATOM     73  C   UNL A   1      43.843  25.903  34.624  1.00  0.00     0.059 A 
ATOM     74  F   UNL A   1      43.400  26.387  32.429  1.00  0.00    -0.206 F 
ATOM     75  C   UNL A   1      43.924  26.292  35.950  1.00  0.00     0.060 A 
BRANCH  75  76
ATOM     76  S   UNL A   1      44.809  25.268  37.134  1.00  0.00     0.124 S 
ATOM     77  O   UNL A   1      46.180  25.730  36.948  1.00  0.00    -0.237 OA
ATOM     78  O   UNL A   1      44.170  25.642  38.390  1.00  0.00    -0.237 OA
ATOM     79  O   UNL A   1      44.532  23.909  36.676  1.00  0.00    -0.744 OA
ENDBRANCH  75  76
ENDBRANCH  54  68
BRANCH  55  80
ATOM     80  C   UNL A   1      43.478  25.255  25.988  1.00  0.00     0.058 A 
ATOM     81  C   UNL A   1      44.668  24.985  25.274  1.00  0.00     0.135 A 
ATOM     82  C   UNL A   1      42.652  24.143  26.233  1.00  0.00     0.135 A 
ATOM     83  F   UNL A   1      45.530  25.977  24.998  1.00  0.00    -0.206 F 
ATOM     84  C   UNL A   1      45.048  23.688  24.896  1.00  0.00     0.059 A 
ATOM     85  C   UNL A   1      43.009  22.840  25.865  1.00  0.00     0.059 A 
ATOM     86  F   UNL A   1      41.514  24.279  26.931  1.00  0.00    -0.206 F 
ATOM     87  C   UNL A   1      44.223  22.615  25.224  1.00  0.00     0.060 A 
BRANCH  87  88
ATOM     88  S   UNL A   1      44.801  20.921  24.922  1.00  0.00     0.124 S 
ATOM     89  O   UNL A   1      46.185  20.985  25.375  1.00  0.00    -0.237 OA
ATOM     90  O   UNL A   1      43.895  20.134  25.751  1.00  0.00    -0.237 OA
ATOM     91  O   UNL A   1      44.622  20.756  23.482  1.00  0.00    -0.744 OA
ENDBRANCH  87  88
ENDBRANCH  55  80
BRANCH  67  92
ATOM     92  C   UNL A   1      45.129  30.891  28.360  1.00  0.00     0.058 A 
ATOM     93  C   UNL A   1      44.176  31.361  27.436  1.00  0.00     0.135 A 
ATOM     94  C   UNL A   1      46.368  31.551  28.386  1.00  0.00     0.135 A 
ATOM     95  F   UNL A   1      42.939  30.849  27.400  1.00  0.00    -0.206 F 
ATOM     96  C   UNL A   1      44.454  32.421  26.566  1.00  0.00     0.059 A 
ATOM     97  C   UNL A   1      46.655  32.627  27.551  1.00  0.00     0.059 A 
ATOM     98  F   UNL A   1      47.305  31.183  29.276  1.00  0.00    -0.206 F 
ATOM     99  C   UNL A   1      45.695  33.053  26.637  1.00  0.00     0.060 A 
BRANCH  99 100
ATOM    100  S   UNL A   1      46.026  34.476  25.573  1.00  0.00     0.124 S 
ATOM    101  O   UNL A   1      45.557  35.589  26.391  1.00  0.00    -0.237 OA
ATOM    102  O   UNL A   1      47.471  34.396  25.379  1.00  0.00    -0.237 OA
ATOM    103  O   UNL A   1      45.230  34.202  24.379  1.00  0.00    -0.744 OA
ENDBRANCH  99 100
ENDBRANCH  67  92
ENDBRANCH  41  42
ENDBRANCH  34  36
ENDBRANCH  33  34
ENDBRANCH   1  33
TORSDOF 17
ENDMDL
MODEL 3
REMARK VINA RESULT:     -12.7      5.002     11.589
REMARK SMILES Cc1n[nH]c2c1[C@@]1(C(=O)N([C@@H](C)C(=O)OCCOC(=O)c3ccc(-c4c5nc(c(-c6c(F)cc(S(=O)(=O)[O-])cc6F)c6ccc([nH]6)c(-c6c(F)cc(S(=O)(=O)[O-])cc6F)c6nc(c(-c7c(F)cc(S(=O)(=O)[O-])cc7F)c7ccc4[nH]7)C=C6)C=C5)cc3)c3ccccc31)C(C#N)=C(N)O2
REMARK SMILES IDX 17 1 16 2 15 3 13 4 14 5 11 6 12 7 10 8 1 9 2 10 3 11 6 12
REMARK SMILES IDX 4 13 5 14 7 15 98 17 8 18 92 19 93 20 96 21 9 22 87 23 91 24
REMARK SMILES IDX 88 25 90 26 89 27 94 28 95 29 97 30 18 33 19 34 20 35 21 36
REMARK SMILES IDX 22 37 86 38 23 39 85 40 24 41 25 42 26 43 79 44 27 45 84 46
REMARK SMILES IDX 78 47 80 48 28 49 83 50 77 51 76 52 29 54 63 55 42 56 62 57
REMARK SMILES IDX 43 58 46 59 61 60 81 61 44 62 45 63 60 65 82 66 47 67 30 68
REMARK SMILES IDX 31 69 40 70 32 71 33 72 39 73 41 74 34 75 35 76 36 77 37 78
REMARK SMILES IDX 38 79 64 80 65 81 74 82 66 83 67 84 73 85 75 86 68 87 69 88
REMARK SMILES IDX 70 89 71 90 72 91 48 92 49 93 58 94 50 95 51 96 57 97 59 98
REMARK SMILES IDX 52 99 53 100 54 101 55 102 56 103
REMARK H PARENT 4 16 97 31 97 32 80 53 46 64
REMARK Flexibility Score: inf
ROOT
ATOM      1  C   UNL A   1      33.897  33.751  29.012  1.00  0.00     0.275 C 
ENDROOT
BRANCH   1   2
ATOM      2  C   UNL A   1      34.046  34.496  30.341  1.00  0.00     0.274 C 
BRANCH   2   3
ATOM      3  O   UNL A   1      34.744  33.673  31.307  1.00  0.00    -0.461 OA
BRANCH   3   4
ATOM      4  C   UNL A   1      34.361  33.788  32.611  1.00  0.00     0.329 C 
ATOM      5  O   UNL A   1      33.361  33.252  33.076  1.00  0.00    -0.250 OA
BRANCH   4   6
ATOM      6  C   UNL A   1      35.293  34.697  33.462  1.00  0.00     0.197 C 
ATOM      7  C   UNL A   1      35.197  36.127  32.929  1.00  0.00     0.044 C 
BRANCH   6   8
ATOM      8  N   UNL A   1      36.673  34.254  33.585  1.00  0.00    -0.297 N 
ATOM      9  C   UNL A   1      36.807  30.883  32.809  1.00  0.00     0.069 C 
ATOM     10  C   UNL A   1      37.928  30.765  33.778  1.00  0.00     0.068 A 
ATOM     11  N   UNL A   1      38.372  29.548  34.133  1.00  0.00    -0.177 NA
ATOM     12  C   UNL A   1      38.634  31.787  34.467  1.00  0.00     0.063 A 
ATOM     13  N   UNL A   1      39.322  29.793  35.054  1.00  0.00    -0.246 N 
ATOM     14  C   UNL A   1      39.509  31.118  35.275  1.00  0.00     0.222 A 
ATOM     15  C   UNL A   1      38.567  33.278  34.545  1.00  0.00     0.149 C 
ATOM     16  H   UNL A   1      39.828  29.086  35.518  1.00  0.00     0.193 HD
ATOM     17  O   UNL A   1      40.354  31.640  36.151  1.00  0.00    -0.422 OA
ATOM     18  C   UNL A   1      37.127  33.698  34.789  1.00  0.00     0.248 C 
ATOM     19  C   UNL A   1      38.877  33.766  33.171  1.00  0.00     0.002 A 
ATOM     20  C   UNL A   1      39.484  33.848  35.572  1.00  0.00     0.114 C 
ATOM     21  C   UNL A   1      40.308  33.039  36.313  1.00  0.00     0.208 C 
ATOM     22  O   UNL A   1      36.495  33.538  35.823  1.00  0.00    -0.273 OA
ATOM     23  C   UNL A   1      37.702  34.256  32.608  1.00  0.00     0.050 A 
ATOM     24  C   UNL A   1      40.101  33.754  32.503  1.00  0.00     0.008 A 
ATOM     25  C   UNL A   1      37.727  34.604  31.277  1.00  0.00     0.027 A 
ATOM     26  C   UNL A   1      40.145  34.252  31.212  1.00  0.00     0.001 A 
ATOM     27  C   UNL A   1      38.958  34.658  30.595  1.00  0.00     0.002 A 
BRANCH  20  28
ATOM     28  C   UNL A   1      39.499  35.323  35.938  1.00  0.00     0.102 C 
ATOM     29  N   UNL A   1      39.512  36.547  36.241  1.00  0.00    -0.193 NA
ENDBRANCH  20  28
BRANCH  21  30
ATOM     30  N   UNL A   1      41.163  33.459  37.292  1.00  0.00    -0.369 N 
ATOM     31  H   UNL A   1      41.586  34.345  37.228  1.00  0.00     0.159 HD
ATOM     32  H   UNL A   1      41.357  32.875  38.060  1.00  0.00     0.159 HD
ENDBRANCH  21  30
ENDBRANCH   6   8
ENDBRANCH   4   6
ENDBRANCH   3   4
ENDBRANCH   2   3
ENDBRANCH   1   2
BRANCH   1  33
ATOM     33  O   UNL A   1      35.126  33.065  28.732  1.00  0.00    -0.458 OA
BRANCH  33  34
ATOM     34  C   UNL A   1      34.996  31.758  28.414  1.00  0.00     0.338 C 
ATOM     35  O   UNL A   1      34.173  31.255  27.660  1.00  0.00    -0.246 OA
BRANCH  34  36
ATOM     36  C   UNL A   1      36.249  31.095  28.819  1.00  0.00     0.060 A 
ATOM     37  C   UNL A   1      37.339  31.783  29.364  1.00  0.00     0.016 A 
ATOM     38  C   UNL A   1      36.387  29.773  28.425  1.00  0.00     0.016 A 
ATOM     39  C   UNL A   1      38.610  31.193  29.349  1.00  0.00     0.010 A 
ATOM     40  C   UNL A   1      37.652  29.212  28.417  1.00  0.00     0.010 A 
ATOM     41  C   UNL A   1      38.785  29.938  28.768  1.00  0.00    -0.014 A 
BRANCH  41  42
ATOM     42  C   UNL A   1      40.055  29.202  28.797  1.00  0.00     0.031 A 
ATOM     43  C   UNL A   1      40.441  28.895  30.192  1.00  0.00     0.074 A 
ATOM     44  C   UNL A   1      40.767  28.644  27.789  1.00  0.00     0.049 A 
ATOM     45  N   UNL A   1      41.232  29.611  30.914  1.00  0.00    -0.248 NA
ATOM     46  C   UNL A   1      39.719  27.853  30.939  1.00  0.00     0.031 C 
ATOM     47  C   UNL A   1      40.465  28.557  26.366  1.00  0.00     0.029 A 
ATOM     48  N   UNL A   1      41.958  27.971  27.868  1.00  0.00    -0.354 N 
ATOM     49  C   UNL A   1      41.294  28.968  32.137  1.00  0.00     0.074 A 
ATOM     50  C   UNL A   1      40.168  28.074  32.177  1.00  0.00     0.031 C 
ATOM     51  C   UNL A   1      41.323  27.700  25.752  1.00  0.00     0.029 A 
ATOM     52  C   UNL A   1      42.359  27.315  26.700  1.00  0.00     0.049 A 
ATOM     53  H   UNL A   1      42.497  27.952  28.692  1.00  0.00     0.167 HD
ATOM     54  C   UNL A   1      42.418  29.031  32.898  1.00  0.00     0.037 A 
ATOM     55  C   UNL A   1      43.490  26.573  26.515  1.00  0.00     0.037 A 
ATOM     56  C   UNL A   1      43.333  30.027  32.389  1.00  0.00     0.049 A 
ATOM     57  C   UNL A   1      44.466  27.033  27.537  1.00  0.00     0.074 A 
ATOM     58  C   UNL A   1      43.251  31.387  32.155  1.00  0.00     0.029 A 
ATOM     59  N   UNL A   1      44.401  29.584  31.645  1.00  0.00    -0.354 N 
ATOM     60  N   UNL A   1      45.006  28.221  27.539  1.00  0.00    -0.248 NA
ATOM     61  C   UNL A   1      44.486  26.334  28.810  1.00  0.00     0.031 C 
ATOM     62  C   UNL A   1      43.955  31.598  30.933  1.00  0.00     0.029 A 
ATOM     63  C   UNL A   1      44.489  30.374  30.525  1.00  0.00     0.049 A 
ATOM     64  H   UNL A   1      44.996  28.833  31.874  1.00  0.00     0.167 HD
ATOM     65  C   UNL A   1      45.021  28.596  28.872  1.00  0.00     0.074 A 
ATOM     66  C   UNL A   1      44.762  27.363  29.615  1.00  0.00     0.031 C 
ATOM     67  C   UNL A   1      44.962  29.910  29.238  1.00  0.00     0.037 A 
BRANCH  54  68
ATOM     68  C   UNL A   1      42.845  27.959  33.862  1.00  0.00     0.058 A 
ATOM     69  C   UNL A   1      42.973  28.287  35.224  1.00  0.00     0.135 A 
ATOM     70  C   UNL A   1      43.370  26.704  33.480  1.00  0.00     0.135 A 
ATOM     71  F   UNL A   1      42.519  29.463  35.689  1.00  0.00    -0.206 F 
ATOM     72  C   UNL A   1      43.628  27.457  36.130  1.00  0.00     0.059 A 
ATOM     73  C   UNL A   1      43.972  25.834  34.379  1.00  0.00     0.059 A 
ATOM     74  F   UNL A   1      43.419  26.301  32.204  1.00  0.00    -0.206 F 
ATOM     75  C   UNL A   1      44.133  26.236  35.692  1.00  0.00     0.060 A 
BRANCH  75  76
ATOM     76  S   UNL A   1      45.060  25.207  36.839  1.00  0.00     0.124 S 
ATOM     77  O   UNL A   1      44.089  25.022  37.912  1.00  0.00    -0.237 OA
ATOM     78  O   UNL A   1      45.346  24.032  36.024  1.00  0.00    -0.237 OA
ATOM     79  O   UNL A   1      46.218  26.033  37.170  1.00  0.00    -0.744 OA
ENDBRANCH  75  76
ENDBRANCH  54  68
BRANCH  55  80
ATOM     80  C   UNL A   1      43.719  25.304  25.754  1.00  0.00     0.058 A 
ATOM     81  C   UNL A   1      44.968  25.015  25.157  1.00  0.00     0.135 A 
ATOM     82  C   UNL A   1      42.842  24.212  25.885  1.00  0.00     0.135 A 
ATOM     83  F   UNL A   1      45.880  25.987  24.996  1.00  0.00    -0.206 F 
ATOM     84  C   UNL A   1      45.348  23.717  24.784  1.00  0.00     0.059 A 
ATOM     85  C   UNL A   1      43.198  22.908  25.519  1.00  0.00     0.059 A 
ATOM     86  F   UNL A   1      41.644  24.366  26.468  1.00  0.00    -0.206 F 
ATOM     87  C   UNL A   1      44.465  22.661  24.998  1.00  0.00     0.060 A 
BRANCH  87  88
ATOM     88  S   UNL A   1      45.022  20.959  24.710  1.00  0.00     0.124 S 
ATOM     89  O   UNL A   1      44.815  20.808  23.274  1.00  0.00    -0.237 OA
ATOM     90  O   UNL A   1      46.411  21.010  25.151  1.00  0.00    -0.237 OA
ATOM     91  O   UNL A   1      44.133  20.166  25.555  1.00  0.00    -0.744 OA
ENDBRANCH  87  88
ENDBRANCH  55  80
BRANCH  67  92
ATOM     92  C   UNL A   1      45.199  30.964  28.182  1.00  0.00     0.058 A 
ATOM     93  C   UNL A   1      44.245  31.387  27.237  1.00  0.00     0.135 A 
ATOM     94  C   UNL A   1      46.399  31.688  28.242  1.00  0.00     0.135 A 
ATOM     95  F   UNL A   1      43.038  30.810  27.168  1.00  0.00    -0.206 F 
ATOM     96  C   UNL A   1      44.488  32.464  26.377  1.00  0.00     0.059 A 
ATOM     97  C   UNL A   1      46.650  32.781  27.418  1.00  0.00     0.059 A 
ATOM     98  F   UNL A   1      47.333  31.366  29.154  1.00  0.00    -0.206 F 
ATOM     99  C   UNL A   1      45.692  33.161  26.481  1.00  0.00     0.060 A 
BRANCH  99 100
ATOM    100  S   UNL A   1      45.973  34.604  25.431  1.00  0.00     0.124 S 
ATOM    101  O   UNL A   1      47.406  34.521  25.169  1.00  0.00    -0.237 OA
ATOM    102  O   UNL A   1      45.103  34.336  24.288  1.00  0.00    -0.237 OA
ATOM    103  O   UNL A   1      45.556  35.725  26.270  1.00  0.00    -0.744 OA
ENDBRANCH  99 100
ENDBRANCH  67  92
ENDBRANCH  41  42
ENDBRANCH  34  36
ENDBRANCH  33  34
ENDBRANCH   1  33
TORSDOF 17
ENDMDL
