MODEL 1
REMARK VINA RESULT:     -11.4      0.000      0.000
REMARK SMILES CC[C@@H](C)[C@@H](C(=O)OCCOC(=O)c1ccc(-c2c3nc(c(-c4c(F)cc(S(=O)(=O)[O-])cc4F)c4ccc([nH]4)c(-c4c(F)cc(S(=O)(=O)[O-])cc4F)c4nc(c(-c5c(F)cc(S(=O)(=O)[O-])cc5F)c5ccc2[nH]5)C=C4)C=C3)cc1)N1C(=O)/C(=C/c2ccc(O)cc2)SC1=S
REMARK SMILES IDX 9 1 8 2 6 3 7 4 5 5 3 6 4 7 2 8 1 9 80 10 81 11 93 12 82 13
REMARK SMILES IDX 83 14 92 15 94 16 84 17 85 18 86 19 91 20 87 21 90 22 88 23
REMARK SMILES IDX 89 24 10 26 11 27 12 28 13 29 14 30 15 31 79 32 16 33 78 34
REMARK SMILES IDX 17 35 18 36 19 37 72 38 20 39 77 40 71 41 73 42 21 43 76 44
REMARK SMILES IDX 70 45 69 46 22 48 56 49 35 50 55 51 36 52 39 53 54 54 74 55
REMARK SMILES IDX 37 56 38 57 53 59 75 60 40 61 23 62 24 63 33 64 25 65 26 66
REMARK SMILES IDX 32 67 34 68 27 69 28 70 29 71 30 72 31 73 57 74 58 75 67 76
REMARK SMILES IDX 59 77 60 78 66 79 68 80 61 81 62 82 63 83 64 84 65 85 41 86
REMARK SMILES IDX 42 87 51 88 43 89 44 90 50 91 52 92 45 93 46 94 47 95 48 96
REMARK SMILES IDX 49 97
REMARK H PARENT 89 25 73 47 39 58
REMARK Flexibility Score: inf
ROOT
ATOM      1  C   UNL A   1      33.485  26.809  25.984  1.00  0.00     0.274 C 
ENDROOT
BRANCH   1   2
ATOM      2  O   UNL A   1      32.435  26.066  26.646  1.00  0.00    -0.461 OA
BRANCH   2   3
ATOM      3  C   UNL A   1      32.204  24.803  26.199  1.00  0.00     0.329 C 
ATOM      4  O   UNL A   1      31.694  23.941  26.904  1.00  0.00    -0.250 OA
BRANCH   3   5
ATOM      5  C   UNL A   1      32.627  24.584  24.704  1.00  0.00     0.204 C 
BRANCH   5   6
ATOM      6  C   UNL A   1      31.288  24.806  23.845  1.00  0.00     0.020 C 
ATOM      7  C   UNL A   1      31.404  25.484  22.478  1.00  0.00     0.010 C 
BRANCH   6   8
ATOM      8  C   UNL A   1      30.195  25.547  24.680  1.00  0.00     0.002 C 
ATOM      9  C   UNL A   1      29.176  26.356  23.880  1.00  0.00     0.004 C 
ENDBRANCH   6   8
ENDBRANCH   5   6
BRANCH   5  10
ATOM     10  N   UNL A   1      33.276  23.210  24.658  1.00  0.00    -0.278 N 
ATOM     11  C   UNL A   1      32.949  22.247  23.736  1.00  0.00     0.267 C 
ATOM     12  C   UNL A   1      34.562  22.919  25.088  1.00  0.00     0.149 C 
ATOM     13  O   UNL A   1      32.521  22.432  22.605  1.00  0.00    -0.268 OA
ATOM     14  C   UNL A   1      33.408  20.912  24.203  1.00  0.00     0.081 C 
ATOM     15  S   UNL A   1      34.720  21.158  25.270  1.00  0.00    -0.054 SA
ATOM     16  S   UNL A   1      35.866  23.951  25.283  1.00  0.00    -0.052 S 
ATOM     17  C   UNL A   1      32.793  19.788  23.815  1.00  0.00     0.029 C 
BRANCH  17  18
ATOM     18  C   UNL A   1      33.075  18.418  24.255  1.00  0.00    -0.024 A 
ATOM     19  C   UNL A   1      33.815  17.544  23.452  1.00  0.00     0.012 A 
ATOM     20  C   UNL A   1      32.527  17.945  25.456  1.00  0.00     0.012 A 
ATOM     21  C   UNL A   1      33.997  16.214  23.846  1.00  0.00     0.047 A 
ATOM     22  C   UNL A   1      32.723  16.620  25.858  1.00  0.00     0.047 A 
ATOM     23  C   UNL A   1      33.453  15.764  25.045  1.00  0.00     0.115 A 
BRANCH  23  24
ATOM     24  O   UNL A   1      33.647  14.458  25.385  1.00  0.00    -0.508 OA
ATOM     25  H   UNL A   1      33.759  13.812  24.716  1.00  0.00     0.293 HD
ENDBRANCH  23  24
ENDBRANCH  17  18
ENDBRANCH   5  10
ENDBRANCH   3   5
ENDBRANCH   2   3
ENDBRANCH   1   2
BRANCH   1  26
ATOM     26  C   UNL A   1      33.464  28.328  26.245  1.00  0.00     0.275 C 
BRANCH  26  27
ATOM     27  O   UNL A   1      33.793  28.658  27.610  1.00  0.00    -0.458 OA
BRANCH  27  28
ATOM     28  C   UNL A   1      34.312  29.898  27.793  1.00  0.00     0.338 C 
ATOM     29  O   UNL A   1      33.690  30.947  27.784  1.00  0.00    -0.246 OA
BRANCH  28  30
ATOM     30  C   UNL A   1      35.724  29.822  28.227  1.00  0.00     0.060 A 
ATOM     31  C   UNL A   1      36.698  30.077  27.255  1.00  0.00     0.016 A 
ATOM     32  C   UNL A   1      36.106  29.451  29.517  1.00  0.00     0.016 A 
ATOM     33  C   UNL A   1      38.048  29.969  27.558  1.00  0.00     0.010 A 
ATOM     34  C   UNL A   1      37.472  29.306  29.813  1.00  0.00     0.010 A 
ATOM     35  C   UNL A   1      38.446  29.547  28.828  1.00  0.00    -0.014 A 
BRANCH  35  36
ATOM     36  C   UNL A   1      39.876  29.206  29.028  1.00  0.00     0.031 A 
ATOM     37  C   UNL A   1      40.774  30.221  29.677  1.00  0.00     0.074 A 
ATOM     38  C   UNL A   1      40.337  27.970  28.759  1.00  0.00     0.049 A 
ATOM     39  N   UNL A   1      42.043  30.135  29.978  1.00  0.00    -0.248 NA
ATOM     40  C   UNL A   1      40.149  31.499  30.056  1.00  0.00     0.031 C 
ATOM     41  C   UNL A   1      39.534  26.866  28.239  1.00  0.00     0.029 A 
ATOM     42  N   UNL A   1      41.592  27.434  28.908  1.00  0.00    -0.354 N 
ATOM     43  C   UNL A   1      42.373  31.350  30.567  1.00  0.00     0.074 A 
ATOM     44  C   UNL A   1      41.173  32.157  30.578  1.00  0.00     0.031 C 
ATOM     45  C   UNL A   1      40.316  25.779  28.113  1.00  0.00     0.029 A 
ATOM     46  C   UNL A   1      41.683  26.122  28.503  1.00  0.00     0.049 A 
ATOM     47  H   UNL A   1      42.355  27.940  29.270  1.00  0.00     0.167 HD
ATOM     48  C   UNL A   1      43.570  31.758  31.052  1.00  0.00     0.037 A 
ATOM     49  C   UNL A   1      42.751  25.302  28.432  1.00  0.00     0.037 A 
ATOM     50  C   UNL A   1      44.765  30.956  31.024  1.00  0.00     0.049 A 
ATOM     51  C   UNL A   1      44.094  25.811  28.893  1.00  0.00     0.074 A 
ATOM     52  C   UNL A   1      46.036  31.291  31.454  1.00  0.00     0.029 A 
ATOM     53  N   UNL A   1      44.837  29.663  30.528  1.00  0.00    -0.354 N 
ATOM     54  N   UNL A   1      44.395  26.961  29.451  1.00  0.00    -0.248 NA
ATOM     55  C   UNL A   1      45.244  24.914  28.714  1.00  0.00     0.031 C 
ATOM     56  C   UNL A   1      46.886  30.213  31.183  1.00  0.00     0.029 A 
ATOM     57  C   UNL A   1      46.132  29.186  30.636  1.00  0.00     0.049 A 
ATOM     58  H   UNL A   1      44.079  29.158  30.154  1.00  0.00     0.167 HD
ATOM     59  C   UNL A   1      45.764  26.919  29.697  1.00  0.00     0.074 A 
ATOM     60  C   UNL A   1      46.226  25.618  29.261  1.00  0.00     0.031 C 
ATOM     61  C   UNL A   1      46.568  27.871  30.232  1.00  0.00     0.037 A 
BRANCH  48  62
ATOM     62  C   UNL A   1      43.651  33.154  31.602  1.00  0.00     0.058 A 
ATOM     63  C   UNL A   1      43.434  33.429  32.961  1.00  0.00     0.135 A 
ATOM     64  C   UNL A   1      43.948  34.233  30.754  1.00  0.00     0.135 A 
ATOM     65  F   UNL A   1      43.125  32.436  33.811  1.00  0.00    -0.206 F 
ATOM     66  C   UNL A   1      43.478  34.729  33.455  1.00  0.00     0.059 A 
ATOM     67  C   UNL A   1      44.022  35.538  31.230  1.00  0.00     0.059 A 
ATOM     68  F   UNL A   1      44.159  34.025  29.445  1.00  0.00    -0.206 F 
ATOM     69  C   UNL A   1      43.767  35.778  32.580  1.00  0.00     0.060 A 
BRANCH  69  70
ATOM     70  S   UNL A   1      43.797  37.462  33.228  1.00  0.00     0.124 S 
ATOM     71  O   UNL A   1      42.653  37.444  34.135  1.00  0.00    -0.237 OA
ATOM     72  O   UNL A   1      45.108  37.529  33.864  1.00  0.00    -0.237 OA
ATOM     73  O   UNL A   1      43.638  38.289  32.035  1.00  0.00    -0.744 OA
ENDBRANCH  69  70
ENDBRANCH  48  62
BRANCH  49  74
ATOM     74  C   UNL A   1      42.612  23.933  27.866  1.00  0.00     0.058 A 
ATOM     75  C   UNL A   1      42.510  23.718  26.483  1.00  0.00     0.135 A 
ATOM     76  C   UNL A   1      42.539  22.808  28.704  1.00  0.00     0.135 A 
ATOM     77  F   UNL A   1      42.543  24.759  25.639  1.00  0.00    -0.206 F 
ATOM     78  C   UNL A   1      42.324  22.444  25.953  1.00  0.00     0.059 A 
ATOM     79  C   UNL A   1      42.381  21.522  28.198  1.00  0.00     0.059 A 
ATOM     80  F   UNL A   1      42.626  22.955  30.036  1.00  0.00    -0.206 F 
ATOM     81  C   UNL A   1      42.261  21.351  26.820  1.00  0.00     0.060 A 
BRANCH  81  82
ATOM     82  S   UNL A   1      42.035  19.700  26.123  1.00  0.00     0.124 S 
ATOM     83  O   UNL A   1      42.428  18.852  27.244  1.00  0.00    -0.237 OA
ATOM     84  O   UNL A   1      40.614  19.698  25.789  1.00  0.00    -0.237 OA
ATOM     85  O   UNL A   1      42.942  19.690  24.979  1.00  0.00    -0.744 OA
ENDBRANCH  81  82
ENDBRANCH  49  74
BRANCH  61  86
ATOM     86  C   UNL A   1      48.016  27.523  30.452  1.00  0.00     0.058 A 
ATOM     87  C   UNL A   1      48.469  26.922  31.636  1.00  0.00     0.135 A 
ATOM     88  C   UNL A   1      48.954  27.740  29.427  1.00  0.00     0.135 A 
ATOM     89  F   UNL A   1      47.615  26.695  32.647  1.00  0.00    -0.206 F 
ATOM     90  C   UNL A   1      49.804  26.570  31.808  1.00  0.00     0.059 A 
ATOM     91  C   UNL A   1      50.287  27.371  29.566  1.00  0.00     0.059 A 
ATOM     92  F   UNL A   1      48.570  28.302  28.270  1.00  0.00    -0.206 F 
ATOM     93  C   UNL A   1      50.706  26.797  30.765  1.00  0.00     0.060 A 
BRANCH  93  94
ATOM     94  S   UNL A   1      52.428  26.302  30.983  1.00  0.00     0.124 S 
ATOM     95  O   UNL A   1      52.958  27.416  31.761  1.00  0.00    -0.237 OA
ATOM     96  O   UNL A   1      52.302  25.034  31.696  1.00  0.00    -0.237 OA
ATOM     97  O   UNL A   1      52.927  26.197  29.615  1.00  0.00    -0.744 OA
ENDBRANCH  93  94
ENDBRANCH  61  86
ENDBRANCH  35  36
ENDBRANCH  28  30
ENDBRANCH  27  28
ENDBRANCH  26  27
ENDBRANCH   1  26
TORSDOF 19
ENDMDL
MODEL 2
REMARK VINA RESULT:     -11.1      1.648      4.664
REMARK SMILES CC[C@@H](C)[C@@H](C(=O)OCCOC(=O)c1ccc(-c2c3nc(c(-c4c(F)cc(S(=O)(=O)[O-])cc4F)c4ccc([nH]4)c(-c4c(F)cc(S(=O)(=O)[O-])cc4F)c4nc(c(-c5c(F)cc(S(=O)(=O)[O-])cc5F)c5ccc2[nH]5)C=C4)C=C3)cc1)N1C(=O)/C(=C/c2ccc(O)cc2)SC1=S
REMARK SMILES IDX 9 1 8 2 6 3 7 4 5 5 3 6 4 7 2 8 1 9 80 10 81 11 93 12 82 13
REMARK SMILES IDX 83 14 92 15 94 16 84 17 85 18 86 19 91 20 87 21 90 22 88 23
REMARK SMILES IDX 89 24 10 26 11 27 12 28 13 29 14 30 15 31 79 32 16 33 78 34
REMARK SMILES IDX 17 35 18 36 19 37 72 38 20 39 77 40 71 41 73 42 21 43 76 44
REMARK SMILES IDX 70 45 69 46 22 48 56 49 35 50 55 51 36 52 39 53 54 54 74 55
REMARK SMILES IDX 37 56 38 57 53 59 75 60 40 61 23 62 24 63 33 64 25 65 26 66
REMARK SMILES IDX 32 67 34 68 27 69 28 70 29 71 30 72 31 73 57 74 58 75 67 76
REMARK SMILES IDX 59 77 60 78 66 79 68 80 61 81 62 82 63 83 64 84 65 85 41 86
REMARK SMILES IDX 42 87 51 88 43 89 44 90 50 91 52 92 45 93 46 94 47 95 48 96
REMARK SMILES IDX 49 97
REMARK H PARENT 89 25 73 47 39 58
REMARK Flexibility Score: inf
ROOT
ATOM      1  C   UNL A   1      34.043  26.516  26.095  1.00  0.00     0.274 C 
ENDROOT
BRANCH   1   2
ATOM      2  O   UNL A   1      34.214  26.064  24.732  1.00  0.00    -0.461 OA
BRANCH   2   3
ATOM      3  C   UNL A   1      34.473  24.741  24.554  1.00  0.00     0.329 C 
ATOM      4  O   UNL A   1      35.513  24.340  24.046  1.00  0.00    -0.250 OA
BRANCH   3   5
ATOM      5  C   UNL A   1      33.329  23.805  25.081  1.00  0.00     0.204 C 
BRANCH   5   6
ATOM      6  C   UNL A   1      33.471  22.444  24.240  1.00  0.00     0.020 C 
ATOM      7  C   UNL A   1      32.195  21.727  23.796  1.00  0.00     0.010 C 
BRANCH   6   8
ATOM      8  C   UNL A   1      34.392  21.417  24.973  1.00  0.00     0.002 C 
ATOM      9  C   UNL A   1      34.037  19.944  24.782  1.00  0.00     0.004 C 
ENDBRANCH   6   8
ENDBRANCH   5   6
BRANCH   5  10
ATOM     10  N   UNL A   1      32.044  24.600  24.927  1.00  0.00    -0.278 N 
ATOM     11  C   UNL A   1      31.619  25.131  23.734  1.00  0.00     0.267 C 
ATOM     12  C   UNL A   1      30.910  24.448  25.712  1.00  0.00     0.149 C 
ATOM     13  O   UNL A   1      31.861  24.702  22.614  1.00  0.00    -0.268 OA
ATOM     14  C   UNL A   1      30.603  26.190  23.975  1.00  0.00     0.081 C 
ATOM     15  S   UNL A   1      29.858  25.862  25.477  1.00  0.00    -0.054 SA
ATOM     16  S   UNL A   1      30.439  23.135  26.638  1.00  0.00    -0.052 S 
ATOM     17  C   UNL A   1      30.425  27.196  23.110  1.00  0.00     0.029 C 
BRANCH  17  18
ATOM     18  C   UNL A   1      29.531  28.349  23.253  1.00  0.00    -0.024 A 
ATOM     19  C   UNL A   1      28.150  28.215  23.068  1.00  0.00     0.012 A 
ATOM     20  C   UNL A   1      30.067  29.622  23.494  1.00  0.00     0.012 A 
ATOM     21  C   UNL A   1      27.323  29.342  23.119  1.00  0.00     0.047 A 
ATOM     22  C   UNL A   1      29.239  30.745  23.561  1.00  0.00     0.047 A 
ATOM     23  C   UNL A   1      27.872  30.596  23.367  1.00  0.00     0.115 A 
BRANCH  23  24
ATOM     24  O   UNL A   1      27.030  31.667  23.398  1.00  0.00    -0.508 OA
ATOM     25  H   UNL A   1      26.163  31.572  23.739  1.00  0.00     0.293 HD
ENDBRANCH  23  24
ENDBRANCH  17  18
ENDBRANCH   5  10
ENDBRANCH   3   5
ENDBRANCH   2   3
ENDBRANCH   1   2
BRANCH   1  26
ATOM     26  C   UNL A   1      33.466  27.938  26.237  1.00  0.00     0.275 C 
BRANCH  26  27
ATOM     27  O   UNL A   1      33.650  28.479  27.562  1.00  0.00    -0.458 OA
BRANCH  27  28
ATOM     28  C   UNL A   1      34.208  29.714  27.607  1.00  0.00     0.338 C 
ATOM     29  O   UNL A   1      33.618  30.775  27.490  1.00  0.00    -0.246 OA
BRANCH  28  30
ATOM     30  C   UNL A   1      35.622  29.641  28.036  1.00  0.00     0.060 A 
ATOM     31  C   UNL A   1      36.593  29.795  27.040  1.00  0.00     0.016 A 
ATOM     32  C   UNL A   1      36.007  29.365  29.349  1.00  0.00     0.016 A 
ATOM     33  C   UNL A   1      37.943  29.680  27.341  1.00  0.00     0.010 A 
ATOM     34  C   UNL A   1      37.372  29.213  29.646  1.00  0.00     0.010 A 
ATOM     35  C   UNL A   1      38.343  29.353  28.637  1.00  0.00    -0.014 A 
BRANCH  35  36
ATOM     36  C   UNL A   1      39.766  28.995  28.854  1.00  0.00     0.031 A 
ATOM     37  C   UNL A   1      40.668  30.002  29.511  1.00  0.00     0.074 A 
ATOM     38  C   UNL A   1      40.217  27.754  28.593  1.00  0.00     0.049 A 
ATOM     39  N   UNL A   1      41.933  29.902  29.827  1.00  0.00    -0.248 NA
ATOM     40  C   UNL A   1      40.054  31.288  29.880  1.00  0.00     0.031 C 
ATOM     41  C   UNL A   1      39.406  26.657  28.067  1.00  0.00     0.029 A 
ATOM     42  N   UNL A   1      41.463  27.204  28.757  1.00  0.00    -0.354 N 
ATOM     43  C   UNL A   1      42.271  31.115  30.416  1.00  0.00     0.074 A 
ATOM     44  C   UNL A   1      41.080  31.935  30.412  1.00  0.00     0.031 C 
ATOM     45  C   UNL A   1      40.178  25.562  27.952  1.00  0.00     0.029 A 
ATOM     46  C   UNL A   1      41.544  25.890  28.356  1.00  0.00     0.049 A 
ATOM     47  H   UNL A   1      42.228  27.702  29.127  1.00  0.00     0.167 HD
ATOM     48  C   UNL A   1      43.467  31.510  30.914  1.00  0.00     0.037 A 
ATOM     49  C   UNL A   1      42.604  25.058  28.300  1.00  0.00     0.037 A 
ATOM     50  C   UNL A   1      44.652  30.695  30.901  1.00  0.00     0.049 A 
ATOM     51  C   UNL A   1      43.947  25.553  28.774  1.00  0.00     0.074 A 
ATOM     52  C   UNL A   1      45.923  31.016  31.344  1.00  0.00     0.029 A 
ATOM     53  N   UNL A   1      44.715  29.400  30.409  1.00  0.00    -0.354 N 
ATOM     54  N   UNL A   1      44.254  26.700  29.333  1.00  0.00    -0.248 NA
ATOM     55  C   UNL A   1      45.088  24.642  28.610  1.00  0.00     0.031 C 
ATOM     56  C   UNL A   1      46.763  29.928  31.085  1.00  0.00     0.029 A 
ATOM     57  C   UNL A   1      46.004  28.908  30.532  1.00  0.00     0.049 A 
ATOM     58  H   UNL A   1      43.956  28.903  30.027  1.00  0.00     0.167 HD
ATOM     59  C   UNL A   1      45.621  26.643  29.594  1.00  0.00     0.074 A 
ATOM     60  C   UNL A   1      46.072  25.336  29.166  1.00  0.00     0.031 C 
ATOM     61  C   UNL A   1      46.429  27.588  30.135  1.00  0.00     0.037 A 
BRANCH  48  62
ATOM     62  C   UNL A   1      43.557  32.907  31.461  1.00  0.00     0.058 A 
ATOM     63  C   UNL A   1      43.894  34.001  30.648  1.00  0.00     0.135 A 
ATOM     64  C   UNL A   1      43.305  33.153  32.820  1.00  0.00     0.135 A 
ATOM     65  F   UNL A   1      44.167  33.817  29.346  1.00  0.00    -0.206 F 
ATOM     66  C   UNL A   1      44.008  35.285  31.170  1.00  0.00     0.059 A 
ATOM     67  C   UNL A   1      43.388  34.432  33.359  1.00  0.00     0.059 A 
ATOM     68  F   UNL A   1      42.983  32.141  33.641  1.00  0.00    -0.206 F 
ATOM     69  C   UNL A   1      43.759  35.490  32.529  1.00  0.00     0.060 A 
BRANCH  69  70
ATOM     70  S   UNL A   1      43.934  37.157  33.198  1.00  0.00     0.124 S 
ATOM     71  O   UNL A   1      42.782  37.233  34.091  1.00  0.00    -0.237 OA
ATOM     72  O   UNL A   1      45.237  37.096  33.850  1.00  0.00    -0.237 OA
ATOM     73  O   UNL A   1      43.867  38.008  32.014  1.00  0.00    -0.744 OA
ENDBRANCH  69  70
ENDBRANCH  48  62
BRANCH  49  74
ATOM     74  C   UNL A   1      42.456  23.689  27.735  1.00  0.00     0.058 A 
ATOM     75  C   UNL A   1      42.340  22.562  28.563  1.00  0.00     0.135 A 
ATOM     76  C   UNL A   1      42.467  23.474  26.346  1.00  0.00     0.135 A 
ATOM     77  F   UNL A   1      42.354  22.707  29.897  1.00  0.00    -0.206 F 
ATOM     78  C   UNL A   1      42.258  21.275  28.040  1.00  0.00     0.059 A 
ATOM     79  C   UNL A   1      42.359  22.200  25.798  1.00  0.00     0.059 A 
ATOM     80  F   UNL A   1      42.582  24.515  25.506  1.00  0.00    -0.206 F 
ATOM     81  C   UNL A   1      42.268  21.104  26.654  1.00  0.00     0.060 A 
BRANCH  81  82
ATOM     82  S   UNL A   1      42.145  19.432  25.982  1.00  0.00     0.124 S 
ATOM     83  O   UNL A   1      43.004  19.524  24.806  1.00  0.00    -0.237 OA
ATOM     84  O   UNL A   1      42.654  18.620  27.082  1.00  0.00    -0.237 OA
ATOM     85  O   UNL A   1      40.718  19.283  25.708  1.00  0.00    -0.744 OA
ENDBRANCH  81  82
ENDBRANCH  49  74
BRANCH  61  86
ATOM     86  C   UNL A   1      47.870  27.223  30.372  1.00  0.00     0.058 A 
ATOM     87  C   UNL A   1      48.871  27.471  29.420  1.00  0.00     0.135 A 
ATOM     88  C   UNL A   1      48.261  26.671  31.604  1.00  0.00     0.135 A 
ATOM     89  F   UNL A   1      48.551  27.994  28.226  1.00  0.00    -0.206 F 
ATOM     90  C   UNL A   1      50.204  27.163  29.671  1.00  0.00     0.059 A 
ATOM     91  C   UNL A   1      49.591  26.381  31.887  1.00  0.00     0.059 A 
ATOM     92  F   UNL A   1      47.345  26.425  32.554  1.00  0.00    -0.206 F 
ATOM     93  C   UNL A   1      50.555  26.620  30.909  1.00  0.00     0.060 A 
BRANCH  93  94
ATOM     94  S   UNL A   1      52.293  26.260  31.239  1.00  0.00     0.124 S 
ATOM     95  O   UNL A   1      52.677  27.399  32.065  1.00  0.00    -0.237 OA
ATOM     96  O   UNL A   1      52.223  24.973  31.924  1.00  0.00    -0.237 OA
ATOM     97  O   UNL A   1      52.890  26.221  29.907  1.00  0.00    -0.744 OA
ENDBRANCH  93  94
ENDBRANCH  61  86
ENDBRANCH  35  36
ENDBRANCH  28  30
ENDBRANCH  27  28
ENDBRANCH  26  27
ENDBRANCH   1  26
TORSDOF 19
ENDMDL
MODEL 3
REMARK VINA RESULT:     -11.0      3.307      4.306
REMARK SMILES CC[C@@H](C)[C@@H](C(=O)OCCOC(=O)c1ccc(-c2c3nc(c(-c4c(F)cc(S(=O)(=O)[O-])cc4F)c4ccc([nH]4)c(-c4c(F)cc(S(=O)(=O)[O-])cc4F)c4nc(c(-c5c(F)cc(S(=O)(=O)[O-])cc5F)c5ccc2[nH]5)C=C4)C=C3)cc1)N1C(=O)/C(=C/c2ccc(O)cc2)SC1=S
REMARK SMILES IDX 9 1 8 2 6 3 7 4 5 5 3 6 4 7 2 8 1 9 80 10 81 11 93 12 82 13
REMARK SMILES IDX 83 14 92 15 94 16 84 17 85 18 86 19 91 20 87 21 90 22 88 23
REMARK SMILES IDX 89 24 10 26 11 27 12 28 13 29 14 30 15 31 79 32 16 33 78 34
REMARK SMILES IDX 17 35 18 36 19 37 72 38 20 39 77 40 71 41 73 42 21 43 76 44
REMARK SMILES IDX 70 45 69 46 22 48 56 49 35 50 55 51 36 52 39 53 54 54 74 55
REMARK SMILES IDX 37 56 38 57 53 59 75 60 40 61 23 62 24 63 33 64 25 65 26 66
REMARK SMILES IDX 32 67 34 68 27 69 28 70 29 71 30 72 31 73 57 74 58 75 67 76
REMARK SMILES IDX 59 77 60 78 66 79 68 80 61 81 62 82 63 83 64 84 65 85 41 86
REMARK SMILES IDX 42 87 51 88 43 89 44 90 50 91 52 92 45 93 46 94 47 95 48 96
REMARK SMILES IDX 49 97
REMARK H PARENT 89 25 73 47 39 58
REMARK Flexibility Score: inf
ROOT
ATOM      1  C   UNL A   1      33.554  29.924  26.452  1.00  0.00     0.274 C 
ENDROOT
BRANCH   1   2
ATOM      2  O   UNL A   1      33.360  28.744  25.640  1.00  0.00    -0.461 OA
BRANCH   2   3
ATOM      3  C   UNL A   1      32.092  28.262  25.552  1.00  0.00     0.329 C 
ATOM      4  O   UNL A   1      31.295  28.342  26.480  1.00  0.00    -0.250 OA
BRANCH   3   5
ATOM      5  C   UNL A   1      31.759  27.631  24.155  1.00  0.00     0.204 C 
BRANCH   5   6
ATOM      6  C   UNL A   1      30.168  27.401  24.160  1.00  0.00     0.020 C 
ATOM      7  C   UNL A   1      29.639  25.979  23.959  1.00  0.00     0.010 C 
BRANCH   6   8
ATOM      8  C   UNL A   1      29.455  28.348  23.142  1.00  0.00     0.002 C 
ATOM      9  C   UNL A   1      30.356  29.330  22.397  1.00  0.00     0.004 C 
ENDBRANCH   6   8
ENDBRANCH   5   6
BRANCH   5  10
ATOM     10  N   UNL A   1      32.650  26.407  24.034  1.00  0.00    -0.278 N 
ATOM     11  C   UNL A   1      32.805  25.481  25.036  1.00  0.00     0.267 C 
ATOM     12  C   UNL A   1      32.958  25.755  22.849  1.00  0.00     0.149 C 
ATOM     13  O   UNL A   1      31.989  25.193  25.900  1.00  0.00    -0.268 OA
ATOM     14  C   UNL A   1      34.032  24.673  24.803  1.00  0.00     0.081 C 
ATOM     15  S   UNL A   1      34.357  24.695  23.126  1.00  0.00    -0.054 SA
ATOM     16  S   UNL A   1      32.131  25.771  21.394  1.00  0.00    -0.052 S 
ATOM     17  C   UNL A   1      34.699  24.109  25.817  1.00  0.00     0.029 C 
BRANCH  17  18
ATOM     18  C   UNL A   1      35.960  23.364  25.753  1.00  0.00    -0.024 A 
ATOM     19  C   UNL A   1      35.979  22.015  25.382  1.00  0.00     0.012 A 
ATOM     20  C   UNL A   1      37.156  23.981  26.148  1.00  0.00     0.012 A 
ATOM     21  C   UNL A   1      37.178  21.296  25.413  1.00  0.00     0.047 A 
ATOM     22  C   UNL A   1      38.357  23.266  26.163  1.00  0.00     0.047 A 
ATOM     23  C   UNL A   1      38.356  21.927  25.800  1.00  0.00     0.115 A 
BRANCH  23  24
ATOM     24  O   UNL A   1      39.500  21.185  25.826  1.00  0.00    -0.508 OA
ATOM     25  H   UNL A   1      39.490  20.298  25.525  1.00  0.00     0.293 HD
ENDBRANCH  23  24
ENDBRANCH  17  18
ENDBRANCH   5  10
ENDBRANCH   3   5
ENDBRANCH   2   3
ENDBRANCH   1   2
BRANCH   1  26
ATOM     26  C   UNL A   1      34.229  29.668  27.813  1.00  0.00     0.275 C 
BRANCH  26  27
ATOM     27  O   UNL A   1      35.659  29.854  27.764  1.00  0.00    -0.458 OA
BRANCH  27  28
ATOM     28  C   UNL A   1      36.278  29.885  28.971  1.00  0.00     0.338 C 
ATOM     29  O   UNL A   1      35.730  29.869  30.060  1.00  0.00    -0.246 OA
BRANCH  28  30
ATOM     30  C   UNL A   1      37.740  29.722  28.820  1.00  0.00     0.060 A 
ATOM     31  C   UNL A   1      38.241  29.687  27.514  1.00  0.00     0.016 A 
ATOM     32  C   UNL A   1      38.602  29.542  29.903  1.00  0.00     0.016 A 
ATOM     33  C   UNL A   1      39.593  29.477  27.277  1.00  0.00     0.010 A 
ATOM     34  C   UNL A   1      39.964  29.292  29.662  1.00  0.00     0.010 A 
ATOM     35  C   UNL A   1      40.459  29.242  28.346  1.00  0.00    -0.014 A 
BRANCH  35  36
ATOM     36  C   UNL A   1      41.833  28.776  28.034  1.00  0.00     0.031 A 
ATOM     37  C   UNL A   1      42.962  29.763  28.117  1.00  0.00     0.074 A 
ATOM     38  C   UNL A   1      42.089  27.473  27.811  1.00  0.00     0.049 A 
ATOM     39  N   UNL A   1      44.242  29.580  27.918  1.00  0.00    -0.248 NA
ATOM     40  C   UNL A   1      42.602  31.139  28.497  1.00  0.00     0.031 C 
ATOM     41  C   UNL A   1      41.092  26.404  27.824  1.00  0.00     0.029 A 
ATOM     42  N   UNL A   1      43.272  26.829  27.552  1.00  0.00    -0.354 N 
ATOM     43  C   UNL A   1      44.837  30.818  28.132  1.00  0.00     0.074 A 
ATOM     44  C   UNL A   1      43.780  31.744  28.472  1.00  0.00     0.031 C 
ATOM     45  C   UNL A   1      41.707  25.233  27.584  1.00  0.00     0.029 A 
ATOM     46  C   UNL A   1      43.131  25.474  27.360  1.00  0.00     0.049 A 
ATOM     47  H   UNL A   1      44.140  27.291  27.507  1.00  0.00     0.167 HD
ATOM     48  C   UNL A   1      46.147  31.153  28.049  1.00  0.00     0.037 A 
ATOM     49  C   UNL A   1      44.043  24.541  27.018  1.00  0.00     0.037 A 
ATOM     50  C   UNL A   1      47.192  30.230  27.693  1.00  0.00     0.049 A 
ATOM     51  C   UNL A   1      45.482  24.956  26.840  1.00  0.00     0.074 A 
ATOM     52  C   UNL A   1      48.544  30.477  27.543  1.00  0.00     0.029 A 
ATOM     53  N   UNL A   1      46.998  28.883  27.423  1.00  0.00    -0.354 N 
ATOM     54  N   UNL A   1      46.035  26.129  27.047  1.00  0.00    -0.248 NA
ATOM     55  C   UNL A   1      46.422  23.924  26.380  1.00  0.00     0.031 C 
ATOM     56  C   UNL A   1      49.163  29.288  27.144  1.00  0.00     0.029 A 
ATOM     57  C   UNL A   1      48.206  28.287  27.101  1.00  0.00     0.049 A 
ATOM     58  H   UNL A   1      46.131  28.420  27.454  1.00  0.00     0.167 HD
ATOM     59  C   UNL A   1      47.386  25.971  26.753  1.00  0.00     0.074 A 
ATOM     60  C   UNL A   1      47.573  24.582  26.388  1.00  0.00     0.031 C 
ATOM     61  C   UNL A   1      48.381  26.892  26.777  1.00  0.00     0.037 A 
BRANCH  48  62
ATOM     62  C   UNL A   1      46.506  32.591  28.293  1.00  0.00     0.058 A 
ATOM     63  C   UNL A   1      46.890  33.054  29.561  1.00  0.00     0.135 A 
ATOM     64  C   UNL A   1      46.464  33.520  27.241  1.00  0.00     0.135 A 
ATOM     65  F   UNL A   1      46.926  32.211  30.607  1.00  0.00    -0.206 F 
ATOM     66  C   UNL A   1      47.189  34.394  29.786  1.00  0.00     0.059 A 
ATOM     67  C   UNL A   1      46.783  34.860  27.437  1.00  0.00     0.059 A 
ATOM     68  F   UNL A   1      46.099  33.130  26.010  1.00  0.00    -0.206 F 
ATOM     69  C   UNL A   1      47.128  35.291  28.717  1.00  0.00     0.060 A 
BRANCH  69  70
ATOM     70  S   UNL A   1      47.494  37.031  29.027  1.00  0.00     0.124 S 
ATOM     71  O   UNL A   1      46.222  37.660  28.684  1.00  0.00    -0.237 OA
ATOM     72  O   UNL A   1      47.840  37.030  30.444  1.00  0.00    -0.237 OA
ATOM     73  O   UNL A   1      48.599  37.313  28.115  1.00  0.00    -0.744 OA
ENDBRANCH  69  70
ENDBRANCH  48  62
BRANCH  49  74
ATOM     74  C   UNL A   1      43.625  23.132  26.776  1.00  0.00     0.058 A 
ATOM     75  C   UNL A   1      43.267  22.282  27.833  1.00  0.00     0.135 A 
ATOM     76  C   UNL A   1      43.612  22.595  25.478  1.00  0.00     0.135 A 
ATOM     77  F   UNL A   1      43.291  22.735  29.095  1.00  0.00    -0.206 F 
ATOM     78  C   UNL A   1      42.930  20.949  27.616  1.00  0.00     0.059 A 
ATOM     79  C   UNL A   1      43.253  21.274  25.232  1.00  0.00     0.059 A 
ATOM     80  F   UNL A   1      43.951  23.361  24.429  1.00  0.00    -0.206 F 
ATOM     81  C   UNL A   1      42.925  20.453  26.311  1.00  0.00     0.060 A 
BRANCH  81  82
ATOM     82  S   UNL A   1      42.471  18.727  26.036  1.00  0.00     0.124 S 
ATOM     83  O   UNL A   1      43.371  18.356  24.950  1.00  0.00    -0.237 OA
ATOM     84  O   UNL A   1      42.753  18.124  27.334  1.00  0.00    -0.237 OA
ATOM     85  O   UNL A   1      41.056  18.803  25.682  1.00  0.00    -0.744 OA
ENDBRANCH  81  82
ENDBRANCH  49  74
BRANCH  61  86
ATOM     86  C   UNL A   1      49.779  26.420  26.478  1.00  0.00     0.058 A 
ATOM     87  C   UNL A   1      50.306  26.419  25.178  1.00  0.00     0.135 A 
ATOM     88  C   UNL A   1      50.624  26.018  27.528  1.00  0.00     0.135 A 
ATOM     89  F   UNL A   1      49.541  26.790  24.139  1.00  0.00    -0.206 F 
ATOM     90  C   UNL A   1      51.613  26.016  24.924  1.00  0.00     0.059 A 
ATOM     91  C   UNL A   1      51.942  25.638  27.300  1.00  0.00     0.059 A 
ATOM     92  F   UNL A   1      50.172  26.011  28.792  1.00  0.00    -0.206 F 
ATOM     93  C   UNL A   1      52.425  25.629  25.993  1.00  0.00     0.060 A 
BRANCH  93  94
ATOM     94  S   UNL A   1      54.131  25.145  25.658  1.00  0.00     0.124 S 
ATOM     95  O   UNL A   1      54.399  25.857  24.413  1.00  0.00    -0.237 OA
ATOM     96  O   UNL A   1      54.835  25.640  26.837  1.00  0.00    -0.237 OA
ATOM     97  O   UNL A   1      54.056  23.691  25.546  1.00  0.00    -0.744 OA
ENDBRANCH  93  94
ENDBRANCH  61  86
ENDBRANCH  35  36
ENDBRANCH  28  30
ENDBRANCH  27  28
ENDBRANCH  26  27
ENDBRANCH   1  26
TORSDOF 19
ENDMDL
