MODEL 1
REMARK VINA RESULT:     -11.7      0.000      0.000
REMARK SMILES CCn1cc(CNC(=O)[C@H]2CC=CC[C@H]2C(=O)OCCOC(=O)c2ccc(-c3c4nc(c(-c5c(F)cc(S(=O)(=O)[O-])cc5F)c5ccc([nH]5)c(-c5c(F)cc(S(=O)(=O)[O-])cc5F)c5nc(c(-c6c(F)cc(S(=O)(=O)[O-])cc6F)c6ccc3[nH]6)C=C5)C=C4)cc2)cn1
REMARK SMILES IDX 19 1 18 2 16 3 17 4 15 5 10 6 11 7 12 8 14 9 13 10 8 11 7 12
REMARK SMILES IDX 9 14 6 15 5 16 3 17 4 18 91 19 90 20 2 21 1 22 20 23 21 24
REMARK SMILES IDX 22 25 23 26 24 27 25 28 89 29 26 30 88 31 27 32 28 33 29 34
REMARK SMILES IDX 82 35 30 36 87 37 81 38 83 39 31 40 86 41 80 42 79 43 32 45
REMARK SMILES IDX 66 46 45 47 65 48 46 49 49 50 64 51 84 52 47 53 48 54 63 56
REMARK SMILES IDX 85 57 50 58 33 59 34 60 43 61 35 62 36 63 42 64 44 65 37 66
REMARK SMILES IDX 38 67 39 68 40 69 41 70 67 71 68 72 77 73 69 74 70 75 76 76
REMARK SMILES IDX 78 77 71 78 72 79 73 80 74 81 75 82 51 83 52 84 61 85 53 86
REMARK SMILES IDX 54 87 60 88 62 89 55 90 56 91 57 92 58 93 59 94
REMARK H PARENT 7 13 83 44 49 55
REMARK Flexibility Score: inf
ROOT
ATOM      1  C   UNL A   1      36.028  21.313  25.147  1.00  0.00     0.274 C 
ENDROOT
BRANCH   1   2
ATOM      2  O   UNL A   1      35.712  22.716  25.189  1.00  0.00    -0.462 OA
BRANCH   2   3
ATOM      3  C   UNL A   1      35.238  23.283  24.054  1.00  0.00     0.310 C 
ATOM      4  O   UNL A   1      35.765  23.152  22.954  1.00  0.00    -0.252 OA
BRANCH   3   5
ATOM      5  C   UNL A   1      34.011  24.167  24.264  1.00  0.00     0.115 C 
ATOM      6  C   UNL A   1      32.648  23.521  24.595  1.00  0.00     0.096 C 
ATOM      7  C   UNL A   1      31.569  24.558  24.959  1.00  0.00     0.041 C 
ATOM      8  C   UNL A   1      32.049  25.653  25.852  1.00  0.00    -0.030 C 
ATOM      9  C   UNL A   1      34.426  25.359  25.151  1.00  0.00     0.043 C 
ATOM     10  C   UNL A   1      33.334  26.005  25.941  1.00  0.00    -0.030 C 
BRANCH   6  11
ATOM     11  C   UNL A   1      32.445  22.293  25.489  1.00  0.00     0.224 C 
ATOM     12  N   UNL A   1      32.441  21.008  25.077  1.00  0.00    -0.352 N 
ATOM     13  H   UNL A   1      32.626  20.358  25.793  1.00  0.00     0.163 HD
ATOM     14  O   UNL A   1      32.430  22.437  26.720  1.00  0.00    -0.275 OA
BRANCH  12  15
ATOM     15  C   UNL A   1      32.221  20.413  23.794  1.00  0.00     0.155 C 
BRANCH  15  16
ATOM     16  C   UNL A   1      32.605  18.994  23.758  1.00  0.00     0.009 A 
ATOM     17  N   UNL A   1      33.152  16.970  24.396  1.00  0.00    -0.273 N 
ATOM     18  C   UNL A   1      32.761  18.186  24.864  1.00  0.00     0.114 A 
ATOM     19  N   UNL A   1      33.199  16.901  23.056  1.00  0.00    -0.181 NA
ATOM     20  C   UNL A   1      32.857  18.133  22.667  1.00  0.00     0.140 A 
BRANCH  17  21
ATOM     21  C   UNL A   1      33.590  15.854  25.207  1.00  0.00     0.141 C 
ATOM     22  C   UNL A   1      32.408  15.011  25.651  1.00  0.00     0.029 C 
ENDBRANCH  17  21
ENDBRANCH  15  16
ENDBRANCH  12  15
ENDBRANCH   6  11
ENDBRANCH   3   5
ENDBRANCH   2   3
ENDBRANCH   1   2
BRANCH   1  23
ATOM     23  C   UNL A   1      37.443  21.063  25.648  1.00  0.00     0.275 C 
BRANCH  23  24
ATOM     24  O   UNL A   1      38.177  22.281  25.777  1.00  0.00    -0.458 OA
BRANCH  24  25
ATOM     25  C   UNL A   1      39.354  22.136  26.414  1.00  0.00     0.338 C 
ATOM     26  O   UNL A   1      39.844  21.088  26.834  1.00  0.00    -0.246 OA
BRANCH  25  27
ATOM     27  C   UNL A   1      39.944  23.420  26.734  1.00  0.00     0.060 A 
ATOM     28  C   UNL A   1      41.174  23.423  27.404  1.00  0.00     0.016 A 
ATOM     29  C   UNL A   1      39.137  24.558  26.636  1.00  0.00     0.016 A 
ATOM     30  C   UNL A   1      41.547  24.559  28.086  1.00  0.00     0.010 A 
ATOM     31  C   UNL A   1      39.500  25.679  27.337  1.00  0.00     0.010 A 
ATOM     32  C   UNL A   1      40.675  25.650  28.091  1.00  0.00    -0.014 A 
BRANCH  32  33
ATOM     33  C   UNL A   1      41.066  26.836  28.821  1.00  0.00     0.031 A 
ATOM     34  C   UNL A   1      42.225  27.544  28.230  1.00  0.00     0.074 A 
ATOM     35  C   UNL A   1      40.308  27.337  29.812  1.00  0.00     0.049 A 
ATOM     36  N   UNL A   1      43.370  27.800  28.768  1.00  0.00    -0.248 NA
ATOM     37  C   UNL A   1      42.142  27.895  26.802  1.00  0.00     0.031 C 
ATOM     38  C   UNL A   1      38.973  26.893  30.221  1.00  0.00     0.029 A 
ATOM     39  N   UNL A   1      40.514  28.450  30.564  1.00  0.00    -0.354 N 
ATOM     40  C   UNL A   1      44.069  28.537  27.817  1.00  0.00     0.074 A 
ATOM     41  C   UNL A   1      43.356  28.392  26.578  1.00  0.00     0.031 C 
ATOM     42  C   UNL A   1      38.403  27.860  30.975  1.00  0.00     0.029 A 
ATOM     43  C   UNL A   1      39.368  28.929  31.183  1.00  0.00     0.049 A 
ATOM     44  H   UNL A   1      41.394  28.878  30.661  1.00  0.00     0.167 HD
ATOM     45  C   UNL A   1      45.037  29.424  28.172  1.00  0.00     0.037 A 
ATOM     46  C   UNL A   1      39.207  30.160  31.731  1.00  0.00     0.037 A 
ATOM     47  C   UNL A   1      45.513  29.177  29.508  1.00  0.00     0.049 A 
ATOM     48  C   UNL A   1      40.564  30.729  31.954  1.00  0.00     0.074 A 
ATOM     49  C   UNL A   1      46.086  28.093  30.146  1.00  0.00     0.029 A 
ATOM     50  N   UNL A   1      45.099  30.027  30.504  1.00  0.00    -0.354 N 
ATOM     51  N   UNL A   1      41.422  30.276  32.828  1.00  0.00    -0.248 NA
ATOM     52  C   UNL A   1      41.133  31.571  30.911  1.00  0.00     0.031 C 
ATOM     53  C   UNL A   1      45.582  28.133  31.477  1.00  0.00     0.029 A 
ATOM     54  C   UNL A   1      44.764  29.259  31.589  1.00  0.00     0.049 A 
ATOM     55  H   UNL A   1      45.051  31.009  30.449  1.00  0.00     0.167 HD
ATOM     56  C   UNL A   1      42.662  30.422  32.221  1.00  0.00     0.074 A 
ATOM     57  C   UNL A   1      42.431  31.326  31.101  1.00  0.00     0.031 C 
ATOM     58  C   UNL A   1      43.697  29.579  32.512  1.00  0.00     0.037 A 
BRANCH  45  59
ATOM     59  C   UNL A   1      45.277  30.729  27.450  1.00  0.00     0.058 A 
ATOM     60  C   UNL A   1      46.556  30.997  26.923  1.00  0.00     0.135 A 
ATOM     61  C   UNL A   1      44.395  31.833  27.501  1.00  0.00     0.135 A 
ATOM     62  F   UNL A   1      47.478  30.023  26.836  1.00  0.00    -0.206 F 
ATOM     63  C   UNL A   1      46.956  32.280  26.553  1.00  0.00     0.059 A 
ATOM     64  C   UNL A   1      44.753  33.107  27.078  1.00  0.00     0.059 A 
ATOM     65  F   UNL A   1      43.182  31.762  28.059  1.00  0.00    -0.206 F 
ATOM     66  C   UNL A   1      46.050  33.332  26.653  1.00  0.00     0.060 A 
BRANCH  66  67
ATOM     67  S   UNL A   1      46.593  35.011  26.302  1.00  0.00     0.124 S 
ATOM     68  O   UNL A   1      47.326  34.820  25.056  1.00  0.00    -0.237 OA
ATOM     69  O   UNL A   1      45.325  35.725  26.197  1.00  0.00    -0.237 OA
ATOM     70  O   UNL A   1      47.402  35.352  27.469  1.00  0.00    -0.744 OA
ENDBRANCH  66  67
ENDBRANCH  45  59
BRANCH  46  71
ATOM     71  C   UNL A   1      37.975  30.989  31.786  1.00  0.00     0.058 A 
ATOM     72  C   UNL A   1      37.364  31.290  33.016  1.00  0.00     0.135 A 
ATOM     73  C   UNL A   1      37.517  31.723  30.671  1.00  0.00     0.135 A 
ATOM     74  F   UNL A   1      37.751  30.659  34.134  1.00  0.00    -0.206 F 
ATOM     75  C   UNL A   1      36.396  32.291  33.143  1.00  0.00     0.059 A 
ATOM     76  C   UNL A   1      36.538  32.710  30.770  1.00  0.00     0.059 A 
ATOM     77  F   UNL A   1      38.074  31.575  29.461  1.00  0.00    -0.206 F 
ATOM     78  C   UNL A   1      36.002  33.009  32.015  1.00  0.00     0.060 A 
BRANCH  78  79
ATOM     79  S   UNL A   1      34.891  34.423  32.203  1.00  0.00     0.124 S 
ATOM     80  O   UNL A   1      35.719  35.359  32.955  1.00  0.00    -0.237 OA
ATOM     81  O   UNL A   1      34.616  34.784  30.817  1.00  0.00    -0.237 OA
ATOM     82  O   UNL A   1      33.756  33.866  32.934  1.00  0.00    -0.744 OA
ENDBRANCH  78  79
ENDBRANCH  46  71
BRANCH  58  83
ATOM     83  C   UNL A   1      43.606  28.737  33.756  1.00  0.00     0.058 A 
ATOM     84  C   UNL A   1      43.957  29.177  35.044  1.00  0.00     0.135 A 
ATOM     85  C   UNL A   1      42.991  27.479  33.653  1.00  0.00     0.135 A 
ATOM     86  F   UNL A   1      44.449  30.408  35.244  1.00  0.00    -0.206 F 
ATOM     87  C   UNL A   1      43.745  28.382  36.173  1.00  0.00     0.059 A 
ATOM     88  C   UNL A   1      42.739  26.685  34.768  1.00  0.00     0.059 A 
ATOM     89  F   UNL A   1      42.576  27.029  32.457  1.00  0.00    -0.206 F 
ATOM     90  C   UNL A   1      43.132  27.139  36.025  1.00  0.00     0.060 A 
BRANCH  90  91
ATOM     91  S   UNL A   1      42.776  26.150  37.494  1.00  0.00     0.124 S 
ATOM     92  O   UNL A   1      41.351  26.399  37.691  1.00  0.00    -0.237 OA
ATOM     93  O   UNL A   1      43.131  24.801  37.064  1.00  0.00    -0.237 OA
ATOM     94  O   UNL A   1      43.655  26.721  38.511  1.00  0.00    -0.744 OA
ENDBRANCH  90  91
ENDBRANCH  58  83
ENDBRANCH  32  33
ENDBRANCH  25  27
ENDBRANCH  24  25
ENDBRANCH  23  24
ENDBRANCH   1  23
TORSDOF 18
ENDMDL
MODEL 2
REMARK VINA RESULT:     -11.2      3.678      9.835
REMARK SMILES CCn1cc(CNC(=O)[C@H]2CC=CC[C@H]2C(=O)OCCOC(=O)c2ccc(-c3c4nc(c(-c5c(F)cc(S(=O)(=O)[O-])cc5F)c5ccc([nH]5)c(-c5c(F)cc(S(=O)(=O)[O-])cc5F)c5nc(c(-c6c(F)cc(S(=O)(=O)[O-])cc6F)c6ccc3[nH]6)C=C5)C=C4)cc2)cn1
REMARK SMILES IDX 19 1 18 2 16 3 17 4 15 5 10 6 11 7 12 8 14 9 13 10 8 11 7 12
REMARK SMILES IDX 9 14 6 15 5 16 3 17 4 18 91 19 90 20 2 21 1 22 20 23 21 24
REMARK SMILES IDX 22 25 23 26 24 27 25 28 89 29 26 30 88 31 27 32 28 33 29 34
REMARK SMILES IDX 82 35 30 36 87 37 81 38 83 39 31 40 86 41 80 42 79 43 32 45
REMARK SMILES IDX 66 46 45 47 65 48 46 49 49 50 64 51 84 52 47 53 48 54 63 56
REMARK SMILES IDX 85 57 50 58 33 59 34 60 43 61 35 62 36 63 42 64 44 65 37 66
REMARK SMILES IDX 38 67 39 68 40 69 41 70 67 71 68 72 77 73 69 74 70 75 76 76
REMARK SMILES IDX 78 77 71 78 72 79 73 80 74 81 75 82 51 83 52 84 61 85 53 86
REMARK SMILES IDX 54 87 60 88 62 89 55 90 56 91 57 92 58 93 59 94
REMARK H PARENT 7 13 83 44 49 55
REMARK Flexibility Score: inf
ROOT
ATOM      1  C   UNL A   1      33.657  28.785  25.335  1.00  0.00     0.274 C 
ENDROOT
BRANCH   1   2
ATOM      2  O   UNL A   1      33.460  27.675  26.229  1.00  0.00    -0.462 OA
BRANCH   2   3
ATOM      3  C   UNL A   1      33.552  26.429  25.707  1.00  0.00     0.310 C 
ATOM      4  O   UNL A   1      34.345  26.116  24.824  1.00  0.00    -0.252 OA
BRANCH   3   5
ATOM      5  C   UNL A   1      32.531  25.442  26.265  1.00  0.00     0.115 C 
ATOM      6  C   UNL A   1      31.075  25.471  25.750  1.00  0.00     0.096 C 
ATOM      7  C   UNL A   1      30.232  24.294  26.277  1.00  0.00     0.041 C 
ATOM      8  C   UNL A   1      30.941  22.981  26.267  1.00  0.00    -0.030 C 
ATOM      9  C   UNL A   1      33.195  24.051  26.330  1.00  0.00     0.043 C 
ATOM     10  C   UNL A   1      32.273  22.876  26.285  1.00  0.00    -0.030 C 
BRANCH   6  11
ATOM     11  C   UNL A   1      30.654  25.744  24.302  1.00  0.00     0.224 C 
ATOM     12  N   UNL A   1      30.553  26.959  23.725  1.00  0.00    -0.352 N 
ATOM     13  H   UNL A   1      30.595  26.940  22.742  1.00  0.00     0.163 HD
ATOM     14  O   UNL A   1      30.533  24.792  23.518  1.00  0.00    -0.275 OA
BRANCH  12  15
ATOM     15  C   UNL A   1      30.398  28.272  24.275  1.00  0.00     0.155 C 
BRANCH  15  16
ATOM     16  C   UNL A   1      29.923  29.246  23.280  1.00  0.00     0.009 A 
ATOM     17  N   UNL A   1      29.059  31.048  22.382  1.00  0.00    -0.273 N 
ATOM     18  C   UNL A   1      29.405  30.490  23.573  1.00  0.00     0.114 A 
ATOM     19  N   UNL A   1      29.374  30.288  21.321  1.00  0.00    -0.181 NA
ATOM     20  C   UNL A   1      29.910  29.193  21.869  1.00  0.00     0.140 A 
BRANCH  17  21
ATOM     21  C   UNL A   1      28.326  32.285  22.210  1.00  0.00     0.141 C 
ATOM     22  C   UNL A   1      27.897  32.464  20.765  1.00  0.00     0.029 C 
ENDBRANCH  17  21
ENDBRANCH  15  16
ENDBRANCH  12  15
ENDBRANCH   6  11
ENDBRANCH   3   5
ENDBRANCH   2   3
ENDBRANCH   1   2
BRANCH   1  23
ATOM     23  C   UNL A   1      33.241  30.091  25.995  1.00  0.00     0.275 C 
BRANCH  23  24
ATOM     24  O   UNL A   1      33.649  30.141  27.363  1.00  0.00    -0.458 OA
BRANCH  24  25
ATOM     25  C   UNL A   1      34.402  31.216  27.661  1.00  0.00     0.338 C 
ATOM     26  O   UNL A   1      34.213  32.377  27.298  1.00  0.00    -0.246 OA
BRANCH  25  27
ATOM     27  C   UNL A   1      35.623  30.833  28.341  1.00  0.00     0.060 A 
ATOM     28  C   UNL A   1      36.566  31.837  28.601  1.00  0.00     0.016 A 
ATOM     29  C   UNL A   1      35.928  29.472  28.431  1.00  0.00     0.016 A 
ATOM     30  C   UNL A   1      37.869  31.466  28.842  1.00  0.00     0.010 A 
ATOM     31  C   UNL A   1      37.232  29.107  28.647  1.00  0.00     0.010 A 
ATOM     32  C   UNL A   1      38.193  30.107  28.802  1.00  0.00    -0.014 A 
BRANCH  32  33
ATOM     33  C   UNL A   1      39.567  29.724  29.042  1.00  0.00     0.031 A 
ATOM     34  C   UNL A   1      39.934  29.687  30.477  1.00  0.00     0.074 A 
ATOM     35  C   UNL A   1      40.352  29.253  28.056  1.00  0.00     0.049 A 
ATOM     36  N   UNL A   1      40.847  30.361  31.091  1.00  0.00    -0.248 NA
ATOM     37  C   UNL A   1      39.075  28.889  31.369  1.00  0.00     0.031 C 
ATOM     38  C   UNL A   1      39.957  28.931  26.683  1.00  0.00     0.029 A 
ATOM     39  N   UNL A   1      41.638  28.822  28.123  1.00  0.00    -0.354 N 
ATOM     40  C   UNL A   1      40.820  29.907  32.406  1.00  0.00     0.074 A 
ATOM     41  C   UNL A   1      39.600  29.165  32.561  1.00  0.00     0.031 C 
ATOM     42  C   UNL A   1      40.909  28.149  26.127  1.00  0.00     0.029 A 
ATOM     43  C   UNL A   1      42.014  28.010  27.062  1.00  0.00     0.049 A 
ATOM     44  H   UNL A   1      42.249  29.063  28.856  1.00  0.00     0.167 HD
ATOM     45  C   UNL A   1      41.924  29.954  33.199  1.00  0.00     0.037 A 
ATOM     46  C   UNL A   1      43.106  27.206  27.015  1.00  0.00     0.037 A 
ATOM     47  C   UNL A   1      42.902  30.876  32.686  1.00  0.00     0.049 A 
ATOM     48  C   UNL A   1      44.046  27.668  28.072  1.00  0.00     0.074 A 
ATOM     49  C   UNL A   1      42.897  32.225  32.387  1.00  0.00     0.029 A 
ATOM     50  N   UNL A   1      44.011  30.355  32.065  1.00  0.00    -0.354 N 
ATOM     51  N   UNL A   1      44.685  28.806  28.049  1.00  0.00    -0.248 NA
ATOM     52  C   UNL A   1      43.974  27.029  29.379  1.00  0.00     0.031 C 
ATOM     53  C   UNL A   1      43.734  32.358  31.242  1.00  0.00     0.029 A 
ATOM     54  C   UNL A   1      44.233  31.092  30.931  1.00  0.00     0.049 A 
ATOM     55  H   UNL A   1      44.548  29.591  32.377  1.00  0.00     0.167 HD
ATOM     56  C   UNL A   1      44.726  29.222  29.373  1.00  0.00     0.074 A 
ATOM     57  C   UNL A   1      44.379  28.039  30.151  1.00  0.00     0.031 C 
ATOM     58  C   UNL A   1      44.760  30.548  29.698  1.00  0.00     0.037 A 
BRANCH  45  59
ATOM     59  C   UNL A   1      42.260  28.893  34.222  1.00  0.00     0.058 A 
ATOM     60  C   UNL A   1      42.620  27.605  33.781  1.00  0.00     0.135 A 
ATOM     61  C   UNL A   1      41.973  29.008  35.601  1.00  0.00     0.135 A 
ATOM     62  F   UNL A   1      42.905  27.378  32.488  1.00  0.00    -0.206 F 
ATOM     63  C   UNL A   1      42.614  26.498  34.630  1.00  0.00     0.059 A 
ATOM     64  C   UNL A   1      42.022  27.931  36.477  1.00  0.00     0.059 A 
ATOM     65  F   UNL A   1      41.528  30.142  36.153  1.00  0.00    -0.206 F 
ATOM     66  C   UNL A   1      42.295  26.671  35.973  1.00  0.00     0.060 A 
BRANCH  66  67
ATOM     67  S   UNL A   1      42.157  25.234  37.048  1.00  0.00     0.124 S 
ATOM     68  O   UNL A   1      41.189  25.706  38.031  1.00  0.00    -0.237 OA
ATOM     69  O   UNL A   1      41.686  24.207  36.126  1.00  0.00    -0.237 OA
ATOM     70  O   UNL A   1      43.520  25.052  37.537  1.00  0.00    -0.744 OA
ENDBRANCH  66  67
ENDBRANCH  45  59
BRANCH  46  71
ATOM     71  C   UNL A   1      43.253  25.892  26.335  1.00  0.00     0.058 A 
ATOM     72  C   UNL A   1      44.206  25.712  25.317  1.00  0.00     0.135 A 
ATOM     73  C   UNL A   1      42.655  24.718  26.839  1.00  0.00     0.135 A 
ATOM     74  F   UNL A   1      44.843  26.769  24.793  1.00  0.00    -0.206 F 
ATOM     75  C   UNL A   1      44.580  24.443  24.862  1.00  0.00     0.059 A 
ATOM     76  C   UNL A   1      42.996  23.446  26.385  1.00  0.00     0.059 A 
ATOM     77  F   UNL A   1      41.786  24.759  27.859  1.00  0.00    -0.206 F 
ATOM     78  C   UNL A   1      43.981  23.313  25.417  1.00  0.00     0.060 A 
BRANCH  78  79
ATOM     79  S   UNL A   1      44.590  21.672  24.966  1.00  0.00     0.124 S 
ATOM     80  O   UNL A   1      44.623  21.752  23.510  1.00  0.00    -0.237 OA
ATOM     81  O   UNL A   1      45.886  21.631  25.634  1.00  0.00    -0.237 OA
ATOM     82  O   UNL A   1      43.580  20.773  25.519  1.00  0.00    -0.744 OA
ENDBRANCH  78  79
ENDBRANCH  46  71
BRANCH  58  83
ATOM     83  C   UNL A   1      45.132  31.538  28.628  1.00  0.00     0.058 A 
ATOM     84  C   UNL A   1      44.209  32.210  27.806  1.00  0.00     0.135 A 
ATOM     85  C   UNL A   1      46.476  31.935  28.540  1.00  0.00     0.135 A 
ATOM     86  F   UNL A   1      42.894  31.969  27.903  1.00  0.00    -0.206 F 
ATOM     87  C   UNL A   1      44.613  33.199  26.907  1.00  0.00     0.059 A 
ATOM     88  C   UNL A   1      46.896  32.942  27.677  1.00  0.00     0.059 A 
ATOM     89  F   UNL A   1      47.396  31.375  29.344  1.00  0.00    -0.206 F 
ATOM     90  C   UNL A   1      45.959  33.561  26.853  1.00  0.00     0.060 A 
BRANCH  90  91
ATOM     91  S   UNL A   1      46.467  34.903  25.756  1.00  0.00     0.124 S 
ATOM     92  O   UNL A   1      45.867  36.068  26.400  1.00  0.00    -0.237 OA
ATOM     93  O   UNL A   1      47.924  34.827  25.813  1.00  0.00    -0.237 OA
ATOM     94  O   UNL A   1      45.884  34.532  24.470  1.00  0.00    -0.744 OA
ENDBRANCH  90  91
ENDBRANCH  58  83
ENDBRANCH  32  33
ENDBRANCH  25  27
ENDBRANCH  24  25
ENDBRANCH  23  24
ENDBRANCH   1  23
TORSDOF 18
ENDMDL
MODEL 3
REMARK VINA RESULT:     -11.1      2.894      8.976
REMARK SMILES CCn1cc(CNC(=O)[C@H]2CC=CC[C@H]2C(=O)OCCOC(=O)c2ccc(-c3c4nc(c(-c5c(F)cc(S(=O)(=O)[O-])cc5F)c5ccc([nH]5)c(-c5c(F)cc(S(=O)(=O)[O-])cc5F)c5nc(c(-c6c(F)cc(S(=O)(=O)[O-])cc6F)c6ccc3[nH]6)C=C5)C=C4)cc2)cn1
REMARK SMILES IDX 19 1 18 2 16 3 17 4 15 5 10 6 11 7 12 8 14 9 13 10 8 11 7 12
REMARK SMILES IDX 9 14 6 15 5 16 3 17 4 18 91 19 90 20 2 21 1 22 20 23 21 24
REMARK SMILES IDX 22 25 23 26 24 27 25 28 89 29 26 30 88 31 27 32 28 33 29 34
REMARK SMILES IDX 82 35 30 36 87 37 81 38 83 39 31 40 86 41 80 42 79 43 32 45
REMARK SMILES IDX 66 46 45 47 65 48 46 49 49 50 64 51 84 52 47 53 48 54 63 56
REMARK SMILES IDX 85 57 50 58 33 59 34 60 43 61 35 62 36 63 42 64 44 65 37 66
REMARK SMILES IDX 38 67 39 68 40 69 41 70 67 71 68 72 77 73 69 74 70 75 76 76
REMARK SMILES IDX 78 77 71 78 72 79 73 80 74 81 75 82 51 83 52 84 61 85 53 86
REMARK SMILES IDX 54 87 60 88 62 89 55 90 56 91 57 92 58 93 59 94
REMARK H PARENT 7 13 83 44 49 55
REMARK Flexibility Score: inf
ROOT
ATOM      1  C   UNL A   1      33.292  29.675  25.824  1.00  0.00     0.274 C 
ENDROOT
BRANCH   1   2
ATOM      2  O   UNL A   1      32.400  28.575  26.076  1.00  0.00    -0.462 OA
BRANCH   2   3
ATOM      3  C   UNL A   1      32.801  27.343  25.682  1.00  0.00     0.310 C 
ATOM      4  O   UNL A   1      33.827  26.799  26.081  1.00  0.00    -0.252 OA
BRANCH   3   5
ATOM      5  C   UNL A   1      31.897  26.697  24.636  1.00  0.00     0.115 C 
ATOM      6  C   UNL A   1      31.626  25.178  24.689  1.00  0.00     0.096 C 
ATOM      7  C   UNL A   1      30.551  24.728  23.681  1.00  0.00     0.041 C 
ATOM      8  C   UNL A   1      29.371  25.637  23.599  1.00  0.00    -0.030 C 
ATOM      9  C   UNL A   1      30.658  27.598  24.453  1.00  0.00     0.043 C 
ATOM     10  C   UNL A   1      29.421  26.924  23.953  1.00  0.00    -0.030 C 
BRANCH   6  11
ATOM     11  C   UNL A   1      31.448  24.355  25.970  1.00  0.00     0.224 C 
ATOM     12  N   UNL A   1      32.352  23.499  26.491  1.00  0.00    -0.352 N 
ATOM     13  H   UNL A   1      32.224  23.317  27.450  1.00  0.00     0.163 HD
ATOM     14  O   UNL A   1      30.471  24.577  26.700  1.00  0.00    -0.275 OA
BRANCH  12  15
ATOM     15  C   UNL A   1      33.462  22.807  25.910  1.00  0.00     0.155 C 
BRANCH  15  16
ATOM     16  C   UNL A   1      33.042  21.692  25.048  1.00  0.00     0.009 A 
ATOM     17  N   UNL A   1      32.524  19.678  24.357  1.00  0.00    -0.273 N 
ATOM     18  C   UNL A   1      32.884  20.386  25.461  1.00  0.00     0.114 A 
ATOM     19  N   UNL A   1      32.367  20.437  23.261  1.00  0.00    -0.181 NA
ATOM     20  C   UNL A   1      32.675  21.667  23.685  1.00  0.00     0.140 A 
BRANCH  17  21
ATOM     21  C   UNL A   1      32.408  18.237  24.278  1.00  0.00     0.141 C 
ATOM     22  C   UNL A   1      32.658  17.599  25.633  1.00  0.00     0.029 C 
ENDBRANCH  17  21
ENDBRANCH  15  16
ENDBRANCH  12  15
ENDBRANCH   6  11
ENDBRANCH   3   5
ENDBRANCH   2   3
ENDBRANCH   1   2
BRANCH   1  23
ATOM     23  C   UNL A   1      33.150  30.744  26.897  1.00  0.00     0.275 C 
BRANCH  23  24
ATOM     24  O   UNL A   1      34.051  30.522  27.982  1.00  0.00    -0.458 OA
BRANCH  24  25
ATOM     25  C   UNL A   1      35.034  31.438  28.062  1.00  0.00     0.338 C 
ATOM     26  O   UNL A   1      35.035  32.567  27.571  1.00  0.00    -0.246 OA
BRANCH  25  27
ATOM     27  C   UNL A   1      36.229  30.881  28.661  1.00  0.00     0.060 A 
ATOM     28  C   UNL A   1      37.158  31.773  29.213  1.00  0.00     0.016 A 
ATOM     29  C   UNL A   1      36.535  29.543  28.398  1.00  0.00     0.016 A 
ATOM     30  C   UNL A   1      38.453  31.343  29.396  1.00  0.00     0.010 A 
ATOM     31  C   UNL A   1      37.832  29.124  28.557  1.00  0.00     0.010 A 
ATOM     32  C   UNL A   1      38.783  30.041  29.009  1.00  0.00    -0.014 A 
BRANCH  32  33
ATOM     33  C   UNL A   1      40.148  29.599  29.190  1.00  0.00     0.031 A 
ATOM     34  C   UNL A   1      40.563  29.513  30.610  1.00  0.00     0.074 A 
ATOM     35  C   UNL A   1      40.878  29.122  28.166  1.00  0.00     0.049 A 
ATOM     36  N   UNL A   1      41.524  30.135  31.206  1.00  0.00    -0.248 NA
ATOM     37  C   UNL A   1      39.705  28.727  31.514  1.00  0.00     0.031 C 
ATOM     38  C   UNL A   1      40.422  28.849  26.801  1.00  0.00     0.029 A 
ATOM     39  N   UNL A   1      42.148  28.639  28.177  1.00  0.00    -0.354 N 
ATOM     40  C   UNL A   1      41.525  29.651  32.510  1.00  0.00     0.074 A 
ATOM     41  C   UNL A   1      40.282  28.954  32.692  1.00  0.00     0.031 C 
ATOM     42  C   UNL A   1      41.322  28.044  26.193  1.00  0.00     0.029 A 
ATOM     43  C   UNL A   1      42.453  27.839  27.084  1.00  0.00     0.049 A 
ATOM     44  H   UNL A   1      42.793  28.838  28.892  1.00  0.00     0.167 HD
ATOM     45  C   UNL A   1      42.657  29.635  33.264  1.00  0.00     0.037 A 
ATOM     46  C   UNL A   1      43.509  26.994  26.979  1.00  0.00     0.037 A 
ATOM     47  C   UNL A   1      43.653  30.530  32.737  1.00  0.00     0.049 A 
ATOM     48  C   UNL A   1      44.504  27.394  28.012  1.00  0.00     0.074 A 
ATOM     49  C   UNL A   1      43.691  31.885  32.469  1.00  0.00     0.029 A 
ATOM     50  N   UNL A   1      44.717  29.982  32.064  1.00  0.00    -0.354 N 
ATOM     51  N   UNL A   1      45.187  28.506  27.991  1.00  0.00    -0.248 NA
ATOM     52  C   UNL A   1      44.452  26.726  29.305  1.00  0.00     0.031 C 
ATOM     53  C   UNL A   1      44.492  32.013  31.298  1.00  0.00     0.029 A 
ATOM     54  C   UNL A   1      44.929  30.737  30.940  1.00  0.00     0.049 A 
ATOM     55  H   UNL A   1      45.234  29.190  32.338  1.00  0.00     0.167 HD
ATOM     56  C   UNL A   1      45.291  28.887  29.322  1.00  0.00     0.074 A 
ATOM     57  C   UNL A   1      44.925  27.700  30.086  1.00  0.00     0.031 C 
ATOM     58  C   UNL A   1      45.389  30.203  29.676  1.00  0.00     0.037 A 
BRANCH  45  59
ATOM     59  C   UNL A   1      42.987  28.537  34.248  1.00  0.00     0.058 A 
ATOM     60  C   UNL A   1      43.301  28.880  35.578  1.00  0.00     0.135 A 
ATOM     61  C   UNL A   1      43.282  27.206  33.876  1.00  0.00     0.135 A 
ATOM     62  F   UNL A   1      43.072  30.122  36.037  1.00  0.00    -0.206 F 
ATOM     63  C   UNL A   1      43.935  27.992  36.447  1.00  0.00     0.059 A 
ATOM     64  C   UNL A   1      43.855  26.286  34.745  1.00  0.00     0.059 A 
ATOM     65  F   UNL A   1      43.129  26.755  32.626  1.00  0.00    -0.206 F 
ATOM     66  C   UNL A   1      44.224  26.703  36.013  1.00  0.00     0.060 A 
BRANCH  66  67
ATOM     67  S   UNL A   1      45.156  25.592  37.078  1.00  0.00     0.124 S 
ATOM     68  O   UNL A   1      45.667  24.630  36.108  1.00  0.00    -0.237 OA
ATOM     69  O   UNL A   1      46.141  26.491  37.669  1.00  0.00    -0.237 OA
ATOM     70  O   UNL A   1      44.144  25.086  38.000  1.00  0.00    -0.744 OA
ENDBRANCH  66  67
ENDBRANCH  45  59
BRANCH  46  71
ATOM     71  C   UNL A   1      43.580  25.693  26.264  1.00  0.00     0.058 A 
ATOM     72  C   UNL A   1      44.607  25.434  25.340  1.00  0.00     0.135 A 
ATOM     73  C   UNL A   1      42.806  24.581  26.657  1.00  0.00     0.135 A 
ATOM     74  F   UNL A   1      45.409  26.427  24.927  1.00  0.00    -0.206 F 
ATOM     75  C   UNL A   1      44.884  24.145  24.874  1.00  0.00     0.059 A 
ATOM     76  C   UNL A   1      43.049  23.291  26.189  1.00  0.00     0.059 A 
ATOM     77  F   UNL A   1      41.845  24.691  27.586  1.00  0.00    -0.206 F 
ATOM     78  C   UNL A   1      44.109  23.076  25.319  1.00  0.00     0.060 A 
BRANCH  78  79
ATOM     79  S   UNL A   1      44.576  21.389  24.865  1.00  0.00     0.124 S 
ATOM     80  O   UNL A   1      45.875  21.251  25.514  1.00  0.00    -0.237 OA
ATOM     81  O   UNL A   1      43.488  20.604  25.439  1.00  0.00    -0.237 OA
ATOM     82  O   UNL A   1      44.607  21.428  23.406  1.00  0.00    -0.744 OA
ENDBRANCH  78  79
ENDBRANCH  46  71
BRANCH  58  83
ATOM     83  C   UNL A   1      45.763  31.204  28.617  1.00  0.00     0.058 A 
ATOM     84  C   UNL A   1      44.858  31.774  27.703  1.00  0.00     0.135 A 
ATOM     85  C   UNL A   1      47.069  31.719  28.633  1.00  0.00     0.135 A 
ATOM     86  F   UNL A   1      43.566  31.417  27.696  1.00  0.00    -0.206 F 
ATOM     87  C   UNL A   1      45.249  32.779  26.817  1.00  0.00     0.059 A 
ATOM     88  C   UNL A   1      47.470  32.745  27.783  1.00  0.00     0.059 A 
ATOM     89  F   UNL A   1      47.962  31.259  29.525  1.00  0.00    -0.206 F 
ATOM     90  C   UNL A   1      46.557  33.261  26.867  1.00  0.00     0.060 A 
BRANCH  90  91
ATOM     91  S   UNL A   1      47.036  34.624  25.783  1.00  0.00     0.124 S 
ATOM     92  O   UNL A   1      48.353  34.198  25.320  1.00  0.00    -0.237 OA
ATOM     93  O   UNL A   1      45.978  34.619  24.777  1.00  0.00    -0.237 OA
ATOM     94  O   UNL A   1      47.032  35.784  26.670  1.00  0.00    -0.744 OA
ENDBRANCH  90  91
ENDBRANCH  58  83
ENDBRANCH  32  33
ENDBRANCH  25  27
ENDBRANCH  24  25
ENDBRANCH  23  24
ENDBRANCH   1  23
TORSDOF 18
ENDMDL
