MODEL 1
REMARK VINA RESULT:     -12.3      0.000      0.000
REMARK SMILES O=C(COc1ccc(/C=C2\SC(=O)N(Cc3cc4c(cc3Cl)OCO4)C2=O)cc1)OCCOC(=O)c1ccc(-c2c3nc(c(-c4c(F)cc(S(=O)(=O)[O-])cc4F)c4ccc([nH]4)c(-c4c(F)cc(S(=O)(=O)[O-])cc4F)c4nc(c(-c5c(F)cc(S(=O)(=O)[O-])cc5F)c5ccc2[nH]5)C=C4)C=C3)cc1
REMARK SMILES IDX 31 1 30 2 2 3 1 4 3 5 4 6 5 7 6 8 29 9 7 10 28 11 8 12 9 13
REMARK SMILES IDX 10 14 11 15 26 16 12 17 14 18 27 19 13 20 15 21 16 22 17 23
REMARK SMILES IDX 21 24 18 25 20 26 22 27 19 28 25 29 23 30 24 31 32 32 33 33
REMARK SMILES IDX 34 34 35 35 36 36 37 37 101 38 38 39 100 40 39 41 40 42
REMARK SMILES IDX 41 43 94 44 42 45 99 46 93 47 95 48 43 49 98 50 92 51 91 52
REMARK SMILES IDX 44 54 78 55 57 56 77 57 58 58 61 59 76 60 96 61 59 62 60 63
REMARK SMILES IDX 75 65 97 66 62 67 45 68 46 69 55 70 47 71 48 72 54 73 56 74
REMARK SMILES IDX 49 75 50 76 51 77 52 78 53 79 79 80 80 81 89 82 81 83 82 84
REMARK SMILES IDX 88 85 90 86 83 87 84 88 85 89 86 90 87 91 63 92 64 93 73 94
REMARK SMILES IDX 65 95 66 96 72 97 74 98 67 99 68 100 69 101 70 102 71 103
REMARK H PARENT 95 53 61 64
REMARK Flexibility Score: inf
ROOT
ATOM      1  C   UNL A   1      35.470  33.517  31.535  1.00  0.00     0.274 C 
ENDROOT
BRANCH   1   2
ATOM      2  O   UNL A   1      35.223  34.079  30.231  1.00  0.00    -0.460 OA
BRANCH   2   3
ATOM      3  C   UNL A   1      34.000  34.073  29.645  1.00  0.00     0.344 C 
ATOM      4  O   UNL A   1      33.077  34.718  30.141  1.00  0.00    -0.248 OA
BRANCH   3   5
ATOM      5  C   UNL A   1      33.829  33.316  28.327  1.00  0.00     0.351 C 
BRANCH   5   6
ATOM      6  O   UNL A   1      34.900  32.445  27.966  1.00  0.00    -0.482 OA
BRANCH   6   7
ATOM      7  C   UNL A   1      34.393  31.221  27.634  1.00  0.00     0.120 A 
ATOM      8  C   UNL A   1      33.057  31.131  27.244  1.00  0.00     0.047 A 
ATOM      9  C   UNL A   1      35.209  30.096  27.671  1.00  0.00     0.047 A 
ATOM     10  C   UNL A   1      32.543  29.897  26.837  1.00  0.00     0.012 A 
ATOM     11  C   UNL A   1      34.715  28.888  27.226  1.00  0.00     0.012 A 
ATOM     12  C   UNL A   1      33.378  28.778  26.830  1.00  0.00    -0.024 A 
BRANCH  12  13
ATOM     13  C   UNL A   1      32.931  27.450  26.435  1.00  0.00     0.029 C 
ATOM     14  C   UNL A   1      32.931  27.049  25.159  1.00  0.00     0.083 C 
ATOM     15  S   UNL A   1      33.658  27.776  23.779  1.00  0.00    -0.022 SA
ATOM     16  C   UNL A   1      32.252  25.807  24.756  1.00  0.00     0.268 C 
ATOM     17  C   UNL A   1      33.411  26.329  22.816  1.00  0.00     0.293 C 
ATOM     18  N   UNL A   1      32.772  25.382  23.565  1.00  0.00    -0.264 N 
ATOM     19  O   UNL A   1      31.304  25.326  25.358  1.00  0.00    -0.268 OA
ATOM     20  O   UNL A   1      33.754  26.242  21.646  1.00  0.00    -0.261 OA
BRANCH  18  21
ATOM     21  C   UNL A   1      32.581  24.025  23.109  1.00  0.00     0.167 C 
BRANCH  21  22
ATOM     22  C   UNL A   1      33.568  23.102  23.809  1.00  0.00    -0.005 A 
ATOM     23  C   UNL A   1      34.925  23.158  23.432  1.00  0.00     0.057 A 
ATOM     24  C   UNL A   1      33.193  22.234  24.871  1.00  0.00     0.050 A 
ATOM     25  C   UNL A   1      35.823  22.350  24.098  1.00  0.00     0.166 A 
ATOM     26  C   UNL A   1      34.143  21.502  25.588  1.00  0.00     0.071 A 
ATOM     27  Cl  UNL A   1      31.553  21.931  25.304  1.00  0.00    -0.084 Cl
ATOM     28  C   UNL A   1      35.444  21.564  25.160  1.00  0.00     0.167 A 
ATOM     29  O   UNL A   1      37.143  22.201  23.801  1.00  0.00    -0.454 OA
ATOM     30  O   UNL A   1      36.477  20.845  25.671  1.00  0.00    -0.454 OA
ATOM     31  C   UNL A   1      37.486  21.108  24.680  1.00  0.00     0.468 C 
ENDBRANCH  21  22
ENDBRANCH  18  21
ENDBRANCH  12  13
ENDBRANCH   6   7
ENDBRANCH   5   6
ENDBRANCH   3   5
ENDBRANCH   2   3
ENDBRANCH   1   2
BRANCH   1  32
ATOM     32  C   UNL A   1      35.463  31.988  31.473  1.00  0.00     0.275 C 
BRANCH  32  33
ATOM     33  O   UNL A   1      36.590  31.518  30.709  1.00  0.00    -0.458 OA
BRANCH  33  34
ATOM     34  C   UNL A   1      37.021  30.257  30.972  1.00  0.00     0.338 C 
ATOM     35  O   UNL A   1      36.361  29.343  31.431  1.00  0.00    -0.246 OA
BRANCH  34  36
ATOM     36  C   UNL A   1      38.377  30.105  30.390  1.00  0.00     0.060 A 
ATOM     37  C   UNL A   1      38.522  30.113  28.995  1.00  0.00     0.016 A 
ATOM     38  C   UNL A   1      39.505  30.022  31.211  1.00  0.00     0.016 A 
ATOM     39  C   UNL A   1      39.793  30.021  28.419  1.00  0.00     0.010 A 
ATOM     40  C   UNL A   1      40.771  29.916  30.635  1.00  0.00     0.010 A 
ATOM     41  C   UNL A   1      40.922  29.892  29.238  1.00  0.00    -0.014 A 
BRANCH  41  42
ATOM     42  C   UNL A   1      42.249  29.542  28.677  1.00  0.00     0.031 A 
ATOM     43  C   UNL A   1      42.480  28.120  28.248  1.00  0.00     0.074 A 
ATOM     44  C   UNL A   1      43.256  30.431  28.633  1.00  0.00     0.049 A 
ATOM     45  N   UNL A   1      43.590  27.529  27.893  1.00  0.00    -0.248 NA
ATOM     46  C   UNL A   1      41.297  27.246  28.241  1.00  0.00     0.031 C 
ATOM     47  C   UNL A   1      43.158  31.840  29.003  1.00  0.00     0.029 A 
ATOM     48  N   UNL A   1      44.576  30.261  28.293  1.00  0.00    -0.354 N 
ATOM     49  C   UNL A   1      43.245  26.208  27.639  1.00  0.00     0.074 A 
ATOM     50  C   UNL A   1      41.827  26.081  27.900  1.00  0.00     0.031 C 
ATOM     51  C   UNL A   1      44.378  32.399  28.910  1.00  0.00     0.029 A 
ATOM     52  C   UNL A   1      45.347  31.378  28.505  1.00  0.00     0.049 A 
ATOM     53  H   UNL A   1      44.936  29.419  27.930  1.00  0.00     0.167 HD
ATOM     54  C   UNL A   1      44.037  25.189  27.229  1.00  0.00     0.037 A 
ATOM     55  C   UNL A   1      46.682  31.548  28.424  1.00  0.00     0.037 A 
ATOM     56  C   UNL A   1      45.447  25.313  26.982  1.00  0.00     0.049 A 
ATOM     57  C   UNL A   1      47.559  30.394  28.007  1.00  0.00     0.074 A 
ATOM     58  C   UNL A   1      46.330  24.347  26.533  1.00  0.00     0.029 A 
ATOM     59  N   UNL A   1      46.188  26.469  27.184  1.00  0.00    -0.354 N 
ATOM     60  N   UNL A   1      47.217  29.160  27.725  1.00  0.00    -0.248 NA
ATOM     61  C   UNL A   1      49.003  30.655  27.897  1.00  0.00     0.031 C 
ATOM     62  C   UNL A   1      47.612  24.906  26.509  1.00  0.00     0.029 A 
ATOM     63  C   UNL A   1      47.521  26.235  26.895  1.00  0.00     0.049 A 
ATOM     64  H   UNL A   1      45.819  27.330  27.489  1.00  0.00     0.167 HD
ATOM     65  C   UNL A   1      48.396  28.505  27.378  1.00  0.00     0.074 A 
ATOM     66  C   UNL A   1      49.462  29.479  27.488  1.00  0.00     0.031 C 
ATOM     67  C   UNL A   1      48.574  27.216  26.996  1.00  0.00     0.037 A 
BRANCH  54  68
ATOM     68  C   UNL A   1      43.389  23.843  27.073  1.00  0.00     0.058 A 
ATOM     69  C   UNL A   1      43.162  22.999  28.172  1.00  0.00     0.135 A 
ATOM     70  C   UNL A   1      43.018  23.380  25.801  1.00  0.00     0.135 A 
ATOM     71  F   UNL A   1      43.515  23.388  29.408  1.00  0.00    -0.206 F 
ATOM     72  C   UNL A   1      42.637  21.722  28.009  1.00  0.00     0.059 A 
ATOM     73  C   UNL A   1      42.466  22.117  25.618  1.00  0.00     0.059 A 
ATOM     74  F   UNL A   1      43.215  24.147  24.717  1.00  0.00    -0.206 F 
ATOM     75  C   UNL A   1      42.304  21.286  26.725  1.00  0.00     0.060 A 
BRANCH  75  76
ATOM     76  S   UNL A   1      41.671  19.607  26.518  1.00  0.00     0.124 S 
ATOM     77  O   UNL A   1      42.329  18.914  27.620  1.00  0.00    -0.237 OA
ATOM     78  O   UNL A   1      40.230  19.795  26.656  1.00  0.00    -0.237 OA
ATOM     79  O   UNL A   1      42.127  19.237  25.181  1.00  0.00    -0.744 OA
ENDBRANCH  75  76
ENDBRANCH  54  68
BRANCH  55  80
ATOM     80  C   UNL A   1      47.271  32.871  28.766  1.00  0.00     0.058 A 
ATOM     81  C   UNL A   1      47.455  33.858  27.789  1.00  0.00     0.135 A 
ATOM     82  C   UNL A   1      47.618  33.185  30.090  1.00  0.00     0.135 A 
ATOM     83  F   UNL A   1      47.155  33.598  26.507  1.00  0.00    -0.206 F 
ATOM     84  C   UNL A   1      47.953  35.117  28.111  1.00  0.00     0.059 A 
ATOM     85  C   UNL A   1      48.097  34.443  30.440  1.00  0.00     0.059 A 
ATOM     86  F   UNL A   1      47.454  32.276  31.062  1.00  0.00    -0.206 F 
ATOM     87  C   UNL A   1      48.260  35.405  29.443  1.00  0.00     0.060 A 
BRANCH  87  88
ATOM     88  S   UNL A   1      48.807  37.073  29.866  1.00  0.00     0.124 S 
ATOM     89  O   UNL A   1      48.354  37.835  28.710  1.00  0.00    -0.237 OA
ATOM     90  O   UNL A   1      48.095  37.321  31.116  1.00  0.00    -0.237 OA
ATOM     91  O   UNL A   1      50.254  36.927  30.000  1.00  0.00    -0.744 OA
ENDBRANCH  87  88
ENDBRANCH  55  80
BRANCH  67  92
ATOM     92  C   UNL A   1      49.964  26.770  26.625  1.00  0.00     0.058 A 
ATOM     93  C   UNL A   1      50.836  26.208  27.567  1.00  0.00     0.135 A 
ATOM     94  C   UNL A   1      50.382  26.810  25.284  1.00  0.00     0.135 A 
ATOM     95  F   UNL A   1      50.489  26.151  28.862  1.00  0.00    -0.206 F 
ATOM     96  C   UNL A   1      52.078  25.697  27.193  1.00  0.00     0.059 A 
ATOM     97  C   UNL A   1      51.607  26.286  24.884  1.00  0.00     0.059 A 
ATOM     98  F   UNL A   1      49.580  27.329  24.341  1.00  0.00    -0.206 F 
ATOM     99  C   UNL A   1      52.450  25.733  25.847  1.00  0.00     0.060 A 
BRANCH  99 100
ATOM    100  S   UNL A   1      54.029  25.001  25.364  1.00  0.00     0.124 S 
ATOM    101  O   UNL A   1      54.722  24.919  26.645  1.00  0.00    -0.237 OA
ATOM    102  O   UNL A   1      53.618  23.726  24.782  1.00  0.00    -0.237 OA
ATOM    103  O   UNL A   1      54.576  25.967  24.416  1.00  0.00    -0.744 OA
ENDBRANCH  99 100
ENDBRANCH  67  92
ENDBRANCH  41  42
ENDBRANCH  34  36
ENDBRANCH  33  34
ENDBRANCH  32  33
ENDBRANCH   1  32
TORSDOF 19
ENDMDL
MODEL 2
REMARK VINA RESULT:     -12.3      5.871     12.145
REMARK SMILES O=C(COc1ccc(/C=C2\SC(=O)N(Cc3cc4c(cc3Cl)OCO4)C2=O)cc1)OCCOC(=O)c1ccc(-c2c3nc(c(-c4c(F)cc(S(=O)(=O)[O-])cc4F)c4ccc([nH]4)c(-c4c(F)cc(S(=O)(=O)[O-])cc4F)c4nc(c(-c5c(F)cc(S(=O)(=O)[O-])cc5F)c5ccc2[nH]5)C=C4)C=C3)cc1
REMARK SMILES IDX 31 1 30 2 2 3 1 4 3 5 4 6 5 7 6 8 29 9 7 10 28 11 8 12 9 13
REMARK SMILES IDX 10 14 11 15 26 16 12 17 14 18 27 19 13 20 15 21 16 22 17 23
REMARK SMILES IDX 21 24 18 25 20 26 22 27 19 28 25 29 23 30 24 31 32 32 33 33
REMARK SMILES IDX 34 34 35 35 36 36 37 37 101 38 38 39 100 40 39 41 40 42
REMARK SMILES IDX 41 43 94 44 42 45 99 46 93 47 95 48 43 49 98 50 92 51 91 52
REMARK SMILES IDX 44 54 78 55 57 56 77 57 58 58 61 59 76 60 96 61 59 62 60 63
REMARK SMILES IDX 75 65 97 66 62 67 45 68 46 69 55 70 47 71 48 72 54 73 56 74
REMARK SMILES IDX 49 75 50 76 51 77 52 78 53 79 79 80 80 81 89 82 81 83 82 84
REMARK SMILES IDX 88 85 90 86 83 87 84 88 85 89 86 90 87 91 63 92 64 93 73 94
REMARK SMILES IDX 65 95 66 96 72 97 74 98 67 99 68 100 69 101 70 102 71 103
REMARK H PARENT 95 53 61 64
REMARK Flexibility Score: inf
ROOT
ATOM      1  C   UNL A   1      43.436  22.093  26.101  1.00  0.00     0.274 C 
ENDROOT
BRANCH   1   2
ATOM      2  O   UNL A   1      42.595  21.918  27.258  1.00  0.00    -0.460 OA
BRANCH   2   3
ATOM      3  C   UNL A   1      41.468  21.163  27.243  1.00  0.00     0.344 C 
ATOM      4  O   UNL A   1      41.505  19.996  27.632  1.00  0.00    -0.248 OA
BRANCH   3   5
ATOM      5  C   UNL A   1      40.157  21.822  26.810  1.00  0.00     0.351 C 
BRANCH   5   6
ATOM      6  O   UNL A   1      39.376  21.091  25.866  1.00  0.00    -0.482 OA
BRANCH   6   7
ATOM      7  C   UNL A   1      38.270  21.822  25.535  1.00  0.00     0.120 A 
ATOM      8  C   UNL A   1      38.114  23.093  26.089  1.00  0.00     0.047 A 
ATOM      9  C   UNL A   1      37.335  21.305  24.646  1.00  0.00     0.047 A 
ATOM     10  C   UNL A   1      37.024  23.879  25.707  1.00  0.00     0.012 A 
ATOM     11  C   UNL A   1      36.283  22.098  24.235  1.00  0.00     0.012 A 
ATOM     12  C   UNL A   1      36.110  23.375  24.779  1.00  0.00    -0.024 A 
BRANCH  12  13
ATOM     13  C   UNL A   1      34.939  24.112  24.329  1.00  0.00     0.029 C 
ATOM     14  C   UNL A   1      33.741  23.967  24.906  1.00  0.00     0.083 C 
ATOM     15  S   UNL A   1      33.319  23.187  26.382  1.00  0.00    -0.022 SA
ATOM     16  C   UNL A   1      32.530  24.528  24.287  1.00  0.00     0.268 C 
ATOM     17  C   UNL A   1      31.715  23.901  26.367  1.00  0.00     0.293 C 
ATOM     18  N   UNL A   1      31.563  24.665  25.245  1.00  0.00    -0.264 N 
ATOM     19  O   UNL A   1      32.408  24.721  23.088  1.00  0.00    -0.268 OA
ATOM     20  O   UNL A   1      30.886  23.691  27.240  1.00  0.00    -0.261 OA
BRANCH  18  21
ATOM     21  C   UNL A   1      30.417  25.518  25.033  1.00  0.00     0.167 C 
BRANCH  21  22
ATOM     22  C   UNL A   1      30.816  26.974  25.218  1.00  0.00    -0.005 A 
ATOM     23  C   UNL A   1      31.575  27.324  26.354  1.00  0.00     0.057 A 
ATOM     24  C   UNL A   1      30.516  27.985  24.264  1.00  0.00     0.050 A 
ATOM     25  C   UNL A   1      31.970  28.638  26.497  1.00  0.00     0.166 A 
ATOM     26  C   UNL A   1      31.014  29.284  24.392  1.00  0.00     0.071 A 
ATOM     27  Cl  UNL A   1      29.446  27.736  22.936  1.00  0.00    -0.084 Cl
ATOM     28  C   UNL A   1      31.716  29.582  25.531  1.00  0.00     0.167 A 
ATOM     29  O   UNL A   1      32.615  29.170  27.571  1.00  0.00    -0.454 OA
ATOM     30  O   UNL A   1      32.186  30.812  25.868  1.00  0.00    -0.454 OA
ATOM     31  C   UNL A   1      32.567  30.574  27.235  1.00  0.00     0.468 C 
ENDBRANCH  21  22
ENDBRANCH  18  21
ENDBRANCH  12  13
ENDBRANCH   6   7
ENDBRANCH   5   6
ENDBRANCH   3   5
ENDBRANCH   2   3
ENDBRANCH   1   2
BRANCH   1  32
ATOM     32  C   UNL A   1      43.305  23.514  25.549  1.00  0.00     0.275 C 
BRANCH  32  33
ATOM     33  O   UNL A   1      42.699  24.373  26.533  1.00  0.00    -0.458 OA
BRANCH  33  34
ATOM     34  C   UNL A   1      42.200  25.555  26.084  1.00  0.00     0.338 C 
ATOM     35  O   UNL A   1      41.924  25.839  24.934  1.00  0.00    -0.246 OA
BRANCH  34  36
ATOM     36  C   UNL A   1      41.825  26.371  27.265  1.00  0.00     0.060 A 
ATOM     37  C   UNL A   1      42.515  27.568  27.510  1.00  0.00     0.016 A 
ATOM     38  C   UNL A   1      40.759  25.995  28.087  1.00  0.00     0.016 A 
ATOM     39  C   UNL A   1      42.150  28.382  28.588  1.00  0.00     0.010 A 
ATOM     40  C   UNL A   1      40.406  26.801  29.169  1.00  0.00     0.010 A 
ATOM     41  C   UNL A   1      41.112  27.986  29.440  1.00  0.00    -0.014 A 
BRANCH  41  42
ATOM     42  C   UNL A   1      40.860  28.681  30.726  1.00  0.00     0.031 A 
ATOM     43  C   UNL A   1      39.776  29.721  30.765  1.00  0.00     0.074 A 
ATOM     44  C   UNL A   1      41.629  28.470  31.807  1.00  0.00     0.049 A 
ATOM     45  N   UNL A   1      39.480  30.578  31.705  1.00  0.00    -0.248 NA
ATOM     46  C   UNL A   1      38.926  29.814  29.567  1.00  0.00     0.031 C 
ATOM     47  C   UNL A   1      42.700  27.481  31.904  1.00  0.00     0.029 A 
ATOM     48  N   UNL A   1      41.648  29.111  33.022  1.00  0.00    -0.354 N 
ATOM     49  C   UNL A   1      38.422  31.329  31.207  1.00  0.00     0.074 A 
ATOM     50  C   UNL A   1      38.143  30.837  29.875  1.00  0.00     0.031 C 
ATOM     51  C   UNL A   1      43.302  27.609  33.101  1.00  0.00     0.029 A 
ATOM     52  C   UNL A   1      42.678  28.710  33.839  1.00  0.00     0.049 A 
ATOM     53  H   UNL A   1      40.987  29.791  33.284  1.00  0.00     0.167 HD
ATOM     54  C   UNL A   1      37.745  32.339  31.803  1.00  0.00     0.037 A 
ATOM     55  C   UNL A   1      43.096  29.200  35.024  1.00  0.00     0.037 A 
ATOM     56  C   UNL A   1      38.032  32.834  33.121  1.00  0.00     0.049 A 
ATOM     57  C   UNL A   1      42.361  30.354  35.658  1.00  0.00     0.074 A 
ATOM     58  C   UNL A   1      37.382  33.833  33.824  1.00  0.00     0.029 A 
ATOM     59  N   UNL A   1      39.068  32.385  33.928  1.00  0.00    -0.354 N 
ATOM     60  N   UNL A   1      41.333  31.027  35.199  1.00  0.00    -0.248 NA
ATOM     61  C   UNL A   1      42.841  30.815  36.970  1.00  0.00     0.031 C 
ATOM     62  C   UNL A   1      38.054  34.019  35.037  1.00  0.00     0.029 A 
ATOM     63  C   UNL A   1      39.092  33.103  35.112  1.00  0.00     0.049 A 
ATOM     64  H   UNL A   1      39.693  31.662  33.693  1.00  0.00     0.167 HD
ATOM     65  C   UNL A   1      41.025  31.970  36.175  1.00  0.00     0.074 A 
ATOM     66  C   UNL A   1      41.978  31.784  37.250  1.00  0.00     0.031 C 
ATOM     67  C   UNL A   1      40.038  32.901  36.182  1.00  0.00     0.037 A 
BRANCH  54  68
ATOM     68  C   UNL A   1      36.661  32.999  30.999  1.00  0.00     0.058 A 
ATOM     69  C   UNL A   1      36.953  33.881  29.946  1.00  0.00     0.135 A 
ATOM     70  C   UNL A   1      35.312  32.770  31.310  1.00  0.00     0.135 A 
ATOM     71  F   UNL A   1      38.228  34.148  29.621  1.00  0.00    -0.206 F 
ATOM     72  C   UNL A   1      35.946  34.551  29.261  1.00  0.00     0.059 A 
ATOM     73  C   UNL A   1      34.287  33.408  30.620  1.00  0.00     0.059 A 
ATOM     74  F   UNL A   1      34.979  31.937  32.308  1.00  0.00    -0.206 F 
ATOM     75  C   UNL A   1      34.615  34.316  29.614  1.00  0.00     0.060 A 
BRANCH  75  76
ATOM     76  S   UNL A   1      33.317  35.230  28.754  1.00  0.00     0.124 S 
ATOM     77  O   UNL A   1      32.706  34.174  27.953  1.00  0.00    -0.237 OA
ATOM     78  O   UNL A   1      32.507  35.739  29.857  1.00  0.00    -0.237 OA
ATOM     79  O   UNL A   1      34.055  36.241  28.003  1.00  0.00    -0.744 OA
ENDBRANCH  75  76
ENDBRANCH  54  68
BRANCH  55  80
ATOM     80  C   UNL A   1      44.292  28.604  35.678  1.00  0.00     0.058 A 
ATOM     81  C   UNL A   1      44.176  27.502  36.537  1.00  0.00     0.135 A 
ATOM     82  C   UNL A   1      45.579  29.100  35.418  1.00  0.00     0.135 A 
ATOM     83  F   UNL A   1      42.965  27.004  36.829  1.00  0.00    -0.206 F 
ATOM     84  C   UNL A   1      45.295  26.904  37.108  1.00  0.00     0.059 A 
ATOM     85  C   UNL A   1      46.714  28.506  35.961  1.00  0.00     0.059 A 
ATOM     86  F   UNL A   1      45.743  30.149  34.599  1.00  0.00    -0.206 F 
ATOM     87  C   UNL A   1      46.562  27.406  36.804  1.00  0.00     0.060 A 
BRANCH  87  88
ATOM     88  S   UNL A   1      48.013  26.560  37.469  1.00  0.00     0.124 S 
ATOM     89  O   UNL A   1      48.399  27.446  38.560  1.00  0.00    -0.237 OA
ATOM     90  O   UNL A   1      47.460  25.266  37.859  1.00  0.00    -0.237 OA
ATOM     91  O   UNL A   1      48.928  26.521  36.331  1.00  0.00    -0.744 OA
ENDBRANCH  87  88
ENDBRANCH  55  80
BRANCH  67  92
ATOM     92  C   UNL A   1      39.894  33.776  37.398  1.00  0.00     0.058 A 
ATOM     93  C   UNL A   1      40.425  35.073  37.443  1.00  0.00     0.135 A 
ATOM     94  C   UNL A   1      39.120  33.346  38.489  1.00  0.00     0.135 A 
ATOM     95  F   UNL A   1      41.177  35.532  36.430  1.00  0.00    -0.206 F 
ATOM     96  C   UNL A   1      40.193  35.916  38.528  1.00  0.00     0.059 A 
ATOM     97  C   UNL A   1      38.856  34.178  39.572  1.00  0.00     0.059 A 
ATOM     98  F   UNL A   1      38.581  32.117  38.491  1.00  0.00    -0.206 F 
ATOM     99  C   UNL A   1      39.399  35.462  39.584  1.00  0.00     0.060 A 
BRANCH  99 100
ATOM    100  S   UNL A   1      39.043  36.589  40.950  1.00  0.00     0.124 S 
ATOM    101  O   UNL A   1      40.336  36.656  41.622  1.00  0.00    -0.237 OA
ATOM    102  O   UNL A   1      38.626  37.803  40.253  1.00  0.00    -0.237 OA
ATOM    103  O   UNL A   1      37.987  35.904  41.689  1.00  0.00    -0.744 OA
ENDBRANCH  99 100
ENDBRANCH  67  92
ENDBRANCH  41  42
ENDBRANCH  34  36
ENDBRANCH  33  34
ENDBRANCH  32  33
ENDBRANCH   1  32
TORSDOF 19
ENDMDL
MODEL 3
REMARK VINA RESULT:     -11.9      0.795      7.942
REMARK SMILES O=C(COc1ccc(/C=C2\SC(=O)N(Cc3cc4c(cc3Cl)OCO4)C2=O)cc1)OCCOC(=O)c1ccc(-c2c3nc(c(-c4c(F)cc(S(=O)(=O)[O-])cc4F)c4ccc([nH]4)c(-c4c(F)cc(S(=O)(=O)[O-])cc4F)c4nc(c(-c5c(F)cc(S(=O)(=O)[O-])cc5F)c5ccc2[nH]5)C=C4)C=C3)cc1
REMARK SMILES IDX 31 1 30 2 2 3 1 4 3 5 4 6 5 7 6 8 29 9 7 10 28 11 8 12 9 13
REMARK SMILES IDX 10 14 11 15 26 16 12 17 14 18 27 19 13 20 15 21 16 22 17 23
REMARK SMILES IDX 21 24 18 25 20 26 22 27 19 28 25 29 23 30 24 31 32 32 33 33
REMARK SMILES IDX 34 34 35 35 36 36 37 37 101 38 38 39 100 40 39 41 40 42
REMARK SMILES IDX 41 43 94 44 42 45 99 46 93 47 95 48 43 49 98 50 92 51 91 52
REMARK SMILES IDX 44 54 78 55 57 56 77 57 58 58 61 59 76 60 96 61 59 62 60 63
REMARK SMILES IDX 75 65 97 66 62 67 45 68 46 69 55 70 47 71 48 72 54 73 56 74
REMARK SMILES IDX 49 75 50 76 51 77 52 78 53 79 79 80 80 81 89 82 81 83 82 84
REMARK SMILES IDX 88 85 90 86 83 87 84 88 85 89 86 90 87 91 63 92 64 93 73 94
REMARK SMILES IDX 65 95 66 96 72 97 74 98 67 99 68 100 69 101 70 102 71 103
REMARK H PARENT 95 53 61 64
REMARK Flexibility Score: inf
ROOT
ATOM      1  C   UNL A   1      35.941  33.917  30.803  1.00  0.00     0.274 C 
ENDROOT
BRANCH   1   2
ATOM      2  O   UNL A   1      35.249  34.476  29.669  1.00  0.00    -0.460 OA
BRANCH   2   3
ATOM      3  C   UNL A   1      33.940  34.234  29.411  1.00  0.00     0.344 C 
ATOM      4  O   UNL A   1      33.068  34.824  30.049  1.00  0.00    -0.248 OA
BRANCH   3   5
ATOM      5  C   UNL A   1      33.589  33.281  28.267  1.00  0.00     0.351 C 
BRANCH   5   6
ATOM      6  O   UNL A   1      34.650  32.449  27.802  1.00  0.00    -0.482 OA
BRANCH   6   7
ATOM      7  C   UNL A   1      34.153  31.216  27.490  1.00  0.00     0.120 A 
ATOM      8  C   UNL A   1      32.820  31.111  27.092  1.00  0.00     0.047 A 
ATOM      9  C   UNL A   1      34.975  30.097  27.553  1.00  0.00     0.047 A 
ATOM     10  C   UNL A   1      32.317  29.867  26.704  1.00  0.00     0.012 A 
ATOM     11  C   UNL A   1      34.491  28.877  27.127  1.00  0.00     0.012 A 
ATOM     12  C   UNL A   1      33.158  28.752  26.724  1.00  0.00    -0.024 A 
BRANCH  12  13
ATOM     13  C   UNL A   1      32.722  27.415  26.351  1.00  0.00     0.029 C 
ATOM     14  C   UNL A   1      32.750  26.984  25.085  1.00  0.00     0.083 C 
ATOM     15  S   UNL A   1      33.506  27.680  23.704  1.00  0.00    -0.022 SA
ATOM     16  C   UNL A   1      32.082  25.731  24.696  1.00  0.00     0.268 C 
ATOM     17  C   UNL A   1      33.283  26.210  22.769  1.00  0.00     0.293 C 
ATOM     18  N   UNL A   1      32.628  25.279  23.526  1.00  0.00    -0.264 N 
ATOM     19  O   UNL A   1      31.122  25.263  25.288  1.00  0.00    -0.268 OA
ATOM     20  O   UNL A   1      33.652  26.096  21.610  1.00  0.00    -0.261 OA
BRANCH  18  21
ATOM     21  C   UNL A   1      32.450  23.912  23.098  1.00  0.00     0.167 C 
BRANCH  21  22
ATOM     22  C   UNL A   1      33.452  23.014  23.808  1.00  0.00    -0.005 A 
ATOM     23  C   UNL A   1      34.804  23.069  23.411  1.00  0.00     0.057 A 
ATOM     24  C   UNL A   1      33.098  22.172  24.898  1.00  0.00     0.050 A 
ATOM     25  C   UNL A   1      35.716  22.285  24.086  1.00  0.00     0.166 A 
ATOM     26  C   UNL A   1      34.063  21.465  25.620  1.00  0.00     0.071 A 
ATOM     27  Cl  UNL A   1      31.466  21.869  25.361  1.00  0.00    -0.084 Cl
ATOM     28  C   UNL A   1      35.357  21.524  25.173  1.00  0.00     0.167 A 
ATOM     29  O   UNL A   1      37.033  22.137  23.774  1.00  0.00    -0.454 OA
ATOM     30  O   UNL A   1      36.402  20.825  25.688  1.00  0.00    -0.454 OA
ATOM     31  C   UNL A   1      37.396  21.068  24.677  1.00  0.00     0.468 C 
ENDBRANCH  21  22
ENDBRANCH  18  21
ENDBRANCH  12  13
ENDBRANCH   6   7
ENDBRANCH   5   6
ENDBRANCH   3   5
ENDBRANCH   2   3
ENDBRANCH   1   2
BRANCH   1  32
ATOM     32  C   UNL A   1      35.515  32.466  31.033  1.00  0.00     0.275 C 
BRANCH  32  33
ATOM     33  O   UNL A   1      36.634  31.690  31.501  1.00  0.00    -0.458 OA
BRANCH  33  34
ATOM     34  C   UNL A   1      36.686  30.392  31.100  1.00  0.00     0.338 C 
ATOM     35  O   UNL A   1      35.743  29.637  30.956  1.00  0.00    -0.246 OA
BRANCH  34  36
ATOM     36  C   UNL A   1      38.067  30.111  30.637  1.00  0.00     0.060 A 
ATOM     37  C   UNL A   1      38.322  30.043  29.259  1.00  0.00     0.016 A 
ATOM     38  C   UNL A   1      39.117  29.981  31.551  1.00  0.00     0.016 A 
ATOM     39  C   UNL A   1      39.623  29.828  28.794  1.00  0.00     0.010 A 
ATOM     40  C   UNL A   1      40.411  29.753  31.086  1.00  0.00     0.010 A 
ATOM     41  C   UNL A   1      40.670  29.653  29.708  1.00  0.00    -0.014 A 
BRANCH  41  42
ATOM     42  C   UNL A   1      42.005  29.176  29.272  1.00  0.00     0.031 A 
ATOM     43  C   UNL A   1      43.100  30.193  29.117  1.00  0.00     0.074 A 
ATOM     44  C   UNL A   1      42.222  27.895  28.929  1.00  0.00     0.049 A 
ATOM     45  N   UNL A   1      44.289  30.061  28.591  1.00  0.00    -0.248 NA
ATOM     46  C   UNL A   1      42.799  31.548  29.606  1.00  0.00     0.031 C 
ATOM     47  C   UNL A   1      41.251  26.811  29.047  1.00  0.00     0.029 A 
ATOM     48  N   UNL A   1      43.328  27.300  28.371  1.00  0.00    -0.354 N 
ATOM     49  C   UNL A   1      44.873  31.319  28.667  1.00  0.00     0.074 A 
ATOM     50  C   UNL A   1      43.900  32.204  29.270  1.00  0.00     0.031 C 
ATOM     51  C   UNL A   1      41.789  25.688  28.537  1.00  0.00     0.029 A 
ATOM     52  C   UNL A   1      43.130  25.985  28.027  1.00  0.00     0.049 A 
ATOM     53  H   UNL A   1      44.181  27.771  28.233  1.00  0.00     0.167 HD
ATOM     54  C   UNL A   1      46.107  31.706  28.266  1.00  0.00     0.037 A 
ATOM     55  C   UNL A   1      43.919  25.131  27.345  1.00  0.00     0.037 A 
ATOM     56  C   UNL A   1      47.068  30.829  27.655  1.00  0.00     0.049 A 
ATOM     57  C   UNL A   1      45.275  25.586  26.866  1.00  0.00     0.074 A 
ATOM     58  C   UNL A   1      48.357  31.119  27.244  1.00  0.00     0.029 A 
ATOM     59  N   UNL A   1      46.839  29.495  27.346  1.00  0.00    -0.354 N 
ATOM     60  N   UNL A   1      45.836  26.765  26.982  1.00  0.00    -0.248 NA
ATOM     61  C   UNL A   1      46.105  24.595  26.163  1.00  0.00     0.031 C 
ATOM     62  C   UNL A   1      48.890  29.973  26.644  1.00  0.00     0.029 A 
ATOM     63  C   UNL A   1      47.953  28.955  26.725  1.00  0.00     0.049 A 
ATOM     64  H   UNL A   1      46.007  29.006  27.540  1.00  0.00     0.167 HD
ATOM     65  C   UNL A   1      47.093  26.652  26.394  1.00  0.00     0.074 A 
ATOM     66  C   UNL A   1      47.210  25.288  25.920  1.00  0.00     0.031 C 
ATOM     67  C   UNL A   1      48.064  27.591  26.267  1.00  0.00     0.037 A 
BRANCH  54  68
ATOM     68  C   UNL A   1      46.455  33.157  28.438  1.00  0.00     0.058 A 
ATOM     69  C   UNL A   1      46.209  34.102  27.430  1.00  0.00     0.135 A 
ATOM     70  C   UNL A   1      47.074  33.600  29.618  1.00  0.00     0.135 A 
ATOM     71  F   UNL A   1      45.636  33.725  26.275  1.00  0.00    -0.206 F 
ATOM     72  C   UNL A   1      46.609  35.427  27.564  1.00  0.00     0.059 A 
ATOM     73  C   UNL A   1      47.457  34.926  29.785  1.00  0.00     0.059 A 
ATOM     74  F   UNL A   1      47.333  32.736  30.612  1.00  0.00    -0.206 F 
ATOM     75  C   UNL A   1      47.244  35.826  28.742  1.00  0.00     0.060 A 
BRANCH  75  76
ATOM     76  S   UNL A   1      47.805  37.536  28.886  1.00  0.00     0.124 S 
ATOM     77  O   UNL A   1      49.244  37.384  28.693  1.00  0.00    -0.237 OA
ATOM     78  O   UNL A   1      47.085  38.196  27.802  1.00  0.00    -0.237 OA
ATOM     79  O   UNL A   1      47.390  37.916  30.233  1.00  0.00    -0.744 OA
ENDBRANCH  75  76
ENDBRANCH  54  68
BRANCH  55  80
ATOM     80  C   UNL A   1      43.429  23.756  27.058  1.00  0.00     0.058 A 
ATOM     81  C   UNL A   1      43.515  22.740  28.020  1.00  0.00     0.135 A 
ATOM     82  C   UNL A   1      42.825  23.447  25.829  1.00  0.00     0.135 A 
ATOM     83  F   UNL A   1      44.100  22.983  29.203  1.00  0.00    -0.206 F 
ATOM     84  C   UNL A   1      43.008  21.466  27.779  1.00  0.00     0.059 A 
ATOM     85  C   UNL A   1      42.292  22.187  25.574  1.00  0.00     0.059 A 
ATOM     86  F   UNL A   1      42.715  24.386  24.879  1.00  0.00    -0.206 F 
ATOM     87  C   UNL A   1      42.387  21.203  26.557  1.00  0.00     0.060 A 
BRANCH  87  88
ATOM     88  S   UNL A   1      41.642  19.578  26.294  1.00  0.00     0.124 S 
ATOM     89  O   UNL A   1      42.311  19.139  25.077  1.00  0.00    -0.237 OA
ATOM     90  O   UNL A   1      42.009  18.873  27.518  1.00  0.00    -0.237 OA
ATOM     91  O   UNL A   1      40.219  19.880  26.160  1.00  0.00    -0.744 OA
ENDBRANCH  87  88
ENDBRANCH  55  80
BRANCH  67  92
ATOM     92  C   UNL A   1      49.364  27.188  25.625  1.00  0.00     0.058 A 
ATOM     93  C   UNL A   1      49.602  27.376  24.256  1.00  0.00     0.135 A 
ATOM     94  C   UNL A   1      50.421  26.707  26.415  1.00  0.00     0.135 A 
ATOM     95  F   UNL A   1      48.625  27.827  23.455  1.00  0.00    -0.206 F 
ATOM     96  C   UNL A   1      50.846  27.103  23.691  1.00  0.00     0.059 A 
ATOM     97  C   UNL A   1      51.678  26.449  25.877  1.00  0.00     0.059 A 
ATOM     98  F   UNL A   1      50.248  26.519  27.733  1.00  0.00    -0.206 F 
ATOM     99  C   UNL A   1      51.881  26.648  24.512  1.00  0.00     0.060 A 
BRANCH  99 100
ATOM    100  S   UNL A   1      53.509  26.368  23.783  1.00  0.00     0.124 S 
ATOM    101  O   UNL A   1      54.123  27.685  23.915  1.00  0.00    -0.237 OA
ATOM    102  O   UNL A   1      54.061  25.322  24.640  1.00  0.00    -0.237 OA
ATOM    103  O   UNL A   1      53.203  25.954  22.417  1.00  0.00    -0.744 OA
ENDBRANCH  99 100
ENDBRANCH  67  92
ENDBRANCH  41  42
ENDBRANCH  34  36
ENDBRANCH  33  34
ENDBRANCH  32  33
ENDBRANCH   1  32
TORSDOF 19
ENDMDL
