MODEL 1
REMARK VINA RESULT:     -13.1      0.000      0.000
REMARK SMILES O=C(OCCOC(=O)c1ccc(-c2c3nc(c(-c4c(F)cc(S(=O)(=O)[O-])cc4F)c4ccc([nH]4)c(-c4c(F)cc(S(=O)(=O)[O-])cc4F)c4nc(c(-c5c(F)cc(S(=O)(=O)[O-])cc5F)c5ccc2[nH]5)C=C4)C=C3)cc1)C1=Cc2cc(Cl)cc(Cl)c2O[C@@H]1C(F)(F)F
REMARK SMILES IDX 5 1 4 2 3 3 2 4 1 5 75 6 76 7 86 8 77 9 85 10 78 11 84 12
REMARK SMILES IDX 79 13 82 14 80 15 81 16 83 17 87 18 88 19 89 20 90 21 6 22
REMARK SMILES IDX 7 23 8 24 9 25 10 26 74 27 11 28 73 29 12 30 13 31 14 32
REMARK SMILES IDX 67 33 15 34 72 35 66 36 68 37 16 38 71 39 65 40 64 41 17 43
REMARK SMILES IDX 51 44 30 45 50 46 31 47 34 48 49 49 69 50 32 51 33 52 48 54
REMARK SMILES IDX 70 55 35 56 18 57 19 58 28 59 20 60 21 61 27 62 29 63 22 64
REMARK SMILES IDX 23 65 24 66 25 67 26 68 52 69 53 70 62 71 54 72 55 73 61 74
REMARK SMILES IDX 63 75 56 76 57 77 58 78 59 79 60 80 36 81 37 82 46 83 38 84
REMARK SMILES IDX 39 85 45 86 47 87 40 88 41 89 42 90 43 91 44 92
REMARK H PARENT 68 42 34 53
REMARK Flexibility Score: inf
ROOT
ATOM      1  C   UNL A   1      40.038  20.842  26.132  1.00  0.00     0.275 C 
ENDROOT
BRANCH   1   2
ATOM      2  C   UNL A   1      38.061  21.009  25.262  1.00  0.00     0.275 C 
BRANCH   2   3
ATOM      3  O   UNL A   1      36.932  21.968  25.708  1.00  0.00    -0.459 OA
BRANCH   3   4
ATOM      4  C   UNL A   1      36.458  22.721  24.705  1.00  0.00     0.338 C 
ATOM      5  O   UNL A   1      37.060  23.315  23.848  1.00  0.00    -0.246 OA
BRANCH   4   6
ATOM      6  C   UNL A   1      35.148  22.907  25.290  1.00  0.00     0.087 C 
ATOM      7  C   UNL A   1      34.940  24.226  25.860  1.00  0.00     0.027 C 
ATOM      8  C   UNL A   1      34.190  22.154  23.802  1.00  0.00     0.316 C 
ATOM      9  C   UNL A   1      33.895  25.462  25.105  1.00  0.00     0.020 A 
ATOM     10  O   UNL A   1      33.125  23.508  22.907  1.00  0.00    -0.474 OA
ATOM     11  C   UNL A   1      33.918  26.715  25.651  1.00  0.00     0.032 A 
ATOM     12  C   UNL A   1      33.072  25.205  23.599  1.00  0.00     0.146 A 
ATOM     13  C   UNL A   1      33.262  27.695  24.896  1.00  0.00     0.043 A 
ATOM     14  C   UNL A   1      32.471  26.238  22.933  1.00  0.00     0.085 A 
ATOM     15  Cl  UNL A   1      33.297  29.307  25.542  1.00  0.00    -0.084 Cl
ATOM     16  C   UNL A   1      32.593  27.479  23.617  1.00  0.00     0.045 A 
ATOM     17  Cl  UNL A   1      31.716  26.134  21.417  1.00  0.00    -0.080 Cl
BRANCH   8  18
ATOM     18  C   UNL A   1      33.878  20.805  24.622  1.00  0.00     0.430 C 
ATOM     19  F   UNL A   1      33.351  21.077  25.818  1.00  0.00    -0.167 F 
ATOM     20  F   UNL A   1      32.868  20.121  23.996  1.00  0.00    -0.167 F 
ATOM     21  F   UNL A   1      34.838  19.868  24.706  1.00  0.00    -0.167 F 
ENDBRANCH   8  18
ENDBRANCH   4   6
ENDBRANCH   3   4
ENDBRANCH   2   3
ENDBRANCH   1   2
BRANCH   1  22
ATOM     22  O   UNL A   1      41.049  22.221  26.548  1.00  0.00    -0.458 OA
BRANCH  22  23
ATOM     23  C   UNL A   1      41.875  23.194  26.010  1.00  0.00     0.338 C 
ATOM     24  O   UNL A   1      42.666  23.110  25.087  1.00  0.00    -0.246 OA
BRANCH  23  25
ATOM     25  C   UNL A   1      41.336  24.523  26.464  1.00  0.00     0.060 A 
ATOM     26  C   UNL A   1      40.292  24.551  27.410  1.00  0.00     0.016 A 
ATOM     27  C   UNL A   1      42.097  25.672  26.261  1.00  0.00     0.016 A 
ATOM     28  C   UNL A   1      40.210  25.619  28.334  1.00  0.00     0.010 A 
ATOM     29  C   UNL A   1      42.002  26.732  27.171  1.00  0.00     0.010 A 
ATOM     30  C   UNL A   1      41.137  26.671  28.279  1.00  0.00    -0.014 A 
BRANCH  30  31
ATOM     31  C   UNL A   1      41.118  27.819  29.236  1.00  0.00     0.031 A 
ATOM     32  C   UNL A   1      42.136  27.766  30.335  1.00  0.00     0.074 A 
ATOM     33  C   UNL A   1      40.184  28.801  29.237  1.00  0.00     0.049 A 
ATOM     34  N   UNL A   1      42.255  28.514  31.396  1.00  0.00    -0.248 NA
ATOM     35  C   UNL A   1      43.133  26.689  30.230  1.00  0.00     0.031 C 
ATOM     36  C   UNL A   1      39.128  28.986  28.243  1.00  0.00     0.029 A 
ATOM     37  N   UNL A   1      39.955  29.829  30.135  1.00  0.00    -0.354 N 
ATOM     38  C   UNL A   1      43.332  27.988  32.093  1.00  0.00     0.074 A 
ATOM     39  C   UNL A   1      43.800  26.833  31.361  1.00  0.00     0.031 C 
ATOM     40  C   UNL A   1      38.358  30.039  28.592  1.00  0.00     0.029 A 
ATOM     41  C   UNL A   1      38.842  30.600  29.852  1.00  0.00     0.049 A 
ATOM     42  H   UNL A   1      40.536  29.997  30.912  1.00  0.00     0.167 HD
ATOM     43  C   UNL A   1      43.897  28.430  33.236  1.00  0.00     0.037 A 
ATOM     44  C   UNL A   1      38.277  31.625  30.536  1.00  0.00     0.037 A 
ATOM     45  C   UNL A   1      43.439  29.568  33.975  1.00  0.00     0.049 A 
ATOM     46  C   UNL A   1      38.905  32.068  31.846  1.00  0.00     0.074 A 
ATOM     47  C   UNL A   1      43.973  30.110  35.128  1.00  0.00     0.029 A 
ATOM     48  N   UNL A   1      42.331  30.331  33.642  1.00  0.00    -0.354 N 
ATOM     49  N   UNL A   1      39.980  31.611  32.445  1.00  0.00    -0.248 NA
ATOM     50  C   UNL A   1      38.242  33.163  32.579  1.00  0.00     0.031 C 
ATOM     51  C   UNL A   1      43.156  31.171  35.525  1.00  0.00     0.029 A 
ATOM     52  C   UNL A   1      42.147  31.325  34.587  1.00  0.00     0.049 A 
ATOM     53  H   UNL A   1      41.760  30.188  32.853  1.00  0.00     0.167 HD
ATOM     54  C   UNL A   1      40.138  32.382  33.596  1.00  0.00     0.074 A 
ATOM     55  C   UNL A   1      39.061  33.347  33.605  1.00  0.00     0.031 C 
ATOM     56  C   UNL A   1      41.085  32.298  34.563  1.00  0.00     0.037 A 
BRANCH  43  57
ATOM     57  C   UNL A   1      45.074  27.658  33.748  1.00  0.00     0.058 A 
ATOM     58  C   UNL A   1      46.384  27.985  33.363  1.00  0.00     0.135 A 
ATOM     59  C   UNL A   1      44.889  26.578  34.623  1.00  0.00     0.135 A 
ATOM     60  F   UNL A   1      46.605  28.984  32.494  1.00  0.00    -0.206 F 
ATOM     61  C   UNL A   1      47.472  27.254  33.817  1.00  0.00     0.059 A 
ATOM     62  C   UNL A   1      45.966  25.852  35.115  1.00  0.00     0.059 A 
ATOM     63  F   UNL A   1      43.653  26.215  35.000  1.00  0.00    -0.206 F 
ATOM     64  C   UNL A   1      47.254  26.194  34.698  1.00  0.00     0.060 A 
BRANCH  64  65
ATOM     65  S   UNL A   1      48.685  25.282  35.306  1.00  0.00     0.124 S 
ATOM     66  O   UNL A   1      48.520  23.997  34.632  1.00  0.00    -0.237 OA
ATOM     67  O   UNL A   1      49.795  26.105  34.840  1.00  0.00    -0.237 OA
ATOM     68  O   UNL A   1      48.486  25.261  36.752  1.00  0.00    -0.744 OA
ENDBRANCH  64  65
ENDBRANCH  43  57
BRANCH  44  69
ATOM     69  C   UNL A   1      37.038  32.324  30.053  1.00  0.00     0.058 A 
ATOM     70  C   UNL A   1      37.116  33.432  29.188  1.00  0.00     0.135 A 
ATOM     71  C   UNL A   1      35.764  31.984  30.536  1.00  0.00     0.135 A 
ATOM     72  F   UNL A   1      38.307  33.827  28.714  1.00  0.00    -0.206 F 
ATOM     73  C   UNL A   1      35.995  34.194  28.855  1.00  0.00     0.059 A 
ATOM     74  C   UNL A   1      34.622  32.714  30.193  1.00  0.00     0.059 A 
ATOM     75  F   UNL A   1      35.616  30.943  31.369  1.00  0.00    -0.206 F 
ATOM     76  C   UNL A   1      34.750  33.831  29.369  1.00  0.00     0.060 A 
BRANCH  76  77
ATOM     77  S   UNL A   1      33.304  34.831  28.939  1.00  0.00     0.124 S 
ATOM     78  O   UNL A   1      32.650  34.980  30.234  1.00  0.00    -0.237 OA
ATOM     79  O   UNL A   1      33.914  36.037  28.390  1.00  0.00    -0.237 OA
ATOM     80  O   UNL A   1      32.596  33.998  27.970  1.00  0.00    -0.744 OA
ENDBRANCH  76  77
ENDBRANCH  44  69
BRANCH  56  81
ATOM     81  C   UNL A   1      41.039  33.287  35.697  1.00  0.00     0.058 A 
ATOM     82  C   UNL A   1      41.679  34.533  35.616  1.00  0.00     0.135 A 
ATOM     83  C   UNL A   1      40.252  33.028  36.831  1.00  0.00     0.135 A 
ATOM     84  F   UNL A   1      42.445  34.832  34.554  1.00  0.00    -0.206 F 
ATOM     85  C   UNL A   1      41.548  35.484  36.622  1.00  0.00     0.059 A 
ATOM     86  C   UNL A   1      40.081  33.975  37.836  1.00  0.00     0.059 A 
ATOM     87  F   UNL A   1      39.605  31.857  36.953  1.00  0.00    -0.206 F 
ATOM     88  C   UNL A   1      40.738  35.200  37.725  1.00  0.00     0.060 A 
BRANCH  88  89
ATOM     89  S   UNL A   1      40.523  36.468  38.990  1.00  0.00     0.124 S 
ATOM     90  O   UNL A   1      41.855  37.062  39.042  1.00  0.00    -0.237 OA
ATOM     91  O   UNL A   1      39.476  37.309  38.415  1.00  0.00    -0.237 OA
ATOM     92  O   UNL A   1      40.127  35.708  40.172  1.00  0.00    -0.744 OA
ENDBRANCH  88  89
ENDBRANCH  56  81
ENDBRANCH  30  31
ENDBRANCH  23  25
ENDBRANCH  22  23
ENDBRANCH   1  22
TORSDOF 15
ENDMDL
MODEL 2
REMARK VINA RESULT:     -12.7      3.754      5.858
REMARK SMILES O=C(OCCOC(=O)c1ccc(-c2c3nc(c(-c4c(F)cc(S(=O)(=O)[O-])cc4F)c4ccc([nH]4)c(-c4c(F)cc(S(=O)(=O)[O-])cc4F)c4nc(c(-c5c(F)cc(S(=O)(=O)[O-])cc5F)c5ccc2[nH]5)C=C4)C=C3)cc1)C1=Cc2cc(Cl)cc(Cl)c2O[C@@H]1C(F)(F)F
REMARK SMILES IDX 5 1 4 2 3 3 2 4 1 5 75 6 76 7 86 8 77 9 85 10 78 11 84 12
REMARK SMILES IDX 79 13 82 14 80 15 81 16 83 17 87 18 88 19 89 20 90 21 6 22
REMARK SMILES IDX 7 23 8 24 9 25 10 26 74 27 11 28 73 29 12 30 13 31 14 32
REMARK SMILES IDX 67 33 15 34 72 35 66 36 68 37 16 38 71 39 65 40 64 41 17 43
REMARK SMILES IDX 51 44 30 45 50 46 31 47 34 48 49 49 69 50 32 51 33 52 48 54
REMARK SMILES IDX 70 55 35 56 18 57 19 58 28 59 20 60 21 61 27 62 29 63 22 64
REMARK SMILES IDX 23 65 24 66 25 67 26 68 52 69 53 70 62 71 54 72 55 73 61 74
REMARK SMILES IDX 63 75 56 76 57 77 58 78 59 79 60 80 36 81 37 82 46 83 38 84
REMARK SMILES IDX 39 85 45 86 47 87 40 88 41 89 42 90 43 91 44 92
REMARK H PARENT 68 42 34 53
REMARK Flexibility Score: inf
ROOT
ATOM      1  C   UNL A   1      39.426  20.736  26.119  1.00  0.00     0.275 C 
ENDROOT
BRANCH   1   2
ATOM      2  C   UNL A   1      41.581  20.571  25.964  1.00  0.00     0.275 C 
BRANCH   2   3
ATOM      3  O   UNL A   1      42.550  21.626  25.381  1.00  0.00    -0.459 OA
BRANCH   3   4
ATOM      4  C   UNL A   1      43.095  22.412  26.320  1.00  0.00     0.338 C 
ATOM      5  O   UNL A   1      42.722  22.626  27.444  1.00  0.00    -0.246 OA
BRANCH   4   6
ATOM      6  C   UNL A   1      43.910  23.172  25.398  1.00  0.00     0.087 C 
ATOM      7  C   UNL A   1      43.596  24.589  25.364  1.00  0.00     0.027 C 
ATOM      8  C   UNL A   1      45.575  22.396  25.965  1.00  0.00     0.316 C 
ATOM      9  C   UNL A   1      44.655  25.840  26.075  1.00  0.00     0.020 A 
ATOM     10  O   UNL A   1      46.699  23.722  26.831  1.00  0.00    -0.474 OA
ATOM     11  C   UNL A   1      44.165  27.115  26.125  1.00  0.00     0.032 A 
ATOM     12  C   UNL A   1      46.130  25.463  26.906  1.00  0.00     0.146 A 
ATOM     13  C   UNL A   1      44.930  28.007  26.886  1.00  0.00     0.043 A 
ATOM     14  C   UNL A   1      46.797  26.409  27.635  1.00  0.00     0.085 A 
ATOM     15  Cl  UNL A   1      44.321  29.630  26.999  1.00  0.00    -0.084 Cl
ATOM     16  C   UNL A   1      46.157  27.679  27.604  1.00  0.00     0.045 A 
ATOM     17  Cl  UNL A   1      48.194  26.145  28.561  1.00  0.00    -0.080 Cl
BRANCH   8  18
ATOM     18  C   UNL A   1      45.673  21.505  24.628  1.00  0.00     0.430 C 
ATOM     19  F   UNL A   1      46.943  21.226  24.324  1.00  0.00    -0.167 F 
ATOM     20  F   UNL A   1      45.143  20.265  24.873  1.00  0.00    -0.167 F 
ATOM     21  F   UNL A   1      44.980  21.896  23.545  1.00  0.00    -0.167 F 
ENDBRANCH   8  18
ENDBRANCH   4   6
ENDBRANCH   3   4
ENDBRANCH   2   3
ENDBRANCH   1   2
BRANCH   1  22
ATOM     22  O   UNL A   1      38.575  22.246  26.423  1.00  0.00    -0.458 OA
BRANCH  22  23
ATOM     23  C   UNL A   1      38.445  23.554  25.987  1.00  0.00     0.338 C 
ATOM     24  O   UNL A   1      37.544  24.068  25.348  1.00  0.00    -0.246 OA
BRANCH  23  25
ATOM     25  C   UNL A   1      39.406  24.381  26.797  1.00  0.00     0.060 A 
ATOM     26  C   UNL A   1      40.206  25.338  26.142  1.00  0.00     0.016 A 
ATOM     27  C   UNL A   1      39.227  24.476  28.175  1.00  0.00     0.016 A 
ATOM     28  C   UNL A   1      40.575  26.525  26.818  1.00  0.00     0.010 A 
ATOM     29  C   UNL A   1      39.607  25.648  28.841  1.00  0.00     0.010 A 
ATOM     30  C   UNL A   1      40.185  26.729  28.150  1.00  0.00    -0.014 A 
BRANCH  30  31
ATOM     31  C   UNL A   1      40.525  27.967  28.914  1.00  0.00     0.031 A 
ATOM     32  C   UNL A   1      41.798  27.917  29.701  1.00  0.00     0.074 A 
ATOM     33  C   UNL A   1      39.710  29.045  29.029  1.00  0.00     0.049 A 
ATOM     34  N   UNL A   1      42.267  28.755  30.582  1.00  0.00    -0.248 NA
ATOM     35  C   UNL A   1      42.637  26.726  29.483  1.00  0.00     0.031 C 
ATOM     36  C   UNL A   1      38.440  29.243  28.334  1.00  0.00     0.029 A 
ATOM     37  N   UNL A   1      39.824  30.183  29.808  1.00  0.00    -0.354 N 
ATOM     38  C   UNL A   1      43.448  28.186  31.034  1.00  0.00     0.074 A 
ATOM     39  C   UNL A   1      43.600  26.913  30.367  1.00  0.00     0.031 C 
ATOM     40  C   UNL A   1      37.885  30.408  28.728  1.00  0.00     0.029 A 
ATOM     41  C   UNL A   1      38.743  31.043  29.727  1.00  0.00     0.049 A 
ATOM     42  H   UNL A   1      40.608  30.366  30.374  1.00  0.00     0.167 HD
ATOM     43  C   UNL A   1      44.341  28.681  31.917  1.00  0.00     0.037 A 
ATOM     44  C   UNL A   1      38.474  32.194  30.392  1.00  0.00     0.037 A 
ATOM     45  C   UNL A   1      44.199  29.937  32.591  1.00  0.00     0.049 A 
ATOM     46  C   UNL A   1      39.474  32.699  31.418  1.00  0.00     0.074 A 
ATOM     47  C   UNL A   1      45.074  30.534  33.478  1.00  0.00     0.029 A 
ATOM     48  N   UNL A   1      43.109  30.782  32.463  1.00  0.00    -0.354 N 
ATOM     49  N   UNL A   1      40.631  32.189  31.767  1.00  0.00    -0.248 NA
ATOM     50  C   UNL A   1      39.131  33.936  32.144  1.00  0.00     0.031 C 
ATOM     51  C   UNL A   1      44.487  31.719  33.929  1.00  0.00     0.029 A 
ATOM     52  C   UNL A   1      43.275  31.886  33.279  1.00  0.00     0.049 A 
ATOM     53  H   UNL A   1      42.333  30.622  31.879  1.00  0.00     0.167 HD
ATOM     54  C   UNL A   1      41.164  33.056  32.721  1.00  0.00     0.074 A 
ATOM     55  C   UNL A   1      40.214  34.134  32.883  1.00  0.00     0.031 C 
ATOM     56  C   UNL A   1      42.330  32.967  33.406  1.00  0.00     0.037 A 
BRANCH  43  57
ATOM     57  C   UNL A   1      45.546  27.838  32.201  1.00  0.00     0.058 A 
ATOM     58  C   UNL A   1      46.751  28.033  31.506  1.00  0.00     0.135 A 
ATOM     59  C   UNL A   1      45.493  26.823  33.166  1.00  0.00     0.135 A 
ATOM     60  F   UNL A   1      46.835  28.965  30.544  1.00  0.00    -0.206 F 
ATOM     61  C   UNL A   1      47.860  27.235  31.749  1.00  0.00     0.059 A 
ATOM     62  C   UNL A   1      46.600  26.033  33.448  1.00  0.00     0.059 A 
ATOM     63  F   UNL A   1      44.355  26.585  33.838  1.00  0.00    -0.206 F 
ATOM     64  C   UNL A   1      47.777  26.243  32.727  1.00  0.00     0.060 A 
BRANCH  64  65
ATOM     65  S   UNL A   1      49.241  25.244  33.055  1.00  0.00     0.124 S 
ATOM     66  O   UNL A   1      49.701  24.947  31.701  1.00  0.00    -0.237 OA
ATOM     67  O   UNL A   1      50.076  26.163  33.820  1.00  0.00    -0.237 OA
ATOM     68  O   UNL A   1      48.716  24.106  33.803  1.00  0.00    -0.744 OA
ENDBRANCH  64  65
ENDBRANCH  43  57
BRANCH  44  69
ATOM     69  C   UNL A   1      37.212  32.975  30.164  1.00  0.00     0.058 A 
ATOM     70  C   UNL A   1      36.048  32.714  30.912  1.00  0.00     0.135 A 
ATOM     71  C   UNL A   1      37.099  33.909  29.122  1.00  0.00     0.135 A 
ATOM     72  F   UNL A   1      36.080  31.811  31.904  1.00  0.00    -0.206 F 
ATOM     73  C   UNL A   1      34.822  33.310  30.612  1.00  0.00     0.059 A 
ATOM     74  C   UNL A   1      35.890  34.542  28.820  1.00  0.00     0.059 A 
ATOM     75  F   UNL A   1      38.166  34.203  28.364  1.00  0.00    -0.206 F 
ATOM     76  C   UNL A   1      34.751  34.221  29.558  1.00  0.00     0.060 A 
BRANCH  76  77
ATOM     77  S   UNL A   1      33.156  34.984  29.171  1.00  0.00     0.124 S 
ATOM     78  O   UNL A   1      32.625  34.069  28.167  1.00  0.00    -0.237 OA
ATOM     79  O   UNL A   1      32.485  34.970  30.466  1.00  0.00    -0.237 OA
ATOM     80  O   UNL A   1      33.527  36.309  28.680  1.00  0.00    -0.744 OA
ENDBRANCH  76  77
ENDBRANCH  44  69
BRANCH  56  81
ATOM     81  C   UNL A   1      42.681  34.071  34.367  1.00  0.00     0.058 A 
ATOM     82  C   UNL A   1      42.411  33.969  35.740  1.00  0.00     0.135 A 
ATOM     83  C   UNL A   1      43.398  35.195  33.923  1.00  0.00     0.135 A 
ATOM     84  F   UNL A   1      41.727  32.916  36.218  1.00  0.00    -0.206 F 
ATOM     85  C   UNL A   1      42.829  34.945  36.638  1.00  0.00     0.059 A 
ATOM     86  C   UNL A   1      43.854  36.168  34.807  1.00  0.00     0.059 A 
ATOM     87  F   UNL A   1      43.698  35.336  32.622  1.00  0.00    -0.206 F 
ATOM     88  C   UNL A   1      43.559  36.037  36.163  1.00  0.00     0.060 A 
BRANCH  88  89
ATOM     89  S   UNL A   1      44.154  37.261  37.348  1.00  0.00     0.124 S 
ATOM     90  O   UNL A   1      45.197  36.515  38.045  1.00  0.00    -0.237 OA
ATOM     91  O   UNL A   1      44.619  38.338  36.478  1.00  0.00    -0.237 OA
ATOM     92  O   UNL A   1      42.969  37.574  38.141  1.00  0.00    -0.744 OA
ENDBRANCH  88  89
ENDBRANCH  56  81
ENDBRANCH  30  31
ENDBRANCH  23  25
ENDBRANCH  22  23
ENDBRANCH   1  22
TORSDOF 15
ENDMDL
MODEL 3
REMARK VINA RESULT:     -12.6      5.592     11.098
REMARK SMILES O=C(OCCOC(=O)c1ccc(-c2c3nc(c(-c4c(F)cc(S(=O)(=O)[O-])cc4F)c4ccc([nH]4)c(-c4c(F)cc(S(=O)(=O)[O-])cc4F)c4nc(c(-c5c(F)cc(S(=O)(=O)[O-])cc5F)c5ccc2[nH]5)C=C4)C=C3)cc1)C1=Cc2cc(Cl)cc(Cl)c2O[C@@H]1C(F)(F)F
REMARK SMILES IDX 5 1 4 2 3 3 2 4 1 5 75 6 76 7 86 8 77 9 85 10 78 11 84 12
REMARK SMILES IDX 79 13 82 14 80 15 81 16 83 17 87 18 88 19 89 20 90 21 6 22
REMARK SMILES IDX 7 23 8 24 9 25 10 26 74 27 11 28 73 29 12 30 13 31 14 32
REMARK SMILES IDX 67 33 15 34 72 35 66 36 68 37 16 38 71 39 65 40 64 41 17 43
REMARK SMILES IDX 51 44 30 45 50 46 31 47 34 48 49 49 69 50 32 51 33 52 48 54
REMARK SMILES IDX 70 55 35 56 18 57 19 58 28 59 20 60 21 61 27 62 29 63 22 64
REMARK SMILES IDX 23 65 24 66 25 67 26 68 52 69 53 70 62 71 54 72 55 73 61 74
REMARK SMILES IDX 63 75 56 76 57 77 58 78 59 79 60 80 36 81 37 82 46 83 38 84
REMARK SMILES IDX 39 85 45 86 47 87 40 88 41 89 42 90 43 91 44 92
REMARK H PARENT 68 42 34 53
REMARK Flexibility Score: inf
ROOT
ATOM      1  C   UNL A   1      33.637  31.260  27.631  1.00  0.00     0.275 C 
ENDROOT
BRANCH   1   2
ATOM      2  C   UNL A   1      32.671  29.334  27.396  1.00  0.00     0.275 C 
BRANCH   2   3
ATOM      3  O   UNL A   1      31.882  28.841  26.160  1.00  0.00    -0.459 OA
BRANCH   3   4
ATOM      4  C   UNL A   1      31.713  27.511  26.144  1.00  0.00     0.338 C 
ATOM      5  O   UNL A   1      31.342  26.780  27.025  1.00  0.00    -0.246 OA
BRANCH   4   6
ATOM      6  C   UNL A   1      32.521  27.291  24.964  1.00  0.00     0.087 C 
ATOM      7  C   UNL A   1      33.806  26.674  25.237  1.00  0.00     0.027 C 
ATOM      8  C   UNL A   1      31.096  26.523  23.925  1.00  0.00     0.316 C 
ATOM      9  C   UNL A   1      34.181  24.976  24.829  1.00  0.00     0.020 A 
ATOM     10  O   UNL A   1      31.440  24.648  23.557  1.00  0.00    -0.474 OA
ATOM     11  C   UNL A   1      35.364  24.472  25.290  1.00  0.00     0.032 A 
ATOM     12  C   UNL A   1      33.022  23.905  24.109  1.00  0.00     0.146 A 
ATOM     13  C   UNL A   1      35.509  23.087  25.139  1.00  0.00     0.043 A 
ATOM     14  C   UNL A   1      33.257  22.560  24.020  1.00  0.00     0.085 A 
ATOM     15  Cl  UNL A   1      36.988  22.404  25.742  1.00  0.00    -0.084 Cl
ATOM     16  C   UNL A   1      34.520  22.186  24.555  1.00  0.00     0.045 A 
ATOM     17  Cl  UNL A   1      32.171  21.400  23.423  1.00  0.00    -0.080 Cl
BRANCH   8  18
ATOM     18  C   UNL A   1      30.955  27.859  23.040  1.00  0.00     0.430 C 
ATOM     19  F   UNL A   1      32.116  28.514  22.962  1.00  0.00    -0.167 F 
ATOM     20  F   UNL A   1      30.717  27.512  21.735  1.00  0.00    -0.167 F 
ATOM     21  F   UNL A   1      29.933  28.695  23.296  1.00  0.00    -0.167 F 
ENDBRANCH   8  18
ENDBRANCH   4   6
ENDBRANCH   3   4
ENDBRANCH   2   3
ENDBRANCH   1   2
BRANCH   1  22
ATOM     22  O   UNL A   1      35.228  31.482  28.350  1.00  0.00    -0.458 OA
BRANCH  22  23
ATOM     23  C   UNL A   1      35.930  31.389  29.540  1.00  0.00     0.338 C 
ATOM     24  O   UNL A   1      35.653  31.843  30.636  1.00  0.00    -0.246 OA
BRANCH  23  25
ATOM     25  C   UNL A   1      36.907  30.256  29.382  1.00  0.00     0.060 A 
ATOM     26  C   UNL A   1      37.311  29.877  28.087  1.00  0.00     0.016 A 
ATOM     27  C   UNL A   1      37.678  29.865  30.474  1.00  0.00     0.016 A 
ATOM     28  C   UNL A   1      38.614  29.367  27.880  1.00  0.00     0.010 A 
ATOM     29  C   UNL A   1      38.961  29.348  30.263  1.00  0.00     0.010 A 
ATOM     30  C   UNL A   1      39.486  29.196  28.966  1.00  0.00    -0.014 A 
BRANCH  30  31
ATOM     31  C   UNL A   1      40.881  28.681  28.814  1.00  0.00     0.031 A 
ATOM     32  C   UNL A   1      41.966  29.711  28.887  1.00  0.00     0.074 A 
ATOM     33  C   UNL A   1      41.195  27.401  28.499  1.00  0.00     0.049 A 
ATOM     34  N   UNL A   1      43.239  29.600  28.627  1.00  0.00    -0.248 NA
ATOM     35  C   UNL A   1      41.536  31.065  29.274  1.00  0.00     0.031 C 
ATOM     36  C   UNL A   1      40.255  26.286  28.386  1.00  0.00     0.029 A 
ATOM     37  N   UNL A   1      42.411  26.820  28.186  1.00  0.00    -0.354 N 
ATOM     38  C   UNL A   1      43.758  30.873  28.804  1.00  0.00     0.074 A 
ATOM     39  C   UNL A   1      42.660  31.747  29.147  1.00  0.00     0.031 C 
ATOM     40  C   UNL A   1      40.919  25.171  28.012  1.00  0.00     0.029 A 
ATOM     41  C   UNL A   1      42.335  25.485  27.831  1.00  0.00     0.049 A 
ATOM     42  H   UNL A   1      43.261  27.316  28.213  1.00  0.00     0.167 HD
ATOM     43  C   UNL A   1      45.040  31.284  28.706  1.00  0.00     0.037 A 
ATOM     44  C   UNL A   1      43.291  24.627  27.399  1.00  0.00     0.037 A 
ATOM     45  C   UNL A   1      46.137  30.431  28.360  1.00  0.00     0.049 A 
ATOM     46  C   UNL A   1      44.716  25.132  27.248  1.00  0.00     0.074 A 
ATOM     47  C   UNL A   1      47.477  30.755  28.270  1.00  0.00     0.029 A 
ATOM     48  N   UNL A   1      46.021  29.089  28.034  1.00  0.00    -0.354 N 
ATOM     49  N   UNL A   1      45.205  26.322  27.507  1.00  0.00    -0.248 NA
ATOM     50  C   UNL A   1      45.722  24.178  26.742  1.00  0.00     0.031 C 
ATOM     51  C   UNL A   1      48.167  29.620  27.837  1.00  0.00     0.029 A 
ATOM     52  C   UNL A   1      47.265  28.576  27.714  1.00  0.00     0.049 A 
ATOM     53  H   UNL A   1      45.180  28.577  28.032  1.00  0.00     0.167 HD
ATOM     54  C   UNL A   1      46.570  26.248  27.231  1.00  0.00     0.074 A 
ATOM     55  C   UNL A   1      46.837  24.893  26.801  1.00  0.00     0.031 C 
ATOM     56  C   UNL A   1      47.517  27.214  27.317  1.00  0.00     0.037 A 
BRANCH  43  57
ATOM     57  C   UNL A   1      45.306  32.734  28.973  1.00  0.00     0.058 A 
ATOM     58  C   UNL A   1      45.245  33.687  27.943  1.00  0.00     0.135 A 
ATOM     59  C   UNL A   1      45.631  33.171  30.264  1.00  0.00     0.135 A 
ATOM     60  F   UNL A   1      44.979  33.308  26.683  1.00  0.00    -0.206 F 
ATOM     61  C   UNL A   1      45.517  35.026  28.184  1.00  0.00     0.059 A 
ATOM     62  C   UNL A   1      45.876  34.511  30.534  1.00  0.00     0.059 A 
ATOM     63  F   UNL A   1      45.723  32.292  31.274  1.00  0.00    -0.206 F 
ATOM     64  C   UNL A   1      45.824  35.430  29.485  1.00  0.00     0.060 A 
BRANCH  64  65
ATOM     65  S   UNL A   1      46.135  37.180  29.784  1.00  0.00     0.124 S 
ATOM     66  O   UNL A   1      47.500  37.323  29.287  1.00  0.00    -0.237 OA
ATOM     67  O   UNL A   1      45.098  37.818  28.980  1.00  0.00    -0.237 OA
ATOM     68  O   UNL A   1      45.976  37.312  31.228  1.00  0.00    -0.744 OA
ENDBRANCH  64  65
ENDBRANCH  43  57
BRANCH  44  69
ATOM     69  C   UNL A   1      42.986  23.200  27.042  1.00  0.00     0.058 A 
ATOM     70  C   UNL A   1      42.782  22.227  28.039  1.00  0.00     0.135 A 
ATOM     71  C   UNL A   1      43.011  22.750  25.712  1.00  0.00     0.135 A 
ATOM     72  F   UNL A   1      42.776  22.586  29.332  1.00  0.00    -0.206 F 
ATOM     73  C   UNL A   1      42.658  20.870  27.738  1.00  0.00     0.059 A 
ATOM     74  C   UNL A   1      42.858  21.400  25.383  1.00  0.00     0.059 A 
ATOM     75  F   UNL A   1      43.206  23.621  24.711  1.00  0.00    -0.206 F 
ATOM     76  C   UNL A   1      42.703  20.464  26.404  1.00  0.00     0.060 A 
BRANCH  76  77
ATOM     77  S   UNL A   1      42.549  18.701  26.023  1.00  0.00     0.124 S 
ATOM     78  O   UNL A   1      42.939  18.089  27.288  1.00  0.00    -0.237 OA
ATOM     79  O   UNL A   1      41.139  18.585  25.666  1.00  0.00    -0.237 OA
ATOM     80  O   UNL A   1      43.485  18.513  24.918  1.00  0.00    -0.744 OA
ENDBRANCH  76  77
ENDBRANCH  44  69
BRANCH  56  81
ATOM     81  C   UNL A   1      48.940  26.852  26.984  1.00  0.00     0.058 A 
ATOM     82  C   UNL A   1      49.819  26.344  27.952  1.00  0.00     0.135 A 
ATOM     83  C   UNL A   1      49.392  26.910  25.655  1.00  0.00     0.135 A 
ATOM     84  F   UNL A   1      49.437  26.268  29.238  1.00  0.00    -0.206 F 
ATOM     85  C   UNL A   1      51.098  25.915  27.618  1.00  0.00     0.059 A 
ATOM     86  C   UNL A   1      50.657  26.457  25.292  1.00  0.00     0.059 A 
ATOM     87  F   UNL A   1      48.587  27.373  24.685  1.00  0.00    -0.206 F 
ATOM     88  C   UNL A   1      51.506  25.965  26.283  1.00  0.00     0.060 A 
BRANCH  88  89
ATOM     89  S   UNL A   1      53.144  25.342  25.853  1.00  0.00     0.124 S 
ATOM     90  O   UNL A   1      53.889  25.600  27.081  1.00  0.00    -0.237 OA
ATOM     91  O   UNL A   1      52.876  23.937  25.557  1.00  0.00    -0.237 OA
ATOM     92  O   UNL A   1      53.528  26.155  24.702  1.00  0.00    -0.744 OA
ENDBRANCH  88  89
ENDBRANCH  56  81
ENDBRANCH  30  31
ENDBRANCH  23  25
ENDBRANCH  22  23
ENDBRANCH   1  22
TORSDOF 15
ENDMDL
