MODEL 1
REMARK VINA RESULT:     -11.6      0.000      0.000
REMARK SMILES Cc1cc(C(=O)OCCOC(=O)c2ccc(-c3c4nc(c(-c5c(F)cc(S(=O)(=O)[O-])cc5F)c5ccc([nH]5)c(-c5c(F)cc(S(=O)(=O)[O-])cc5F)c5nc(c(-c6c(F)cc(S(=O)(=O)[O-])cc6F)c6ccc3[nH]6)C=C5)C=C4)cc2)c(NC(=O)c2nc(C(C)(C)C)n[nH]2)s1
REMARK SMILES IDX 8 1 7 2 5 3 6 4 4 5 1 6 2 7 3 8 92 9 79 10 80 11 81 12 82 14
REMARK SMILES IDX 83 15 84 16 91 17 85 18 90 19 86 21 87 22 88 23 89 24 9 25
REMARK SMILES IDX 10 26 11 27 12 28 13 29 14 30 78 31 15 32 77 33 16 34 17 35
REMARK SMILES IDX 18 36 71 37 19 38 76 39 70 40 72 41 20 42 75 43 69 44 68 45
REMARK SMILES IDX 21 47 55 48 34 49 54 50 35 51 38 52 53 53 73 54 36 55 37 56
REMARK SMILES IDX 52 58 74 59 39 60 22 61 23 62 32 63 24 64 25 65 31 66 33 67
REMARK SMILES IDX 26 68 27 69 28 70 29 71 30 72 56 73 57 74 66 75 58 76 59 77
REMARK SMILES IDX 65 78 67 79 60 80 61 81 62 82 63 83 64 84 40 85 41 86 50 87
REMARK SMILES IDX 42 88 43 89 49 90 51 91 44 92 45 93 46 94 47 95 48 96
REMARK H PARENT 80 13 91 20 72 46 38 57
REMARK Flexibility Score: inf
ROOT
ATOM      1  C   UNL A   1      37.684  23.379  25.671  1.00  0.00     0.275 C 
ENDROOT
BRANCH   1   2
ATOM      2  O   UNL A   1      36.476  23.808  25.013  1.00  0.00    -0.458 OA
BRANCH   2   3
ATOM      3  C   UNL A   1      36.173  23.201  23.829  1.00  0.00     0.341 C 
ATOM      4  O   UNL A   1      36.924  23.153  22.859  1.00  0.00    -0.246 OA
BRANCH   3   5
ATOM      5  C   UNL A   1      34.855  22.565  23.837  1.00  0.00     0.095 A 
ATOM      6  C   UNL A   1      32.416  19.893  25.001  1.00  0.00     0.056 C 
ATOM      7  C   UNL A   1      33.189  21.004  24.386  1.00  0.00     0.004 A 
ATOM      8  C   UNL A   1      34.491  21.397  24.602  1.00  0.00     0.033 A 
ATOM      9  S   UNL A   1      32.445  21.981  23.218  1.00  0.00    -0.122 S 
ATOM     10  C   UNL A   1      33.775  23.018  23.086  1.00  0.00     0.110 A 
BRANCH  10  11
ATOM     11  N   UNL A   1      33.741  24.156  22.298  1.00  0.00    -0.310 N 
ATOM     12  C   UNL A   1      33.575  25.503  22.568  1.00  0.00     0.293 C 
ATOM     13  H   UNL A   1      33.859  23.966  21.340  1.00  0.00     0.171 HD
ATOM     14  O   UNL A   1      33.646  26.256  21.593  1.00  0.00    -0.265 OA
BRANCH  12  15
ATOM     15  C   UNL A   1      33.370  26.010  23.900  1.00  0.00     0.214 A 
ATOM     16  N   UNL A   1      33.011  27.238  24.232  1.00  0.00    -0.207 NA
ATOM     17  N   UNL A   1      33.625  25.310  25.039  1.00  0.00    -0.255 N 
ATOM     18  C   UNL A   1      33.044  27.223  25.611  1.00  0.00     0.156 A 
ATOM     19  N   UNL A   1      33.371  26.033  26.138  1.00  0.00    -0.158 NA
ATOM     20  H   UNL A   1      33.958  24.383  25.053  1.00  0.00     0.192 HD
BRANCH  18  21
ATOM     21  C   UNL A   1      32.807  28.457  26.456  1.00  0.00     0.024 C 
ATOM     22  C   UNL A   1      31.786  28.134  27.563  1.00  0.00     0.019 C 
ATOM     23  C   UNL A   1      34.115  28.939  27.111  1.00  0.00     0.019 C 
ATOM     24  C   UNL A   1      32.248  29.622  25.609  1.00  0.00     0.019 C 
ENDBRANCH  18  21
ENDBRANCH  12  15
ENDBRANCH  10  11
ENDBRANCH   3   5
ENDBRANCH   2   3
ENDBRANCH   1   2
BRANCH   1  25
ATOM     25  C   UNL A   1      38.344  24.516  26.459  1.00  0.00     0.275 C 
BRANCH  25  26
ATOM     26  O   UNL A   1      39.746  24.265  26.673  1.00  0.00    -0.458 OA
BRANCH  26  27
ATOM     27  C   UNL A   1      40.571  25.298  26.369  1.00  0.00     0.338 C 
ATOM     28  O   UNL A   1      41.085  25.516  25.284  1.00  0.00    -0.246 OA
BRANCH  27  29
ATOM     29  C   UNL A   1      40.600  26.260  27.491  1.00  0.00     0.060 A 
ATOM     30  C   UNL A   1      39.677  26.060  28.520  1.00  0.00     0.016 A 
ATOM     31  C   UNL A   1      41.501  27.327  27.555  1.00  0.00     0.016 A 
ATOM     32  C   UNL A   1      39.688  26.882  29.644  1.00  0.00     0.010 A 
ATOM     33  C   UNL A   1      41.489  28.175  28.672  1.00  0.00     0.010 A 
ATOM     34  C   UNL A   1      40.594  27.944  29.730  1.00  0.00    -0.014 A 
BRANCH  34  35
ATOM     35  C   UNL A   1      40.519  28.849  30.902  1.00  0.00     0.031 A 
ATOM     36  C   UNL A   1      39.499  29.947  30.911  1.00  0.00     0.074 A 
ATOM     37  C   UNL A   1      41.293  28.639  31.984  1.00  0.00     0.049 A 
ATOM     38  N   UNL A   1      39.255  30.845  31.830  1.00  0.00    -0.248 NA
ATOM     39  C   UNL A   1      38.627  30.037  29.730  1.00  0.00     0.031 C 
ATOM     40  C   UNL A   1      42.242  27.539  32.137  1.00  0.00     0.029 A 
ATOM     41  N   UNL A   1      41.385  29.331  33.166  1.00  0.00    -0.354 N 
ATOM     42  C   UNL A   1      38.200  31.605  31.343  1.00  0.00     0.074 A 
ATOM     43  C   UNL A   1      37.860  31.072  30.041  1.00  0.00     0.031 C 
ATOM     44  C   UNL A   1      42.822  27.629  33.347  1.00  0.00     0.029 A 
ATOM     45  C   UNL A   1      42.314  28.813  34.038  1.00  0.00     0.049 A 
ATOM     46  H   UNL A   1      40.838  30.123  33.371  1.00  0.00     0.167 HD
ATOM     47  C   UNL A   1      37.577  32.655  31.927  1.00  0.00     0.037 A 
ATOM     48  C   UNL A   1      42.721  29.254  35.245  1.00  0.00     0.037 A 
ATOM     49  C   UNL A   1      37.937  33.196  33.212  1.00  0.00     0.049 A 
ATOM     50  C   UNL A   1      42.088  30.495  35.826  1.00  0.00     0.074 A 
ATOM     51  C   UNL A   1      37.391  34.285  33.870  1.00  0.00     0.029 A 
ATOM     52  N   UNL A   1      38.941  32.699  34.031  1.00  0.00    -0.354 N 
ATOM     53  N   UNL A   1      41.109  31.226  35.347  1.00  0.00    -0.248 NA
ATOM     54  C   UNL A   1      42.620  30.978  37.109  1.00  0.00     0.031 C 
ATOM     55  C   UNL A   1      38.103  34.482  35.058  1.00  0.00     0.029 A 
ATOM     56  C   UNL A   1      39.052  33.478  35.173  1.00  0.00     0.049 A 
ATOM     57  H   UNL A   1      39.494  31.910  33.830  1.00  0.00     0.167 HD
ATOM     58  C   UNL A   1      40.891  32.236  36.279  1.00  0.00     0.074 A 
ATOM     59  C   UNL A   1      41.834  32.017  37.357  1.00  0.00     0.031 C 
ATOM     60  C   UNL A   1      39.990  33.249  36.245  1.00  0.00     0.037 A 
BRANCH  47  61
ATOM     61  C   UNL A   1      36.487  33.329  31.143  1.00  0.00     0.058 A 
ATOM     62  C   UNL A   1      36.760  34.119  30.015  1.00  0.00     0.135 A 
ATOM     63  C   UNL A   1      35.146  33.180  31.532  1.00  0.00     0.135 A 
ATOM     64  F   UNL A   1      38.027  34.312  29.613  1.00  0.00    -0.206 F 
ATOM     65  C   UNL A   1      35.743  34.764  29.317  1.00  0.00     0.059 A 
ATOM     66  C   UNL A   1      34.112  33.794  30.833  1.00  0.00     0.059 A 
ATOM     67  F   UNL A   1      34.832  32.440  32.606  1.00  0.00    -0.206 F 
ATOM     68  C   UNL A   1      34.422  34.598  29.738  1.00  0.00     0.060 A 
BRANCH  68  69
ATOM     69  S   UNL A   1      33.114  35.454  28.836  1.00  0.00     0.124 S 
ATOM     70  O   UNL A   1      33.885  36.386  28.020  1.00  0.00    -0.237 OA
ATOM     71  O   UNL A   1      32.466  34.364  28.112  1.00  0.00    -0.237 OA
ATOM     72  O   UNL A   1      32.312  36.064  29.893  1.00  0.00    -0.744 OA
ENDBRANCH  68  69
ENDBRANCH  47  61
BRANCH  48  73
ATOM     73  C   UNL A   1      43.811  28.546  35.974  1.00  0.00     0.058 A 
ATOM     74  C   UNL A   1      43.540  27.471  36.835  1.00  0.00     0.135 A 
ATOM     75  C   UNL A   1      45.150  28.949  35.841  1.00  0.00     0.135 A 
ATOM     76  F   UNL A   1      42.276  27.059  37.018  1.00  0.00    -0.206 F 
ATOM     77  C   UNL A   1      44.552  26.831  37.546  1.00  0.00     0.059 A 
ATOM     78  C   UNL A   1      46.181  28.307  36.518  1.00  0.00     0.059 A 
ATOM     79  F   UNL A   1      45.467  29.973  35.033  1.00  0.00    -0.206 F 
ATOM     80  C   UNL A   1      45.872  27.255  37.379  1.00  0.00     0.060 A 
BRANCH  80  81
ATOM     81  S   UNL A   1      47.184  26.397  38.276  1.00  0.00     0.124 S 
ATOM     82  O   UNL A   1      47.965  27.514  38.795  1.00  0.00    -0.237 OA
ATOM     83  O   UNL A   1      46.431  25.631  39.265  1.00  0.00    -0.237 OA
ATOM     84  O   UNL A   1      47.835  25.600  37.241  1.00  0.00    -0.744 OA
ENDBRANCH  80  81
ENDBRANCH  48  73
BRANCH  60  85
ATOM     85  C   UNL A   1      39.947  34.190  37.420  1.00  0.00     0.058 A 
ATOM     86  C   UNL A   1      40.735  35.352  37.471  1.00  0.00     0.135 A 
ATOM     87  C   UNL A   1      39.052  33.961  38.480  1.00  0.00     0.135 A 
ATOM     88  F   UNL A   1      41.610  35.618  36.489  1.00  0.00    -0.206 F 
ATOM     89  C   UNL A   1      40.649  36.243  38.537  1.00  0.00     0.059 A 
ATOM     90  C   UNL A   1      38.929  34.854  39.541  1.00  0.00     0.059 A 
ATOM     91  F   UNL A   1      38.268  32.872  38.479  1.00  0.00    -0.206 F 
ATOM     92  C   UNL A   1      39.739  35.988  39.565  1.00  0.00     0.060 A 
BRANCH  92  93
ATOM     93  S   UNL A   1      39.605  37.177  40.918  1.00  0.00     0.124 S 
ATOM     94  O   UNL A   1      39.206  36.317  42.029  1.00  0.00    -0.237 OA
ATOM     95  O   UNL A   1      40.957  37.721  40.992  1.00  0.00    -0.237 OA
ATOM     96  O   UNL A   1      38.584  38.111  40.452  1.00  0.00    -0.744 OA
ENDBRANCH  92  93
ENDBRANCH  60  85
ENDBRANCH  34  35
ENDBRANCH  27  29
ENDBRANCH  26  27
ENDBRANCH  25  26
ENDBRANCH   1  25
TORSDOF 17
ENDMDL
MODEL 2
REMARK VINA RESULT:     -11.5      4.351     10.265
REMARK SMILES Cc1cc(C(=O)OCCOC(=O)c2ccc(-c3c4nc(c(-c5c(F)cc(S(=O)(=O)[O-])cc5F)c5ccc([nH]5)c(-c5c(F)cc(S(=O)(=O)[O-])cc5F)c5nc(c(-c6c(F)cc(S(=O)(=O)[O-])cc6F)c6ccc3[nH]6)C=C5)C=C4)cc2)c(NC(=O)c2nc(C(C)(C)C)n[nH]2)s1
REMARK SMILES IDX 8 1 7 2 5 3 6 4 4 5 1 6 2 7 3 8 92 9 79 10 80 11 81 12 82 14
REMARK SMILES IDX 83 15 84 16 91 17 85 18 90 19 86 21 87 22 88 23 89 24 9 25
REMARK SMILES IDX 10 26 11 27 12 28 13 29 14 30 78 31 15 32 77 33 16 34 17 35
REMARK SMILES IDX 18 36 71 37 19 38 76 39 70 40 72 41 20 42 75 43 69 44 68 45
REMARK SMILES IDX 21 47 55 48 34 49 54 50 35 51 38 52 53 53 73 54 36 55 37 56
REMARK SMILES IDX 52 58 74 59 39 60 22 61 23 62 32 63 24 64 25 65 31 66 33 67
REMARK SMILES IDX 26 68 27 69 28 70 29 71 30 72 56 73 57 74 66 75 58 76 59 77
REMARK SMILES IDX 65 78 67 79 60 80 61 81 62 82 63 83 64 84 40 85 41 86 50 87
REMARK SMILES IDX 42 88 43 89 49 90 51 91 44 92 45 93 46 94 47 95 48 96
REMARK H PARENT 80 13 91 20 72 46 38 57
REMARK Flexibility Score: inf
ROOT
ATOM      1  C   UNL A   1      40.690  20.297  26.230  1.00  0.00     0.275 C 
ENDROOT
BRANCH   1   2
ATOM      2  O   UNL A   1      41.542  21.044  27.119  1.00  0.00    -0.458 OA
BRANCH   2   3
ATOM      3  C   UNL A   1      42.434  21.899  26.540  1.00  0.00     0.341 C 
ATOM      4  O   UNL A   1      42.477  22.152  25.339  1.00  0.00    -0.246 OA
BRANCH   3   5
ATOM      5  C   UNL A   1      43.329  22.531  27.510  1.00  0.00     0.095 A 
ATOM      6  C   UNL A   1      44.273  23.559  31.045  1.00  0.00     0.056 C 
ATOM      7  C   UNL A   1      44.102  23.293  29.592  1.00  0.00     0.004 A 
ATOM      8  C   UNL A   1      43.104  22.612  28.932  1.00  0.00     0.033 A 
ATOM      9  S   UNL A   1      45.252  23.894  28.501  1.00  0.00    -0.122 S 
ATOM     10  C   UNL A   1      44.528  23.148  27.166  1.00  0.00     0.110 A 
BRANCH  10  11
ATOM     11  N   UNL A   1      45.099  23.191  25.905  1.00  0.00    -0.310 N 
ATOM     12  C   UNL A   1      45.331  24.205  24.993  1.00  0.00     0.293 C 
ATOM     13  H   UNL A   1      45.405  22.310  25.590  1.00  0.00     0.171 HD
ATOM     14  O   UNL A   1      45.918  23.870  23.960  1.00  0.00    -0.265 OA
BRANCH  12  15
ATOM     15  C   UNL A   1      44.950  25.572  25.236  1.00  0.00     0.214 A 
ATOM     16  N   UNL A   1      45.640  26.476  25.910  1.00  0.00    -0.207 NA
ATOM     17  N   UNL A   1      43.749  26.111  24.892  1.00  0.00    -0.255 N 
ATOM     18  C   UNL A   1      44.805  27.574  25.927  1.00  0.00     0.156 A 
ATOM     19  N   UNL A   1      43.652  27.395  25.264  1.00  0.00    -0.158 NA
ATOM     20  H   UNL A   1      43.036  25.616  24.427  1.00  0.00     0.192 HD
BRANCH  18  21
ATOM     21  C   UNL A   1      45.125  28.843  26.688  1.00  0.00     0.024 C 
ATOM     22  C   UNL A   1      43.820  29.602  26.993  1.00  0.00     0.019 C 
ATOM     23  C   UNL A   1      45.837  28.527  28.017  1.00  0.00     0.019 C 
ATOM     24  C   UNL A   1      46.047  29.775  25.870  1.00  0.00     0.019 C 
ENDBRANCH  18  21
ENDBRANCH  12  15
ENDBRANCH  10  11
ENDBRANCH   3   5
ENDBRANCH   2   3
ENDBRANCH   1   2
BRANCH   1  25
ATOM     25  C   UNL A   1      39.369  21.024  25.953  1.00  0.00     0.275 C 
BRANCH  25  26
ATOM     26  O   UNL A   1      39.235  22.203  26.768  1.00  0.00    -0.458 OA
BRANCH  26  27
ATOM     27  C   UNL A   1      38.859  23.325  26.105  1.00  0.00     0.338 C 
ATOM     28  O   UNL A   1      38.117  23.376  25.137  1.00  0.00    -0.246 OA
BRANCH  27  29
ATOM     29  C   UNL A   1      39.305  24.520  26.852  1.00  0.00     0.060 A 
ATOM     30  C   UNL A   1      38.807  24.680  28.148  1.00  0.00     0.016 A 
ATOM     31  C   UNL A   1      40.190  25.463  26.321  1.00  0.00     0.016 A 
ATOM     32  C   UNL A   1      39.235  25.741  28.940  1.00  0.00     0.010 A 
ATOM     33  C   UNL A   1      40.595  26.551  27.108  1.00  0.00     0.010 A 
ATOM     34  C   UNL A   1      40.133  26.684  28.428  1.00  0.00    -0.014 A 
BRANCH  34  35
ATOM     35  C   UNL A   1      40.499  27.847  29.271  1.00  0.00     0.031 A 
ATOM     36  C   UNL A   1      41.838  27.866  29.946  1.00  0.00     0.074 A 
ATOM     37  C   UNL A   1      39.682  28.913  29.364  1.00  0.00     0.049 A 
ATOM     38  N   UNL A   1      42.364  28.779  30.720  1.00  0.00    -0.248 NA
ATOM     39  C   UNL A   1      42.706  26.703  29.705  1.00  0.00     0.031 C 
ATOM     40  C   UNL A   1      38.407  29.059  28.666  1.00  0.00     0.029 A 
ATOM     41  N   UNL A   1      39.817  30.085  30.067  1.00  0.00    -0.354 N 
ATOM     42  C   UNL A   1      43.625  28.307  31.056  1.00  0.00     0.074 A 
ATOM     43  C   UNL A   1      43.780  27.019  30.414  1.00  0.00     0.031 C 
ATOM     44  C   UNL A   1      37.875  30.254  28.975  1.00  0.00     0.029 A 
ATOM     45  C   UNL A   1      38.751  30.942  29.921  1.00  0.00     0.049 A 
ATOM     46  H   UNL A   1      40.602  30.293  30.623  1.00  0.00     0.167 HD
ATOM     47  C   UNL A   1      44.565  28.893  31.834  1.00  0.00     0.037 A 
ATOM     48  C   UNL A   1      38.503  32.135  30.499  1.00  0.00     0.037 A 
ATOM     49  C   UNL A   1      44.394  30.163  32.491  1.00  0.00     0.049 A 
ATOM     50  C   UNL A   1      39.519  32.715  31.452  1.00  0.00     0.074 A 
ATOM     51  C   UNL A   1      45.275  30.820  33.333  1.00  0.00     0.029 A 
ATOM     52  N   UNL A   1      43.266  30.965  32.389  1.00  0.00    -0.354 N 
ATOM     53  N   UNL A   1      40.700  32.249  31.787  1.00  0.00    -0.248 NA
ATOM     54  C   UNL A   1      39.167  33.980  32.114  1.00  0.00     0.031 C 
ATOM     55  C   UNL A   1      44.656  31.989  33.788  1.00  0.00     0.029 A 
ATOM     56  C   UNL A   1      43.415  32.095  33.179  1.00  0.00     0.049 A 
ATOM     57  H   UNL A   1      42.477  30.761  31.838  1.00  0.00     0.167 HD
ATOM     58  C   UNL A   1      41.240  33.175  32.675  1.00  0.00     0.074 A 
ATOM     59  C   UNL A   1      40.262  34.233  32.819  1.00  0.00     0.031 C 
ATOM     60  C   UNL A   1      42.438  33.148  33.311  1.00  0.00     0.037 A 
BRANCH  47  61
ATOM     61  C   UNL A   1      45.834  28.125  32.072  1.00  0.00     0.058 A 
ATOM     62  C   UNL A   1      45.882  27.009  32.923  1.00  0.00     0.135 A 
ATOM     63  C   UNL A   1      47.023  28.517  31.436  1.00  0.00     0.135 A 
ATOM     64  F   UNL A   1      44.779  26.606  33.573  1.00  0.00    -0.206 F 
ATOM     65  C   UNL A   1      47.072  26.328  33.159  1.00  0.00     0.059 A 
ATOM     66  C   UNL A   1      48.217  27.834  31.636  1.00  0.00     0.059 A 
ATOM     67  F   UNL A   1      47.032  29.580  30.617  1.00  0.00    -0.206 F 
ATOM     68  C   UNL A   1      48.236  26.751  32.514  1.00  0.00     0.060 A 
BRANCH  68  69
ATOM     69  S   UNL A   1      49.776  25.870  32.842  1.00  0.00     0.124 S 
ATOM     70  O   UNL A   1      49.346  24.893  33.838  1.00  0.00    -0.237 OA
ATOM     71  O   UNL A   1      50.115  25.330  31.530  1.00  0.00    -0.237 OA
ATOM     72  O   UNL A   1      50.668  26.915  33.336  1.00  0.00    -0.744 OA
ENDBRANCH  68  69
ENDBRANCH  47  61
BRANCH  48  73
ATOM     73  C   UNL A   1      37.224  32.848  30.228  1.00  0.00     0.058 A 
ATOM     74  C   UNL A   1      37.119  33.808  29.209  1.00  0.00     0.135 A 
ATOM     75  C   UNL A   1      36.079  32.598  31.002  1.00  0.00     0.135 A 
ATOM     76  F   UNL A   1      38.187  34.103  28.452  1.00  0.00    -0.206 F 
ATOM     77  C   UNL A   1      35.934  34.502  28.977  1.00  0.00     0.059 A 
ATOM     78  C   UNL A   1      34.876  33.257  30.771  1.00  0.00     0.059 A 
ATOM     79  F   UNL A   1      36.121  31.691  31.992  1.00  0.00    -0.206 F 
ATOM     80  C   UNL A   1      34.816  34.218  29.763  1.00  0.00     0.060 A 
BRANCH  80  81
ATOM     81  S   UNL A   1      33.272  35.096  29.434  1.00  0.00     0.124 S 
ATOM     82  O   UNL A   1      32.649  35.102  30.752  1.00  0.00    -0.237 OA
ATOM     83  O   UNL A   1      33.750  36.387  28.948  1.00  0.00    -0.237 OA
ATOM     84  O   UNL A   1      32.617  34.262  28.431  1.00  0.00    -0.744 OA
ENDBRANCH  80  81
ENDBRANCH  48  73
BRANCH  60  85
ATOM     85  C   UNL A   1      42.786  34.314  34.200  1.00  0.00     0.058 A 
ATOM     86  C   UNL A   1      42.581  34.276  35.589  1.00  0.00     0.135 A 
ATOM     87  C   UNL A   1      43.399  35.458  33.662  1.00  0.00     0.135 A 
ATOM     88  F   UNL A   1      41.995  33.209  36.157  1.00  0.00    -0.206 F 
ATOM     89  C   UNL A   1      42.955  35.336  36.409  1.00  0.00     0.059 A 
ATOM     90  C   UNL A   1      43.807  36.518  34.467  1.00  0.00     0.059 A 
ATOM     91  F   UNL A   1      43.628  35.545  32.342  1.00  0.00    -0.206 F 
ATOM     92  C   UNL A   1      43.573  36.452  35.839  1.00  0.00     0.060 A 
BRANCH  92  93
ATOM     93  S   UNL A   1      44.096  37.800  36.921  1.00  0.00     0.124 S 
ATOM     94  O   UNL A   1      44.102  38.933  36.000  1.00  0.00    -0.237 OA
ATOM     95  O   UNL A   1      43.046  37.813  37.934  1.00  0.00    -0.237 OA
ATOM     96  O   UNL A   1      45.409  37.371  37.392  1.00  0.00    -0.744 OA
ENDBRANCH  92  93
ENDBRANCH  60  85
ENDBRANCH  34  35
ENDBRANCH  27  29
ENDBRANCH  26  27
ENDBRANCH  25  26
ENDBRANCH   1  25
TORSDOF 17
ENDMDL
MODEL 3
REMARK VINA RESULT:     -11.4      4.231      6.271
REMARK SMILES Cc1cc(C(=O)OCCOC(=O)c2ccc(-c3c4nc(c(-c5c(F)cc(S(=O)(=O)[O-])cc5F)c5ccc([nH]5)c(-c5c(F)cc(S(=O)(=O)[O-])cc5F)c5nc(c(-c6c(F)cc(S(=O)(=O)[O-])cc6F)c6ccc3[nH]6)C=C5)C=C4)cc2)c(NC(=O)c2nc(C(C)(C)C)n[nH]2)s1
REMARK SMILES IDX 8 1 7 2 5 3 6 4 4 5 1 6 2 7 3 8 92 9 79 10 80 11 81 12 82 14
REMARK SMILES IDX 83 15 84 16 91 17 85 18 90 19 86 21 87 22 88 23 89 24 9 25
REMARK SMILES IDX 10 26 11 27 12 28 13 29 14 30 78 31 15 32 77 33 16 34 17 35
REMARK SMILES IDX 18 36 71 37 19 38 76 39 70 40 72 41 20 42 75 43 69 44 68 45
REMARK SMILES IDX 21 47 55 48 34 49 54 50 35 51 38 52 53 53 73 54 36 55 37 56
REMARK SMILES IDX 52 58 74 59 39 60 22 61 23 62 32 63 24 64 25 65 31 66 33 67
REMARK SMILES IDX 26 68 27 69 28 70 29 71 30 72 56 73 57 74 66 75 58 76 59 77
REMARK SMILES IDX 65 78 67 79 60 80 61 81 62 82 63 83 64 84 40 85 41 86 50 87
REMARK SMILES IDX 42 88 43 89 49 90 51 91 44 92 45 93 46 94 47 95 48 96
REMARK H PARENT 80 13 91 20 72 46 38 57
REMARK Flexibility Score: inf
ROOT
ATOM      1  C   UNL A   1      40.648  20.782  26.103  1.00  0.00     0.275 C 
ENDROOT
BRANCH   1   2
ATOM      2  O   UNL A   1      41.516  21.407  27.068  1.00  0.00    -0.458 OA
BRANCH   2   3
ATOM      3  C   UNL A   1      42.422  22.307  26.588  1.00  0.00     0.341 C 
ATOM      4  O   UNL A   1      42.473  22.689  25.422  1.00  0.00    -0.246 OA
BRANCH   3   5
ATOM      5  C   UNL A   1      43.320  22.818  27.624  1.00  0.00     0.095 A 
ATOM      6  C   UNL A   1      44.198  23.574  31.243  1.00  0.00     0.056 C 
ATOM      7  C   UNL A   1      44.065  23.403  29.772  1.00  0.00     0.004 A 
ATOM      8  C   UNL A   1      43.047  22.834  29.040  1.00  0.00     0.033 A 
ATOM      9  S   UNL A   1      45.294  23.982  28.758  1.00  0.00    -0.122 S 
ATOM     10  C   UNL A   1      44.572  23.366  27.358  1.00  0.00     0.110 A 
BRANCH  10  11
ATOM     11  N   UNL A   1      45.191  23.440  26.122  1.00  0.00    -0.310 N 
ATOM     12  C   UNL A   1      45.411  24.466  25.219  1.00  0.00     0.293 C 
ATOM     13  H   UNL A   1      45.553  22.576  25.819  1.00  0.00     0.171 HD
ATOM     14  O   UNL A   1      46.056  24.162  24.212  1.00  0.00    -0.265 OA
BRANCH  12  15
ATOM     15  C   UNL A   1      44.954  25.812  25.447  1.00  0.00     0.214 A 
ATOM     16  N   UNL A   1      45.481  26.695  26.277  1.00  0.00    -0.207 NA
ATOM     17  N   UNL A   1      43.823  26.344  24.909  1.00  0.00    -0.255 N 
ATOM     18  C   UNL A   1      44.628  27.775  26.185  1.00  0.00     0.156 A 
ATOM     19  N   UNL A   1      43.623  27.606  25.311  1.00  0.00    -0.158 NA
ATOM     20  H   UNL A   1      43.223  25.858  24.297  1.00  0.00     0.192 HD
BRANCH  18  21
ATOM     21  C   UNL A   1      44.765  29.012  27.048  1.00  0.00     0.024 C 
ATOM     22  C   UNL A   1      45.342  28.620  28.421  1.00  0.00     0.019 C 
ATOM     23  C   UNL A   1      45.703  30.043  26.392  1.00  0.00     0.019 C 
ATOM     24  C   UNL A   1      43.398  29.696  27.275  1.00  0.00     0.019 C 
ENDBRANCH  18  21
ENDBRANCH  12  15
ENDBRANCH  10  11
ENDBRANCH   3   5
ENDBRANCH   2   3
ENDBRANCH   1   2
BRANCH   1  25
ATOM     25  C   UNL A   1      39.295  21.495  26.000  1.00  0.00     0.275 C 
BRANCH  25  26
ATOM     26  O   UNL A   1      39.239  22.646  26.862  1.00  0.00    -0.458 OA
BRANCH  26  27
ATOM     27  C   UNL A   1      38.886  23.807  26.255  1.00  0.00     0.338 C 
ATOM     28  O   UNL A   1      38.133  23.923  25.301  1.00  0.00    -0.246 OA
BRANCH  27  29
ATOM     29  C   UNL A   1      39.378  24.954  27.047  1.00  0.00     0.060 A 
ATOM     30  C   UNL A   1      38.894  25.076  28.352  1.00  0.00     0.016 A 
ATOM     31  C   UNL A   1      40.291  25.887  26.548  1.00  0.00     0.016 A 
ATOM     32  C   UNL A   1      39.363  26.089  29.184  1.00  0.00     0.010 A 
ATOM     33  C   UNL A   1      40.739  26.927  27.377  1.00  0.00     0.010 A 
ATOM     34  C   UNL A   1      40.290  27.021  28.705  1.00  0.00    -0.014 A 
BRANCH  34  35
ATOM     35  C   UNL A   1      40.701  28.135  29.592  1.00  0.00     0.031 A 
ATOM     36  C   UNL A   1      39.792  29.317  29.748  1.00  0.00     0.074 A 
ATOM     37  C   UNL A   1      41.831  28.054  30.319  1.00  0.00     0.049 A 
ATOM     38  N   UNL A   1      39.949  30.394  30.472  1.00  0.00    -0.248 NA
ATOM     39  C   UNL A   1      38.529  29.273  28.993  1.00  0.00     0.031 C 
ATOM     40  C   UNL A   1      42.738  26.909  30.337  1.00  0.00     0.029 A 
ATOM     41  N   UNL A   1      42.395  28.945  31.199  1.00  0.00    -0.354 N 
ATOM     42  C   UNL A   1      38.806  31.155  30.268  1.00  0.00     0.074 A 
ATOM     43  C   UNL A   1      37.970  30.423  29.339  1.00  0.00     0.031 C 
ATOM     44  C   UNL A   1      43.747  27.165  31.187  1.00  0.00     0.029 A 
ATOM     45  C   UNL A   1      43.579  28.506  31.745  1.00  0.00     0.049 A 
ATOM     46  H   UNL A   1      41.991  29.815  31.418  1.00  0.00     0.167 HD
ATOM     47  C   UNL A   1      38.487  32.357  30.801  1.00  0.00     0.037 A 
ATOM     48  C   UNL A   1      44.436  29.123  32.583  1.00  0.00     0.037 A 
ATOM     49  C   UNL A   1      39.334  33.092  31.705  1.00  0.00     0.049 A 
ATOM     50  C   UNL A   1      44.111  30.512  33.076  1.00  0.00     0.074 A 
ATOM     51  C   UNL A   1      39.114  34.337  32.268  1.00  0.00     0.029 A 
ATOM     52  N   UNL A   1      40.566  32.655  32.171  1.00  0.00    -0.354 N 
ATOM     53  N   UNL A   1      43.040  31.238  32.856  1.00  0.00    -0.248 NA
ATOM     54  C   UNL A   1      45.114  31.171  33.926  1.00  0.00     0.031 C 
ATOM     55  C   UNL A   1      40.239  34.680  33.025  1.00  0.00     0.029 A 
ATOM     56  C   UNL A   1      41.133  33.621  32.988  1.00  0.00     0.049 A 
ATOM     57  H   UNL A   1      40.977  31.788  31.952  1.00  0.00     0.167 HD
ATOM     58  C   UNL A   1      43.228  32.424  33.559  1.00  0.00     0.074 A 
ATOM     59  C   UNL A   1      44.512  32.315  34.221  1.00  0.00     0.031 C 
ATOM     60  C   UNL A   1      42.411  33.502  33.648  1.00  0.00     0.037 A 
BRANCH  47  61
ATOM     61  C   UNL A   1      37.193  32.981  30.360  1.00  0.00     0.058 A 
ATOM     62  C   UNL A   1      37.124  33.863  29.270  1.00  0.00     0.135 A 
ATOM     63  C   UNL A   1      36.002  32.690  31.046  1.00  0.00     0.135 A 
ATOM     64  F   UNL A   1      38.237  34.192  28.594  1.00  0.00    -0.206 F 
ATOM     65  C   UNL A   1      35.924  34.459  28.894  1.00  0.00     0.059 A 
ATOM     66  C   UNL A   1      34.788  33.254  30.670  1.00  0.00     0.059 A 
ATOM     67  F   UNL A   1      36.014  31.858  32.099  1.00  0.00    -0.206 F 
ATOM     68  C   UNL A   1      34.762  34.151  29.604  1.00  0.00     0.060 A 
BRANCH  68  69
ATOM     69  S   UNL A   1      33.216  34.944  29.117  1.00  0.00     0.124 S 
ATOM     70  O   UNL A   1      32.520  35.037  30.397  1.00  0.00    -0.237 OA
ATOM     71  O   UNL A   1      33.676  36.209  28.553  1.00  0.00    -0.237 OA
ATOM     72  O   UNL A   1      32.638  34.007  28.158  1.00  0.00    -0.744 OA
ENDBRANCH  68  69
ENDBRANCH  47  61
BRANCH  48  73
ATOM     73  C   UNL A   1      45.707  28.455  32.981  1.00  0.00     0.058 A 
ATOM     74  C   UNL A   1      46.894  28.642  32.256  1.00  0.00     0.135 A 
ATOM     75  C   UNL A   1      45.754  27.593  34.090  1.00  0.00     0.135 A 
ATOM     76  F   UNL A   1      46.902  29.436  31.174  1.00  0.00    -0.206 F 
ATOM     77  C   UNL A   1      48.074  27.990  32.604  1.00  0.00     0.059 A 
ATOM     78  C   UNL A   1      46.927  26.954  34.475  1.00  0.00     0.059 A 
ATOM     79  F   UNL A   1      44.648  27.376  34.820  1.00  0.00    -0.206 F 
ATOM     80  C   UNL A   1      48.082  27.149  33.718  1.00  0.00     0.060 A 
BRANCH  80  81
ATOM     81  S   UNL A   1      49.625  26.335  34.186  1.00  0.00     0.124 S 
ATOM     82  O   UNL A   1      50.507  26.723  33.091  1.00  0.00    -0.237 OA
ATOM     83  O   UNL A   1      49.912  26.941  35.483  1.00  0.00    -0.237 OA
ATOM     84  O   UNL A   1      49.261  24.922  34.231  1.00  0.00    -0.744 OA
ENDBRANCH  80  81
ENDBRANCH  48  73
BRANCH  60  85
ATOM     85  C   UNL A   1      42.854  34.649  34.519  1.00  0.00     0.058 A 
ATOM     86  C   UNL A   1      42.600  34.675  35.900  1.00  0.00     0.135 A 
ATOM     87  C   UNL A   1      43.606  35.704  33.974  1.00  0.00     0.135 A 
ATOM     88  F   UNL A   1      41.883  33.695  36.473  1.00  0.00    -0.206 F 
ATOM     89  C   UNL A   1      43.060  35.712  36.705  1.00  0.00     0.059 A 
ATOM     90  C   UNL A   1      44.100  36.737  34.765  1.00  0.00     0.059 A 
ATOM     91  F   UNL A   1      43.887  35.726  32.661  1.00  0.00    -0.206 F 
ATOM     92  C   UNL A   1      43.814  36.737  36.130  1.00  0.00     0.060 A 
BRANCH  92  93
ATOM     93  S   UNL A   1      44.445  38.052  37.194  1.00  0.00     0.124 S 
ATOM     94  O   UNL A   1      45.711  37.484  37.648  1.00  0.00    -0.237 OA
ATOM     95  O   UNL A   1      44.551  39.178  36.271  1.00  0.00    -0.237 OA
ATOM     96  O   UNL A   1      43.415  38.186  38.220  1.00  0.00    -0.744 OA
ENDBRANCH  92  93
ENDBRANCH  60  85
ENDBRANCH  34  35
ENDBRANCH  27  29
ENDBRANCH  26  27
ENDBRANCH  25  26
ENDBRANCH   1  25
TORSDOF 17
ENDMDL
