MODEL 1
REMARK VINA RESULT:     -10.8      0.000      0.000
REMARK SMILES Cc1cccc(C[N@@H+](C)C[C@]2(C(=O)OCCOC(=O)c3ccc(-c4c5nc(c(-c6c(F)cc(S(=O)(=O)[O-])cc6F)c6ccc([nH]6)c(-c6c(F)cc(S(=O)(=O)[O-])cc6F)c6nc(c(-c7c(F)cc(S(=O)(=O)[O-])cc7F)c7ccc4[nH]7)C=C6)C=C5)cc3)CCOC2)n1
REMARK SMILES IDX 15 1 14 2 12 3 13 4 11 5 86 6 89 7 87 8 88 9 10 10 8 11 9 12
REMARK SMILES IDX 7 14 6 15 1 16 2 17 3 18 90 19 4 20 5 21 16 22 17 23 18 24
REMARK SMILES IDX 19 25 20 26 21 27 85 28 22 29 84 30 23 31 24 32 25 33 78 34
REMARK SMILES IDX 26 35 83 36 77 37 79 38 27 39 82 40 76 41 75 42 28 44 62 45
REMARK SMILES IDX 41 46 61 47 42 48 45 49 60 50 80 51 43 52 44 53 59 55 81 56
REMARK SMILES IDX 46 57 29 58 30 59 39 60 31 61 32 62 38 63 40 64 33 65 34 66
REMARK SMILES IDX 35 67 36 68 37 69 63 70 64 71 73 72 65 73 66 74 72 75 74 76
REMARK SMILES IDX 67 77 68 78 69 79 70 80 71 81 47 82 48 83 57 84 49 85 50 86
REMARK SMILES IDX 56 87 58 88 51 89 52 90 53 91 54 92 55 93
REMARK H PARENT 8 13 79 43 45 54
REMARK Flexibility Score: inf
ROOT
ATOM      1  C   UNL A   1      31.938  28.288  26.077  1.00  0.00     0.274 C 
ENDROOT
BRANCH   1   2
ATOM      2  O   UNL A   1      32.684  27.066  25.827  1.00  0.00    -0.461 OA
BRANCH   2   3
ATOM      3  C   UNL A   1      32.018  25.868  25.940  1.00  0.00     0.320 C 
ATOM      4  O   UNL A   1      31.424  25.508  26.949  1.00  0.00    -0.251 OA
BRANCH   3   5
ATOM      5  C   UNL A   1      31.970  25.124  24.603  1.00  0.00     0.142 C 
ATOM      6  C   UNL A   1      32.525  23.706  24.740  1.00  0.00     0.055 C 
ATOM      7  C   UNL A   1      30.531  24.770  24.205  1.00  0.00     0.185 C 
ATOM      8  C   UNL A   1      31.889  22.976  23.582  1.00  0.00     0.161 C 
ATOM      9  O   UNL A   1      30.587  23.553  23.429  1.00  0.00    -0.380 OA
BRANCH   5  10
ATOM     10  C   UNL A   1      32.539  25.980  23.426  1.00  0.00     0.283 C 
BRANCH  10  11
ATOM     11  N   UNL A   1      31.660  26.456  22.358  1.00  0.00    -0.331 N 
ATOM     12  C   UNL A   1      32.043  25.889  21.068  1.00  0.00     0.333 C 
ATOM     13  H   UNL A   1      30.713  26.097  22.479  1.00  0.00     0.348 HD
BRANCH  11  14
ATOM     14  C   UNL A   1      31.448  27.917  22.448  1.00  0.00     0.319 C 
BRANCH  14  15
ATOM     15  C   UNL A   1      30.020  28.426  22.382  1.00  0.00     0.095 A 
ATOM     16  C   UNL A   1      28.342  31.396  21.015  1.00  0.00     0.067 C 
ATOM     17  C   UNL A   1      28.558  30.113  21.755  1.00  0.00     0.038 A 
ATOM     18  C   UNL A   1      27.551  29.595  22.562  1.00  0.00     0.023 A 
ATOM     19  N   UNL A   1      29.788  29.554  21.669  1.00  0.00    -0.252 NA
ATOM     20  C   UNL A   1      27.801  28.438  23.287  1.00  0.00     0.004 A 
ATOM     21  C   UNL A   1      29.051  27.843  23.199  1.00  0.00     0.030 A 
ENDBRANCH  14  15
ENDBRANCH  11  14
ENDBRANCH  10  11
ENDBRANCH   5  10
ENDBRANCH   3   5
ENDBRANCH   2   3
ENDBRANCH   1   2
BRANCH   1  22
ATOM     22  C   UNL A   1      32.442  29.019  27.354  1.00  0.00     0.275 C 
BRANCH  22  23
ATOM     23  O   UNL A   1      33.872  28.894  27.584  1.00  0.00    -0.458 OA
BRANCH  23  24
ATOM     24  C   UNL A   1      34.521  30.053  27.941  1.00  0.00     0.338 C 
ATOM     25  O   UNL A   1      33.978  31.148  28.017  1.00  0.00    -0.246 OA
BRANCH  24  26
ATOM     26  C   UNL A   1      35.981  29.858  28.259  1.00  0.00     0.060 A 
ATOM     27  C   UNL A   1      36.950  30.078  27.294  1.00  0.00     0.016 A 
ATOM     28  C   UNL A   1      36.431  29.372  29.487  1.00  0.00     0.016 A 
ATOM     29  C   UNL A   1      38.301  29.832  27.470  1.00  0.00     0.010 A 
ATOM     30  C   UNL A   1      37.815  29.145  29.709  1.00  0.00     0.010 A 
ATOM     31  C   UNL A   1      38.760  29.374  28.692  1.00  0.00    -0.014 A 
BRANCH  31  32
ATOM     32  C   UNL A   1      40.204  29.044  28.786  1.00  0.00     0.031 A 
ATOM     33  C   UNL A   1      41.131  30.021  29.445  1.00  0.00     0.074 A 
ATOM     34  C   UNL A   1      40.647  27.805  28.488  1.00  0.00     0.049 A 
ATOM     35  N   UNL A   1      42.434  29.999  29.526  1.00  0.00    -0.248 NA
ATOM     36  C   UNL A   1      40.503  31.164  30.126  1.00  0.00     0.031 C 
ATOM     37  C   UNL A   1      39.799  26.694  28.051  1.00  0.00     0.029 A 
ATOM     38  N   UNL A   1      41.903  27.251  28.556  1.00  0.00    -0.354 N 
ATOM     39  C   UNL A   1      42.787  31.161  30.198  1.00  0.00     0.074 A 
ATOM     40  C   UNL A   1      41.560  31.839  30.554  1.00  0.00     0.031 C 
ATOM     41  C   UNL A   1      40.551  25.588  27.933  1.00  0.00     0.029 A 
ATOM     42  C   UNL A   1      41.943  25.924  28.189  1.00  0.00     0.049 A 
ATOM     43  H   UNL A   1      42.699  27.754  28.841  1.00  0.00     0.167 HD
ATOM     44  C   UNL A   1      44.033  31.629  30.449  1.00  0.00     0.037 A 
ATOM     45  C   UNL A   1      42.987  25.086  28.026  1.00  0.00     0.037 A 
ATOM     46  C   UNL A   1      45.229  30.914  30.094  1.00  0.00     0.049 A 
ATOM     47  C   UNL A   1      44.367  25.648  28.228  1.00  0.00     0.074 A 
ATOM     48  C   UNL A   1      46.545  31.333  30.154  1.00  0.00     0.029 A 
ATOM     49  N   UNL A   1      45.246  29.607  29.623  1.00  0.00    -0.354 N 
ATOM     50  N   UNL A   1      44.711  26.837  28.666  1.00  0.00    -0.248 NA
ATOM     51  C   UNL A   1      45.500  24.788  27.863  1.00  0.00     0.031 C 
ATOM     52  C   UNL A   1      47.355  30.289  29.687  1.00  0.00     0.029 A 
ATOM     53  C   UNL A   1      46.546  29.206  29.376  1.00  0.00     0.049 A 
ATOM     54  H   UNL A   1      44.448  29.047  29.485  1.00  0.00     0.167 HD
ATOM     55  C   UNL A   1      46.097  26.878  28.608  1.00  0.00     0.074 A 
ATOM     56  C   UNL A   1      46.531  25.576  28.133  1.00  0.00     0.031 C 
ATOM     57  C   UNL A   1      46.936  27.903  28.896  1.00  0.00     0.037 A 
BRANCH  44  58
ATOM     58  C   UNL A   1      44.134  33.024  30.996  1.00  0.00     0.058 A 
ATOM     59  C   UNL A   1      44.004  33.316  32.361  1.00  0.00     0.135 A 
ATOM     60  C   UNL A   1      44.311  34.100  30.110  1.00  0.00     0.135 A 
ATOM     61  F   UNL A   1      43.799  32.329  33.248  1.00  0.00    -0.206 F 
ATOM     62  C   UNL A   1      44.013  34.630  32.827  1.00  0.00     0.059 A 
ATOM     63  C   UNL A   1      44.344  35.418  30.554  1.00  0.00     0.059 A 
ATOM     64  F   UNL A   1      44.427  33.877  28.791  1.00  0.00    -0.206 F 
ATOM     65  C   UNL A   1      44.173  35.675  31.912  1.00  0.00     0.060 A 
BRANCH  65  66
ATOM     66  S   UNL A   1      44.137  37.377  32.515  1.00  0.00     0.124 S 
ATOM     67  O   UNL A   1      43.184  37.275  33.617  1.00  0.00    -0.237 OA
ATOM     68  O   UNL A   1      45.526  37.604  32.899  1.00  0.00    -0.237 OA
ATOM     69  O   UNL A   1      43.677  38.137  31.358  1.00  0.00    -0.744 OA
ENDBRANCH  65  66
ENDBRANCH  44  58
BRANCH  45  70
ATOM     70  C   UNL A   1      42.775  23.685  27.556  1.00  0.00     0.058 A 
ATOM     71  C   UNL A   1      42.582  22.626  28.458  1.00  0.00     0.135 A 
ATOM     72  C   UNL A   1      42.741  23.375  26.185  1.00  0.00     0.135 A 
ATOM     73  F   UNL A   1      42.628  22.853  29.780  1.00  0.00    -0.206 F 
ATOM     74  C   UNL A   1      42.357  21.321  28.020  1.00  0.00     0.059 A 
ATOM     75  C   UNL A   1      42.483  22.088  25.724  1.00  0.00     0.059 A 
ATOM     76  F   UNL A   1      42.924  24.341  25.272  1.00  0.00    -0.206 F 
ATOM     77  C   UNL A   1      42.300  21.064  26.649  1.00  0.00     0.060 A 
BRANCH  77  78
ATOM     78  S   UNL A   1      41.929  19.389  26.079  1.00  0.00     0.124 S 
ATOM     79  O   UNL A   1      42.780  19.284  24.900  1.00  0.00    -0.237 OA
ATOM     80  O   UNL A   1      42.319  18.575  27.226  1.00  0.00    -0.237 OA
ATOM     81  O   UNL A   1      40.492  19.438  25.819  1.00  0.00    -0.744 OA
ENDBRANCH  77  78
ENDBRANCH  45  70
BRANCH  57  82
ATOM     82  C   UNL A   1      48.401  27.650  28.698  1.00  0.00     0.058 A 
ATOM     83  C   UNL A   1      49.031  27.944  27.479  1.00  0.00     0.135 A 
ATOM     84  C   UNL A   1      49.184  27.151  29.747  1.00  0.00     0.135 A 
ATOM     85  F   UNL A   1      48.318  28.416  26.445  1.00  0.00    -0.206 F 
ATOM     86  C   UNL A   1      50.392  27.734  27.302  1.00  0.00     0.059 A 
ATOM     87  C   UNL A   1      50.552  26.952  29.599  1.00  0.00     0.059 A 
ATOM     88  F   UNL A   1      48.624  26.862  30.933  1.00  0.00    -0.206 F 
ATOM     89  C   UNL A   1      51.145  27.237  28.369  1.00  0.00     0.060 A 
BRANCH  89  90
ATOM     90  S   UNL A   1      52.919  26.999  28.140  1.00  0.00     0.124 S 
ATOM     91  O   UNL A   1      53.324  26.523  29.459  1.00  0.00    -0.237 OA
ATOM     92  O   UNL A   1      52.968  26.011  27.066  1.00  0.00    -0.237 OA
ATOM     93  O   UNL A   1      53.394  28.331  27.778  1.00  0.00    -0.744 OA
ENDBRANCH  89  90
ENDBRANCH  57  82
ENDBRANCH  31  32
ENDBRANCH  24  26
ENDBRANCH  23  24
ENDBRANCH  22  23
ENDBRANCH   1  22
TORSDOF 18
ENDMDL
MODEL 2
REMARK VINA RESULT:     -10.6      1.515      3.411
REMARK SMILES Cc1cccc(C[N@@H+](C)C[C@]2(C(=O)OCCOC(=O)c3ccc(-c4c5nc(c(-c6c(F)cc(S(=O)(=O)[O-])cc6F)c6ccc([nH]6)c(-c6c(F)cc(S(=O)(=O)[O-])cc6F)c6nc(c(-c7c(F)cc(S(=O)(=O)[O-])cc7F)c7ccc4[nH]7)C=C6)C=C5)cc3)CCOC2)n1
REMARK SMILES IDX 15 1 14 2 12 3 13 4 11 5 86 6 89 7 87 8 88 9 10 10 8 11 9 12
REMARK SMILES IDX 7 14 6 15 1 16 2 17 3 18 90 19 4 20 5 21 16 22 17 23 18 24
REMARK SMILES IDX 19 25 20 26 21 27 85 28 22 29 84 30 23 31 24 32 25 33 78 34
REMARK SMILES IDX 26 35 83 36 77 37 79 38 27 39 82 40 76 41 75 42 28 44 62 45
REMARK SMILES IDX 41 46 61 47 42 48 45 49 60 50 80 51 43 52 44 53 59 55 81 56
REMARK SMILES IDX 46 57 29 58 30 59 39 60 31 61 32 62 38 63 40 64 33 65 34 66
REMARK SMILES IDX 35 67 36 68 37 69 63 70 64 71 73 72 65 73 66 74 72 75 74 76
REMARK SMILES IDX 67 77 68 78 69 79 70 80 71 81 47 82 48 83 57 84 49 85 50 86
REMARK SMILES IDX 56 87 58 88 51 89 52 90 53 91 54 92 55 93
REMARK H PARENT 8 13 79 43 45 54
REMARK Flexibility Score: inf
ROOT
ATOM      1  C   UNL A   1      32.008  28.594  25.810  1.00  0.00     0.274 C 
ENDROOT
BRANCH   1   2
ATOM      2  O   UNL A   1      31.788  28.389  24.389  1.00  0.00    -0.461 OA
BRANCH   2   3
ATOM      3  C   UNL A   1      31.142  27.240  23.994  1.00  0.00     0.320 C 
ATOM      4  O   UNL A   1      29.945  27.039  24.156  1.00  0.00    -0.251 OA
BRANCH   3   5
ATOM      5  C   UNL A   1      32.066  26.328  23.184  1.00  0.00     0.142 C 
ATOM      6  C   UNL A   1      31.486  26.046  21.798  1.00  0.00     0.055 C 
ATOM      7  C   UNL A   1      33.345  27.059  22.753  1.00  0.00     0.185 C 
ATOM      8  C   UNL A   1      32.703  25.675  20.986  1.00  0.00     0.161 C 
ATOM      9  O   UNL A   1      33.772  26.476  21.503  1.00  0.00    -0.380 OA
BRANCH   5  10
ATOM     10  C   UNL A   1      32.541  25.085  24.002  1.00  0.00     0.283 C 
BRANCH  10  11
ATOM     11  N   UNL A   1      31.829  23.811  23.905  1.00  0.00    -0.331 N 
ATOM     12  C   UNL A   1      31.268  23.422  25.195  1.00  0.00     0.333 C 
ATOM     13  H   UNL A   1      30.995  23.905  23.325  1.00  0.00     0.348 HD
BRANCH  11  14
ATOM     14  C   UNL A   1      32.617  22.812  23.151  1.00  0.00     0.319 C 
BRANCH  14  15
ATOM     15  C   UNL A   1      33.619  21.975  23.927  1.00  0.00     0.095 A 
ATOM     16  C   UNL A   1      37.214  22.179  24.660  1.00  0.00     0.067 C 
ATOM     17  C   UNL A   1      35.817  21.646  24.586  1.00  0.00     0.038 A 
ATOM     18  C   UNL A   1      35.550  20.335  24.963  1.00  0.00     0.023 A 
ATOM     19  N   UNL A   1      34.875  22.463  24.058  1.00  0.00    -0.252 NA
ATOM     20  C   UNL A   1      34.258  19.847  24.824  1.00  0.00     0.004 A 
ATOM     21  C   UNL A   1      33.276  20.675  24.299  1.00  0.00     0.030 A 
ENDBRANCH  14  15
ENDBRANCH  11  14
ENDBRANCH  10  11
ENDBRANCH   5  10
ENDBRANCH   3   5
ENDBRANCH   2   3
ENDBRANCH   1   2
BRANCH   1  22
ATOM     22  C   UNL A   1      33.470  29.031  26.110  1.00  0.00     0.275 C 
BRANCH  22  23
ATOM     23  O   UNL A   1      33.824  28.992  27.519  1.00  0.00    -0.458 OA
BRANCH  23  24
ATOM     24  C   UNL A   1      34.454  30.115  28.006  1.00  0.00     0.338 C 
ATOM     25  O   UNL A   1      33.888  31.178  28.226  1.00  0.00    -0.246 OA
BRANCH  24  26
ATOM     26  C   UNL A   1      35.924  29.918  28.273  1.00  0.00     0.060 A 
ATOM     27  C   UNL A   1      36.859  30.135  27.275  1.00  0.00     0.016 A 
ATOM     28  C   UNL A   1      36.416  29.434  29.486  1.00  0.00     0.016 A 
ATOM     29  C   UNL A   1      38.215  29.887  27.404  1.00  0.00     0.010 A 
ATOM     30  C   UNL A   1      37.806  29.206  29.660  1.00  0.00     0.010 A 
ATOM     31  C   UNL A   1      38.715  29.430  28.611  1.00  0.00    -0.014 A 
BRANCH  31  32
ATOM     32  C   UNL A   1      40.162  29.099  28.655  1.00  0.00     0.031 A 
ATOM     33  C   UNL A   1      41.113  30.079  29.271  1.00  0.00     0.074 A 
ATOM     34  C   UNL A   1      40.591  27.856  28.352  1.00  0.00     0.049 A 
ATOM     35  N   UNL A   1      42.418  30.056  29.305  1.00  0.00    -0.248 NA
ATOM     36  C   UNL A   1      40.512  31.230  29.965  1.00  0.00     0.031 C 
ATOM     37  C   UNL A   1      39.726  26.743  27.957  1.00  0.00     0.029 A 
ATOM     38  N   UNL A   1      41.847  27.300  28.380  1.00  0.00    -0.354 N 
ATOM     39  C   UNL A   1      42.797  31.223  29.954  1.00  0.00     0.074 A 
ATOM     40  C   UNL A   1      41.586  31.907  30.348  1.00  0.00     0.031 C 
ATOM     41  C   UNL A   1      40.471  25.634  27.822  1.00  0.00     0.029 A 
ATOM     42  C   UNL A   1      41.872  25.970  28.024  1.00  0.00     0.049 A 
ATOM     43  H   UNL A   1      42.654  27.804  28.631  1.00  0.00     0.167 HD
ATOM     44  C   UNL A   1      44.052  31.691  30.154  1.00  0.00     0.037 A 
ATOM     45  C   UNL A   1      42.908  25.128  27.830  1.00  0.00     0.037 A 
ATOM     46  C   UNL A   1      45.234  30.970  29.764  1.00  0.00     0.049 A 
ATOM     47  C   UNL A   1      44.296  25.689  27.977  1.00  0.00     0.074 A 
ATOM     48  C   UNL A   1      46.552  31.387  29.772  1.00  0.00     0.029 A 
ATOM     49  N   UNL A   1      45.231  29.658  29.303  1.00  0.00    -0.354 N 
ATOM     50  N   UNL A   1      44.658  26.881  28.392  1.00  0.00    -0.248 NA
ATOM     51  C   UNL A   1      45.412  24.823  27.579  1.00  0.00     0.031 C 
ATOM     52  C   UNL A   1      47.342  30.337  29.285  1.00  0.00     0.029 A 
ATOM     53  C   UNL A   1      46.521  29.253  29.014  1.00  0.00     0.049 A 
ATOM     54  H   UNL A   1      44.427  29.099  29.199  1.00  0.00     0.167 HD
ATOM     55  C   UNL A   1      46.040  26.919  28.283  1.00  0.00     0.074 A 
ATOM     56  C   UNL A   1      46.454  25.612  27.805  1.00  0.00     0.031 C 
ATOM     57  C   UNL A   1      46.891  27.945  28.531  1.00  0.00     0.037 A 
BRANCH  44  58
ATOM     58  C   UNL A   1      44.176  33.090  30.685  1.00  0.00     0.058 A 
ATOM     59  C   UNL A   1      44.323  33.375  32.050  1.00  0.00     0.135 A 
ATOM     60  C   UNL A   1      44.086  34.174  29.796  1.00  0.00     0.135 A 
ATOM     61  F   UNL A   1      44.381  32.378  32.948  1.00  0.00    -0.206 F 
ATOM     62  C   UNL A   1      44.345  34.688  32.520  1.00  0.00     0.059 A 
ATOM     63  C   UNL A   1      44.125  35.492  30.239  1.00  0.00     0.059 A 
ATOM     64  F   UNL A   1      43.930  33.957  28.480  1.00  0.00    -0.206 F 
ATOM     65  C   UNL A   1      44.234  35.739  31.606  1.00  0.00     0.060 A 
BRANCH  65  66
ATOM     66  S   UNL A   1      44.216  37.436  32.224  1.00  0.00     0.124 S 
ATOM     67  O   UNL A   1      45.613  37.620  32.607  1.00  0.00    -0.237 OA
ATOM     68  O   UNL A   1      43.774  38.192  31.057  1.00  0.00    -0.237 OA
ATOM     69  O   UNL A   1      43.265  37.384  33.330  1.00  0.00    -0.744 OA
ENDBRANCH  65  66
ENDBRANCH  44  58
BRANCH  45  70
ATOM     70  C   UNL A   1      42.677  23.723  27.382  1.00  0.00     0.058 A 
ATOM     71  C   UNL A   1      42.693  23.370  26.023  1.00  0.00     0.135 A 
ATOM     72  C   UNL A   1      42.450  22.691  28.311  1.00  0.00     0.135 A 
ATOM     73  F   UNL A   1      42.880  24.313  25.087  1.00  0.00    -0.206 F 
ATOM     74  C   UNL A   1      42.504  22.053  25.604  1.00  0.00     0.059 A 
ATOM     75  C   UNL A   1      42.294  21.366  27.919  1.00  0.00     0.059 A 
ATOM     76  F   UNL A   1      42.416  22.964  29.624  1.00  0.00    -0.206 F 
ATOM     77  C   UNL A   1      42.313  21.056  26.562  1.00  0.00     0.060 A 
BRANCH  77  78
ATOM     78  S   UNL A   1      42.148  19.337  26.028  1.00  0.00     0.124 S 
ATOM     79  O   UNL A   1      43.018  19.307  24.858  1.00  0.00    -0.237 OA
ATOM     80  O   UNL A   1      42.619  18.600  27.196  1.00  0.00    -0.237 OA
ATOM     81  O   UNL A   1      40.718  19.210  25.756  1.00  0.00    -0.744 OA
ENDBRANCH  77  78
ENDBRANCH  45  70
BRANCH  57  82
ATOM     82  C   UNL A   1      48.347  27.687  28.283  1.00  0.00     0.058 A 
ATOM     83  C   UNL A   1      48.915  27.890  27.015  1.00  0.00     0.135 A 
ATOM     84  C   UNL A   1      49.185  27.276  29.328  1.00  0.00     0.135 A 
ATOM     85  F   UNL A   1      48.149  28.276  25.984  1.00  0.00    -0.206 F 
ATOM     86  C   UNL A   1      50.269  27.676  26.789  1.00  0.00     0.059 A 
ATOM     87  C   UNL A   1      50.546  27.075  29.129  1.00  0.00     0.059 A 
ATOM     88  F   UNL A   1      48.685  27.076  30.558  1.00  0.00    -0.206 F 
ATOM     89  C   UNL A   1      51.077  27.268  27.854  1.00  0.00     0.060 A 
BRANCH  89  90
ATOM     90  S   UNL A   1      52.840  27.024  27.558  1.00  0.00     0.124 S 
ATOM     91  O   UNL A   1      53.168  26.015  28.559  1.00  0.00    -0.237 OA
ATOM     92  O   UNL A   1      52.867  26.574  26.169  1.00  0.00    -0.237 OA
ATOM     93  O   UNL A   1      53.407  28.350  27.790  1.00  0.00    -0.744 OA
ENDBRANCH  89  90
ENDBRANCH  57  82
ENDBRANCH  31  32
ENDBRANCH  24  26
ENDBRANCH  23  24
ENDBRANCH  22  23
ENDBRANCH   1  22
TORSDOF 18
ENDMDL
MODEL 3
REMARK VINA RESULT:     -10.4      3.681      9.608
REMARK SMILES Cc1cccc(C[N@@H+](C)C[C@]2(C(=O)OCCOC(=O)c3ccc(-c4c5nc(c(-c6c(F)cc(S(=O)(=O)[O-])cc6F)c6ccc([nH]6)c(-c6c(F)cc(S(=O)(=O)[O-])cc6F)c6nc(c(-c7c(F)cc(S(=O)(=O)[O-])cc7F)c7ccc4[nH]7)C=C6)C=C5)cc3)CCOC2)n1
REMARK SMILES IDX 15 1 14 2 12 3 13 4 11 5 86 6 89 7 87 8 88 9 10 10 8 11 9 12
REMARK SMILES IDX 7 14 6 15 1 16 2 17 3 18 90 19 4 20 5 21 16 22 17 23 18 24
REMARK SMILES IDX 19 25 20 26 21 27 85 28 22 29 84 30 23 31 24 32 25 33 78 34
REMARK SMILES IDX 26 35 83 36 77 37 79 38 27 39 82 40 76 41 75 42 28 44 62 45
REMARK SMILES IDX 41 46 61 47 42 48 45 49 60 50 80 51 43 52 44 53 59 55 81 56
REMARK SMILES IDX 46 57 29 58 30 59 39 60 31 61 32 62 38 63 40 64 33 65 34 66
REMARK SMILES IDX 35 67 36 68 37 69 63 70 64 71 73 72 65 73 66 74 72 75 74 76
REMARK SMILES IDX 67 77 68 78 69 79 70 80 71 81 47 82 48 83 57 84 49 85 50 86
REMARK SMILES IDX 56 87 58 88 51 89 52 90 53 91 54 92 55 93
REMARK H PARENT 8 13 79 43 45 54
REMARK Flexibility Score: inf
ROOT
ATOM      1  C   UNL A   1      35.548  23.025  23.924  1.00  0.00     0.274 C 
ENDROOT
BRANCH   1   2
ATOM      2  O   UNL A   1      34.491  23.222  24.901  1.00  0.00    -0.461 OA
BRANCH   2   3
ATOM      3  C   UNL A   1      33.903  24.463  24.977  1.00  0.00     0.320 C 
ATOM      4  O   UNL A   1      34.487  25.512  24.734  1.00  0.00    -0.251 OA
BRANCH   3   5
ATOM      5  C   UNL A   1      32.398  24.356  25.235  1.00  0.00     0.142 C 
ATOM      6  C   UNL A   1      31.987  22.910  25.514  1.00  0.00     0.055 C 
ATOM      7  C   UNL A   1      32.012  24.969  26.588  1.00  0.00     0.185 C 
ATOM      8  C   UNL A   1      30.699  23.063  26.285  1.00  0.00     0.161 C 
ATOM      9  O   UNL A   1      30.857  24.250  27.071  1.00  0.00    -0.380 OA
BRANCH   5  10
ATOM     10  C   UNL A   1      31.556  25.122  24.165  1.00  0.00     0.283 C 
BRANCH  10  11
ATOM     11  N   UNL A   1      30.957  26.419  24.476  1.00  0.00    -0.331 N 
ATOM     12  C   UNL A   1      29.517  26.406  24.237  1.00  0.00     0.333 C 
ATOM     13  H   UNL A   1      31.008  26.613  25.476  1.00  0.00     0.348 HD
BRANCH  11  14
ATOM     14  C   UNL A   1      31.753  27.528  23.907  1.00  0.00     0.319 C 
BRANCH  14  15
ATOM     15  C   UNL A   1      32.158  28.655  24.840  1.00  0.00     0.095 A 
ATOM     16  C   UNL A   1      34.731  29.142  27.419  1.00  0.00     0.067 C 
ATOM     17  C   UNL A   1      33.535  29.392  26.554  1.00  0.00     0.038 A 
ATOM     18  C   UNL A   1      32.701  30.474  26.813  1.00  0.00     0.023 A 
ATOM     19  N   UNL A   1      33.270  28.477  25.592  1.00  0.00    -0.252 NA
ATOM     20  C   UNL A   1      31.564  30.646  26.035  1.00  0.00     0.004 A 
ATOM     21  C   UNL A   1      31.285  29.725  25.035  1.00  0.00     0.030 A 
ENDBRANCH  14  15
ENDBRANCH  11  14
ENDBRANCH  10  11
ENDBRANCH   5  10
ENDBRANCH   3   5
ENDBRANCH   2   3
ENDBRANCH   1   2
BRANCH   1  22
ATOM     22  C   UNL A   1      36.888  22.616  24.599  1.00  0.00     0.275 C 
BRANCH  22  23
ATOM     23  O   UNL A   1      37.512  23.677  25.373  1.00  0.00    -0.458 OA
BRANCH  23  24
ATOM     24  C   UNL A   1      38.645  23.320  26.066  1.00  0.00     0.338 C 
ATOM     25  O   UNL A   1      39.155  22.208  26.021  1.00  0.00    -0.246 OA
BRANCH  24  26
ATOM     26  C   UNL A   1      39.233  24.440  26.885  1.00  0.00     0.060 A 
ATOM     27  C   UNL A   1      38.915  24.578  28.225  1.00  0.00     0.016 A 
ATOM     28  C   UNL A   1      40.047  25.434  26.338  1.00  0.00     0.016 A 
ATOM     29  C   UNL A   1      39.331  25.628  29.026  1.00  0.00     0.010 A 
ATOM     30  C   UNL A   1      40.519  26.502  27.143  1.00  0.00     0.010 A 
ATOM     31  C   UNL A   1      40.158  26.605  28.498  1.00  0.00    -0.014 A 
BRANCH  31  32
ATOM     32  C   UNL A   1      40.493  27.749  29.383  1.00  0.00     0.031 A 
ATOM     33  C   UNL A   1      41.862  27.821  29.989  1.00  0.00     0.074 A 
ATOM     34  C   UNL A   1      39.672  28.815  29.469  1.00  0.00     0.049 A 
ATOM     35  N   UNL A   1      42.329  28.652  30.881  1.00  0.00    -0.248 NA
ATOM     36  C   UNL A   1      42.847  26.838  29.507  1.00  0.00     0.031 C 
ATOM     37  C   UNL A   1      38.409  28.962  28.741  1.00  0.00     0.029 A 
ATOM     38  N   UNL A   1      39.792  29.999  30.155  1.00  0.00    -0.354 N 
ATOM     39  C   UNL A   1      43.634  28.248  31.124  1.00  0.00     0.074 A 
ATOM     40  C   UNL A   1      43.907  27.132  30.246  1.00  0.00     0.031 C 
ATOM     41  C   UNL A   1      37.898  30.178  28.988  1.00  0.00     0.029 A 
ATOM     42  C   UNL A   1      38.737  30.863  29.960  1.00  0.00     0.049 A 
ATOM     43  H   UNL A   1      40.560  30.211  30.732  1.00  0.00     0.167 HD
ATOM     44  C   UNL A   1      44.501  28.746  32.037  1.00  0.00     0.037 A 
ATOM     45  C   UNL A   1      38.449  32.047  30.537  1.00  0.00     0.037 A 
ATOM     46  C   UNL A   1      44.198  29.871  32.880  1.00  0.00     0.049 A 
ATOM     47  C   UNL A   1      39.381  32.543  31.608  1.00  0.00     0.074 A 
ATOM     48  C   UNL A   1      44.919  30.385  33.942  1.00  0.00     0.029 A 
ATOM     49  N   UNL A   1      43.070  30.671  32.737  1.00  0.00    -0.354 N 
ATOM     50  N   UNL A   1      40.529  32.036  31.994  1.00  0.00    -0.248 NA
ATOM     51  C   UNL A   1      38.962  33.731  32.362  1.00  0.00     0.031 C 
ATOM     52  C   UNL A   1      44.210  31.476  34.461  1.00  0.00     0.029 A 
ATOM     53  C   UNL A   1      43.069  31.667  33.697  1.00  0.00     0.049 A 
ATOM     54  H   UNL A   1      42.374  30.548  32.052  1.00  0.00     0.167 HD
ATOM     55  C   UNL A   1      40.959  32.826  33.051  1.00  0.00     0.074 A 
ATOM     56  C   UNL A   1      39.967  33.874  33.214  1.00  0.00     0.031 C 
ATOM     57  C   UNL A   1      42.058  32.688  33.832  1.00  0.00     0.037 A 
BRANCH  44  58
ATOM     58  C   UNL A   1      45.775  27.979  32.250  1.00  0.00     0.058 A 
ATOM     59  C   UNL A   1      46.985  28.329  31.634  1.00  0.00     0.135 A 
ATOM     60  C   UNL A   1      45.758  26.826  33.053  1.00  0.00     0.135 A 
ATOM     61  F   UNL A   1      47.050  29.402  30.830  1.00  0.00    -0.206 F 
ATOM     62  C   UNL A   1      48.128  27.544  31.781  1.00  0.00     0.059 A 
ATOM     63  C   UNL A   1      46.891  26.039  33.230  1.00  0.00     0.059 A 
ATOM     64  F   UNL A   1      44.622  26.438  33.654  1.00  0.00    -0.206 F 
ATOM     65  C   UNL A   1      48.067  26.394  32.573  1.00  0.00     0.060 A 
BRANCH  65  66
ATOM     66  S   UNL A   1      49.537  25.357  32.722  1.00  0.00     0.124 S 
ATOM     67  O   UNL A   1      50.497  26.294  33.300  1.00  0.00    -0.237 OA
ATOM     68  O   UNL A   1      49.082  24.290  33.607  1.00  0.00    -0.237 OA
ATOM     69  O   UNL A   1      49.809  24.953  31.346  1.00  0.00    -0.744 OA
ENDBRANCH  65  66
ENDBRANCH  44  58
BRANCH  45  70
ATOM     70  C   UNL A   1      37.193  32.778  30.194  1.00  0.00     0.058 A 
ATOM     71  C   UNL A   1      37.123  33.650  29.097  1.00  0.00     0.135 A 
ATOM     72  C   UNL A   1      36.021  32.604  30.953  1.00  0.00     0.135 A 
ATOM     73  F   UNL A   1      38.214  33.877  28.349  1.00  0.00    -0.206 F 
ATOM     74  C   UNL A   1      35.942  34.312  28.759  1.00  0.00     0.059 A 
ATOM     75  C   UNL A   1      34.824  33.226  30.615  1.00  0.00     0.059 A 
ATOM     76  F   UNL A   1      36.024  31.788  32.018  1.00  0.00    -0.206 F 
ATOM     77  C   UNL A   1      34.795  34.086  29.521  1.00  0.00     0.060 A 
BRANCH  77  78
ATOM     78  S   UNL A   1      33.244  34.880  29.039  1.00  0.00     0.124 S 
ATOM     79  O   UNL A   1      33.714  36.166  28.540  1.00  0.00    -0.237 OA
ATOM     80  O   UNL A   1      32.719  33.958  28.038  1.00  0.00    -0.237 OA
ATOM     81  O   UNL A   1      32.490  34.924  30.290  1.00  0.00    -0.744 OA
ENDBRANCH  77  78
ENDBRANCH  45  70
BRANCH  57  82
ATOM     82  C   UNL A   1      42.234  33.692  34.931  1.00  0.00     0.058 A 
ATOM     83  C   UNL A   1      41.650  33.499  36.192  1.00  0.00     0.135 A 
ATOM     84  C   UNL A   1      43.026  34.832  34.733  1.00  0.00     0.135 A 
ATOM     85  F   UNL A   1      40.877  32.427  36.423  1.00  0.00    -0.206 F 
ATOM     86  C   UNL A   1      41.832  34.416  37.219  1.00  0.00     0.059 A 
ATOM     87  C   UNL A   1      43.239  35.752  35.753  1.00  0.00     0.059 A 
ATOM     88  F   UNL A   1      43.610  35.053  33.544  1.00  0.00    -0.206 F 
ATOM     89  C   UNL A   1      42.629  35.541  36.989  1.00  0.00     0.060 A 
BRANCH  89  90
ATOM     90  S   UNL A   1      42.887  36.709  38.340  1.00  0.00     0.124 S 
ATOM     91  O   UNL A   1      43.575  37.799  37.657  1.00  0.00    -0.237 OA
ATOM     92  O   UNL A   1      41.523  36.992  38.776  1.00  0.00    -0.237 OA
ATOM     93  O   UNL A   1      43.696  35.951  39.291  1.00  0.00    -0.744 OA
ENDBRANCH  89  90
ENDBRANCH  57  82
ENDBRANCH  31  32
ENDBRANCH  24  26
ENDBRANCH  23  24
ENDBRANCH  22  23
ENDBRANCH   1  22
TORSDOF 18
ENDMDL
