MODEL 1
REMARK VINA RESULT:     -13.8      0.000      0.000
REMARK SMILES Cc1nn(-c2nc3ccccc3o2)c2c1[C@H](c1ccc(C(=O)OCCOC(=O)c3ccc(-c4c5nc(c(-c6c(F)cc(S(=O)(=O)[O-])cc6F)c6ccc([nH]6)c(-c6c(F)cc(S(=O)(=O)[O-])cc6F)c6nc(c(-c7c(F)cc(S(=O)(=O)[O-])cc7F)c7ccc4[nH]7)C=C6)C=C5)cc3)cc1)CC(=O)N2
REMARK SMILES IDX 25 1 24 2 23 3 21 4 22 5 20 6 17 7 18 8 96 9 19 10 95 11
REMARK SMILES IDX 16 12 1 13 2 14 3 15 15 16 4 17 14 18 100 19 97 20 98 21
REMARK SMILES IDX 99 23 5 24 6 25 13 26 7 27 12 28 8 29 11 30 9 31 10 32 26 33
REMARK SMILES IDX 27 34 28 35 29 36 30 37 94 38 31 39 93 40 32 41 33 42 34 43
REMARK SMILES IDX 87 44 35 45 92 46 86 47 88 48 36 49 91 50 85 51 84 52 37 54
REMARK SMILES IDX 71 55 50 56 70 57 51 58 54 59 69 60 89 61 52 62 53 63 68 65
REMARK SMILES IDX 90 66 55 67 38 68 39 69 48 70 40 71 41 72 47 73 49 74 42 75
REMARK SMILES IDX 43 76 44 77 45 78 46 79 72 80 73 81 82 82 74 83 75 84 81 85
REMARK SMILES IDX 83 86 76 87 77 88 78 89 79 90 80 91 56 92 57 93 66 94 58 95
REMARK SMILES IDX 59 96 65 97 67 98 60 99 61 100 62 101 63 102 64 103
REMARK H PARENT 100 22 88 53 54 64
REMARK Flexibility Score: inf
ROOT
ATOM      1  C   UNL A   1      39.902  20.239  26.203  1.00  0.00     0.275 C 
ENDROOT
BRANCH   1   2
ATOM      2  C   UNL A   1      39.280  21.372  25.401  1.00  0.00     0.275 C 
BRANCH   2   3
ATOM      3  O   UNL A   1      37.930  21.614  25.829  1.00  0.00    -0.458 OA
BRANCH   3   4
ATOM      4  C   UNL A   1      37.593  22.913  26.043  1.00  0.00     0.338 C 
ATOM      5  O   UNL A   1      38.225  23.721  26.710  1.00  0.00    -0.246 OA
BRANCH   4   6
ATOM      6  C   UNL A   1      36.359  23.267  25.289  1.00  0.00     0.060 A 
ATOM      7  C   UNL A   1      34.027  23.897  23.777  1.00  0.00    -0.040 A 
ATOM      8  C   UNL A   1      34.654  22.643  23.671  1.00  0.00     0.005 A 
ATOM      9  C   UNL A   1      34.585  24.805  24.699  1.00  0.00     0.005 A 
ATOM     10  C   UNL A   1      35.785  22.320  24.437  1.00  0.00     0.016 A 
ATOM     11  C   UNL A   1      35.742  24.507  25.427  1.00  0.00     0.016 A 
BRANCH   7  12
ATOM     12  C   UNL A   1      32.898  24.281  22.817  1.00  0.00     0.064 C 
ATOM     13  C   UNL A   1      31.093  24.551  25.789  1.00  0.00     0.069 C 
ATOM     14  C   UNL A   1      31.219  25.450  24.611  1.00  0.00     0.066 A 
ATOM     15  N   UNL A   1      30.408  26.520  24.572  1.00  0.00    -0.167 NA
ATOM     16  C   UNL A   1      31.999  25.325  23.417  1.00  0.00     0.026 A 
ATOM     17  N   UNL A   1      30.712  27.136  23.413  1.00  0.00    -0.166 N 
ATOM     18  C   UNL A   1      31.510  26.346  22.626  1.00  0.00     0.145 A 
ATOM     19  N   UNL A   1      31.684  26.474  21.267  1.00  0.00    -0.310 N 
ATOM     20  C   UNL A   1      33.426  24.759  21.440  1.00  0.00     0.113 C 
ATOM     21  C   UNL A   1      32.449  25.554  20.599  1.00  0.00     0.226 C 
ATOM     22  H   UNL A   1      31.263  27.219  20.779  1.00  0.00     0.171 HD
ATOM     23  O   UNL A   1      32.444  25.494  19.370  1.00  0.00    -0.275 OA
BRANCH  17  24
ATOM     24  C   UNL A   1      30.134  28.366  23.119  1.00  0.00     0.325 A 
ATOM     25  N   UNL A   1      30.216  29.378  23.970  1.00  0.00    -0.191 NA
ATOM     26  O   UNL A   1      29.519  28.685  21.926  1.00  0.00    -0.422 OA
ATOM     27  C   UNL A   1      29.471  30.363  23.382  1.00  0.00     0.111 A 
ATOM     28  C   UNL A   1      29.092  29.968  22.111  1.00  0.00     0.156 A 
ATOM     29  C   UNL A   1      29.066  31.615  23.858  1.00  0.00     0.032 A 
ATOM     30  C   UNL A   1      28.377  30.759  21.220  1.00  0.00     0.049 A 
ATOM     31  C   UNL A   1      28.294  32.421  23.009  1.00  0.00     0.003 A 
ATOM     32  C   UNL A   1      27.972  32.007  21.710  1.00  0.00     0.004 A 
ENDBRANCH  17  24
ENDBRANCH   7  12
ENDBRANCH   4   6
ENDBRANCH   3   4
ENDBRANCH   2   3
ENDBRANCH   1   2
BRANCH   1  33
ATOM     33  O   UNL A   1      41.053  20.687  26.914  1.00  0.00    -0.458 OA
BRANCH  33  34
ATOM     34  C   UNL A   1      42.097  21.045  26.132  1.00  0.00     0.338 C 
ATOM     35  O   UNL A   1      42.696  20.349  25.331  1.00  0.00    -0.246 OA
BRANCH  34  36
ATOM     36  C   UNL A   1      42.586  22.350  26.577  1.00  0.00     0.060 A 
ATOM     37  C   UNL A   1      43.063  22.463  27.888  1.00  0.00     0.016 A 
ATOM     38  C   UNL A   1      42.279  23.473  25.797  1.00  0.00     0.016 A 
ATOM     39  C   UNL A   1      43.100  23.714  28.468  1.00  0.00     0.010 A 
ATOM     40  C   UNL A   1      42.289  24.711  26.384  1.00  0.00     0.010 A 
ATOM     41  C   UNL A   1      42.639  24.807  27.729  1.00  0.00    -0.014 A 
BRANCH  41  42
ATOM     42  C   UNL A   1      42.606  26.113  28.351  1.00  0.00     0.031 A 
ATOM     43  C   UNL A   1      43.748  26.973  27.960  1.00  0.00     0.074 A 
ATOM     44  C   UNL A   1      41.522  26.537  29.026  1.00  0.00     0.049 A 
ATOM     45  N   UNL A   1      44.690  27.440  28.707  1.00  0.00    -0.248 NA
ATOM     46  C   UNL A   1      43.962  27.198  26.517  1.00  0.00     0.031 C 
ATOM     47  C   UNL A   1      40.223  25.867  29.154  1.00  0.00     0.029 A 
ATOM     48  N   UNL A   1      41.305  27.732  29.632  1.00  0.00    -0.354 N 
ATOM     49  C   UNL A   1      45.480  28.214  27.861  1.00  0.00     0.074 A 
ATOM     50  C   UNL A   1      45.126  27.843  26.519  1.00  0.00     0.031 C 
ATOM     51  C   UNL A   1      39.303  26.761  29.582  1.00  0.00     0.029 A 
ATOM     52  C   UNL A   1      39.966  28.022  29.867  1.00  0.00     0.049 A 
ATOM     53  H   UNL A   1      42.035  28.342  29.884  1.00  0.00     0.167 HD
ATOM     54  C   UNL A   1      46.161  29.299  28.321  1.00  0.00     0.037 A 
ATOM     55  C   UNL A   1      39.457  29.243  30.174  1.00  0.00     0.037 A 
ATOM     56  C   UNL A   1      46.281  29.269  29.756  1.00  0.00     0.049 A 
ATOM     57  C   UNL A   1      40.594  30.084  30.644  1.00  0.00     0.074 A 
ATOM     58  C   UNL A   1      46.826  28.380  30.662  1.00  0.00     0.029 A 
ATOM     59  N   UNL A   1      45.445  30.083  30.483  1.00  0.00    -0.354 N 
ATOM     60  N   UNL A   1      41.261  29.862  31.745  1.00  0.00    -0.248 NA
ATOM     61  C   UNL A   1      41.289  30.896  29.654  1.00  0.00     0.031 C 
ATOM     62  C   UNL A   1      45.939  28.397  31.777  1.00  0.00     0.029 A 
ATOM     63  C   UNL A   1      44.939  29.336  31.517  1.00  0.00     0.049 A 
ATOM     64  H   UNL A   1      45.245  31.029  30.297  1.00  0.00     0.167 HD
ATOM     65  C   UNL A   1      42.585  30.137  31.426  1.00  0.00     0.074 A 
ATOM     66  C   UNL A   1      42.527  30.851  30.152  1.00  0.00     0.031 C 
ATOM     67  C   UNL A   1      43.614  29.511  32.071  1.00  0.00     0.037 A 
BRANCH  54  68
ATOM     68  C   UNL A   1      46.372  30.558  27.515  1.00  0.00     0.058 A 
ATOM     69  C   UNL A   1      47.655  31.137  27.470  1.00  0.00     0.135 A 
ATOM     70  C   UNL A   1      45.321  31.366  27.018  1.00  0.00     0.135 A 
ATOM     71  F   UNL A   1      48.724  30.464  27.924  1.00  0.00    -0.206 F 
ATOM     72  C   UNL A   1      47.867  32.446  27.037  1.00  0.00     0.059 A 
ATOM     73  C   UNL A   1      45.521  32.649  26.525  1.00  0.00     0.059 A 
ATOM     74  F   UNL A   1      44.037  30.999  27.081  1.00  0.00    -0.206 F 
ATOM     75  C   UNL A   1      46.788  33.198  26.581  1.00  0.00     0.060 A 
BRANCH  75  76
ATOM     76  S   UNL A   1      47.034  34.923  26.132  1.00  0.00     0.124 S 
ATOM     77  O   UNL A   1      47.780  35.417  27.284  1.00  0.00    -0.237 OA
ATOM     78  O   UNL A   1      47.782  34.807  24.885  1.00  0.00    -0.237 OA
ATOM     79  O   UNL A   1      45.672  35.432  25.994  1.00  0.00    -0.744 OA
ENDBRANCH  75  76
ENDBRANCH  54  68
BRANCH  55  80
ATOM     80  C   UNL A   1      38.156  29.822  29.734  1.00  0.00     0.058 A 
ATOM     81  C   UNL A   1      37.266  30.397  30.658  1.00  0.00     0.135 A 
ATOM     82  C   UNL A   1      37.878  30.070  28.374  1.00  0.00     0.135 A 
ATOM     83  F   UNL A   1      37.464  30.235  31.976  1.00  0.00    -0.206 F 
ATOM     84  C   UNL A   1      36.192  31.205  30.261  1.00  0.00     0.059 A 
ATOM     85  C   UNL A   1      36.808  30.859  27.954  1.00  0.00     0.059 A 
ATOM     86  F   UNL A   1      38.694  29.630  27.405  1.00  0.00    -0.206 F 
ATOM     87  C   UNL A   1      35.983  31.445  28.903  1.00  0.00     0.060 A 
BRANCH  87  88
ATOM     88  S   UNL A   1      34.711  32.624  28.389  1.00  0.00     0.124 S 
ATOM     89  O   UNL A   1      35.465  33.527  27.527  1.00  0.00    -0.237 OA
ATOM     90  O   UNL A   1      33.744  31.761  27.719  1.00  0.00    -0.237 OA
ATOM     91  O   UNL A   1      34.255  33.202  29.651  1.00  0.00    -0.744 OA
ENDBRANCH  87  88
ENDBRANCH  55  80
BRANCH  67  92
ATOM     92  C   UNL A   1      43.308  28.748  33.335  1.00  0.00     0.058 A 
ATOM     93  C   UNL A   1      43.135  29.337  34.600  1.00  0.00     0.135 A 
ATOM     94  C   UNL A   1      43.019  27.379  33.223  1.00  0.00     0.135 A 
ATOM     95  F   UNL A   1      43.287  30.657  34.772  1.00  0.00    -0.206 F 
ATOM     96  C   UNL A   1      42.735  28.591  35.712  1.00  0.00     0.059 A 
ATOM     97  C   UNL A   1      42.587  26.624  34.309  1.00  0.00     0.059 A 
ATOM     98  F   UNL A   1      43.103  26.771  32.029  1.00  0.00    -0.206 F 
ATOM     99  C   UNL A   1      42.460  27.234  35.555  1.00  0.00     0.060 A 
BRANCH  99 100
ATOM    100  S   UNL A   1      41.869  26.284  36.974  1.00  0.00     0.124 S 
ATOM    101  O   UNL A   1      40.655  27.004  37.341  1.00  0.00    -0.237 OA
ATOM    102  O   UNL A   1      41.670  24.954  36.407  1.00  0.00    -0.237 OA
ATOM    103  O   UNL A   1      42.968  26.384  37.932  1.00  0.00    -0.744 OA
ENDBRANCH  99 100
ENDBRANCH  67  92
ENDBRANCH  41  42
ENDBRANCH  34  36
ENDBRANCH  33  34
ENDBRANCH   1  33
TORSDOF 16
ENDMDL
MODEL 2
REMARK VINA RESULT:     -13.5      1.271      2.198
REMARK SMILES Cc1nn(-c2nc3ccccc3o2)c2c1[C@H](c1ccc(C(=O)OCCOC(=O)c3ccc(-c4c5nc(c(-c6c(F)cc(S(=O)(=O)[O-])cc6F)c6ccc([nH]6)c(-c6c(F)cc(S(=O)(=O)[O-])cc6F)c6nc(c(-c7c(F)cc(S(=O)(=O)[O-])cc7F)c7ccc4[nH]7)C=C6)C=C5)cc3)cc1)CC(=O)N2
REMARK SMILES IDX 25 1 24 2 23 3 21 4 22 5 20 6 17 7 18 8 96 9 19 10 95 11
REMARK SMILES IDX 16 12 1 13 2 14 3 15 15 16 4 17 14 18 100 19 97 20 98 21
REMARK SMILES IDX 99 23 5 24 6 25 13 26 7 27 12 28 8 29 11 30 9 31 10 32 26 33
REMARK SMILES IDX 27 34 28 35 29 36 30 37 94 38 31 39 93 40 32 41 33 42 34 43
REMARK SMILES IDX 87 44 35 45 92 46 86 47 88 48 36 49 91 50 85 51 84 52 37 54
REMARK SMILES IDX 71 55 50 56 70 57 51 58 54 59 69 60 89 61 52 62 53 63 68 65
REMARK SMILES IDX 90 66 55 67 38 68 39 69 48 70 40 71 41 72 47 73 49 74 42 75
REMARK SMILES IDX 43 76 44 77 45 78 46 79 72 80 73 81 82 82 74 83 75 84 81 85
REMARK SMILES IDX 83 86 76 87 77 88 78 89 79 90 80 91 56 92 57 93 66 94 58 95
REMARK SMILES IDX 59 96 65 97 67 98 60 99 61 100 62 101 63 102 64 103
REMARK H PARENT 100 22 88 53 54 64
REMARK Flexibility Score: inf
ROOT
ATOM      1  C   UNL A   1      41.939  20.373  26.286  1.00  0.00     0.275 C 
ENDROOT
BRANCH   1   2
ATOM      2  C   UNL A   1      40.744  20.848  27.099  1.00  0.00     0.275 C 
BRANCH   2   3
ATOM      3  O   UNL A   1      39.671  21.254  26.233  1.00  0.00    -0.458 OA
BRANCH   3   4
ATOM      4  C   UNL A   1      39.114  22.464  26.497  1.00  0.00     0.338 C 
ATOM      5  O   UNL A   1      39.632  23.373  27.133  1.00  0.00    -0.246 OA
BRANCH   4   6
ATOM      6  C   UNL A   1      37.782  22.583  25.842  1.00  0.00     0.060 A 
ATOM      7  C   UNL A   1      35.257  22.750  24.531  1.00  0.00    -0.040 A 
ATOM      8  C   UNL A   1      35.931  21.524  24.676  1.00  0.00     0.005 A 
ATOM      9  C   UNL A   1      35.874  23.879  25.105  1.00  0.00     0.005 A 
ATOM     10  C   UNL A   1      37.160  21.434  25.348  1.00  0.00     0.016 A 
ATOM     11  C   UNL A   1      37.124  23.805  25.730  1.00  0.00     0.016 A 
BRANCH   7  12
ATOM     12  C   UNL A   1      34.004  22.845  23.657  1.00  0.00     0.064 C 
ATOM     13  C   UNL A   1      32.425  23.052  26.760  1.00  0.00     0.069 C 
ATOM     14  C   UNL A   1      32.290  23.853  25.515  1.00  0.00     0.066 A 
ATOM     15  N   UNL A   1      31.297  24.757  25.477  1.00  0.00    -0.167 NA
ATOM     16  C   UNL A   1      32.982  23.764  24.264  1.00  0.00     0.026 A 
ATOM     17  N   UNL A   1      31.390  25.315  24.253  1.00  0.00    -0.166 N 
ATOM     18  C   UNL A   1      32.253  24.612  23.453  1.00  0.00     0.145 A 
ATOM     19  N   UNL A   1      32.290  24.650  22.077  1.00  0.00    -0.310 N 
ATOM     20  C   UNL A   1      34.324  23.287  22.206  1.00  0.00     0.113 C 
ATOM     21  C   UNL A   1      33.153  23.823  21.406  1.00  0.00     0.226 C 
ATOM     22  H   UNL A   1      31.703  25.264  21.580  1.00  0.00     0.171 HD
ATOM     23  O   UNL A   1      33.061  23.657  20.191  1.00  0.00    -0.275 OA
BRANCH  17  24
ATOM     24  C   UNL A   1      30.576  26.394  23.929  1.00  0.00     0.325 A 
ATOM     25  N   UNL A   1      31.098  27.576  23.635  1.00  0.00    -0.191 NA
ATOM     26  O   UNL A   1      29.205  26.337  23.792  1.00  0.00    -0.422 OA
ATOM     27  C   UNL A   1      30.007  28.384  23.462  1.00  0.00     0.111 A 
ATOM     28  C   UNL A   1      28.851  27.622  23.499  1.00  0.00     0.156 A 
ATOM     29  C   UNL A   1      29.908  29.766  23.275  1.00  0.00     0.032 A 
ATOM     30  C   UNL A   1      27.571  28.122  23.297  1.00  0.00     0.049 A 
ATOM     31  C   UNL A   1      28.629  30.319  23.123  1.00  0.00     0.003 A 
ATOM     32  C   UNL A   1      27.485  29.509  23.117  1.00  0.00     0.004 A 
ENDBRANCH  17  24
ENDBRANCH   7  12
ENDBRANCH   4   6
ENDBRANCH   3   4
ENDBRANCH   2   3
ENDBRANCH   1   2
BRANCH   1  33
ATOM     33  O   UNL A   1      42.471  21.430  25.492  1.00  0.00    -0.458 OA
BRANCH  33  34
ATOM     34  C   UNL A   1      43.798  21.643  25.650  1.00  0.00     0.338 C 
ATOM     35  O   UNL A   1      44.695  20.824  25.562  1.00  0.00    -0.246 OA
BRANCH  34  36
ATOM     36  C   UNL A   1      43.991  22.984  26.205  1.00  0.00     0.060 A 
ATOM     37  C   UNL A   1      44.438  23.090  27.526  1.00  0.00     0.016 A 
ATOM     38  C   UNL A   1      43.442  24.072  25.513  1.00  0.00     0.016 A 
ATOM     39  C   UNL A   1      44.203  24.268  28.206  1.00  0.00     0.010 A 
ATOM     40  C   UNL A   1      43.184  25.230  26.199  1.00  0.00     0.010 A 
ATOM     41  C   UNL A   1      43.511  25.290  27.551  1.00  0.00    -0.014 A 
BRANCH  41  42
ATOM     42  C   UNL A   1      43.196  26.502  28.276  1.00  0.00     0.031 A 
ATOM     43  C   UNL A   1      44.252  27.536  28.167  1.00  0.00     0.074 A 
ATOM     44  C   UNL A   1      41.970  26.709  28.791  1.00  0.00     0.049 A 
ATOM     45  N   UNL A   1      44.990  28.028  29.105  1.00  0.00    -0.248 NA
ATOM     46  C   UNL A   1      44.658  27.949  26.810  1.00  0.00     0.031 C 
ATOM     47  C   UNL A   1      40.776  25.873  28.632  1.00  0.00     0.029 A 
ATOM     48  N   UNL A   1      41.494  27.791  29.458  1.00  0.00    -0.354 N 
ATOM     49  C   UNL A   1      45.786  28.986  28.482  1.00  0.00     0.074 A 
ATOM     50  C   UNL A   1      45.704  28.729  27.070  1.00  0.00     0.031 C 
ATOM     51  C   UNL A   1      39.682  26.591  28.976  1.00  0.00     0.029 A 
ATOM     52  C   UNL A   1      40.108  27.884  29.486  1.00  0.00     0.049 A 
ATOM     53  H   UNL A   1      42.082  28.453  29.887  1.00  0.00     0.167 HD
ATOM     54  C   UNL A   1      46.226  30.087  29.150  1.00  0.00     0.037 A 
ATOM     55  C   UNL A   1      39.389  28.989  29.811  1.00  0.00     0.037 A 
ATOM     56  C   UNL A   1      46.121  29.908  30.575  1.00  0.00     0.049 A 
ATOM     57  C   UNL A   1      40.307  29.906  30.546  1.00  0.00     0.074 A 
ATOM     58  C   UNL A   1      46.636  28.996  31.476  1.00  0.00     0.029 A 
ATOM     59  N   UNL A   1      45.074  30.524  31.220  1.00  0.00    -0.354 N 
ATOM     60  N   UNL A   1      40.817  29.644  31.719  1.00  0.00    -0.248 NA
ATOM     61  C   UNL A   1      41.028  30.905  29.769  1.00  0.00     0.031 C 
ATOM     62  C   UNL A   1      45.591  28.776  32.419  1.00  0.00     0.029 A 
ATOM     63  C   UNL A   1      44.522  29.607  32.078  1.00  0.00     0.049 A 
ATOM     64  H   UNL A   1      44.775  31.453  31.090  1.00  0.00     0.167 HD
ATOM     65  C   UNL A   1      42.123  30.115  31.659  1.00  0.00     0.074 A 
ATOM     66  C   UNL A   1      42.166  30.957  30.465  1.00  0.00     0.031 C 
ATOM     67  C   UNL A   1      43.115  29.552  32.410  1.00  0.00     0.037 A 
BRANCH  54  68
ATOM     68  C   UNL A   1      46.381  31.446  28.511  1.00  0.00     0.058 A 
ATOM     69  C   UNL A   1      45.246  32.087  27.977  1.00  0.00     0.135 A 
ATOM     70  C   UNL A   1      47.626  32.016  28.155  1.00  0.00     0.135 A 
ATOM     71  F   UNL A   1      44.014  31.625  28.241  1.00  0.00    -0.206 F 
ATOM     72  C   UNL A   1      45.344  33.163  27.095  1.00  0.00     0.059 A 
ATOM     73  C   UNL A   1      47.742  33.126  27.328  1.00  0.00     0.059 A 
ATOM     74  F   UNL A   1      48.796  31.469  28.501  1.00  0.00    -0.206 F 
ATOM     75  C   UNL A   1      46.599  33.664  26.765  1.00  0.00     0.060 A 
BRANCH  75  76
ATOM     76  S   UNL A   1      46.740  34.974  25.540  1.00  0.00     0.124 S 
ATOM     77  O   UNL A   1      46.477  36.157  26.353  1.00  0.00    -0.237 OA
ATOM     78  O   UNL A   1      48.113  34.808  25.075  1.00  0.00    -0.237 OA
ATOM     79  O   UNL A   1      45.708  34.635  24.564  1.00  0.00    -0.744 OA
ENDBRANCH  75  76
ENDBRANCH  54  68
BRANCH  55  80
ATOM     80  C   UNL A   1      38.106  29.449  29.210  1.00  0.00     0.058 A 
ATOM     81  C   UNL A   1      37.982  29.649  27.823  1.00  0.00     0.135 A 
ATOM     82  C   UNL A   1      36.900  29.439  29.941  1.00  0.00     0.135 A 
ATOM     83  F   UNL A   1      39.074  29.649  27.042  1.00  0.00    -0.206 F 
ATOM     84  C   UNL A   1      36.738  29.787  27.194  1.00  0.00     0.059 A 
ATOM     85  C   UNL A   1      35.651  29.590  29.340  1.00  0.00     0.059 A 
ATOM     86  F   UNL A   1      36.887  29.191  31.259  1.00  0.00    -0.206 F 
ATOM     87  C   UNL A   1      35.574  29.737  27.962  1.00  0.00     0.060 A 
BRANCH  87  88
ATOM     88  S   UNL A   1      33.961  29.738  27.143  1.00  0.00     0.124 S 
ATOM     89  O   UNL A   1      33.512  31.109  27.363  1.00  0.00    -0.237 OA
ATOM     90  O   UNL A   1      34.312  29.393  25.770  1.00  0.00    -0.237 OA
ATOM     91  O   UNL A   1      33.213  28.714  27.867  1.00  0.00    -0.744 OA
ENDBRANCH  87  88
ENDBRANCH  55  80
BRANCH  67  92
ATOM     92  C   UNL A   1      42.725  28.618  33.527  1.00  0.00     0.058 A 
ATOM     93  C   UNL A   1      42.780  27.214  33.448  1.00  0.00     0.135 A 
ATOM     94  C   UNL A   1      42.439  29.175  34.782  1.00  0.00     0.135 A 
ATOM     95  F   UNL A   1      43.148  26.601  32.315  1.00  0.00    -0.206 F 
ATOM     96  C   UNL A   1      42.521  26.403  34.557  1.00  0.00     0.059 A 
ATOM     97  C   UNL A   1      42.210  28.388  35.907  1.00  0.00     0.059 A 
ATOM     98  F   UNL A   1      42.435  30.509  34.939  1.00  0.00    -0.206 F 
ATOM     99  C   UNL A   1      42.239  27.001  35.784  1.00  0.00     0.060 A 
BRANCH  99 100
ATOM    100  S   UNL A   1      41.979  25.956  37.235  1.00  0.00     0.124 S 
ATOM    101  O   UNL A   1      42.961  26.485  38.174  1.00  0.00    -0.237 OA
ATOM    102  O   UNL A   1      40.581  26.214  37.567  1.00  0.00    -0.237 OA
ATOM    103  O   UNL A   1      42.253  24.609  36.738  1.00  0.00    -0.744 OA
ENDBRANCH  99 100
ENDBRANCH  67  92
ENDBRANCH  41  42
ENDBRANCH  34  36
ENDBRANCH  33  34
ENDBRANCH   1  33
TORSDOF 16
ENDMDL
MODEL 3
REMARK VINA RESULT:     -13.5      2.899      9.441
REMARK SMILES Cc1nn(-c2nc3ccccc3o2)c2c1[C@H](c1ccc(C(=O)OCCOC(=O)c3ccc(-c4c5nc(c(-c6c(F)cc(S(=O)(=O)[O-])cc6F)c6ccc([nH]6)c(-c6c(F)cc(S(=O)(=O)[O-])cc6F)c6nc(c(-c7c(F)cc(S(=O)(=O)[O-])cc7F)c7ccc4[nH]7)C=C6)C=C5)cc3)cc1)CC(=O)N2
REMARK SMILES IDX 25 1 24 2 23 3 21 4 22 5 20 6 17 7 18 8 96 9 19 10 95 11
REMARK SMILES IDX 16 12 1 13 2 14 3 15 15 16 4 17 14 18 100 19 97 20 98 21
REMARK SMILES IDX 99 23 5 24 6 25 13 26 7 27 12 28 8 29 11 30 9 31 10 32 26 33
REMARK SMILES IDX 27 34 28 35 29 36 30 37 94 38 31 39 93 40 32 41 33 42 34 43
REMARK SMILES IDX 87 44 35 45 92 46 86 47 88 48 36 49 91 50 85 51 84 52 37 54
REMARK SMILES IDX 71 55 50 56 70 57 51 58 54 59 69 60 89 61 52 62 53 63 68 65
REMARK SMILES IDX 90 66 55 67 38 68 39 69 48 70 40 71 41 72 47 73 49 74 42 75
REMARK SMILES IDX 43 76 44 77 45 78 46 79 72 80 73 81 82 82 74 83 75 84 81 85
REMARK SMILES IDX 83 86 76 87 77 88 78 89 79 90 80 91 56 92 57 93 66 94 58 95
REMARK SMILES IDX 59 96 65 97 67 98 60 99 61 100 62 101 63 102 64 103
REMARK H PARENT 100 22 88 53 54 64
REMARK Flexibility Score: inf
ROOT
ATOM      1  C   UNL A   1      33.850  34.669  29.689  1.00  0.00     0.275 C 
ENDROOT
BRANCH   1   2
ATOM      2  C   UNL A   1      34.017  34.179  28.259  1.00  0.00     0.275 C 
BRANCH   2   3
ATOM      3  O   UNL A   1      33.481  32.854  28.112  1.00  0.00    -0.458 OA
BRANCH   3   4
ATOM      4  C   UNL A   1      34.382  31.867  27.865  1.00  0.00     0.338 C 
ATOM      5  O   UNL A   1      35.564  31.877  28.178  1.00  0.00    -0.246 OA
BRANCH   4   6
ATOM      6  C   UNL A   1      33.722  30.707  27.205  1.00  0.00     0.060 A 
ATOM      7  C   UNL A   1      32.381  28.518  25.968  1.00  0.00    -0.040 A 
ATOM      8  C   UNL A   1      31.829  29.811  25.970  1.00  0.00     0.005 A 
ATOM      9  C   UNL A   1      33.647  28.372  26.570  1.00  0.00     0.005 A 
ATOM     10  C   UNL A   1      32.502  30.897  26.552  1.00  0.00     0.016 A 
ATOM     11  C   UNL A   1      34.298  29.440  27.197  1.00  0.00     0.016 A 
BRANCH   7  12
ATOM     12  C   UNL A   1      31.558  27.326  25.472  1.00  0.00     0.064 C 
ATOM     13  C   UNL A   1      33.884  27.398  22.875  1.00  0.00     0.069 C 
ATOM     14  C   UNL A   1      33.360  26.290  23.717  1.00  0.00     0.066 A 
ATOM     15  N   UNL A   1      33.718  25.042  23.372  1.00  0.00    -0.167 NA
ATOM     16  C   UNL A   1      32.427  26.300  24.803  1.00  0.00     0.026 A 
ATOM     17  N   UNL A   1      33.101  24.249  24.271  1.00  0.00    -0.166 N 
ATOM     18  C   UNL A   1      32.183  24.955  25.006  1.00  0.00     0.145 A 
ATOM     19  N   UNL A   1      31.127  24.420  25.709  1.00  0.00    -0.310 N 
ATOM     20  C   UNL A   1      30.727  26.667  26.603  1.00  0.00     0.113 C 
ATOM     21  C   UNL A   1      30.238  25.259  26.327  1.00  0.00     0.226 C 
ATOM     22  H   UNL A   1      31.012  23.443  25.766  1.00  0.00     0.171 HD
ATOM     23  O   UNL A   1      29.168  24.842  26.766  1.00  0.00    -0.275 OA
BRANCH  17  24
ATOM     24  C   UNL A   1      33.365  22.885  24.277  1.00  0.00     0.325 A 
ATOM     25  N   UNL A   1      32.474  22.017  23.820  1.00  0.00    -0.191 NA
ATOM     26  O   UNL A   1      34.562  22.313  24.655  1.00  0.00    -0.422 OA
ATOM     27  C   UNL A   1      33.046  20.798  24.067  1.00  0.00     0.111 A 
ATOM     28  C   UNL A   1      34.342  20.973  24.522  1.00  0.00     0.156 A 
ATOM     29  C   UNL A   1      32.536  19.502  23.938  1.00  0.00     0.032 A 
ATOM     30  C   UNL A   1      35.223  19.938  24.808  1.00  0.00     0.049 A 
ATOM     31  C   UNL A   1      33.375  18.430  24.272  1.00  0.00     0.003 A 
ATOM     32  C   UNL A   1      34.698  18.645  24.682  1.00  0.00     0.004 A 
ENDBRANCH  17  24
ENDBRANCH   7  12
ENDBRANCH   4   6
ENDBRANCH   3   4
ENDBRANCH   2   3
ENDBRANCH   1   2
BRANCH   1  33
ATOM     33  O   UNL A   1      34.979  34.318  30.486  1.00  0.00    -0.458 OA
BRANCH  33  34
ATOM     34  C   UNL A   1      34.707  33.483  31.515  1.00  0.00     0.338 C 
ATOM     35  O   UNL A   1      33.708  33.465  32.212  1.00  0.00    -0.246 OA
BRANCH  34  36
ATOM     36  C   UNL A   1      35.926  32.744  31.848  1.00  0.00     0.060 A 
ATOM     37  C   UNL A   1      37.122  33.461  31.958  1.00  0.00     0.016 A 
ATOM     38  C   UNL A   1      35.902  31.346  31.743  1.00  0.00     0.016 A 
ATOM     39  C   UNL A   1      38.312  32.779  31.820  1.00  0.00     0.010 A 
ATOM     40  C   UNL A   1      37.084  30.674  31.578  1.00  0.00     0.010 A 
ATOM     41  C   UNL A   1      38.269  31.406  31.556  1.00  0.00    -0.014 A 
BRANCH  41  42
ATOM     42  C   UNL A   1      39.509  30.693  31.340  1.00  0.00     0.031 A 
ATOM     43  C   UNL A   1      40.274  30.463  32.588  1.00  0.00     0.074 A 
ATOM     44  C   UNL A   1      39.787  30.122  30.153  1.00  0.00     0.049 A 
ATOM     45  N   UNL A   1      41.436  30.922  32.911  1.00  0.00    -0.248 NA
ATOM     46  C   UNL A   1      39.577  29.774  33.692  1.00  0.00     0.031 C 
ATOM     47  C   UNL A   1      38.915  30.016  28.979  1.00  0.00     0.029 A 
ATOM     48  N   UNL A   1      40.871  29.391  29.790  1.00  0.00    -0.354 N 
ATOM     49  C   UNL A   1      41.711  30.379  34.163  1.00  0.00     0.074 A 
ATOM     50  C   UNL A   1      40.463  29.888  34.678  1.00  0.00     0.031 C 
ATOM     51  C   UNL A   1      39.406  29.072  28.145  1.00  0.00     0.029 A 
ATOM     52  C   UNL A   1      40.678  28.598  28.665  1.00  0.00     0.049 A 
ATOM     53  H   UNL A   1      41.723  29.419  30.282  1.00  0.00     0.167 HD
ATOM     54  C   UNL A   1      42.988  30.121  34.559  1.00  0.00     0.037 A 
ATOM     55  C   UNL A   1      41.468  27.568  28.270  1.00  0.00     0.037 A 
ATOM     56  C   UNL A   1      43.940  30.831  33.745  1.00  0.00     0.049 A 
ATOM     57  C   UNL A   1      42.775  27.726  28.970  1.00  0.00     0.074 A 
ATOM     58  C   UNL A   1      44.161  32.164  33.457  1.00  0.00     0.029 A 
ATOM     59  N   UNL A   1      44.606  30.120  32.775  1.00  0.00    -0.354 N 
ATOM     60  N   UNL A   1      43.605  28.711  28.755  1.00  0.00    -0.248 NA
ATOM     61  C   UNL A   1      42.944  27.044  30.246  1.00  0.00     0.031 C 
ATOM     62  C   UNL A   1      44.537  32.189  32.083  1.00  0.00     0.029 A 
ATOM     63  C   UNL A   1      44.583  30.870  31.626  1.00  0.00     0.049 A 
ATOM     64  H   UNL A   1      45.024  29.235  32.884  1.00  0.00     0.167 HD
ATOM     65  C   UNL A   1      44.107  29.041  30.008  1.00  0.00     0.074 A 
ATOM     66  C   UNL A   1      43.729  27.924  30.872  1.00  0.00     0.031 C 
ATOM     67  C   UNL A   1      44.525  30.309  30.293  1.00  0.00     0.037 A 
BRANCH  54  68
ATOM     68  C   UNL A   1      43.374  28.940  35.418  1.00  0.00     0.058 A 
ATOM     69  C   UNL A   1      44.147  29.158  36.575  1.00  0.00     0.135 A 
ATOM     70  C   UNL A   1      43.256  27.591  35.009  1.00  0.00     0.135 A 
ATOM     71  F   UNL A   1      44.334  30.401  37.047  1.00  0.00    -0.206 F 
ATOM     72  C   UNL A   1      44.815  28.123  37.230  1.00  0.00     0.059 A 
ATOM     73  C   UNL A   1      43.862  26.540  35.685  1.00  0.00     0.059 A 
ATOM     74  F   UNL A   1      42.638  27.230  33.880  1.00  0.00    -0.206 F 
ATOM     75  C   UNL A   1      44.678  26.820  36.765  1.00  0.00     0.060 A 
BRANCH  75  76
ATOM     76  S   UNL A   1      45.627  25.497  37.533  1.00  0.00     0.124 S 
ATOM     77  O   UNL A   1      46.336  26.224  38.581  1.00  0.00    -0.237 OA
ATOM     78  O   UNL A   1      44.576  24.590  37.979  1.00  0.00    -0.237 OA
ATOM     79  O   UNL A   1      46.455  24.999  36.438  1.00  0.00    -0.744 OA
ENDBRANCH  75  76
ENDBRANCH  54  68
BRANCH  55  80
ATOM     80  C   UNL A   1      41.044  26.285  27.641  1.00  0.00     0.058 A 
ATOM     81  C   UNL A   1      41.808  25.685  26.624  1.00  0.00     0.135 A 
ATOM     82  C   UNL A   1      40.033  25.482  28.208  1.00  0.00     0.135 A 
ATOM     83  F   UNL A   1      42.808  26.365  26.042  1.00  0.00    -0.206 F 
ATOM     84  C   UNL A   1      41.611  24.357  26.222  1.00  0.00     0.059 A 
ATOM     85  C   UNL A   1      39.809  24.163  27.816  1.00  0.00     0.059 A 
ATOM     86  F   UNL A   1      39.286  25.922  29.230  1.00  0.00    -0.206 F 
ATOM     87  C   UNL A   1      40.618  23.597  26.841  1.00  0.00     0.060 A 
BRANCH  87  88
ATOM     88  S   UNL A   1      40.471  21.835  26.456  1.00  0.00     0.124 S 
ATOM     89  O   UNL A   1      41.615  21.621  25.577  1.00  0.00    -0.237 OA
ATOM     90  O   UNL A   1      40.557  21.223  27.777  1.00  0.00    -0.237 OA
ATOM     91  O   UNL A   1      39.163  21.737  25.812  1.00  0.00    -0.744 OA
ENDBRANCH  87  88
ENDBRANCH  55  80
BRANCH  67  92
ATOM     92  C   UNL A   1      44.719  31.273  29.150  1.00  0.00     0.058 A 
ATOM     93  C   UNL A   1      45.845  31.295  28.308  1.00  0.00     0.135 A 
ATOM     94  C   UNL A   1      43.642  32.101  28.798  1.00  0.00     0.135 A 
ATOM     95  F   UNL A   1      46.873  30.460  28.510  1.00  0.00    -0.206 F 
ATOM     96  C   UNL A   1      45.913  32.132  27.191  1.00  0.00     0.059 A 
ATOM     97  C   UNL A   1      43.675  32.918  27.672  1.00  0.00     0.059 A 
ATOM     98  F   UNL A   1      42.513  32.080  29.525  1.00  0.00    -0.206 F 
ATOM     99  C   UNL A   1      44.820  32.939  26.880  1.00  0.00     0.060 A 
BRANCH  99 100
ATOM    100  S   UNL A   1      44.877  33.966  25.394  1.00  0.00     0.124 S 
ATOM    101  O   UNL A   1      44.427  33.038  24.362  1.00  0.00    -0.237 OA
ATOM    102  O   UNL A   1      43.954  35.049  25.719  1.00  0.00    -0.237 OA
ATOM    103  O   UNL A   1      46.281  34.362  25.307  1.00  0.00    -0.744 OA
ENDBRANCH  99 100
ENDBRANCH  67  92
ENDBRANCH  41  42
ENDBRANCH  34  36
ENDBRANCH  33  34
ENDBRANCH   1  33
TORSDOF 16
ENDMDL
