MODEL 1
REMARK VINA RESULT:     -11.8      0.000      0.000
REMARK SMILES Cc1ccc(C(=O)N2CCC(CC(=O)OCCOC(=O)c3ccc(-c4c5nc(c(-c6c(F)cc(S(=O)(=O)[O-])cc6F)c6ccc([nH]6)c(-c6c(F)cc(S(=O)(=O)[O-])cc6F)c6nc(c(-c7c(F)cc(S(=O)(=O)[O-])cc7F)c7ccc4[nH]7)C=C6)C=C5)cc3)CC2)cn1
REMARK SMILES IDX 17 1 16 2 15 3 13 4 14 5 12 6 11 7 6 8 7 9 8 10 9 11 88 12
REMARK SMILES IDX 10 13 87 14 5 15 1 16 2 17 3 18 90 19 4 20 89 21 18 22 19 23
REMARK SMILES IDX 20 24 21 25 22 26 86 27 23 28 85 29 24 30 25 31 26 32 79 33
REMARK SMILES IDX 27 34 84 35 78 36 80 37 28 38 83 39 77 40 76 41 29 43 63 44
REMARK SMILES IDX 42 45 62 46 43 47 46 48 61 49 81 50 44 51 45 52 60 54 82 55
REMARK SMILES IDX 47 56 30 57 31 58 40 59 32 60 33 61 39 62 41 63 34 64 35 65
REMARK SMILES IDX 36 66 37 67 38 68 64 69 65 70 74 71 66 72 67 73 73 74 75 75
REMARK SMILES IDX 68 76 69 77 70 78 71 79 72 80 48 81 49 82 58 83 50 84 51 85
REMARK SMILES IDX 57 86 59 87 52 88 53 89 54 90 55 91 56 92
REMARK H PARENT 80 42 46 53
REMARK Flexibility Score: inf
ROOT
ATOM      1  C   UNL A   1      40.321  22.212  26.851  1.00  0.00     0.275 C 
ENDROOT
BRANCH   1   2
ATOM      2  C   UNL A   1      39.360  21.410  25.969  1.00  0.00     0.274 C 
BRANCH   2   3
ATOM      3  O   UNL A   1      38.220  22.195  25.572  1.00  0.00    -0.462 OA
BRANCH   3   4
ATOM      4  C   UNL A   1      37.233  21.557  24.895  1.00  0.00     0.306 C 
ATOM      5  O   UNL A   1      36.918  20.386  25.065  1.00  0.00    -0.252 OA
BRANCH   4   6
ATOM      6  C   UNL A   1      36.597  22.434  23.832  1.00  0.00     0.126 C 
BRANCH   6   7
ATOM      7  C   UNL A   1      35.115  22.783  24.052  1.00  0.00     0.003 C 
ATOM      8  C   UNL A   1      32.786  26.025  23.869  1.00  0.00     0.255 C 
ATOM      9  O   UNL A   1      33.701  26.807  24.113  1.00  0.00    -0.269 OA
ATOM     10  N   UNL A   1      32.895  24.658  24.069  1.00  0.00    -0.339 N 
ATOM     11  C   UNL A   1      33.464  24.198  25.320  1.00  0.00     0.120 C 
ATOM     12  C   UNL A   1      33.017  23.741  22.941  1.00  0.00     0.120 C 
ATOM     13  C   UNL A   1      34.931  23.835  25.159  1.00  0.00     0.026 C 
ATOM     14  C   UNL A   1      34.474  23.302  22.742  1.00  0.00     0.026 C 
BRANCH   8  15
ATOM     15  C   UNL A   1      31.431  26.542  23.547  1.00  0.00     0.058 A 
ATOM     16  C   UNL A   1      27.808  28.662  22.850  1.00  0.00     0.066 C 
ATOM     17  C   UNL A   1      29.054  27.857  23.066  1.00  0.00     0.037 A 
ATOM     18  C   UNL A   1      29.073  26.805  23.977  1.00  0.00     0.024 A 
ATOM     19  N   UNL A   1      30.156  28.249  22.383  1.00  0.00    -0.261 NA
ATOM     20  C   UNL A   1      30.277  26.141  24.219  1.00  0.00     0.017 A 
ATOM     21  C   UNL A   1      31.315  27.587  22.640  1.00  0.00     0.125 A 
ENDBRANCH   8  15
ENDBRANCH   6   7
ENDBRANCH   4   6
ENDBRANCH   3   4
ENDBRANCH   2   3
ENDBRANCH   1   2
BRANCH   1  22
ATOM     22  O   UNL A   1      40.034  23.620  26.785  1.00  0.00    -0.458 OA
BRANCH  22  23
ATOM     23  C   UNL A   1      41.116  24.428  26.865  1.00  0.00     0.338 C 
ATOM     24  O   UNL A   1      42.140  24.355  26.206  1.00  0.00    -0.246 OA
BRANCH  23  25
ATOM     25  C   UNL A   1      40.839  25.535  27.796  1.00  0.00     0.060 A 
ATOM     26  C   UNL A   1      41.852  26.471  28.021  1.00  0.00     0.016 A 
ATOM     27  C   UNL A   1      39.632  25.610  28.494  1.00  0.00     0.016 A 
ATOM     28  C   UNL A   1      41.669  27.480  28.964  1.00  0.00     0.010 A 
ATOM     29  C   UNL A   1      39.451  26.624  29.441  1.00  0.00     0.010 A 
ATOM     30  C   UNL A   1      40.477  27.551  29.696  1.00  0.00    -0.014 A 
BRANCH  30  31
ATOM     31  C   UNL A   1      40.348  28.557  30.779  1.00  0.00     0.031 A 
ATOM     32  C   UNL A   1      41.253  28.481  31.977  1.00  0.00     0.074 A 
ATOM     33  C   UNL A   1      39.458  29.560  30.664  1.00  0.00     0.049 A 
ATOM     34  N   UNL A   1      41.306  29.262  33.024  1.00  0.00    -0.248 NA
ATOM     35  C   UNL A   1      42.228  27.379  31.998  1.00  0.00     0.031 C 
ATOM     36  C   UNL A   1      38.546  29.756  29.536  1.00  0.00     0.029 A 
ATOM     37  N   UNL A   1      39.181  30.608  31.504  1.00  0.00    -0.354 N 
ATOM     38  C   UNL A   1      42.313  28.747  33.831  1.00  0.00     0.074 A 
ATOM     39  C   UNL A   1      42.827  27.569  33.165  1.00  0.00     0.031 C 
ATOM     40  C   UNL A   1      37.816  30.861  29.752  1.00  0.00     0.029 A 
ATOM     41  C   UNL A   1      38.185  31.436  31.043  1.00  0.00     0.049 A 
ATOM     42  H   UNL A   1      39.650  30.754  32.357  1.00  0.00     0.167 HD
ATOM     43  C   UNL A   1      42.774  29.219  35.014  1.00  0.00     0.037 A 
ATOM     44  C   UNL A   1      37.627  32.526  31.604  1.00  0.00     0.037 A 
ATOM     45  C   UNL A   1      42.267  30.395  35.670  1.00  0.00     0.049 A 
ATOM     46  C   UNL A   1      38.127  33.004  32.941  1.00  0.00     0.074 A 
ATOM     47  C   UNL A   1      42.677  30.961  36.866  1.00  0.00     0.029 A 
ATOM     48  N   UNL A   1      41.235  31.188  35.189  1.00  0.00    -0.354 N 
ATOM     49  N   UNL A   1      39.088  32.512  33.686  1.00  0.00    -0.248 NA
ATOM     50  C   UNL A   1      37.466  34.185  33.514  1.00  0.00     0.031 C 
ATOM     51  C   UNL A   1      41.871  32.075  37.124  1.00  0.00     0.029 A 
ATOM     52  C   UNL A   1      40.984  32.226  36.071  1.00  0.00     0.049 A 
ATOM     53  H   UNL A   1      40.753  31.035  34.345  1.00  0.00     0.167 HD
ATOM     54  C   UNL A   1      39.157  33.332  34.808  1.00  0.00     0.074 A 
ATOM     55  C   UNL A   1      38.151  34.361  34.637  1.00  0.00     0.031 C 
ATOM     56  C   UNL A   1      39.977  33.240  35.885  1.00  0.00     0.037 A 
BRANCH  43  57
ATOM     57  C   UNL A   1      43.877  28.448  35.683  1.00  0.00     0.058 A 
ATOM     58  C   UNL A   1      45.229  28.742  35.445  1.00  0.00     0.135 A 
ATOM     59  C   UNL A   1      43.578  27.419  36.591  1.00  0.00     0.135 A 
ATOM     60  F   UNL A   1      45.569  29.704  34.572  1.00  0.00    -0.206 F 
ATOM     61  C   UNL A   1      46.247  28.024  36.064  1.00  0.00     0.059 A 
ATOM     62  C   UNL A   1      44.580  26.702  37.237  1.00  0.00     0.059 A 
ATOM     63  F   UNL A   1      42.301  27.097  36.851  1.00  0.00    -0.206 F 
ATOM     64  C   UNL A   1      45.914  27.003  36.955  1.00  0.00     0.060 A 
BRANCH  64  65
ATOM     65  S   UNL A   1      47.244  26.075  37.746  1.00  0.00     0.124 S 
ATOM     66  O   UNL A   1      46.888  24.702  37.395  1.00  0.00    -0.237 OA
ATOM     67  O   UNL A   1      48.433  26.607  37.088  1.00  0.00    -0.237 OA
ATOM     68  O   UNL A   1      47.106  26.417  39.157  1.00  0.00    -0.744 OA
ENDBRANCH  64  65
ENDBRANCH  43  57
BRANCH  44  69
ATOM     69  C   UNL A   1      36.527  33.239  30.907  1.00  0.00     0.058 A 
ATOM     70  C   UNL A   1      35.201  33.137  31.350  1.00  0.00     0.135 A 
ATOM     71  C   UNL A   1      36.782  34.039  29.782  1.00  0.00     0.135 A 
ATOM     72  F   UNL A   1      34.906  32.376  32.416  1.00  0.00    -0.206 F 
ATOM     73  C   UNL A   1      34.162  33.793  30.697  1.00  0.00     0.059 A 
ATOM     74  C   UNL A   1      35.763  34.722  29.124  1.00  0.00     0.059 A 
ATOM     75  F   UNL A   1      38.036  34.176  29.323  1.00  0.00    -0.206 F 
ATOM     76  C   UNL A   1      34.454  34.583  29.584  1.00  0.00     0.060 A 
BRANCH  76  77
ATOM     77  S   UNL A   1      33.107  35.468  28.766  1.00  0.00     0.124 S 
ATOM     78  O   UNL A   1      33.839  36.447  27.973  1.00  0.00    -0.237 OA
ATOM     79  O   UNL A   1      32.448  34.402  28.017  1.00  0.00    -0.237 OA
ATOM     80  O   UNL A   1      32.336  36.007  29.883  1.00  0.00    -0.744 OA
ENDBRANCH  76  77
ENDBRANCH  44  69
BRANCH  56  81
ATOM     81  C   UNL A   1      39.831  34.289  36.951  1.00  0.00     0.058 A 
ATOM     82  C   UNL A   1      39.082  34.053  38.114  1.00  0.00     0.135 A 
ATOM     83  C   UNL A   1      40.478  35.529  36.825  1.00  0.00     0.135 A 
ATOM     84  F   UNL A   1      38.440  32.886  38.279  1.00  0.00    -0.206 F 
ATOM     85  C   UNL A   1      38.962  35.021  39.107  1.00  0.00     0.059 A 
ATOM     86  C   UNL A   1      40.389  36.502  37.815  1.00  0.00     0.059 A 
ATOM     87  F   UNL A   1      41.214  35.800  35.735  1.00  0.00    -0.206 F 
ATOM     88  C   UNL A   1      39.617  36.244  38.948  1.00  0.00     0.060 A 
BRANCH  88  89
ATOM     89  S   UNL A   1      39.475  37.482  40.253  1.00  0.00     0.124 S 
ATOM     90  O   UNL A   1      40.861  37.914  40.400  1.00  0.00    -0.237 OA
ATOM     91  O   UNL A   1      38.565  38.460  39.664  1.00  0.00    -0.237 OA
ATOM     92  O   UNL A   1      38.928  36.727  41.377  1.00  0.00    -0.744 OA
ENDBRANCH  88  89
ENDBRANCH  56  81
ENDBRANCH  30  31
ENDBRANCH  23  25
ENDBRANCH  22  23
ENDBRANCH   1  22
TORSDOF 16
ENDMDL
MODEL 2
REMARK VINA RESULT:     -11.6      6.608     12.162
REMARK SMILES Cc1ccc(C(=O)N2CCC(CC(=O)OCCOC(=O)c3ccc(-c4c5nc(c(-c6c(F)cc(S(=O)(=O)[O-])cc6F)c6ccc([nH]6)c(-c6c(F)cc(S(=O)(=O)[O-])cc6F)c6nc(c(-c7c(F)cc(S(=O)(=O)[O-])cc7F)c7ccc4[nH]7)C=C6)C=C5)cc3)CC2)cn1
REMARK SMILES IDX 17 1 16 2 15 3 13 4 14 5 12 6 11 7 6 8 7 9 8 10 9 11 88 12
REMARK SMILES IDX 10 13 87 14 5 15 1 16 2 17 3 18 90 19 4 20 89 21 18 22 19 23
REMARK SMILES IDX 20 24 21 25 22 26 86 27 23 28 85 29 24 30 25 31 26 32 79 33
REMARK SMILES IDX 27 34 84 35 78 36 80 37 28 38 83 39 77 40 76 41 29 43 63 44
REMARK SMILES IDX 42 45 62 46 43 47 46 48 61 49 81 50 44 51 45 52 60 54 82 55
REMARK SMILES IDX 47 56 30 57 31 58 40 59 32 60 33 61 39 62 41 63 34 64 35 65
REMARK SMILES IDX 36 66 37 67 38 68 64 69 65 70 74 71 66 72 67 73 73 74 75 75
REMARK SMILES IDX 68 76 69 77 70 78 71 79 72 80 48 81 49 82 58 83 50 84 51 85
REMARK SMILES IDX 57 86 59 87 52 88 53 89 54 90 55 91 56 92
REMARK H PARENT 80 42 46 53
REMARK Flexibility Score: inf
ROOT
ATOM      1  C   UNL A   1      34.829  32.116  29.473  1.00  0.00     0.275 C 
ENDROOT
BRANCH   1   2
ATOM      2  C   UNL A   1      34.593  31.973  27.967  1.00  0.00     0.274 C 
BRANCH   2   3
ATOM      3  O   UNL A   1      33.601  30.968  27.677  1.00  0.00    -0.462 OA
BRANCH   3   4
ATOM      4  C   UNL A   1      34.044  29.785  27.185  1.00  0.00     0.306 C 
ATOM      5  O   UNL A   1      35.168  29.333  27.362  1.00  0.00    -0.252 OA
BRANCH   4   6
ATOM      6  C   UNL A   1      33.011  29.098  26.309  1.00  0.00     0.126 C 
BRANCH   6   7
ATOM      7  C   UNL A   1      32.843  27.586  26.535  1.00  0.00     0.003 C 
ATOM      8  C   UNL A   1      31.520  24.423  24.481  1.00  0.00     0.255 C 
ATOM      9  O   UNL A   1      30.759  25.083  23.779  1.00  0.00    -0.269 OA
ATOM     10  N   UNL A   1      32.098  24.924  25.637  1.00  0.00    -0.339 N 
ATOM     11  C   UNL A   1      31.248  25.639  26.567  1.00  0.00     0.120 C 
ATOM     12  C   UNL A   1      33.515  25.268  25.679  1.00  0.00     0.120 C 
ATOM     13  C   UNL A   1      31.377  27.143  26.390  1.00  0.00     0.026 C 
ATOM     14  C   UNL A   1      33.720  26.783  25.543  1.00  0.00     0.026 C 
BRANCH   8  15
ATOM     15  C   UNL A   1      31.686  22.967  24.235  1.00  0.00     0.058 A 
ATOM     16  C   UNL A   1      32.727  18.849  23.984  1.00  0.00     0.066 C 
ATOM     17  C   UNL A   1      32.303  20.285  24.032  1.00  0.00     0.037 A 
ATOM     18  C   UNL A   1      32.334  21.076  22.887  1.00  0.00     0.024 A 
ATOM     19  N   UNL A   1      31.956  20.776  25.246  1.00  0.00    -0.261 NA
ATOM     20  C   UNL A   1      32.022  22.433  22.992  1.00  0.00     0.017 A 
ATOM     21  C   UNL A   1      31.659  22.100  25.320  1.00  0.00     0.125 A 
ENDBRANCH   8  15
ENDBRANCH   6   7
ENDBRANCH   4   6
ENDBRANCH   3   4
ENDBRANCH   2   3
ENDBRANCH   1   2
BRANCH   1  22
ATOM     22  O   UNL A   1      36.233  32.096  29.783  1.00  0.00    -0.458 OA
BRANCH  22  23
ATOM     23  C   UNL A   1      36.620  31.109  30.624  1.00  0.00     0.338 C 
ATOM     24  O   UNL A   1      36.011  30.690  31.594  1.00  0.00    -0.246 OA
BRANCH  23  25
ATOM     25  C   UNL A   1      37.859  30.490  30.125  1.00  0.00     0.060 A 
ATOM     26  C   UNL A   1      38.818  30.097  31.061  1.00  0.00     0.016 A 
ATOM     27  C   UNL A   1      38.106  30.365  28.756  1.00  0.00     0.016 A 
ATOM     28  C   UNL A   1      40.044  29.594  30.631  1.00  0.00     0.010 A 
ATOM     29  C   UNL A   1      39.338  29.860  28.327  1.00  0.00     0.010 A 
ATOM     30  C   UNL A   1      40.321  29.492  29.262  1.00  0.00    -0.014 A 
BRANCH  30  31
ATOM     31  C   UNL A   1      41.674  29.068  28.824  1.00  0.00     0.031 A 
ATOM     32  C   UNL A   1      42.804  30.058  28.837  1.00  0.00     0.074 A 
ATOM     33  C   UNL A   1      41.896  27.790  28.464  1.00  0.00     0.049 A 
ATOM     34  N   UNL A   1      44.057  29.888  28.501  1.00  0.00    -0.248 NA
ATOM     35  C   UNL A   1      42.482  31.421  29.290  1.00  0.00     0.031 C 
ATOM     36  C   UNL A   1      40.885  26.732  28.438  1.00  0.00     0.029 A 
ATOM     37  N   UNL A   1      43.047  27.164  28.058  1.00  0.00    -0.354 N 
ATOM     38  C   UNL A   1      44.672  31.119  28.696  1.00  0.00     0.074 A 
ATOM     39  C   UNL A   1      43.649  32.035  29.153  1.00  0.00     0.031 C 
ATOM     40  C   UNL A   1      41.463  25.586  28.044  1.00  0.00     0.029 A 
ATOM     41  C   UNL A   1      42.875  25.832  27.762  1.00  0.00     0.049 A 
ATOM     42  H   UNL A   1      43.914  27.624  27.985  1.00  0.00     0.167 HD
ATOM     43  C   UNL A   1      45.973  31.452  28.519  1.00  0.00     0.037 A 
ATOM     44  C   UNL A   1      43.755  24.920  27.305  1.00  0.00     0.037 A 
ATOM     45  C   UNL A   1      46.990  30.537  28.071  1.00  0.00     0.049 A 
ATOM     46  C   UNL A   1      45.185  25.327  27.073  1.00  0.00     0.074 A 
ATOM     47  C   UNL A   1      48.339  30.777  27.872  1.00  0.00     0.029 A 
ATOM     48  N   UNL A   1      46.771  29.205  27.748  1.00  0.00    -0.354 N 
ATOM     49  N   UNL A   1      45.754  26.492  27.272  1.00  0.00    -0.248 NA
ATOM     50  C   UNL A   1      46.093  24.296  26.553  1.00  0.00     0.031 C 
ATOM     51  C   UNL A   1      48.929  29.600  27.398  1.00  0.00     0.029 A 
ATOM     52  C   UNL A   1      47.955  28.616  27.337  1.00  0.00     0.049 A 
ATOM     53  H   UNL A   1      45.902  28.747  27.805  1.00  0.00     0.167 HD
ATOM     54  C   UNL A   1      47.089  26.330  26.917  1.00  0.00     0.074 A 
ATOM     55  C   UNL A   1      47.247  24.950  26.505  1.00  0.00     0.031 C 
ATOM     56  C   UNL A   1      48.093  27.242  26.928  1.00  0.00     0.037 A 
BRANCH  43  57
ATOM     57  C   UNL A   1      46.366  32.876  28.796  1.00  0.00     0.058 A 
ATOM     58  C   UNL A   1      46.323  33.858  27.794  1.00  0.00     0.135 A 
ATOM     59  C   UNL A   1      46.767  33.267  30.084  1.00  0.00     0.135 A 
ATOM     60  F   UNL A   1      45.964  33.533  26.542  1.00  0.00    -0.206 F 
ATOM     61  C   UNL A   1      46.689  35.175  28.053  1.00  0.00     0.059 A 
ATOM     62  C   UNL A   1      47.117  34.583  30.370  1.00  0.00     0.059 A 
ATOM     63  F   UNL A   1      46.827  32.365  31.075  1.00  0.00    -0.206 F 
ATOM     64  C   UNL A   1      47.090  35.527  29.343  1.00  0.00     0.060 A 
BRANCH  64  65
ATOM     65  S   UNL A   1      47.569  37.237  29.664  1.00  0.00     0.124 S 
ATOM     66  O   UNL A   1      48.242  37.588  28.416  1.00  0.00    -0.237 OA
ATOM     67  O   UNL A   1      46.283  37.887  29.894  1.00  0.00    -0.237 OA
ATOM     68  O   UNL A   1      48.434  37.135  30.834  1.00  0.00    -0.744 OA
ENDBRANCH  64  65
ENDBRANCH  43  57
BRANCH  44  69
ATOM     69  C   UNL A   1      43.307  23.531  27.029  1.00  0.00     0.058 A 
ATOM     70  C   UNL A   1      43.059  23.096  25.720  1.00  0.00     0.135 A 
ATOM     71  C   UNL A   1      43.120  22.611  28.072  1.00  0.00     0.135 A 
ATOM     72  F   UNL A   1      43.214  23.942  24.690  1.00  0.00    -0.206 F 
ATOM     73  C   UNL A   1      42.629  21.799  25.453  1.00  0.00     0.059 A 
ATOM     74  C   UNL A   1      42.712  21.303  27.829  1.00  0.00     0.059 A 
ATOM     75  F   UNL A   1      43.353  22.977  29.343  1.00  0.00    -0.206 F 
ATOM     76  C   UNL A   1      42.458  20.910  26.516  1.00  0.00     0.060 A 
BRANCH  76  77
ATOM     77  S   UNL A   1      41.943  19.216  26.159  1.00  0.00     0.124 S 
ATOM     78  O   UNL A   1      42.363  18.521  27.369  1.00  0.00    -0.237 OA
ATOM     79  O   UNL A   1      40.502  19.363  25.975  1.00  0.00    -0.237 OA
ATOM     80  O   UNL A   1      42.691  18.888  24.949  1.00  0.00    -0.744 OA
ENDBRANCH  76  77
ENDBRANCH  44  69
BRANCH  56  81
ATOM     81  C   UNL A   1      49.454  26.769  26.498  1.00  0.00     0.058 A 
ATOM     82  C   UNL A   1      50.321  26.121  27.391  1.00  0.00     0.135 A 
ATOM     83  C   UNL A   1      49.878  26.932  25.170  1.00  0.00     0.135 A 
ATOM     84  F   UNL A   1      49.963  25.947  28.673  1.00  0.00    -0.206 F 
ATOM     85  C   UNL A   1      51.574  25.671  26.986  1.00  0.00     0.059 A 
ATOM     86  C   UNL A   1      51.118  26.470  24.738  1.00  0.00     0.059 A 
ATOM     87  F   UNL A   1      49.081  27.537  24.274  1.00  0.00    -0.206 F 
ATOM     88  C   UNL A   1      51.965  25.852  25.658  1.00  0.00     0.060 A 
BRANCH  88  89
ATOM     89  S   UNL A   1      53.582  25.241  25.137  1.00  0.00     0.124 S 
ATOM     90  O   UNL A   1      53.618  25.661  23.740  1.00  0.00    -0.237 OA
ATOM     91  O   UNL A   1      54.491  25.947  26.035  1.00  0.00    -0.237 OA
ATOM     92  O   UNL A   1      53.486  23.801  25.359  1.00  0.00    -0.744 OA
ENDBRANCH  88  89
ENDBRANCH  56  81
ENDBRANCH  30  31
ENDBRANCH  23  25
ENDBRANCH  22  23
ENDBRANCH   1  22
TORSDOF 16
ENDMDL
MODEL 3
REMARK VINA RESULT:     -11.5      4.997     12.256
REMARK SMILES Cc1ccc(C(=O)N2CCC(CC(=O)OCCOC(=O)c3ccc(-c4c5nc(c(-c6c(F)cc(S(=O)(=O)[O-])cc6F)c6ccc([nH]6)c(-c6c(F)cc(S(=O)(=O)[O-])cc6F)c6nc(c(-c7c(F)cc(S(=O)(=O)[O-])cc7F)c7ccc4[nH]7)C=C6)C=C5)cc3)CC2)cn1
REMARK SMILES IDX 17 1 16 2 15 3 13 4 14 5 12 6 11 7 6 8 7 9 8 10 9 11 88 12
REMARK SMILES IDX 10 13 87 14 5 15 1 16 2 17 3 18 90 19 4 20 89 21 18 22 19 23
REMARK SMILES IDX 20 24 21 25 22 26 86 27 23 28 85 29 24 30 25 31 26 32 79 33
REMARK SMILES IDX 27 34 84 35 78 36 80 37 28 38 83 39 77 40 76 41 29 43 63 44
REMARK SMILES IDX 42 45 62 46 43 47 46 48 61 49 81 50 44 51 45 52 60 54 82 55
REMARK SMILES IDX 47 56 30 57 31 58 40 59 32 60 33 61 39 62 41 63 34 64 35 65
REMARK SMILES IDX 36 66 37 67 38 68 64 69 65 70 74 71 66 72 67 73 73 74 75 75
REMARK SMILES IDX 68 76 69 77 70 78 71 79 72 80 48 81 49 82 58 83 50 84 51 85
REMARK SMILES IDX 57 86 59 87 52 88 53 89 54 90 55 91 56 92
REMARK H PARENT 80 42 46 53
REMARK Flexibility Score: inf
ROOT
ATOM      1  C   UNL A   1      33.451  32.765  28.031  1.00  0.00     0.275 C 
ENDROOT
BRANCH   1   2
ATOM      2  C   UNL A   1      34.078  34.150  27.854  1.00  0.00     0.274 C 
BRANCH   2   3
ATOM      3  O   UNL A   1      34.563  34.679  29.104  1.00  0.00    -0.462 OA
BRANCH   3   4
ATOM      4  C   UNL A   1      33.636  35.042  30.025  1.00  0.00     0.306 C 
ATOM      5  O   UNL A   1      32.628  35.693  29.779  1.00  0.00    -0.252 OA
BRANCH   4   6
ATOM      6  C   UNL A   1      34.018  34.619  31.432  1.00  0.00     0.126 C 
BRANCH   6   7
ATOM      7  C   UNL A   1      35.469  34.140  31.614  1.00  0.00     0.003 C 
ATOM      8  C   UNL A   1      37.601  32.159  34.352  1.00  0.00     0.255 C 
ATOM      9  O   UNL A   1      36.887  32.504  35.290  1.00  0.00    -0.269 OA
ATOM     10  N   UNL A   1      37.548  32.765  33.107  1.00  0.00    -0.339 N 
ATOM     11  C   UNL A   1      37.530  34.213  33.057  1.00  0.00     0.120 C 
ATOM     12  C   UNL A   1      36.951  32.082  31.964  1.00  0.00     0.120 C 
ATOM     13  C   UNL A   1      36.117  34.742  32.873  1.00  0.00     0.026 C 
ATOM     14  C   UNL A   1      35.529  32.596  31.696  1.00  0.00     0.026 C 
BRANCH   8  15
ATOM     15  C   UNL A   1      38.718  31.206  34.579  1.00  0.00     0.058 A 
ATOM     16  C   UNL A   1      42.306  29.068  35.389  1.00  0.00     0.066 C 
ATOM     17  C   UNL A   1      41.009  29.758  35.095  1.00  0.00     0.037 A 
ATOM     18  C   UNL A   1      40.441  29.696  33.826  1.00  0.00     0.024 A 
ATOM     19  N   UNL A   1      40.467  30.485  36.101  1.00  0.00    -0.261 NA
ATOM     20  C   UNL A   1      39.282  30.429  33.567  1.00  0.00     0.017 A 
ATOM     21  C   UNL A   1      39.340  31.191  35.820  1.00  0.00     0.125 A 
ENDBRANCH   8  15
ENDBRANCH   6   7
ENDBRANCH   4   6
ENDBRANCH   3   4
ENDBRANCH   2   3
ENDBRANCH   1   2
BRANCH   1  22
ATOM     22  O   UNL A   1      34.365  31.858  28.670  1.00  0.00    -0.458 OA
BRANCH  22  23
ATOM     23  C   UNL A   1      34.447  30.632  28.103  1.00  0.00     0.338 C 
ATOM     24  O   UNL A   1      33.585  30.063  27.455  1.00  0.00    -0.246 OA
BRANCH  23  25
ATOM     25  C   UNL A   1      35.812  30.103  28.261  1.00  0.00     0.060 A 
ATOM     26  C   UNL A   1      36.184  29.614  29.516  1.00  0.00     0.016 A 
ATOM     27  C   UNL A   1      36.735  30.155  27.215  1.00  0.00     0.016 A 
ATOM     28  C   UNL A   1      37.493  29.192  29.737  1.00  0.00     0.010 A 
ATOM     29  C   UNL A   1      38.049  29.731  27.440  1.00  0.00     0.010 A 
ATOM     30  C   UNL A   1      38.440  29.266  28.708  1.00  0.00    -0.014 A 
BRANCH  30  31
ATOM     31  C   UNL A   1      39.855  28.926  28.996  1.00  0.00     0.031 A 
ATOM     32  C   UNL A   1      40.737  29.932  29.682  1.00  0.00     0.074 A 
ATOM     33  C   UNL A   1      40.330  27.705  28.689  1.00  0.00     0.049 A 
ATOM     34  N   UNL A   1      41.994  29.829  30.027  1.00  0.00    -0.248 NA
ATOM     35  C   UNL A   1      40.122  31.224  30.024  1.00  0.00     0.031 C 
ATOM     36  C   UNL A   1      39.562  26.636  28.049  1.00  0.00     0.029 A 
ATOM     37  N   UNL A   1      41.572  27.155  28.882  1.00  0.00    -0.354 N 
ATOM     38  C   UNL A   1      42.324  31.040  30.623  1.00  0.00     0.074 A 
ATOM     39  C   UNL A   1      41.142  31.874  30.566  1.00  0.00     0.031 C 
ATOM     40  C   UNL A   1      40.348  25.557  27.909  1.00  0.00     0.029 A 
ATOM     41  C   UNL A   1      41.681  25.865  28.421  1.00  0.00     0.049 A 
ATOM     42  H   UNL A   1      42.315  27.639  29.310  1.00  0.00     0.167 HD
ATOM     43  C   UNL A   1      43.502  31.419  31.175  1.00  0.00     0.037 A 
ATOM     44  C   UNL A   1      42.740  25.032  28.404  1.00  0.00     0.037 A 
ATOM     45  C   UNL A   1      44.673  30.586  31.237  1.00  0.00     0.049 A 
ATOM     46  C   UNL A   1      44.050  25.493  28.984  1.00  0.00     0.074 A 
ATOM     47  C   UNL A   1      45.910  30.875  31.786  1.00  0.00     0.029 A 
ATOM     48  N   UNL A   1      44.755  29.297  30.728  1.00  0.00    -0.354 N 
ATOM     49  N   UNL A   1      44.343  26.638  29.552  1.00  0.00    -0.248 NA
ATOM     50  C   UNL A   1      45.175  24.550  28.916  1.00  0.00     0.031 C 
ATOM     51  C   UNL A   1      46.750  29.775  31.582  1.00  0.00     0.029 A 
ATOM     52  C   UNL A   1      46.026  28.785  30.937  1.00  0.00     0.049 A 
ATOM     53  H   UNL A   1      44.019  28.817  30.286  1.00  0.00     0.167 HD
ATOM     54  C   UNL A   1      45.680  26.547  29.925  1.00  0.00     0.074 A 
ATOM     55  C   UNL A   1      46.135  25.229  29.531  1.00  0.00     0.031 C 
ATOM     56  C   UNL A   1      46.462  27.472  30.536  1.00  0.00     0.037 A 
BRANCH  43  57
ATOM     57  C   UNL A   1      43.583  32.808  31.743  1.00  0.00     0.058 A 
ATOM     58  C   UNL A   1      43.260  33.075  33.083  1.00  0.00     0.135 A 
ATOM     59  C   UNL A   1      44.012  33.880  30.944  1.00  0.00     0.135 A 
ATOM     60  F   UNL A   1      42.827  32.088  33.884  1.00  0.00    -0.206 F 
ATOM     61  C   UNL A   1      43.335  34.362  33.605  1.00  0.00     0.059 A 
ATOM     62  C   UNL A   1      44.114  35.172  31.452  1.00  0.00     0.059 A 
ATOM     63  F   UNL A   1      44.330  33.679  29.657  1.00  0.00    -0.206 F 
ATOM     64  C   UNL A   1      43.758  35.406  32.781  1.00  0.00     0.060 A 
BRANCH  64  65
ATOM     65  S   UNL A   1      43.843  37.072  33.468  1.00  0.00     0.124 S 
ATOM     66  O   UNL A   1      42.632  37.110  34.284  1.00  0.00    -0.237 OA
ATOM     67  O   UNL A   1      45.102  37.044  34.206  1.00  0.00    -0.237 OA
ATOM     68  O   UNL A   1      43.830  37.929  32.288  1.00  0.00    -0.744 OA
ENDBRANCH  64  65
ENDBRANCH  43  57
BRANCH  44  69
ATOM     69  C   UNL A   1      42.608  23.676  27.812  1.00  0.00     0.058 A 
ATOM     70  C   UNL A   1      42.679  23.480  26.426  1.00  0.00     0.135 A 
ATOM     71  C   UNL A   1      42.408  22.549  28.625  1.00  0.00     0.135 A 
ATOM     72  F   UNL A   1      42.858  24.528  25.608  1.00  0.00    -0.206 F 
ATOM     73  C   UNL A   1      42.545  22.215  25.862  1.00  0.00     0.059 A 
ATOM     74  C   UNL A   1      42.294  21.271  28.086  1.00  0.00     0.059 A 
ATOM     75  F   UNL A   1      42.342  22.683  29.958  1.00  0.00    -0.206 F 
ATOM     76  C   UNL A   1      42.353  21.116  26.702  1.00  0.00     0.060 A 
BRANCH  76  77
ATOM     77  S   UNL A   1      42.225  19.470  25.967  1.00  0.00     0.124 S 
ATOM     78  O   UNL A   1      42.710  18.626  27.051  1.00  0.00    -0.237 OA
ATOM     79  O   UNL A   1      40.798  19.374  25.672  1.00  0.00    -0.237 OA
ATOM     80  O   UNL A   1      43.094  19.560  24.797  1.00  0.00    -0.744 OA
ENDBRANCH  76  77
ENDBRANCH  44  69
BRANCH  56  81
ATOM     81  C   UNL A   1      47.883  27.083  30.831  1.00  0.00     0.058 A 
ATOM     82  C   UNL A   1      48.910  27.294  29.898  1.00  0.00     0.135 A 
ATOM     83  C   UNL A   1      48.228  26.529  32.074  1.00  0.00     0.135 A 
ATOM     84  F   UNL A   1      48.630  27.816  28.693  1.00  0.00    -0.206 F 
ATOM     85  C   UNL A   1      50.228  26.947  30.179  1.00  0.00     0.059 A 
ATOM     86  C   UNL A   1      49.542  26.195  32.384  1.00  0.00     0.059 A 
ATOM     87  F   UNL A   1      47.283  26.316  33.005  1.00  0.00    -0.206 F 
ATOM     88  C   UNL A   1      50.534  26.396  31.424  1.00  0.00     0.060 A 
BRANCH  88  89
ATOM     89  S   UNL A   1      52.251  25.973  31.789  1.00  0.00     0.124 S 
ATOM     90  O   UNL A   1      52.143  24.552  32.101  1.00  0.00    -0.237 OA
ATOM     91  O   UNL A   1      52.929  26.298  30.537  1.00  0.00    -0.237 OA
ATOM     92  O   UNL A   1      52.581  26.842  32.915  1.00  0.00    -0.744 OA
ENDBRANCH  88  89
ENDBRANCH  56  81
ENDBRANCH  30  31
ENDBRANCH  23  25
ENDBRANCH  22  23
ENDBRANCH   1  22
TORSDOF 16
ENDMDL
