MODEL 1
REMARK VINA RESULT:     -10.9      0.000      0.000
REMARK SMILES O=C(COc1ccccc1/C=C1/SC(=O)N(c2ccc(F)cc2)C1=O)OCCOC(=O)c1ccc(-c2c3nc(c(-c4c(F)cc(S(=O)(=O)[O-])cc4F)c4ccc([nH]4)c(-c4c(F)cc(S(=O)(=O)[O-])cc4F)c4nc(c(-c5c(F)cc(S(=O)(=O)[O-])cc5F)c5ccc2[nH]5)C=C4)C=C3)cc1
REMARK SMILES IDX 27 1 26 2 2 3 1 4 3 5 4 6 5 7 6 8 10 9 7 10 9 11 8 12 11 13
REMARK SMILES IDX 12 14 13 15 24 16 14 17 16 18 25 19 15 20 17 21 18 22 23 23
REMARK SMILES IDX 19 24 22 25 20 26 21 27 28 28 29 29 30 30 31 31 32 32 33 33
REMARK SMILES IDX 97 34 34 35 96 36 35 37 36 38 37 39 90 40 38 41 95 42 89 43
REMARK SMILES IDX 91 44 39 45 94 46 88 47 87 48 40 50 74 51 53 52 73 53 54 54
REMARK SMILES IDX 57 55 72 56 92 57 55 58 56 59 71 61 93 62 58 63 41 64 42 65
REMARK SMILES IDX 51 66 43 67 44 68 50 69 52 70 45 71 46 72 47 73 48 74 49 75
REMARK SMILES IDX 75 76 76 77 85 78 77 79 78 80 84 81 86 82 79 83 80 84 81 85
REMARK SMILES IDX 82 86 83 87 59 88 60 89 69 90 61 91 62 92 68 93 70 94 63 95
REMARK SMILES IDX 64 96 65 97 66 98 67 99
REMARK H PARENT 91 49 57 60
REMARK Flexibility Score: inf
ROOT
ATOM      1  C   UNL A   1      33.410  31.494  27.632  1.00  0.00     0.274 C 
ENDROOT
BRANCH   1   2
ATOM      2  O   UNL A   1      33.972  32.823  27.544  1.00  0.00    -0.460 OA
BRANCH   2   3
ATOM      3  C   UNL A   1      33.653  33.839  28.387  1.00  0.00     0.344 C 
ATOM      4  O   UNL A   1      32.561  34.398  28.299  1.00  0.00    -0.248 OA
BRANCH   3   5
ATOM      5  C   UNL A   1      34.627  34.178  29.496  1.00  0.00     0.352 C 
BRANCH   5   6
ATOM      6  O   UNL A   1      34.079  33.780  30.755  1.00  0.00    -0.481 OA
BRANCH   6   7
ATOM      7  C   UNL A   1      34.020  34.847  31.620  1.00  0.00     0.127 A 
ATOM      8  C   UNL A   1      33.438  36.023  31.139  1.00  0.00     0.047 A 
ATOM      9  C   UNL A   1      34.559  34.784  32.920  1.00  0.00     0.018 A 
ATOM     10  C   UNL A   1      33.339  37.135  31.971  1.00  0.00     0.004 A 
ATOM     11  C   UNL A   1      34.437  35.908  33.747  1.00  0.00     0.012 A 
ATOM     12  C   UNL A   1      33.831  37.076  33.275  1.00  0.00     0.001 A 
BRANCH   9  13
ATOM     13  C   UNL A   1      35.179  33.574  33.481  1.00  0.00     0.033 C 
ATOM     14  C   UNL A   1      36.478  33.249  33.415  1.00  0.00     0.084 C 
ATOM     15  S   UNL A   1      37.084  31.694  33.824  1.00  0.00    -0.022 SA
ATOM     16  C   UNL A   1      37.580  34.075  32.849  1.00  0.00     0.272 C 
ATOM     17  C   UNL A   1      38.526  31.931  32.842  1.00  0.00     0.298 C 
ATOM     18  N   UNL A   1      38.627  33.253  32.449  1.00  0.00    -0.236 N 
ATOM     19  O   UNL A   1      37.513  35.295  32.784  1.00  0.00    -0.268 OA
ATOM     20  O   UNL A   1      39.300  31.009  32.635  1.00  0.00    -0.260 OA
BRANCH  18  21
ATOM     21  C   UNL A   1      39.728  33.748  31.673  1.00  0.00     0.053 A 
ATOM     22  C   UNL A   1      40.963  34.057  32.271  1.00  0.00     0.030 A 
ATOM     23  C   UNL A   1      39.600  33.992  30.293  1.00  0.00     0.030 A 
ATOM     24  C   UNL A   1      42.012  34.617  31.534  1.00  0.00     0.041 A 
ATOM     25  C   UNL A   1      40.639  34.576  29.559  1.00  0.00     0.041 A 
ATOM     26  C   UNL A   1      41.835  34.886  30.188  1.00  0.00     0.123 A 
ATOM     27  F   UNL A   1      42.827  35.449  29.488  1.00  0.00    -0.207 F 
ENDBRANCH  18  21
ENDBRANCH   9  13
ENDBRANCH   6   7
ENDBRANCH   5   6
ENDBRANCH   3   5
ENDBRANCH   2   3
ENDBRANCH   1   2
BRANCH   1  28
ATOM     28  C   UNL A   1      34.511  30.451  27.463  1.00  0.00     0.275 C 
BRANCH  28  29
ATOM     29  O   UNL A   1      35.759  31.054  27.831  1.00  0.00    -0.458 OA
BRANCH  29  30
ATOM     30  C   UNL A   1      36.188  30.802  29.094  1.00  0.00     0.338 C 
ATOM     31  O   UNL A   1      35.552  30.913  30.122  1.00  0.00    -0.246 OA
BRANCH  30  32
ATOM     32  C   UNL A   1      37.500  30.136  28.974  1.00  0.00     0.060 A 
ATOM     33  C   UNL A   1      38.097  29.613  30.129  1.00  0.00     0.016 A 
ATOM     34  C   UNL A   1      38.106  29.978  27.725  1.00  0.00     0.016 A 
ATOM     35  C   UNL A   1      39.316  28.941  30.038  1.00  0.00     0.010 A 
ATOM     36  C   UNL A   1      39.328  29.321  27.635  1.00  0.00     0.010 A 
ATOM     37  C   UNL A   1      39.947  28.827  28.794  1.00  0.00    -0.014 A 
BRANCH  37  38
ATOM     38  C   UNL A   1      41.358  28.404  28.694  1.00  0.00     0.031 A 
ATOM     39  C   UNL A   1      42.405  29.478  28.739  1.00  0.00     0.074 A 
ATOM     40  C   UNL A   1      41.681  27.122  28.457  1.00  0.00     0.049 A 
ATOM     41  N   UNL A   1      43.684  29.399  28.492  1.00  0.00    -0.248 NA
ATOM     42  C   UNL A   1      41.935  30.831  29.082  1.00  0.00     0.031 C 
ATOM     43  C   UNL A   1      40.737  26.008  28.396  1.00  0.00     0.029 A 
ATOM     44  N   UNL A   1      42.897  26.552  28.180  1.00  0.00    -0.354 N 
ATOM     45  C   UNL A   1      44.169  30.694  28.635  1.00  0.00     0.074 A 
ATOM     46  C   UNL A   1      43.046  31.540  28.969  1.00  0.00     0.031 C 
ATOM     47  C   UNL A   1      41.405  24.891  28.055  1.00  0.00     0.029 A 
ATOM     48  C   UNL A   1      42.814  25.220  27.849  1.00  0.00     0.049 A 
ATOM     49  H   UNL A   1      43.747  27.048  28.214  1.00  0.00     0.167 HD
ATOM     50  C   UNL A   1      45.440  31.135  28.496  1.00  0.00     0.037 A 
ATOM     51  C   UNL A   1      43.766  24.381  27.396  1.00  0.00     0.037 A 
ATOM     52  C   UNL A   1      46.542  30.283  28.146  1.00  0.00     0.049 A 
ATOM     53  C   UNL A   1      45.171  24.895  27.221  1.00  0.00     0.074 A 
ATOM     54  C   UNL A   1      47.877  30.614  28.009  1.00  0.00     0.029 A 
ATOM     55  N   UNL A   1      46.429  28.929  27.865  1.00  0.00    -0.354 N 
ATOM     56  N   UNL A   1      45.633  26.109  27.413  1.00  0.00    -0.248 NA
ATOM     57  C   UNL A   1      46.185  23.931  26.772  1.00  0.00     0.031 C 
ATOM     58  C   UNL A   1      48.567  29.465  27.606  1.00  0.00     0.029 A 
ATOM     59  C   UNL A   1      47.667  28.411  27.532  1.00  0.00     0.049 A 
ATOM     60  H   UNL A   1      45.591  28.414  27.896  1.00  0.00     0.167 HD
ATOM     61  C   UNL A   1      46.994  26.050  27.129  1.00  0.00     0.074 A 
ATOM     62  C   UNL A   1      47.281  24.679  26.756  1.00  0.00     0.031 C 
ATOM     63  C   UNL A   1      47.923  27.037  27.176  1.00  0.00     0.037 A 
BRANCH  50  64
ATOM     64  C   UNL A   1      45.677  32.604  28.689  1.00  0.00     0.058 A 
ATOM     65  C   UNL A   1      45.921  33.149  29.960  1.00  0.00     0.135 A 
ATOM     66  C   UNL A   1      45.627  33.482  27.595  1.00  0.00     0.135 A 
ATOM     67  F   UNL A   1      45.954  32.355  31.041  1.00  0.00    -0.206 F 
ATOM     68  C   UNL A   1      46.069  34.520  30.145  1.00  0.00     0.059 A 
ATOM     69  C   UNL A   1      45.795  34.854  27.754  1.00  0.00     0.059 A 
ATOM     70  F   UNL A   1      45.387  33.012  26.362  1.00  0.00    -0.206 F 
ATOM     71  C   UNL A   1      45.995  35.365  29.037  1.00  0.00     0.060 A 
BRANCH  71  72
ATOM     72  S   UNL A   1      46.154  37.145  29.292  1.00  0.00     0.124 S 
ATOM     73  O   UNL A   1      47.601  37.320  29.208  1.00  0.00    -0.237 OA
ATOM     74  O   UNL A   1      45.384  37.693  28.180  1.00  0.00    -0.237 OA
ATOM     75  O   UNL A   1      45.573  37.351  30.615  1.00  0.00    -0.744 OA
ENDBRANCH  71  72
ENDBRANCH  50  64
BRANCH  51  76
ATOM     76  C   UNL A   1      43.412  22.977  27.065  1.00  0.00     0.058 A 
ATOM     77  C   UNL A   1      43.366  22.538  25.735  1.00  0.00     0.135 A 
ATOM     78  C   UNL A   1      43.147  22.037  28.074  1.00  0.00     0.135 A 
ATOM     79  F   UNL A   1      43.602  23.401  24.736  1.00  0.00    -0.206 F 
ATOM     80  C   UNL A   1      43.070  21.216  25.414  1.00  0.00     0.059 A 
ATOM     81  C   UNL A   1      42.868  20.707  27.780  1.00  0.00     0.059 A 
ATOM     82  F   UNL A   1      43.191  22.406  29.365  1.00  0.00    -0.206 F 
ATOM     83  C   UNL A   1      42.828  20.306  26.445  1.00  0.00     0.060 A 
BRANCH  83  84
ATOM     84  S   UNL A   1      42.525  18.576  26.022  1.00  0.00     0.124 S 
ATOM     85  O   UNL A   1      43.423  18.388  24.890  1.00  0.00    -0.237 OA
ATOM     86  O   UNL A   1      42.897  17.888  27.255  1.00  0.00    -0.237 OA
ATOM     87  O   UNL A   1      41.098  18.554  25.710  1.00  0.00    -0.744 OA
ENDBRANCH  83  84
ENDBRANCH  51  76
BRANCH  63  88
ATOM     88  C   UNL A   1      49.343  26.675  26.850  1.00  0.00     0.058 A 
ATOM     89  C   UNL A   1      50.214  26.173  27.827  1.00  0.00     0.135 A 
ATOM     90  C   UNL A   1      49.798  26.730  25.523  1.00  0.00     0.135 A 
ATOM     91  F   UNL A   1      49.825  26.105  29.109  1.00  0.00    -0.206 F 
ATOM     92  C   UNL A   1      51.493  25.735  27.500  1.00  0.00     0.059 A 
ATOM     93  C   UNL A   1      51.065  26.281  25.170  1.00  0.00     0.059 A 
ATOM     94  F   UNL A   1      48.997  27.195  24.552  1.00  0.00    -0.206 F 
ATOM     95  C   UNL A   1      51.907  25.786  26.166  1.00  0.00     0.060 A 
BRANCH  95  96
ATOM     96  S   UNL A   1      53.541  25.147  25.740  1.00  0.00     0.124 S 
ATOM     97  O   UNL A   1      53.955  26.073  24.693  1.00  0.00    -0.237 OA
ATOM     98  O   UNL A   1      54.261  25.256  27.005  1.00  0.00    -0.237 OA
ATOM     99  O   UNL A   1      53.265  23.782  25.300  1.00  0.00    -0.744 OA
ENDBRANCH  95  96
ENDBRANCH  63  88
ENDBRANCH  37  38
ENDBRANCH  30  32
ENDBRANCH  29  30
ENDBRANCH  28  29
ENDBRANCH   1  28
TORSDOF 18
ENDMDL
MODEL 2
REMARK VINA RESULT:     -10.4      6.476     13.473
REMARK SMILES O=C(COc1ccccc1/C=C1/SC(=O)N(c2ccc(F)cc2)C1=O)OCCOC(=O)c1ccc(-c2c3nc(c(-c4c(F)cc(S(=O)(=O)[O-])cc4F)c4ccc([nH]4)c(-c4c(F)cc(S(=O)(=O)[O-])cc4F)c4nc(c(-c5c(F)cc(S(=O)(=O)[O-])cc5F)c5ccc2[nH]5)C=C4)C=C3)cc1
REMARK SMILES IDX 27 1 26 2 2 3 1 4 3 5 4 6 5 7 6 8 10 9 7 10 9 11 8 12 11 13
REMARK SMILES IDX 12 14 13 15 24 16 14 17 16 18 25 19 15 20 17 21 18 22 23 23
REMARK SMILES IDX 19 24 22 25 20 26 21 27 28 28 29 29 30 30 31 31 32 32 33 33
REMARK SMILES IDX 97 34 34 35 96 36 35 37 36 38 37 39 90 40 38 41 95 42 89 43
REMARK SMILES IDX 91 44 39 45 94 46 88 47 87 48 40 50 74 51 53 52 73 53 54 54
REMARK SMILES IDX 57 55 72 56 92 57 55 58 56 59 71 61 93 62 58 63 41 64 42 65
REMARK SMILES IDX 51 66 43 67 44 68 50 69 52 70 45 71 46 72 47 73 48 74 49 75
REMARK SMILES IDX 75 76 76 77 85 78 77 79 78 80 84 81 86 82 79 83 80 84 81 85
REMARK SMILES IDX 82 86 83 87 59 88 60 89 69 90 61 91 62 92 68 93 70 94 63 95
REMARK SMILES IDX 64 96 65 97 66 98 67 99
REMARK H PARENT 91 49 57 60
REMARK Flexibility Score: inf
ROOT
ATOM      1  C   UNL A   1      36.852  23.584  25.628  1.00  0.00     0.274 C 
ENDROOT
BRANCH   1   2
ATOM      2  O   UNL A   1      35.990  22.678  26.351  1.00  0.00    -0.460 OA
BRANCH   2   3
ATOM      3  C   UNL A   1      35.433  21.565  25.807  1.00  0.00     0.344 C 
ATOM      4  O   UNL A   1      36.121  20.783  25.154  1.00  0.00    -0.248 OA
BRANCH   3   5
ATOM      5  C   UNL A   1      33.982  21.265  26.124  1.00  0.00     0.352 C 
BRANCH   5   6
ATOM      6  O   UNL A   1      33.199  22.449  25.957  1.00  0.00    -0.481 OA
BRANCH   6   7
ATOM      7  C   UNL A   1      33.141  22.811  24.632  1.00  0.00     0.127 A 
ATOM      8  C   UNL A   1      32.894  21.793  23.706  1.00  0.00     0.047 A 
ATOM      9  C   UNL A   1      33.361  24.136  24.210  1.00  0.00     0.018 A 
ATOM     10  C   UNL A   1      32.812  22.098  22.350  1.00  0.00     0.004 A 
ATOM     11  C   UNL A   1      33.260  24.426  22.843  1.00  0.00     0.012 A 
ATOM     12  C   UNL A   1      32.987  23.413  21.920  1.00  0.00     0.001 A 
BRANCH   9  13
ATOM     13  C   UNL A   1      33.620  25.248  25.138  1.00  0.00     0.033 C 
ATOM     14  C   UNL A   1      32.902  26.377  25.238  1.00  0.00     0.084 C 
ATOM     15  S   UNL A   1      33.426  27.753  26.124  1.00  0.00    -0.022 SA
ATOM     16  C   UNL A   1      31.648  26.708  24.507  1.00  0.00     0.272 C 
ATOM     17  C   UNL A   1      32.387  28.824  25.189  1.00  0.00     0.298 C 
ATOM     18  N   UNL A   1      31.502  28.088  24.424  1.00  0.00    -0.236 N 
ATOM     19  O   UNL A   1      30.897  25.844  24.076  1.00  0.00    -0.268 OA
ATOM     20  O   UNL A   1      32.473  30.038  25.307  1.00  0.00    -0.260 OA
BRANCH  18  21
ATOM     21  C   UNL A   1      30.504  28.698  23.592  1.00  0.00     0.053 A 
ATOM     22  C   UNL A   1      29.137  28.416  23.762  1.00  0.00     0.030 A 
ATOM     23  C   UNL A   1      30.859  29.563  22.540  1.00  0.00     0.030 A 
ATOM     24  C   UNL A   1      28.169  28.943  22.902  1.00  0.00     0.041 A 
ATOM     25  C   UNL A   1      29.895  30.072  21.662  1.00  0.00     0.041 A 
ATOM     26  C   UNL A   1      28.558  29.754  21.849  1.00  0.00     0.123 A 
ATOM     27  F   UNL A   1      27.636  30.237  21.008  1.00  0.00    -0.207 F 
ENDBRANCH  18  21
ENDBRANCH   9  13
ENDBRANCH   6   7
ENDBRANCH   5   6
ENDBRANCH   3   5
ENDBRANCH   2   3
ENDBRANCH   1   2
BRANCH   1  28
ATOM     28  C   UNL A   1      38.289  23.442  26.123  1.00  0.00     0.275 C 
BRANCH  28  29
ATOM     29  O   UNL A   1      38.809  24.755  26.371  1.00  0.00    -0.458 OA
BRANCH  29  30
ATOM     30  C   UNL A   1      40.130  24.819  26.679  1.00  0.00     0.338 C 
ATOM     31  O   UNL A   1      41.053  24.329  26.063  1.00  0.00    -0.246 OA
BRANCH  30  32
ATOM     32  C   UNL A   1      40.265  25.801  27.773  1.00  0.00     0.060 A 
ATOM     33  C   UNL A   1      39.283  25.836  28.773  1.00  0.00     0.016 A 
ATOM     34  C   UNL A   1      41.382  26.639  27.843  1.00  0.00     0.016 A 
ATOM     35  C   UNL A   1      39.409  26.724  29.840  1.00  0.00     0.010 A 
ATOM     36  C   UNL A   1      41.501  27.534  28.899  1.00  0.00     0.010 A 
ATOM     37  C   UNL A   1      40.502  27.598  29.883  1.00  0.00    -0.014 A 
BRANCH  37  38
ATOM     38  C   UNL A   1      40.520  28.747  30.811  1.00  0.00     0.031 A 
ATOM     39  C   UNL A   1      41.422  28.653  32.006  1.00  0.00     0.074 A 
ATOM     40  C   UNL A   1      39.677  29.780  30.650  1.00  0.00     0.049 A 
ATOM     41  N   UNL A   1      41.491  29.427  33.055  1.00  0.00    -0.248 NA
ATOM     42  C   UNL A   1      42.353  27.512  32.031  1.00  0.00     0.031 C 
ATOM     43  C   UNL A   1      38.764  29.960  29.522  1.00  0.00     0.029 A 
ATOM     44  N   UNL A   1      39.426  30.852  31.466  1.00  0.00    -0.354 N 
ATOM     45  C   UNL A   1      42.461  28.858  33.872  1.00  0.00     0.074 A 
ATOM     46  C   UNL A   1      42.938  27.667  33.208  1.00  0.00     0.031 C 
ATOM     47  C   UNL A   1      38.018  31.058  29.740  1.00  0.00     0.029 A 
ATOM     48  C   UNL A   1      38.383  31.637  31.032  1.00  0.00     0.049 A 
ATOM     49  H   UNL A   1      39.940  31.042  32.282  1.00  0.00     0.167 HD
ATOM     50  C   UNL A   1      42.909  29.294  35.071  1.00  0.00     0.037 A 
ATOM     51  C   UNL A   1      37.776  32.678  31.634  1.00  0.00     0.037 A 
ATOM     52  C   UNL A   1      42.412  30.471  35.725  1.00  0.00     0.049 A 
ATOM     53  C   UNL A   1      38.270  33.134  32.982  1.00  0.00     0.074 A 
ATOM     54  C   UNL A   1      42.814  31.025  36.926  1.00  0.00     0.029 A 
ATOM     55  N   UNL A   1      41.388  31.268  35.233  1.00  0.00    -0.354 N 
ATOM     56  N   UNL A   1      39.227  32.624  33.722  1.00  0.00    -0.248 NA
ATOM     57  C   UNL A   1      37.609  34.303  33.576  1.00  0.00     0.031 C 
ATOM     58  C   UNL A   1      42.005  32.139  37.180  1.00  0.00     0.029 A 
ATOM     59  C   UNL A   1      41.128  32.300  36.117  1.00  0.00     0.049 A 
ATOM     60  H   UNL A   1      40.916  31.121  34.382  1.00  0.00     0.167 HD
ATOM     61  C   UNL A   1      39.298  33.422  34.859  1.00  0.00     0.074 A 
ATOM     62  C   UNL A   1      38.288  34.451  34.707  1.00  0.00     0.031 C 
ATOM     63  C   UNL A   1      40.123  33.317  35.930  1.00  0.00     0.037 A 
BRANCH  50  64
ATOM     64  C   UNL A   1      43.960  28.463  35.749  1.00  0.00     0.058 A 
ATOM     65  C   UNL A   1      45.328  28.682  35.526  1.00  0.00     0.135 A 
ATOM     66  C   UNL A   1      43.592  27.414  36.606  1.00  0.00     0.135 A 
ATOM     67  F   UNL A   1      45.730  29.656  34.694  1.00  0.00    -0.206 F 
ATOM     68  C   UNL A   1      46.297  27.864  36.098  1.00  0.00     0.059 A 
ATOM     69  C   UNL A   1      44.545  26.599  37.209  1.00  0.00     0.059 A 
ATOM     70  F   UNL A   1      42.297  27.157  36.845  1.00  0.00    -0.206 F 
ATOM     71  C   UNL A   1      45.895  26.819  36.931  1.00  0.00     0.060 A 
BRANCH  71  72
ATOM     72  S   UNL A   1      47.157  25.743  37.644  1.00  0.00     0.124 S 
ATOM     73  O   UNL A   1      48.381  26.450  37.275  1.00  0.00    -0.237 OA
ATOM     74  O   UNL A   1      46.820  25.759  39.064  1.00  0.00    -0.237 OA
ATOM     75  O   UNL A   1      46.940  24.470  36.965  1.00  0.00    -0.744 OA
ENDBRANCH  71  72
ENDBRANCH  50  64
BRANCH  51  76
ATOM     76  C   UNL A   1      36.627  33.344  30.968  1.00  0.00     0.058 A 
ATOM     77  C   UNL A   1      35.321  33.186  31.453  1.00  0.00     0.135 A 
ATOM     78  C   UNL A   1      36.816  34.180  29.856  1.00  0.00     0.135 A 
ATOM     79  F   UNL A   1      35.089  32.391  32.507  1.00  0.00    -0.206 F 
ATOM     80  C   UNL A   1      34.241  33.834  30.860  1.00  0.00     0.059 A 
ATOM     81  C   UNL A   1      35.756  34.853  29.257  1.00  0.00     0.059 A 
ATOM     82  F   UNL A   1      38.050  34.372  29.362  1.00  0.00    -0.206 F 
ATOM     83  C   UNL A   1      34.469  34.670  29.765  1.00  0.00     0.060 A 
BRANCH  83  84
ATOM     84  S   UNL A   1      33.074  35.569  29.053  1.00  0.00     0.124 S 
ATOM     85  O   UNL A   1      33.750  36.645  28.339  1.00  0.00    -0.237 OA
ATOM     86  O   UNL A   1      32.442  34.548  28.222  1.00  0.00    -0.237 OA
ATOM     87  O   UNL A   1      32.303  35.974  30.226  1.00  0.00    -0.744 OA
ENDBRANCH  83  84
ENDBRANCH  51  76
BRANCH  63  88
ATOM     88  C   UNL A   1      40.000  34.354  37.010  1.00  0.00     0.058 A 
ATOM     89  C   UNL A   1      40.639  35.598  36.906  1.00  0.00     0.135 A 
ATOM     90  C   UNL A   1      39.147  34.138  38.103  1.00  0.00     0.135 A 
ATOM     91  F   UNL A   1      41.468  35.849  35.882  1.00  0.00    -0.206 F 
ATOM     92  C   UNL A   1      40.436  36.596  37.853  1.00  0.00     0.059 A 
ATOM     93  C   UNL A   1      38.913  35.127  39.051  1.00  0.00     0.059 A 
ATOM     94  F   UNL A   1      38.506  32.966  38.238  1.00  0.00    -0.206 F 
ATOM     95  C   UNL A   1      39.564  36.354  38.919  1.00  0.00     0.060 A 
BRANCH  95  96
ATOM     96  S   UNL A   1      39.248  37.681  40.100  1.00  0.00     0.124 S 
ATOM     97  O   UNL A   1      38.923  36.930  41.307  1.00  0.00    -0.237 OA
ATOM     98  O   UNL A   1      40.523  38.394  40.121  1.00  0.00    -0.237 OA
ATOM     99  O   UNL A   1      38.139  38.414  39.497  1.00  0.00    -0.744 OA
ENDBRANCH  95  96
ENDBRANCH  63  88
ENDBRANCH  37  38
ENDBRANCH  30  32
ENDBRANCH  29  30
ENDBRANCH  28  29
ENDBRANCH   1  28
TORSDOF 18
ENDMDL
MODEL 3
REMARK VINA RESULT:     -10.3      6.212     12.912
REMARK SMILES O=C(COc1ccccc1/C=C1/SC(=O)N(c2ccc(F)cc2)C1=O)OCCOC(=O)c1ccc(-c2c3nc(c(-c4c(F)cc(S(=O)(=O)[O-])cc4F)c4ccc([nH]4)c(-c4c(F)cc(S(=O)(=O)[O-])cc4F)c4nc(c(-c5c(F)cc(S(=O)(=O)[O-])cc5F)c5ccc2[nH]5)C=C4)C=C3)cc1
REMARK SMILES IDX 27 1 26 2 2 3 1 4 3 5 4 6 5 7 6 8 10 9 7 10 9 11 8 12 11 13
REMARK SMILES IDX 12 14 13 15 24 16 14 17 16 18 25 19 15 20 17 21 18 22 23 23
REMARK SMILES IDX 19 24 22 25 20 26 21 27 28 28 29 29 30 30 31 31 32 32 33 33
REMARK SMILES IDX 97 34 34 35 96 36 35 37 36 38 37 39 90 40 38 41 95 42 89 43
REMARK SMILES IDX 91 44 39 45 94 46 88 47 87 48 40 50 74 51 53 52 73 53 54 54
REMARK SMILES IDX 57 55 72 56 92 57 55 58 56 59 71 61 93 62 58 63 41 64 42 65
REMARK SMILES IDX 51 66 43 67 44 68 50 69 52 70 45 71 46 72 47 73 48 74 49 75
REMARK SMILES IDX 75 76 76 77 85 78 77 79 78 80 84 81 86 82 79 83 80 84 81 85
REMARK SMILES IDX 82 86 83 87 59 88 60 89 69 90 61 91 62 92 68 93 70 94 63 95
REMARK SMILES IDX 64 96 65 97 66 98 67 99
REMARK H PARENT 91 49 57 60
REMARK Flexibility Score: inf
ROOT
ATOM      1  C   UNL A   1      39.964  22.226  26.804  1.00  0.00     0.274 C 
ENDROOT
BRANCH   1   2
ATOM      2  O   UNL A   1      39.112  21.703  25.761  1.00  0.00    -0.460 OA
BRANCH   2   3
ATOM      3  C   UNL A   1      37.962  22.299  25.350  1.00  0.00     0.344 C 
ATOM      4  O   UNL A   1      37.698  23.446  25.704  1.00  0.00    -0.248 OA
BRANCH   3   5
ATOM      5  C   UNL A   1      37.087  21.555  24.363  1.00  0.00     0.352 C 
BRANCH   5   6
ATOM      6  O   UNL A   1      36.009  22.396  23.948  1.00  0.00    -0.481 OA
BRANCH   6   7
ATOM      7  C   UNL A   1      34.807  21.911  24.406  1.00  0.00     0.127 A 
ATOM      8  C   UNL A   1      34.852  21.012  25.475  1.00  0.00     0.047 A 
ATOM      9  C   UNL A   1      33.583  22.261  23.806  1.00  0.00     0.018 A 
ATOM     10  C   UNL A   1      33.667  20.493  25.992  1.00  0.00     0.004 A 
ATOM     11  C   UNL A   1      32.401  21.741  24.348  1.00  0.00     0.012 A 
ATOM     12  C   UNL A   1      32.444  20.862  25.434  1.00  0.00     0.001 A 
BRANCH   9  13
ATOM     13  C   UNL A   1      33.474  23.205  22.682  1.00  0.00     0.033 C 
ATOM     14  C   UNL A   1      33.496  24.543  22.770  1.00  0.00     0.084 C 
ATOM     15  S   UNL A   1      33.069  25.582  21.469  1.00  0.00    -0.022 SA
ATOM     16  C   UNL A   1      33.726  25.356  23.996  1.00  0.00     0.272 C 
ATOM     17  C   UNL A   1      32.701  26.906  22.569  1.00  0.00     0.298 C 
ATOM     18  N   UNL A   1      33.150  26.612  23.843  1.00  0.00    -0.236 N 
ATOM     19  O   UNL A   1      34.347  24.925  24.957  1.00  0.00    -0.268 OA
ATOM     20  O   UNL A   1      32.169  27.928  22.161  1.00  0.00    -0.260 OA
BRANCH  18  21
ATOM     21  C   UNL A   1      33.025  27.530  24.939  1.00  0.00     0.053 A 
ATOM     22  C   UNL A   1      31.833  27.628  25.679  1.00  0.00     0.030 A 
ATOM     23  C   UNL A   1      34.072  28.404  25.284  1.00  0.00     0.030 A 
ATOM     24  C   UNL A   1      31.678  28.578  26.693  1.00  0.00     0.041 A 
ATOM     25  C   UNL A   1      33.911  29.373  26.281  1.00  0.00     0.041 A 
ATOM     26  C   UNL A   1      32.713  29.453  26.975  1.00  0.00     0.123 A 
ATOM     27  F   UNL A   1      32.556  30.382  27.925  1.00  0.00    -0.207 F 
ENDBRANCH  18  21
ENDBRANCH   9  13
ENDBRANCH   6   7
ENDBRANCH   5   6
ENDBRANCH   3   5
ENDBRANCH   2   3
ENDBRANCH   1   2
BRANCH   1  28
ATOM     28  C   UNL A   1      41.215  22.850  26.191  1.00  0.00     0.275 C 
BRANCH  28  29
ATOM     29  O   UNL A   1      41.703  23.853  27.092  1.00  0.00    -0.458 OA
BRANCH  29  30
ATOM     30  C   UNL A   1      41.788  25.110  26.586  1.00  0.00     0.338 C 
ATOM     31  O   UNL A   1      41.924  25.427  25.423  1.00  0.00    -0.246 OA
BRANCH  30  32
ATOM     32  C   UNL A   1      41.444  26.035  27.684  1.00  0.00     0.060 A 
ATOM     33  C   UNL A   1      42.273  27.141  27.918  1.00  0.00     0.016 A 
ATOM     34  C   UNL A   1      40.281  25.845  28.436  1.00  0.00     0.016 A 
ATOM     35  C   UNL A   1      41.948  28.054  28.920  1.00  0.00     0.010 A 
ATOM     36  C   UNL A   1      39.964  26.748  29.444  1.00  0.00     0.010 A 
ATOM     37  C   UNL A   1      40.810  27.836  29.707  1.00  0.00    -0.014 A 
BRANCH  37  38
ATOM     38  C   UNL A   1      40.595  28.591  30.957  1.00  0.00     0.031 A 
ATOM     39  C   UNL A   1      39.552  29.670  30.941  1.00  0.00     0.074 A 
ATOM     40  C   UNL A   1      41.383  28.396  32.027  1.00  0.00     0.049 A 
ATOM     41  N   UNL A   1      39.296  30.589  31.831  1.00  0.00    -0.248 NA
ATOM     42  C   UNL A   1      38.702  29.735  29.740  1.00  0.00     0.031 C 
ATOM     43  C   UNL A   1      42.422  27.374  32.139  1.00  0.00     0.029 A 
ATOM     44  N   UNL A   1      41.454  29.084  33.211  1.00  0.00    -0.354 N 
ATOM     45  C   UNL A   1      38.266  31.350  31.292  1.00  0.00     0.074 A 
ATOM     46  C   UNL A   1      37.959  30.801  29.992  1.00  0.00     0.031 C 
ATOM     47  C   UNL A   1      43.060  27.531  33.313  1.00  0.00     0.029 A 
ATOM     48  C   UNL A   1      42.491  28.679  34.017  1.00  0.00     0.049 A 
ATOM     49  H   UNL A   1      40.826  29.799  33.459  1.00  0.00     0.167 HD
ATOM     50  C   UNL A   1      37.637  32.416  31.837  1.00  0.00     0.037 A 
ATOM     51  C   UNL A   1      42.945  29.204  35.172  1.00  0.00     0.037 A 
ATOM     52  C   UNL A   1      37.966  32.962  33.124  1.00  0.00     0.049 A 
ATOM     53  C   UNL A   1      42.249  30.408  35.751  1.00  0.00     0.074 A 
ATOM     54  C   UNL A   1      37.374  34.018  33.789  1.00  0.00     0.029 A 
ATOM     55  N   UNL A   1      38.991  32.495  33.934  1.00  0.00    -0.354 N 
ATOM     56  N   UNL A   1      41.239  31.089  35.262  1.00  0.00    -0.248 NA
ATOM     57  C   UNL A   1      42.748  30.915  37.036  1.00  0.00     0.031 C 
ATOM     58  C   UNL A   1      38.068  34.216  34.988  1.00  0.00     0.029 A 
ATOM     59  C   UNL A   1      39.065  33.256  35.086  1.00  0.00     0.049 A 
ATOM     60  H   UNL A   1      39.579  31.735  33.720  1.00  0.00     0.167 HD
ATOM     61  C   UNL A   1      40.967  32.091  36.188  1.00  0.00     0.074 A 
ATOM     62  C   UNL A   1      41.919  31.925  37.269  1.00  0.00     0.031 C 
ATOM     63  C   UNL A   1      40.017  33.057  36.151  1.00  0.00     0.037 A 
BRANCH  50  64
ATOM     64  C   UNL A   1      36.563  33.067  31.014  1.00  0.00     0.058 A 
ATOM     65  C   UNL A   1      36.871  33.977  29.990  1.00  0.00     0.135 A 
ATOM     66  C   UNL A   1      35.210  32.805  31.276  1.00  0.00     0.135 A 
ATOM     67  F   UNL A   1      38.150  34.281  29.718  1.00  0.00    -0.206 F 
ATOM     68  C   UNL A   1      35.873  34.633  29.278  1.00  0.00     0.059 A 
ATOM     69  C   UNL A   1      34.194  33.432  30.560  1.00  0.00     0.059 A 
ATOM     70  F   UNL A   1      34.862  31.952  32.251  1.00  0.00    -0.206 F 
ATOM     71  C   UNL A   1      34.537  34.361  29.577  1.00  0.00     0.060 A 
BRANCH  71  72
ATOM     72  S   UNL A   1      33.249  35.243  28.670  1.00  0.00     0.124 S 
ATOM     73  O   UNL A   1      32.550  35.928  29.754  1.00  0.00    -0.237 OA
ATOM     74  O   UNL A   1      34.022  36.097  27.775  1.00  0.00    -0.237 OA
ATOM     75  O   UNL A   1      32.500  34.173  28.019  1.00  0.00    -0.744 OA
ENDBRANCH  71  72
ENDBRANCH  50  64
BRANCH  51  76
ATOM     76  C   UNL A   1      44.125  28.600  35.841  1.00  0.00     0.058 A 
ATOM     77  C   UNL A   1      45.422  29.064  35.578  1.00  0.00     0.135 A 
ATOM     78  C   UNL A   1      43.978  27.570  36.784  1.00  0.00     0.135 A 
ATOM     79  F   UNL A   1      45.614  30.040  34.679  1.00  0.00    -0.206 F 
ATOM     80  C   UNL A   1      46.532  28.530  36.225  1.00  0.00     0.059 A 
ATOM     81  C   UNL A   1      45.070  27.033  37.458  1.00  0.00     0.059 A 
ATOM     82  F   UNL A   1      42.756  27.099  37.080  1.00  0.00    -0.206 F 
ATOM     83  C   UNL A   1      46.345  27.518  37.169  1.00  0.00     0.060 A 
BRANCH  83  84
ATOM     84  S   UNL A   1      47.783  26.887  38.062  1.00  0.00     0.124 S 
ATOM     85  O   UNL A   1      47.471  25.467  38.158  1.00  0.00    -0.237 OA
ATOM     86  O   UNL A   1      48.881  27.242  37.167  1.00  0.00    -0.237 OA
ATOM     87  O   UNL A   1      47.747  27.630  39.320  1.00  0.00    -0.744 OA
ENDBRANCH  83  84
ENDBRANCH  51  76
BRANCH  63  88
ATOM     88  C   UNL A   1      39.930  33.994  37.322  1.00  0.00     0.058 A 
ATOM     89  C   UNL A   1      40.518  35.266  37.287  1.00  0.00     0.135 A 
ATOM     90  C   UNL A   1      39.158  33.652  38.443  1.00  0.00     0.135 A 
ATOM     91  F   UNL A   1      41.268  35.636  36.238  1.00  0.00    -0.206 F 
ATOM     92  C   UNL A   1      40.342  36.172  38.328  1.00  0.00     0.059 A 
ATOM     93  C   UNL A   1      38.953  34.548  39.486  1.00  0.00     0.059 A 
ATOM     94  F   UNL A   1      38.569  32.448  38.517  1.00  0.00    -0.206 F 
ATOM     95  C   UNL A   1      39.551  35.807  39.420  1.00  0.00     0.060 A 
BRANCH  95  96
ATOM     96  S   UNL A   1      39.269  37.016  40.730  1.00  0.00     0.124 S 
ATOM     97  O   UNL A   1      40.627  37.467  41.012  1.00  0.00    -0.237 OA
ATOM     98  O   UNL A   1      38.400  37.990  40.076  1.00  0.00    -0.237 OA
ATOM     99  O   UNL A   1      38.635  36.231  41.784  1.00  0.00    -0.744 OA
ENDBRANCH  95  96
ENDBRANCH  63  88
ENDBRANCH  37  38
ENDBRANCH  30  32
ENDBRANCH  29  30
ENDBRANCH  28  29
ENDBRANCH   1  28
TORSDOF 18
ENDMDL
