MODEL 1
REMARK VINA RESULT:     -11.4      0.000      0.000
REMARK SMILES O=C(CN1C(=O)S/C(=C\c2cccc(Br)c2)C1=O)NCC(=O)OCCOC(=O)c1ccc(-c2c3nc(c(-c4c(F)cc(S(=O)(=O)[O-])cc4F)c4ccc([nH]4)c(-c4c(F)cc(S(=O)(=O)[O-])cc4F)c4nc(c(-c5c(F)cc(S(=O)(=O)[O-])cc5F)c5ccc2[nH]5)C=C4)C=C3)cc1
REMARK SMILES IDX 24 1 23 2 21 3 22 4 20 5 19 6 1 7 2 8 3 10 4 11 5 12 17 13
REMARK SMILES IDX 6 14 7 15 8 16 18 17 9 18 10 19 11 20 16 21 12 22 14 23
REMARK SMILES IDX 13 24 15 25 25 26 26 27 27 28 28 29 29 30 30 31 94 32 31 33
REMARK SMILES IDX 93 34 32 35 33 36 34 37 87 38 35 39 92 40 86 41 88 42 36 43
REMARK SMILES IDX 91 44 85 45 84 46 37 48 71 49 50 50 70 51 51 52 54 53 69 54
REMARK SMILES IDX 89 55 52 56 53 57 68 59 90 60 55 61 38 62 39 63 48 64 40 65
REMARK SMILES IDX 41 66 47 67 49 68 42 69 43 70 44 71 45 72 46 73 72 74 73 75
REMARK SMILES IDX 82 76 74 77 75 78 81 79 83 80 76 81 77 82 78 83 79 84 80 85
REMARK SMILES IDX 56 86 57 87 66 88 58 89 59 90 65 91 67 92 60 93 61 94 62 95
REMARK SMILES IDX 63 96 64 97
REMARK H PARENT 19 9 88 47 54 58
REMARK Flexibility Score: inf
ROOT
ATOM      1  C   UNL A   1      36.508  33.875  33.733  1.00  0.00     0.274 C 
ENDROOT
BRANCH   1   2
ATOM      2  O   UNL A   1      36.254  35.192  33.212  1.00  0.00    -0.461 OA
BRANCH   2   3
ATOM      3  C   UNL A   1      34.950  35.533  33.013  1.00  0.00     0.325 C 
ATOM      4  O   UNL A   1      34.431  36.569  33.413  1.00  0.00    -0.250 OA
BRANCH   3   5
ATOM      5  C   UNL A   1      34.175  34.443  32.277  1.00  0.00     0.238 C 
BRANCH   5   6
ATOM      6  N   UNL A   1      34.508  34.323  30.867  1.00  0.00    -0.344 N 
ATOM      7  O   UNL A   1      32.625  35.370  30.100  1.00  0.00    -0.273 OA
ATOM      8  C   UNL A   1      33.682  34.788  29.872  1.00  0.00     0.240 C 
ATOM      9  H   UNL A   1      35.357  33.893  30.616  1.00  0.00     0.164 HD
BRANCH   8  10
ATOM     10  C   UNL A   1      34.241  34.632  28.461  1.00  0.00     0.229 C 
BRANCH  10  11
ATOM     11  N   UNL A   1      34.029  33.266  28.034  1.00  0.00    -0.259 N 
ATOM     12  C   UNL A   1      34.996  32.309  28.147  1.00  0.00     0.294 C 
ATOM     13  C   UNL A   1      32.834  32.886  27.476  1.00  0.00     0.268 C 
ATOM     14  O   UNL A   1      36.140  32.454  28.557  1.00  0.00    -0.261 OA
ATOM     15  S   UNL A   1      34.395  30.777  27.536  1.00  0.00    -0.022 SA
ATOM     16  C   UNL A   1      32.855  31.438  27.151  1.00  0.00     0.083 C 
ATOM     17  O   UNL A   1      31.882  33.624  27.270  1.00  0.00    -0.268 OA
ATOM     18  C   UNL A   1      31.785  30.830  26.620  1.00  0.00     0.029 C 
BRANCH  18  19
ATOM     19  C   UNL A   1      31.685  29.420  26.228  1.00  0.00    -0.023 A 
ATOM     20  C   UNL A   1      31.960  28.383  27.129  1.00  0.00     0.008 A 
ATOM     21  C   UNL A   1      31.260  29.107  24.932  1.00  0.00     0.023 A 
ATOM     22  C   UNL A   1      31.851  27.050  26.727  1.00  0.00     0.002 A 
ATOM     23  C   UNL A   1      31.155  27.774  24.537  1.00  0.00     0.018 A 
ATOM     24  C   UNL A   1      31.451  26.744  25.427  1.00  0.00     0.016 A 
ATOM     25  Br  UNL A   1      30.621  27.362  22.772  1.00  0.00    -0.051 Br
ENDBRANCH  18  19
ENDBRANCH  10  11
ENDBRANCH   8  10
ENDBRANCH   5   6
ENDBRANCH   3   5
ENDBRANCH   2   3
ENDBRANCH   1   2
BRANCH   1  26
ATOM     26  C   UNL A   1      37.612  33.177  32.929  1.00  0.00     0.275 C 
BRANCH  26  27
ATOM     27  O   UNL A   1      37.090  32.464  31.790  1.00  0.00    -0.458 OA
BRANCH  27  28
ATOM     28  C   UNL A   1      37.160  31.115  31.888  1.00  0.00     0.338 C 
ATOM     29  O   UNL A   1      36.332  30.377  32.398  1.00  0.00    -0.246 OA
BRANCH  28  30
ATOM     30  C   UNL A   1      38.326  30.610  31.144  1.00  0.00     0.060 A 
ATOM     31  C   UNL A   1      39.371  30.051  31.883  1.00  0.00     0.016 A 
ATOM     32  C   UNL A   1      38.442  30.764  29.761  1.00  0.00     0.016 A 
ATOM     33  C   UNL A   1      40.550  29.674  31.252  1.00  0.00     0.010 A 
ATOM     34  C   UNL A   1      39.624  30.365  29.124  1.00  0.00     0.010 A 
ATOM     35  C   UNL A   1      40.694  29.836  29.868  1.00  0.00    -0.014 A 
BRANCH  35  36
ATOM     36  C   UNL A   1      41.986  29.484  29.222  1.00  0.00     0.031 A 
ATOM     37  C   UNL A   1      42.210  28.097  28.683  1.00  0.00     0.074 A 
ATOM     38  C   UNL A   1      42.942  30.425  29.088  1.00  0.00     0.049 A 
ATOM     39  N   UNL A   1      43.278  27.590  28.125  1.00  0.00    -0.248 NA
ATOM     40  C   UNL A   1      41.083  27.156  28.789  1.00  0.00     0.031 C 
ATOM     41  C   UNL A   1      42.828  31.812  29.543  1.00  0.00     0.029 A 
ATOM     42  N   UNL A   1      44.194  30.359  28.531  1.00  0.00    -0.354 N 
ATOM     43  C   UNL A   1      42.964  26.266  27.834  1.00  0.00     0.074 A 
ATOM     44  C   UNL A   1      41.612  26.043  28.298  1.00  0.00     0.031 C 
ATOM     45  C   UNL A   1      43.960  32.467  29.238  1.00  0.00     0.029 A 
ATOM     46  C   UNL A   1      44.898  31.537  28.619  1.00  0.00     0.049 A 
ATOM     47  H   UNL A   1      44.556  29.545  28.111  1.00  0.00     0.167 HD
ATOM     48  C   UNL A   1      43.734  25.328  27.230  1.00  0.00     0.037 A 
ATOM     49  C   UNL A   1      46.166  31.828  28.266  1.00  0.00     0.037 A 
ATOM     50  C   UNL A   1      45.076  25.567  26.760  1.00  0.00     0.049 A 
ATOM     51  C   UNL A   1      47.014  30.755  27.638  1.00  0.00     0.074 A 
ATOM     52  C   UNL A   1      45.930  24.689  26.113  1.00  0.00     0.029 A 
ATOM     53  N   UNL A   1      45.763  26.767  26.886  1.00  0.00    -0.354 N 
ATOM     54  N   UNL A   1      46.700  29.513  27.359  1.00  0.00    -0.248 NA
ATOM     55  C   UNL A   1      48.389  31.125  27.274  1.00  0.00     0.031 C 
ATOM     56  C   UNL A   1      47.150  25.339  25.900  1.00  0.00     0.029 A 
ATOM     57  C   UNL A   1      47.037  26.644  26.352  1.00  0.00     0.049 A 
ATOM     58  H   UNL A   1      45.398  27.585  27.293  1.00  0.00     0.167 HD
ATOM     59  C   UNL A   1      47.828  28.960  26.762  1.00  0.00     0.074 A 
ATOM     60  C   UNL A   1      48.825  30.010  26.705  1.00  0.00     0.031 C 
ATOM     61  C   UNL A   1      48.019  27.699  26.300  1.00  0.00     0.037 A 
BRANCH  48  62
ATOM     62  C   UNL A   1      43.162  23.944  27.074  1.00  0.00     0.058 A 
ATOM     63  C   UNL A   1      42.716  23.455  25.836  1.00  0.00     0.135 A 
ATOM     64  C   UNL A   1      43.103  23.076  28.179  1.00  0.00     0.135 A 
ATOM     65  F   UNL A   1      42.733  24.244  24.752  1.00  0.00    -0.206 F 
ATOM     66  C   UNL A   1      42.210  22.164  25.704  1.00  0.00     0.059 A 
ATOM     67  C   UNL A   1      42.628  21.773  28.062  1.00  0.00     0.059 A 
ATOM     68  F   UNL A   1      43.515  23.490  29.387  1.00  0.00    -0.206 F 
ATOM     69  C   UNL A   1      42.170  21.330  26.822  1.00  0.00     0.060 A 
BRANCH  69  70
ATOM     70  S   UNL A   1      41.517  19.658  26.632  1.00  0.00     0.124 S 
ATOM     71  O   UNL A   1      40.079  19.899  26.685  1.00  0.00    -0.237 OA
ATOM     72  O   UNL A   1      42.047  19.262  25.332  1.00  0.00    -0.237 OA
ATOM     73  O   UNL A   1      42.073  18.943  27.777  1.00  0.00    -0.744 OA
ENDBRANCH  69  70
ENDBRANCH  48  62
BRANCH  49  74
ATOM     74  C   UNL A   1      46.713  33.189  28.519  1.00  0.00     0.058 A 
ATOM     75  C   UNL A   1      46.691  34.179  27.525  1.00  0.00     0.135 A 
ATOM     76  C   UNL A   1      47.267  33.527  29.764  1.00  0.00     0.135 A 
ATOM     77  F   UNL A   1      46.181  33.904  26.315  1.00  0.00    -0.206 F 
ATOM     78  C   UNL A   1      47.214  35.449  27.750  1.00  0.00     0.059 A 
ATOM     79  C   UNL A   1      47.767  34.799  30.023  1.00  0.00     0.059 A 
ATOM     80  F   UNL A   1      47.302  32.621  30.753  1.00  0.00    -0.206 F 
ATOM     81  C   UNL A   1      47.747  35.750  29.005  1.00  0.00     0.060 A 
BRANCH  81  82
ATOM     82  S   UNL A   1      48.385  37.414  29.299  1.00  0.00     0.124 S 
ATOM     83  O   UNL A   1      48.468  37.443  30.755  1.00  0.00    -0.237 OA
ATOM     84  O   UNL A   1      49.658  37.384  28.586  1.00  0.00    -0.237 OA
ATOM     85  O   UNL A   1      47.364  38.274  28.709  1.00  0.00    -0.744 OA
ENDBRANCH  81  82
ENDBRANCH  49  74
BRANCH  61  86
ATOM     86  C   UNL A   1      49.343  27.396  25.650  1.00  0.00     0.058 A 
ATOM     87  C   UNL A   1      50.488  27.084  26.401  1.00  0.00     0.135 A 
ATOM     88  C   UNL A   1      49.460  27.386  24.250  1.00  0.00     0.135 A 
ATOM     89  F   UNL A   1      50.435  27.084  27.743  1.00  0.00    -0.206 F 
ATOM     90  C   UNL A   1      51.707  26.812  25.791  1.00  0.00     0.059 A 
ATOM     91  C   UNL A   1      50.660  27.084  23.617  1.00  0.00     0.059 A 
ATOM     92  F   UNL A   1      48.394  27.664  23.480  1.00  0.00    -0.206 F 
ATOM     93  C   UNL A   1      51.784  26.814  24.396  1.00  0.00     0.060 A 
BRANCH  93  94
ATOM     94  S   UNL A   1      53.370  26.445  23.615  1.00  0.00     0.124 S 
ATOM     95  O   UNL A   1      52.970  26.220  22.230  1.00  0.00    -0.237 OA
ATOM     96  O   UNL A   1      54.132  27.663  23.866  1.00  0.00    -0.237 OA
ATOM     97  O   UNL A   1      53.835  25.262  24.334  1.00  0.00    -0.744 OA
ENDBRANCH  93  94
ENDBRANCH  61  86
ENDBRANCH  35  36
ENDBRANCH  28  30
ENDBRANCH  27  28
ENDBRANCH  26  27
ENDBRANCH   1  26
TORSDOF 18
ENDMDL
MODEL 2
REMARK VINA RESULT:     -11.3      5.803     13.230
REMARK SMILES O=C(CN1C(=O)S/C(=C\c2cccc(Br)c2)C1=O)NCC(=O)OCCOC(=O)c1ccc(-c2c3nc(c(-c4c(F)cc(S(=O)(=O)[O-])cc4F)c4ccc([nH]4)c(-c4c(F)cc(S(=O)(=O)[O-])cc4F)c4nc(c(-c5c(F)cc(S(=O)(=O)[O-])cc5F)c5ccc2[nH]5)C=C4)C=C3)cc1
REMARK SMILES IDX 24 1 23 2 21 3 22 4 20 5 19 6 1 7 2 8 3 10 4 11 5 12 17 13
REMARK SMILES IDX 6 14 7 15 8 16 18 17 9 18 10 19 11 20 16 21 12 22 14 23
REMARK SMILES IDX 13 24 15 25 25 26 26 27 27 28 28 29 29 30 30 31 94 32 31 33
REMARK SMILES IDX 93 34 32 35 33 36 34 37 87 38 35 39 92 40 86 41 88 42 36 43
REMARK SMILES IDX 91 44 85 45 84 46 37 48 71 49 50 50 70 51 51 52 54 53 69 54
REMARK SMILES IDX 89 55 52 56 53 57 68 59 90 60 55 61 38 62 39 63 48 64 40 65
REMARK SMILES IDX 41 66 47 67 49 68 42 69 43 70 44 71 45 72 46 73 72 74 73 75
REMARK SMILES IDX 82 76 74 77 75 78 81 79 83 80 76 81 77 82 78 83 79 84 80 85
REMARK SMILES IDX 56 86 57 87 66 88 58 89 59 90 65 91 67 92 60 93 61 94 62 95
REMARK SMILES IDX 63 96 64 97
REMARK H PARENT 19 9 88 47 54 58
REMARK Flexibility Score: inf
ROOT
ATOM      1  C   UNL A   1      46.080  24.459  24.765  1.00  0.00     0.274 C 
ENDROOT
BRANCH   1   2
ATOM      2  O   UNL A   1      45.791  23.173  25.341  1.00  0.00    -0.461 OA
BRANCH   2   3
ATOM      3  C   UNL A   1      45.129  22.280  24.552  1.00  0.00     0.325 C 
ATOM      4  O   UNL A   1      44.573  22.560  23.497  1.00  0.00    -0.250 OA
BRANCH   3   5
ATOM      5  C   UNL A   1      45.102  20.881  25.163  1.00  0.00     0.238 C 
BRANCH   5   6
ATOM      6  N   UNL A   1      43.990  20.648  26.071  1.00  0.00    -0.344 N 
ATOM      7  O   UNL A   1      42.987  19.039  24.792  1.00  0.00    -0.273 OA
ATOM      8  C   UNL A   1      42.993  19.743  25.798  1.00  0.00     0.240 C 
ATOM      9  H   UNL A   1      43.951  21.158  26.912  1.00  0.00     0.164 HD
BRANCH   8  10
ATOM     10  C   UNL A   1      41.955  19.592  26.907  1.00  0.00     0.229 C 
BRANCH  10  11
ATOM     11  N   UNL A   1      40.906  20.564  26.685  1.00  0.00    -0.259 N 
ATOM     12  C   UNL A   1      40.972  21.833  27.184  1.00  0.00     0.294 C 
ATOM     13  C   UNL A   1      39.784  20.230  25.969  1.00  0.00     0.268 C 
ATOM     14  O   UNL A   1      41.849  22.308  27.893  1.00  0.00    -0.261 OA
ATOM     15  S   UNL A   1      39.537  22.732  26.722  1.00  0.00    -0.022 SA
ATOM     16  C   UNL A   1      38.877  21.399  25.858  1.00  0.00     0.083 C 
ATOM     17  O   UNL A   1      39.553  19.130  25.488  1.00  0.00    -0.268 OA
ATOM     18  C   UNL A   1      37.726  21.323  25.177  1.00  0.00     0.029 C 
BRANCH  18  19
ATOM     19  C   UNL A   1      36.732  22.389  25.015  1.00  0.00    -0.023 A 
ATOM     20  C   UNL A   1      36.711  23.510  25.854  1.00  0.00     0.008 A 
ATOM     21  C   UNL A   1      35.810  22.301  23.966  1.00  0.00     0.023 A 
ATOM     22  C   UNL A   1      35.755  24.512  25.671  1.00  0.00     0.002 A 
ATOM     23  C   UNL A   1      34.857  23.304  23.791  1.00  0.00     0.018 A 
ATOM     24  C   UNL A   1      34.823  24.407  24.640  1.00  0.00     0.016 A 
ATOM     25  Br  UNL A   1      33.590  23.155  22.396  1.00  0.00    -0.051 Br
ENDBRANCH  18  19
ENDBRANCH  10  11
ENDBRANCH   8  10
ENDBRANCH   5   6
ENDBRANCH   3   5
ENDBRANCH   2   3
ENDBRANCH   1   2
BRANCH   1  26
ATOM     26  C   UNL A   1      45.210  25.547  25.405  1.00  0.00     0.275 C 
BRANCH  26  27
ATOM     27  O   UNL A   1      44.339  25.020  26.425  1.00  0.00    -0.458 OA
BRANCH  27  28
ATOM     28  C   UNL A   1      43.024  25.290  26.240  1.00  0.00     0.338 C 
ATOM     29  O   UNL A   1      42.289  24.791  25.404  1.00  0.00    -0.246 OA
BRANCH  28  30
ATOM     30  C   UNL A   1      42.531  26.178  27.305  1.00  0.00     0.060 A 
ATOM     31  C   UNL A   1      43.116  27.442  27.413  1.00  0.00     0.016 A 
ATOM     32  C   UNL A   1      41.586  25.754  28.241  1.00  0.00     0.016 A 
ATOM     33  C   UNL A   1      42.785  28.277  28.475  1.00  0.00     0.010 A 
ATOM     34  C   UNL A   1      41.240  26.605  29.299  1.00  0.00     0.010 A 
ATOM     35  C   UNL A   1      41.852  27.865  29.434  1.00  0.00    -0.014 A 
BRANCH  35  36
ATOM     36  C   UNL A   1      41.559  28.746  30.595  1.00  0.00     0.031 A 
ATOM     37  C   UNL A   1      42.403  28.664  31.838  1.00  0.00     0.074 A 
ATOM     38  C   UNL A   1      40.558  29.644  30.514  1.00  0.00     0.049 A 
ATOM     39  N   UNL A   1      42.280  29.318  32.964  1.00  0.00    -0.248 NA
ATOM     40  C   UNL A   1      43.532  27.721  31.811  1.00  0.00     0.031 C 
ATOM     41  C   UNL A   1      39.692  29.837  29.349  1.00  0.00     0.029 A 
ATOM     42  N   UNL A   1      40.100  30.563  31.425  1.00  0.00    -0.354 N 
ATOM     43  C   UNL A   1      43.299  28.851  33.789  1.00  0.00     0.074 A 
ATOM     44  C   UNL A   1      44.016  27.842  33.040  1.00  0.00     0.031 C 
ATOM     45  C   UNL A   1      38.814  30.819  29.614  1.00  0.00     0.029 A 
ATOM     46  C   UNL A   1      39.018  31.286  30.981  1.00  0.00     0.049 A 
ATOM     47  H   UNL A   1      40.507  30.691  32.313  1.00  0.00     0.167 HD
ATOM     48  C   UNL A   1      43.606  29.235  35.052  1.00  0.00     0.037 A 
ATOM     49  C   UNL A   1      38.258  32.202  31.613  1.00  0.00     0.037 A 
ATOM     50  C   UNL A   1      42.892  30.253  35.782  1.00  0.00     0.049 A 
ATOM     51  C   UNL A   1      38.594  32.577  33.031  1.00  0.00     0.074 A 
ATOM     52  C   UNL A   1      43.141  30.731  37.058  1.00  0.00     0.029 A 
ATOM     53  N   UNL A   1      41.788  30.947  35.307  1.00  0.00    -0.354 N 
ATOM     54  N   UNL A   1      39.566  32.136  33.793  1.00  0.00    -0.248 NA
ATOM     55  C   UNL A   1      37.733  33.579  33.674  1.00  0.00     0.031 C 
ATOM     56  C   UNL A   1      42.155  31.671  37.375  1.00  0.00     0.029 A 
ATOM     57  C   UNL A   1      41.331  31.830  36.273  1.00  0.00     0.049 A 
ATOM     58  H   UNL A   1      41.389  30.830  34.415  1.00  0.00     0.167 HD
ATOM     59  C   UNL A   1      39.450  32.825  34.995  1.00  0.00     0.074 A 
ATOM     60  C   UNL A   1      38.324  33.725  34.851  1.00  0.00     0.031 C 
ATOM     61  C   UNL A   1      40.209  32.724  36.115  1.00  0.00     0.037 A 
BRANCH  48  62
ATOM     62  C   UNL A   1      44.743  28.529  35.744  1.00  0.00     0.058 A 
ATOM     63  C   UNL A   1      46.070  28.977  35.647  1.00  0.00     0.135 A 
ATOM     64  C   UNL A   1      44.490  27.410  36.555  1.00  0.00     0.135 A 
ATOM     65  F   UNL A   1      46.374  30.030  34.872  1.00  0.00    -0.206 F 
ATOM     66  C   UNL A   1      47.108  28.327  36.310  1.00  0.00     0.059 A 
ATOM     67  C   UNL A   1      45.507  26.763  37.250  1.00  0.00     0.059 A 
ATOM     68  F   UNL A   1      43.240  26.937  36.685  1.00  0.00    -0.206 F 
ATOM     69  C   UNL A   1      46.816  27.221  37.110  1.00  0.00     0.060 A 
BRANCH  69  70
ATOM     70  S   UNL A   1      48.172  26.393  37.969  1.00  0.00     0.124 S 
ATOM     71  O   UNL A   1      47.904  24.993  37.654  1.00  0.00    -0.237 OA
ATOM     72  O   UNL A   1      49.347  26.974  37.329  1.00  0.00    -0.237 OA
ATOM     73  O   UNL A   1      47.971  26.768  39.365  1.00  0.00    -0.744 OA
ENDBRANCH  69  70
ENDBRANCH  48  62
BRANCH  49  74
ATOM     74  C   UNL A   1      37.093  32.809  30.914  1.00  0.00     0.058 A 
ATOM     75  C   UNL A   1      35.785  32.360  31.153  1.00  0.00     0.135 A 
ATOM     76  C   UNL A   1      37.265  33.856  29.993  1.00  0.00     0.135 A 
ATOM     77  F   UNL A   1      35.568  31.356  32.016  1.00  0.00    -0.206 F 
ATOM     78  C   UNL A   1      34.692  32.914  30.492  1.00  0.00     0.059 A 
ATOM     79  C   UNL A   1      36.186  34.446  29.345  1.00  0.00     0.059 A 
ATOM     80  F   UNL A   1      38.493  34.331  29.737  1.00  0.00    -0.206 F 
ATOM     81  C   UNL A   1      34.903  33.960  29.592  1.00  0.00     0.060 A 
BRANCH  81  82
ATOM     82  S   UNL A   1      33.474  34.699  28.772  1.00  0.00     0.124 S 
ATOM     83  O   UNL A   1      34.068  35.881  28.157  1.00  0.00    -0.237 OA
ATOM     84  O   UNL A   1      33.065  33.639  27.857  1.00  0.00    -0.237 OA
ATOM     85  O   UNL A   1      32.552  34.958  29.873  1.00  0.00    -0.744 OA
ENDBRANCH  81  82
ENDBRANCH  49  74
BRANCH  61  86
ATOM     86  C   UNL A   1      39.875  33.642  37.261  1.00  0.00     0.058 A 
ATOM     87  C   UNL A   1      38.919  33.303  38.233  1.00  0.00     0.135 A 
ATOM     88  C   UNL A   1      40.545  34.869  37.405  1.00  0.00     0.135 A 
ATOM     89  F   UNL A   1      38.244  32.147  38.142  1.00  0.00    -0.206 F 
ATOM     90  C   UNL A   1      38.613  34.163  39.283  1.00  0.00     0.059 A 
ATOM     91  C   UNL A   1      40.280  35.728  38.465  1.00  0.00     0.059 A 
ATOM     92  F   UNL A   1      41.478  35.238  36.512  1.00  0.00    -0.206 F 
ATOM     93  C   UNL A   1      39.300  35.374  39.392  1.00  0.00     0.060 A 
BRANCH  93  94
ATOM     94  S   UNL A   1      38.904  36.474  40.767  1.00  0.00     0.124 S 
ATOM     95  O   UNL A   1      38.407  37.653  40.067  1.00  0.00    -0.237 OA
ATOM     96  O   UNL A   1      37.906  35.705  41.505  1.00  0.00    -0.237 OA
ATOM     97  O   UNL A   1      40.185  36.641  41.448  1.00  0.00    -0.744 OA
ENDBRANCH  93  94
ENDBRANCH  61  86
ENDBRANCH  35  36
ENDBRANCH  28  30
ENDBRANCH  27  28
ENDBRANCH  26  27
ENDBRANCH   1  26
TORSDOF 18
ENDMDL
MODEL 3
REMARK VINA RESULT:     -11.3      6.808     12.502
REMARK SMILES O=C(CN1C(=O)S/C(=C\c2cccc(Br)c2)C1=O)NCC(=O)OCCOC(=O)c1ccc(-c2c3nc(c(-c4c(F)cc(S(=O)(=O)[O-])cc4F)c4ccc([nH]4)c(-c4c(F)cc(S(=O)(=O)[O-])cc4F)c4nc(c(-c5c(F)cc(S(=O)(=O)[O-])cc5F)c5ccc2[nH]5)C=C4)C=C3)cc1
REMARK SMILES IDX 24 1 23 2 21 3 22 4 20 5 19 6 1 7 2 8 3 10 4 11 5 12 17 13
REMARK SMILES IDX 6 14 7 15 8 16 18 17 9 18 10 19 11 20 16 21 12 22 14 23
REMARK SMILES IDX 13 24 15 25 25 26 26 27 27 28 28 29 29 30 30 31 94 32 31 33
REMARK SMILES IDX 93 34 32 35 33 36 34 37 87 38 35 39 92 40 86 41 88 42 36 43
REMARK SMILES IDX 91 44 85 45 84 46 37 48 71 49 50 50 70 51 51 52 54 53 69 54
REMARK SMILES IDX 89 55 52 56 53 57 68 59 90 60 55 61 38 62 39 63 48 64 40 65
REMARK SMILES IDX 41 66 47 67 49 68 42 69 43 70 44 71 45 72 46 73 72 74 73 75
REMARK SMILES IDX 82 76 74 77 75 78 81 79 83 80 76 81 77 82 78 83 79 84 80 85
REMARK SMILES IDX 56 86 57 87 66 88 58 89 59 90 65 91 67 92 60 93 61 94 62 95
REMARK SMILES IDX 63 96 64 97
REMARK H PARENT 19 9 88 47 54 58
REMARK Flexibility Score: inf
ROOT
ATOM      1  C   UNL A   1      37.185  23.141  26.128  1.00  0.00     0.274 C 
ENDROOT
BRANCH   1   2
ATOM      2  O   UNL A   1      36.802  21.759  26.011  1.00  0.00    -0.461 OA
BRANCH   2   3
ATOM      3  C   UNL A   1      35.469  21.483  26.074  1.00  0.00     0.325 C 
ATOM      4  O   UNL A   1      34.739  21.781  27.011  1.00  0.00    -0.250 OA
BRANCH   3   5
ATOM      5  C   UNL A   1      34.986  20.696  24.858  1.00  0.00     0.238 C 
BRANCH   5   6
ATOM      6  N   UNL A   1      34.028  21.408  24.029  1.00  0.00    -0.344 N 
ATOM      7  O   UNL A   1      32.181  20.332  24.843  1.00  0.00    -0.273 OA
ATOM      8  C   UNL A   1      32.679  21.150  24.075  1.00  0.00     0.240 C 
ATOM      9  H   UNL A   1      34.357  22.100  23.412  1.00  0.00     0.164 HD
BRANCH   8  10
ATOM     10  C   UNL A   1      31.832  22.051  23.181  1.00  0.00     0.229 C 
BRANCH  10  11
ATOM     11  N   UNL A   1      32.157  23.428  23.482  1.00  0.00    -0.259 N 
ATOM     12  C   UNL A   1      33.025  24.155  22.720  1.00  0.00     0.294 C 
ATOM     13  C   UNL A   1      31.606  24.054  24.572  1.00  0.00     0.268 C 
ATOM     14  O   UNL A   1      33.664  23.769  21.750  1.00  0.00    -0.261 OA
ATOM     15  S   UNL A   1      33.180  25.778  23.372  1.00  0.00    -0.022 SA
ATOM     16  C   UNL A   1      32.070  25.462  24.647  1.00  0.00     0.083 C 
ATOM     17  O   UNL A   1      30.843  23.537  25.375  1.00  0.00    -0.268 OA
ATOM     18  C   UNL A   1      31.643  26.283  25.616  1.00  0.00     0.029 C 
BRANCH  18  19
ATOM     19  C   UNL A   1      32.043  27.680  25.819  1.00  0.00    -0.023 A 
ATOM     20  C   UNL A   1      31.281  28.744  25.323  1.00  0.00     0.008 A 
ATOM     21  C   UNL A   1      33.195  27.951  26.566  1.00  0.00     0.023 A 
ATOM     22  C   UNL A   1      31.686  30.064  25.537  1.00  0.00     0.002 A 
ATOM     23  C   UNL A   1      33.595  29.271  26.774  1.00  0.00     0.018 A 
ATOM     24  C   UNL A   1      32.848  30.328  26.261  1.00  0.00     0.016 A 
ATOM     25  Br  UNL A   1      35.174  29.626  27.749  1.00  0.00    -0.051 Br
ENDBRANCH  18  19
ENDBRANCH  10  11
ENDBRANCH   8  10
ENDBRANCH   5   6
ENDBRANCH   3   5
ENDBRANCH   2   3
ENDBRANCH   1   2
BRANCH   1  26
ATOM     26  C   UNL A   1      38.711  23.281  26.157  1.00  0.00     0.275 C 
BRANCH  26  27
ATOM     27  O   UNL A   1      39.132  24.652  26.307  1.00  0.00    -0.458 OA
BRANCH  27  28
ATOM     28  C   UNL A   1      40.424  24.809  26.681  1.00  0.00     0.338 C 
ATOM     29  O   UNL A   1      41.408  24.369  26.106  1.00  0.00    -0.246 OA
BRANCH  28  30
ATOM     30  C   UNL A   1      40.517  25.734  27.822  1.00  0.00     0.060 A 
ATOM     31  C   UNL A   1      39.473  25.720  28.750  1.00  0.00     0.016 A 
ATOM     32  C   UNL A   1      41.550  26.665  27.935  1.00  0.00     0.016 A 
ATOM     33  C   UNL A   1      39.438  26.657  29.777  1.00  0.00     0.010 A 
ATOM     34  C   UNL A   1      41.523  27.595  28.982  1.00  0.00     0.010 A 
ATOM     35  C   UNL A   1      40.457  27.611  29.899  1.00  0.00    -0.014 A 
BRANCH  35  36
ATOM     36  C   UNL A   1      40.368  28.642  30.965  1.00  0.00     0.031 A 
ATOM     37  C   UNL A   1      41.272  28.567  32.166  1.00  0.00     0.074 A 
ATOM     38  C   UNL A   1      39.499  29.664  30.834  1.00  0.00     0.049 A 
ATOM     39  N   UNL A   1      41.317  29.346  33.216  1.00  0.00    -0.248 NA
ATOM     40  C   UNL A   1      42.253  27.471  32.189  1.00  0.00     0.031 C 
ATOM     41  C   UNL A   1      38.594  29.859  29.700  1.00  0.00     0.029 A 
ATOM     42  N   UNL A   1      39.236  30.729  31.658  1.00  0.00    -0.354 N 
ATOM     43  C   UNL A   1      42.312  28.823  34.036  1.00  0.00     0.074 A 
ATOM     44  C   UNL A   1      42.829  27.647  33.370  1.00  0.00     0.031 C 
ATOM     45  C   UNL A   1      37.882  30.981  29.896  1.00  0.00     0.029 A 
ATOM     46  C   UNL A   1      38.240  31.553  31.190  1.00  0.00     0.049 A 
ATOM     47  H   UNL A   1      39.715  30.888  32.504  1.00  0.00     0.167 HD
ATOM     48  C   UNL A   1      42.753  29.287  35.231  1.00  0.00     0.037 A 
ATOM     49  C   UNL A   1      37.659  32.632  31.752  1.00  0.00     0.037 A 
ATOM     50  C   UNL A   1      42.238  30.469  35.876  1.00  0.00     0.049 A 
ATOM     51  C   UNL A   1      38.137  33.100  33.100  1.00  0.00     0.074 A 
ATOM     52  C   UNL A   1      42.636  31.036  37.076  1.00  0.00     0.029 A 
ATOM     53  N   UNL A   1      41.214  31.265  35.382  1.00  0.00    -0.354 N 
ATOM     54  N   UNL A   1      39.086  32.602  33.857  1.00  0.00    -0.248 NA
ATOM     55  C   UNL A   1      37.470  34.279  33.668  1.00  0.00     0.031 C 
ATOM     56  C   UNL A   1      41.815  32.139  37.334  1.00  0.00     0.029 A 
ATOM     57  C   UNL A   1      40.949  32.301  36.264  1.00  0.00     0.049 A 
ATOM     58  H   UNL A   1      40.745  31.115  34.530  1.00  0.00     0.167 HD
ATOM     59  C   UNL A   1      39.147  33.423  34.978  1.00  0.00     0.074 A 
ATOM     60  C   UNL A   1      38.151  34.458  34.791  1.00  0.00     0.031 C 
ATOM     61  C   UNL A   1      39.956  33.328  36.063  1.00  0.00     0.037 A 
BRANCH  48  62
ATOM     62  C   UNL A   1      43.822  28.499  35.939  1.00  0.00     0.058 A 
ATOM     63  C   UNL A   1      43.518  27.429  36.797  1.00  0.00     0.135 A 
ATOM     64  C   UNL A   1      45.179  28.792  35.719  1.00  0.00     0.135 A 
ATOM     65  F   UNL A   1      42.240  27.115  37.058  1.00  0.00    -0.206 F 
ATOM     66  C   UNL A   1      44.519  26.695  37.428  1.00  0.00     0.059 A 
ATOM     67  C   UNL A   1      46.196  28.053  36.317  1.00  0.00     0.059 A 
ATOM     68  F   UNL A   1      45.529  29.804  34.910  1.00  0.00    -0.206 F 
ATOM     69  C   UNL A   1      45.855  27.014  37.181  1.00  0.00     0.060 A 
BRANCH  69  70
ATOM     70  S   UNL A   1      47.141  26.048  38.002  1.00  0.00     0.124 S 
ATOM     71  O   UNL A   1      46.345  25.079  38.748  1.00  0.00    -0.237 OA
ATOM     72  O   UNL A   1      47.898  25.515  36.875  1.00  0.00    -0.237 OA
ATOM     73  O   UNL A   1      47.844  27.037  38.814  1.00  0.00    -0.744 OA
ENDBRANCH  69  70
ENDBRANCH  48  62
BRANCH  49  74
ATOM     74  C   UNL A   1      36.547  33.327  31.049  1.00  0.00     0.058 A 
ATOM     75  C   UNL A   1      36.786  34.138  29.930  1.00  0.00     0.135 A 
ATOM     76  C   UNL A   1      35.217  33.191  31.483  1.00  0.00     0.135 A 
ATOM     77  F   UNL A   1      38.040  34.309  29.482  1.00  0.00    -0.206 F 
ATOM     78  C   UNL A   1      35.753  34.803  29.276  1.00  0.00     0.059 A 
ATOM     79  C   UNL A   1      34.164  33.819  30.827  1.00  0.00     0.059 A 
ATOM     80  F   UNL A   1      34.932  32.416  32.540  1.00  0.00    -0.206 F 
ATOM     81  C   UNL A   1      34.444  34.634  29.731  1.00  0.00     0.060 A 
BRANCH  81  82
ATOM     82  S   UNL A   1      33.106  35.467  28.851  1.00  0.00     0.124 S 
ATOM     83  O   UNL A   1      33.842  36.433  28.043  1.00  0.00    -0.237 OA
ATOM     84  O   UNL A   1      32.486  34.364  28.122  1.00  0.00    -0.237 OA
ATOM     85  O   UNL A   1      32.296  36.031  29.926  1.00  0.00    -0.744 OA
ENDBRANCH  81  82
ENDBRANCH  49  74
BRANCH  61  86
ATOM     86  C   UNL A   1      39.830  34.401  37.113  1.00  0.00     0.058 A 
ATOM     87  C   UNL A   1      38.973  34.264  38.217  1.00  0.00     0.135 A 
ATOM     88  C   UNL A   1      40.604  35.570  37.028  1.00  0.00     0.135 A 
ATOM     89  F   UNL A   1      38.206  33.170  38.346  1.00  0.00    -0.206 F 
ATOM     90  C   UNL A   1      38.860  35.264  39.178  1.00  0.00     0.059 A 
ATOM     91  C   UNL A   1      40.533  36.567  37.994  1.00  0.00     0.059 A 
ATOM     92  F   UNL A   1      41.450  35.748  36.000  1.00  0.00    -0.206 F 
ATOM     93  C   UNL A   1      39.645  36.413  39.058  1.00  0.00     0.060 A 
BRANCH  93  94
ATOM     94  S   UNL A   1      39.499  37.697  40.319  1.00  0.00     0.124 S 
ATOM     95  O   UNL A   1      39.457  36.903  41.543  1.00  0.00    -0.237 OA
ATOM     96  O   UNL A   1      40.713  38.479  40.110  1.00  0.00    -0.237 OA
ATOM     97  O   UNL A   1      38.255  38.377  39.969  1.00  0.00    -0.744 OA
ENDBRANCH  93  94
ENDBRANCH  61  86
ENDBRANCH  35  36
ENDBRANCH  28  30
ENDBRANCH  27  28
ENDBRANCH  26  27
ENDBRANCH   1  26
TORSDOF 18
ENDMDL
