MODEL 1
REMARK VINA RESULT:     -11.5      0.000      0.000
REMARK SMILES O=C(Cn1nc(-c2ccco2)ccc1=O)N[C@@H](C(=O)OCCOC(=O)c1ccc(-c2c3nc(c(-c4c(F)cc(S(=O)(=O)[O-])cc4F)c4ccc([nH]4)c(-c4c(F)cc(S(=O)(=O)[O-])cc4F)c4nc(c(-c5c(F)cc(S(=O)(=O)[O-])cc5F)c5ccc2[nH]5)C=C4)C=C3)cc1)c1ccccc1
REMARK SMILES IDX 21 1 20 2 18 3 19 4 17 5 16 6 1 7 2 8 3 10 4 11 5 12 14 13
REMARK SMILES IDX 6 14 13 15 15 16 12 17 7 18 8 19 11 20 9 21 10 22 92 23
REMARK SMILES IDX 93 24 97 25 94 26 96 27 95 28 22 29 23 30 24 31 25 32 26 33
REMARK SMILES IDX 27 34 91 35 28 36 90 37 29 38 30 39 31 40 84 41 32 42 89 43
REMARK SMILES IDX 83 44 85 45 33 46 88 47 82 48 81 49 34 51 68 52 47 53 67 54
REMARK SMILES IDX 48 55 51 56 66 57 86 58 49 59 50 60 65 62 87 63 52 64 35 65
REMARK SMILES IDX 36 66 45 67 37 68 38 69 44 70 46 71 39 72 40 73 41 74 42 75
REMARK SMILES IDX 43 76 69 77 70 78 79 79 71 80 72 81 78 82 80 83 73 84 74 85
REMARK SMILES IDX 75 86 76 87 77 88 53 89 54 90 63 91 55 92 56 93 62 94 64 95
REMARK SMILES IDX 57 96 58 97 59 98 60 99 61 100
REMARK H PARENT 16 9 85 50 51 61
REMARK Flexibility Score: inf
ROOT
ATOM      1  C   UNL A   1      31.788  29.462  26.129  1.00  0.00     0.274 C 
ENDROOT
BRANCH   1   2
ATOM      2  O   UNL A   1      31.271  28.257  25.531  1.00  0.00    -0.460 OA
BRANCH   2   3
ATOM      3  C   UNL A   1      31.218  27.145  26.329  1.00  0.00     0.333 C 
ATOM      4  O   UNL A   1      31.212  27.211  27.554  1.00  0.00    -0.249 OA
BRANCH   3   5
ATOM      5  C   UNL A   1      31.276  25.821  25.504  1.00  0.00     0.223 C 
BRANCH   5   6
ATOM      6  N   UNL A   1      31.943  24.758  26.269  1.00  0.00    -0.337 N 
ATOM      7  O   UNL A   1      30.719  23.035  25.402  1.00  0.00    -0.273 OA
ATOM      8  C   UNL A   1      31.639  23.425  26.118  1.00  0.00     0.242 C 
ATOM      9  H   UNL A   1      32.639  25.011  26.917  1.00  0.00     0.164 HD
BRANCH   8  10
ATOM     10  C   UNL A   1      32.423  22.473  27.024  1.00  0.00     0.248 C 
BRANCH  10  11
ATOM     11  N   UNL A   1      33.535  21.845  26.313  1.00  0.00    -0.220 N 
ATOM     12  N   UNL A   1      33.268  20.657  25.658  1.00  0.00    -0.166 NA
ATOM     13  C   UNL A   1      34.773  22.476  26.300  1.00  0.00     0.267 A 
ATOM     14  C   UNL A   1      34.259  20.053  25.071  1.00  0.00     0.126 A 
ATOM     15  C   UNL A   1      35.868  21.744  25.631  1.00  0.00     0.076 A 
ATOM     16  O   UNL A   1      35.012  23.574  26.796  1.00  0.00    -0.268 OA
ATOM     17  C   UNL A   1      35.648  20.561  25.059  1.00  0.00     0.040 A 
BRANCH  14  18
ATOM     18  C   UNL A   1      34.013  18.830  24.353  1.00  0.00     0.154 A 
ATOM     19  C   UNL A   1      34.727  17.650  24.278  1.00  0.00     0.052 A 
ATOM     20  O   UNL A   1      32.882  18.732  23.591  1.00  0.00    -0.463 OA
ATOM     21  C   UNL A   1      33.996  16.790  23.423  1.00  0.00     0.043 A 
ATOM     22  C   UNL A   1      32.899  17.506  23.007  1.00  0.00     0.196 A 
ENDBRANCH  14  18
ENDBRANCH  10  11
ENDBRANCH   8  10
ENDBRANCH   5   6
BRANCH   5  23
ATOM     23  C   UNL A   1      31.878  25.954  24.096  1.00  0.00    -0.014 A 
ATOM     24  C   UNL A   1      31.073  25.927  22.943  1.00  0.00     0.006 A 
ATOM     25  C   UNL A   1      33.273  26.035  23.902  1.00  0.00     0.006 A 
ATOM     26  C   UNL A   1      31.625  26.058  21.663  1.00  0.00     0.000 A 
ATOM     27  C   UNL A   1      33.825  26.162  22.623  1.00  0.00     0.000 A 
ATOM     28  C   UNL A   1      33.000  26.184  21.504  1.00  0.00     0.000 A 
ENDBRANCH   5  23
ENDBRANCH   3   5
ENDBRANCH   2   3
ENDBRANCH   1   2
BRANCH   1  29
ATOM     29  C   UNL A   1      33.314  29.508  26.025  1.00  0.00     0.275 C 
BRANCH  29  30
ATOM     30  O   UNL A   1      33.939  29.242  27.293  1.00  0.00    -0.458 OA
BRANCH  30  31
ATOM     31  C   UNL A   1      34.589  30.290  27.854  1.00  0.00     0.338 C 
ATOM     32  O   UNL A   1      34.103  31.364  28.179  1.00  0.00    -0.246 OA
BRANCH  31  33
ATOM     33  C   UNL A   1      35.959  29.872  28.216  1.00  0.00     0.060 A 
ATOM     34  C   UNL A   1      36.315  29.463  29.505  1.00  0.00     0.016 A 
ATOM     35  C   UNL A   1      36.924  29.932  27.211  1.00  0.00     0.016 A 
ATOM     36  C   UNL A   1      37.652  29.159  29.790  1.00  0.00     0.010 A 
ATOM     37  C   UNL A   1      38.257  29.661  27.500  1.00  0.00     0.010 A 
ATOM     38  C   UNL A   1      38.634  29.286  28.795  1.00  0.00    -0.014 A 
BRANCH  38  39
ATOM     39  C   UNL A   1      40.054  28.972  29.059  1.00  0.00     0.031 A 
ATOM     40  C   UNL A   1      40.614  27.612  28.762  1.00  0.00     0.074 A 
ATOM     41  C   UNL A   1      40.819  29.902  29.660  1.00  0.00     0.049 A 
ATOM     42  N   UNL A   1      41.846  27.188  28.878  1.00  0.00    -0.248 NA
ATOM     43  C   UNL A   1      39.666  26.592  28.287  1.00  0.00     0.031 C 
ATOM     44  C   UNL A   1      40.356  31.227  30.071  1.00  0.00     0.029 A 
ATOM     45  N   UNL A   1      42.132  29.865  30.048  1.00  0.00    -0.354 N 
ATOM     46  C   UNL A   1      41.835  25.864  28.458  1.00  0.00     0.074 A 
ATOM     47  C   UNL A   1      40.459  25.539  28.137  1.00  0.00     0.031 C 
ATOM     48  C   UNL A   1      41.371  31.878  30.661  1.00  0.00     0.029 A 
ATOM     49  C   UNL A   1      42.552  31.017  30.664  1.00  0.00     0.049 A 
ATOM     50  H   UNL A   1      42.717  29.087  29.900  1.00  0.00     0.167 HD
ATOM     51  C   UNL A   1      42.882  25.012  28.333  1.00  0.00     0.037 A 
ATOM     52  C   UNL A   1      43.759  31.349  31.162  1.00  0.00     0.037 A 
ATOM     53  C   UNL A   1      44.241  25.342  28.692  1.00  0.00     0.049 A 
ATOM     54  C   UNL A   1      44.904  30.387  31.021  1.00  0.00     0.074 A 
ATOM     55  C   UNL A   1      45.383  24.574  28.536  1.00  0.00     0.029 A 
ATOM     56  N   UNL A   1      44.639  26.524  29.300  1.00  0.00    -0.354 N 
ATOM     57  N   UNL A   1      44.910  29.183  30.500  1.00  0.00    -0.248 NA
ATOM     58  C   UNL A   1      46.212  30.838  31.512  1.00  0.00     0.031 C 
ATOM     59  C   UNL A   1      46.460  25.270  29.097  1.00  0.00     0.029 A 
ATOM     60  C   UNL A   1      46.002  26.494  29.554  1.00  0.00     0.049 A 
ATOM     61  H   UNL A   1      44.041  27.274  29.521  1.00  0.00     0.167 HD
ATOM     62  C   UNL A   1      46.225  28.741  30.577  1.00  0.00     0.074 A 
ATOM     63  C   UNL A   1      46.989  29.813  31.185  1.00  0.00     0.031 C 
ATOM     64  C   UNL A   1      46.754  27.558  30.175  1.00  0.00     0.037 A 
BRANCH  51  65
ATOM     65  C   UNL A   1      42.617  23.646  27.760  1.00  0.00     0.058 A 
ATOM     66  C   UNL A   1      42.620  23.427  26.373  1.00  0.00     0.135 A 
ATOM     67  C   UNL A   1      42.460  22.528  28.597  1.00  0.00     0.135 A 
ATOM     68  F   UNL A   1      42.760  24.458  25.526  1.00  0.00    -0.206 F 
ATOM     69  C   UNL A   1      42.464  22.153  25.835  1.00  0.00     0.059 A 
ATOM     70  C   UNL A   1      42.326  21.241  28.081  1.00  0.00     0.059 A 
ATOM     71  F   UNL A   1      42.452  22.679  29.930  1.00  0.00    -0.206 F 
ATOM     72  C   UNL A   1      42.325  21.065  26.697  1.00  0.00     0.060 A 
BRANCH  72  73
ATOM     73  S   UNL A   1      42.164  19.416  25.979  1.00  0.00     0.124 S 
ATOM     74  O   UNL A   1      40.728  19.346  25.726  1.00  0.00    -0.237 OA
ATOM     75  O   UNL A   1      43.011  19.511  24.794  1.00  0.00    -0.237 OA
ATOM     76  O   UNL A   1      42.659  18.534  27.031  1.00  0.00    -0.744 OA
ENDBRANCH  72  73
ENDBRANCH  51  65
BRANCH  52  77
ATOM     77  C   UNL A   1      43.947  32.691  31.766  1.00  0.00     0.058 A 
ATOM     78  C   UNL A   1      44.319  33.785  30.973  1.00  0.00     0.135 A 
ATOM     79  C   UNL A   1      43.696  32.919  33.127  1.00  0.00     0.135 A 
ATOM     80  F   UNL A   1      44.570  33.611  29.666  1.00  0.00    -0.206 F 
ATOM     81  C   UNL A   1      44.435  35.062  31.507  1.00  0.00     0.059 A 
ATOM     82  C   UNL A   1      43.786  34.192  33.680  1.00  0.00     0.059 A 
ATOM     83  F   UNL A   1      43.316  31.905  33.921  1.00  0.00    -0.206 F 
ATOM     84  C   UNL A   1      44.157  35.257  32.861  1.00  0.00     0.060 A 
BRANCH  84  85
ATOM     85  S   UNL A   1      44.229  36.937  33.520  1.00  0.00     0.124 S 
ATOM     86  O   UNL A   1      44.811  37.668  32.401  1.00  0.00    -0.237 OA
ATOM     87  O   UNL A   1      42.823  37.211  33.803  1.00  0.00    -0.237 OA
ATOM     88  O   UNL A   1      45.080  36.799  34.697  1.00  0.00    -0.744 OA
ENDBRANCH  84  85
ENDBRANCH  52  77
BRANCH  64  89
ATOM     89  C   UNL A   1      48.232  27.360  30.371  1.00  0.00     0.058 A 
ATOM     90  C   UNL A   1      48.754  26.857  31.573  1.00  0.00     0.135 A 
ATOM     91  C   UNL A   1      49.136  27.641  29.333  1.00  0.00     0.135 A 
ATOM     92  F   UNL A   1      47.937  26.576  32.600  1.00  0.00    -0.206 F 
ATOM     93  C   UNL A   1      50.122  26.668  31.750  1.00  0.00     0.059 A 
ATOM     94  C   UNL A   1      50.504  27.435  29.478  1.00  0.00     0.059 A 
ATOM     95  F   UNL A   1      48.689  28.115  28.159  1.00  0.00    -0.206 F 
ATOM     96  C   UNL A   1      50.990  26.961  30.695  1.00  0.00     0.060 A 
BRANCH  96  97
ATOM     97  S   UNL A   1      52.759  26.699  30.936  1.00  0.00     0.124 S 
ATOM     98  O   UNL A   1      53.269  26.866  29.578  1.00  0.00    -0.237 OA
ATOM     99  O   UNL A   1      53.107  27.758  31.877  1.00  0.00    -0.237 OA
ATOM    100  O   UNL A   1      52.834  25.343  31.471  1.00  0.00    -0.744 OA
ENDBRANCH  96  97
ENDBRANCH  64  89
ENDBRANCH  38  39
ENDBRANCH  31  33
ENDBRANCH  30  31
ENDBRANCH  29  30
ENDBRANCH   1  29
TORSDOF 19
ENDMDL
MODEL 2
REMARK VINA RESULT:     -11.4      0.674      8.000
REMARK SMILES O=C(Cn1nc(-c2ccco2)ccc1=O)N[C@@H](C(=O)OCCOC(=O)c1ccc(-c2c3nc(c(-c4c(F)cc(S(=O)(=O)[O-])cc4F)c4ccc([nH]4)c(-c4c(F)cc(S(=O)(=O)[O-])cc4F)c4nc(c(-c5c(F)cc(S(=O)(=O)[O-])cc5F)c5ccc2[nH]5)C=C4)C=C3)cc1)c1ccccc1
REMARK SMILES IDX 21 1 20 2 18 3 19 4 17 5 16 6 1 7 2 8 3 10 4 11 5 12 14 13
REMARK SMILES IDX 6 14 13 15 15 16 12 17 7 18 8 19 11 20 9 21 10 22 92 23
REMARK SMILES IDX 93 24 97 25 94 26 96 27 95 28 22 29 23 30 24 31 25 32 26 33
REMARK SMILES IDX 27 34 91 35 28 36 90 37 29 38 30 39 31 40 84 41 32 42 89 43
REMARK SMILES IDX 83 44 85 45 33 46 88 47 82 48 81 49 34 51 68 52 47 53 67 54
REMARK SMILES IDX 48 55 51 56 66 57 86 58 49 59 50 60 65 62 87 63 52 64 35 65
REMARK SMILES IDX 36 66 45 67 37 68 38 69 44 70 46 71 39 72 40 73 41 74 42 75
REMARK SMILES IDX 43 76 69 77 70 78 79 79 71 80 72 81 78 82 80 83 73 84 74 85
REMARK SMILES IDX 75 86 76 87 77 88 53 89 54 90 63 91 55 92 56 93 62 94 64 95
REMARK SMILES IDX 57 96 58 97 59 98 60 99 61 100
REMARK H PARENT 16 9 85 50 51 61
REMARK Flexibility Score: inf
ROOT
ATOM      1  C   UNL A   1      32.106  28.942  25.868  1.00  0.00     0.274 C 
ENDROOT
BRANCH   1   2
ATOM      2  O   UNL A   1      32.487  27.552  25.886  1.00  0.00    -0.460 OA
BRANCH   2   3
ATOM      3  C   UNL A   1      31.527  26.653  26.269  1.00  0.00     0.333 C 
ATOM      4  O   UNL A   1      30.762  26.863  27.205  1.00  0.00    -0.249 OA
BRANCH   3   5
ATOM      5  C   UNL A   1      31.603  25.323  25.455  1.00  0.00     0.223 C 
BRANCH   5   6
ATOM      6  N   UNL A   1      32.451  24.338  26.143  1.00  0.00    -0.337 N 
ATOM      7  O   UNL A   1      30.755  23.319  27.285  1.00  0.00    -0.273 OA
ATOM      8  C   UNL A   1      31.945  23.370  26.978  1.00  0.00     0.242 C 
ATOM      9  H   UNL A   1      33.424  24.373  25.999  1.00  0.00     0.164 HD
BRANCH   8  10
ATOM     10  C   UNL A   1      32.990  22.456  27.622  1.00  0.00     0.248 C 
BRANCH  10  11
ATOM     11  N   UNL A   1      33.887  21.876  26.626  1.00  0.00    -0.220 N 
ATOM     12  N   UNL A   1      33.448  20.738  25.974  1.00  0.00    -0.166 NA
ATOM     13  C   UNL A   1      35.100  22.502  26.362  1.00  0.00     0.267 A 
ATOM     14  C   UNL A   1      34.258  20.175  25.128  1.00  0.00     0.126 A 
ATOM     15  C   UNL A   1      35.989  21.816  25.402  1.00  0.00     0.076 A 
ATOM     16  O   UNL A   1      35.472  23.561  26.860  1.00  0.00    -0.268 OA
ATOM     17  C   UNL A   1      35.615  20.677  24.820  1.00  0.00     0.040 A 
BRANCH  14  18
ATOM     18  C   UNL A   1      33.824  19.007  24.408  1.00  0.00     0.154 A 
ATOM     19  C   UNL A   1      34.329  17.722  24.351  1.00  0.00     0.052 A 
ATOM     20  O   UNL A   1      32.708  19.097  23.622  1.00  0.00    -0.463 OA
ATOM     21  C   UNL A   1      33.481  16.993  23.483  1.00  0.00     0.043 A 
ATOM     22  C   UNL A   1      32.529  17.882  23.042  1.00  0.00     0.196 A 
ENDBRANCH  14  18
ENDBRANCH  10  11
ENDBRANCH   8  10
ENDBRANCH   5   6
BRANCH   5  23
ATOM     23  C   UNL A   1      32.018  25.480  23.984  1.00  0.00    -0.014 A 
ATOM     24  C   UNL A   1      33.276  25.052  23.521  1.00  0.00     0.006 A 
ATOM     25  C   UNL A   1      31.179  26.126  23.052  1.00  0.00     0.006 A 
ATOM     26  C   UNL A   1      33.645  25.188  22.177  1.00  0.00     0.000 A 
ATOM     27  C   UNL A   1      31.549  26.266  21.710  1.00  0.00     0.000 A 
ATOM     28  C   UNL A   1      32.778  25.786  21.271  1.00  0.00     0.000 A 
ENDBRANCH   5  23
ENDBRANCH   3   5
ENDBRANCH   2   3
ENDBRANCH   1   2
BRANCH   1  29
ATOM     29  C   UNL A   1      32.558  29.646  27.149  1.00  0.00     0.275 C 
BRANCH  29  30
ATOM     30  O   UNL A   1      33.945  29.389  27.433  1.00  0.00    -0.458 OA
BRANCH  30  31
ATOM     31  C   UNL A   1      34.637  30.431  27.954  1.00  0.00     0.338 C 
ATOM     32  O   UNL A   1      34.194  31.537  28.231  1.00  0.00    -0.246 OA
BRANCH  31  33
ATOM     33  C   UNL A   1      35.986  29.972  28.340  1.00  0.00     0.060 A 
ATOM     34  C   UNL A   1      36.295  29.515  29.625  1.00  0.00     0.016 A 
ATOM     35  C   UNL A   1      36.981  30.042  27.366  1.00  0.00     0.016 A 
ATOM     36  C   UNL A   1      37.617  29.172  29.938  1.00  0.00     0.010 A 
ATOM     37  C   UNL A   1      38.299  29.733  27.684  1.00  0.00     0.010 A 
ATOM     38  C   UNL A   1      38.630  29.309  28.976  1.00  0.00    -0.014 A 
BRANCH  38  39
ATOM     39  C   UNL A   1      40.035  28.955  29.271  1.00  0.00     0.031 A 
ATOM     40  C   UNL A   1      40.971  29.955  29.883  1.00  0.00     0.074 A 
ATOM     41  C   UNL A   1      40.488  27.746  28.894  1.00  0.00     0.049 A 
ATOM     42  N   UNL A   1      42.214  29.793  30.259  1.00  0.00    -0.248 NA
ATOM     43  C   UNL A   1      40.452  31.316  30.086  1.00  0.00     0.031 C 
ATOM     44  C   UNL A   1      39.688  26.727  28.214  1.00  0.00     0.029 A 
ATOM     45  N   UNL A   1      41.730  27.181  29.008  1.00  0.00    -0.354 N 
ATOM     46  C   UNL A   1      42.619  31.016  30.777  1.00  0.00     0.074 A 
ATOM     47  C   UNL A   1      41.504  31.928  30.615  1.00  0.00     0.031 C 
ATOM     48  C   UNL A   1      40.464  25.660  27.965  1.00  0.00     0.029 A 
ATOM     49  C   UNL A   1      41.809  25.921  28.471  1.00  0.00     0.049 A 
ATOM     50  H   UNL A   1      42.494  27.636  29.433  1.00  0.00     0.167 HD
ATOM     51  C   UNL A   1      43.804  31.335  31.353  1.00  0.00     0.037 A 
ATOM     52  C   UNL A   1      42.846  25.064  28.408  1.00  0.00     0.037 A 
ATOM     53  C   UNL A   1      44.916  30.424  31.474  1.00  0.00     0.049 A 
ATOM     54  C   UNL A   1      44.154  25.441  29.045  1.00  0.00     0.074 A 
ATOM     55  C   UNL A   1      46.133  30.629  32.104  1.00  0.00     0.029 A 
ATOM     56  N   UNL A   1      44.961  29.146  30.933  1.00  0.00    -0.354 N 
ATOM     57  N   UNL A   1      44.484  26.556  29.651  1.00  0.00    -0.248 NA
ATOM     58  C   UNL A   1      45.221  24.433  29.012  1.00  0.00     0.031 C 
ATOM     59  C   UNL A   1      46.930  29.497  31.900  1.00  0.00     0.029 A 
ATOM     60  C   UNL A   1      46.193  28.564  31.189  1.00  0.00     0.049 A 
ATOM     61  H   UNL A   1      44.227  28.717  30.439  1.00  0.00     0.167 HD
ATOM     62  C   UNL A   1      45.789  26.376  30.094  1.00  0.00     0.074 A 
ATOM     63  C   UNL A   1      46.182  25.039  29.697  1.00  0.00     0.031 C 
ATOM     64  C   UNL A   1      46.586  27.238  30.775  1.00  0.00     0.037 A 
BRANCH  51  65
ATOM     65  C   UNL A   1      43.961  32.718  31.927  1.00  0.00     0.058 A 
ATOM     66  C   UNL A   1      44.414  33.786  31.134  1.00  0.00     0.135 A 
ATOM     67  C   UNL A   1      43.565  33.005  33.243  1.00  0.00     0.135 A 
ATOM     68  F   UNL A   1      44.811  33.570  29.871  1.00  0.00    -0.206 F 
ATOM     69  C   UNL A   1      44.479  35.085  31.630  1.00  0.00     0.059 A 
ATOM     70  C   UNL A   1      43.599  34.302  33.752  1.00  0.00     0.059 A 
ATOM     71  F   UNL A   1      43.122  32.023  34.044  1.00  0.00    -0.206 F 
ATOM     72  C   UNL A   1      44.062  35.335  32.937  1.00  0.00     0.060 A 
BRANCH  72  73
ATOM     73  S   UNL A   1      44.118  37.034  33.546  1.00  0.00     0.124 S 
ATOM     74  O   UNL A   1      42.736  37.237  33.971  1.00  0.00    -0.237 OA
ATOM     75  O   UNL A   1      45.103  36.945  34.619  1.00  0.00    -0.237 OA
ATOM     76  O   UNL A   1      44.534  37.803  32.378  1.00  0.00    -0.744 OA
ENDBRANCH  72  73
ENDBRANCH  51  65
BRANCH  52  77
ATOM     77  C   UNL A   1      42.647  23.734  27.781  1.00  0.00     0.058 A 
ATOM     78  C   UNL A   1      42.814  23.565  26.400  1.00  0.00     0.135 A 
ATOM     79  C   UNL A   1      42.353  22.600  28.553  1.00  0.00     0.135 A 
ATOM     80  F   UNL A   1      43.095  24.623  25.623  1.00  0.00    -0.206 F 
ATOM     81  C   UNL A   1      42.698  22.316  25.803  1.00  0.00     0.059 A 
ATOM     82  C   UNL A   1      42.252  21.337  27.981  1.00  0.00     0.059 A 
ATOM     83  F   UNL A   1      42.206  22.711  29.883  1.00  0.00    -0.206 F 
ATOM     84  C   UNL A   1      42.426  21.205  26.604  1.00  0.00     0.060 A 
BRANCH  84  85
ATOM     85  S   UNL A   1      42.364  19.578  25.825  1.00  0.00     0.124 S 
ATOM     86  O   UNL A   1      40.956  19.479  25.460  1.00  0.00    -0.237 OA
ATOM     87  O   UNL A   1      43.302  19.736  24.718  1.00  0.00    -0.237 OA
ATOM     88  O   UNL A   1      42.807  18.680  26.887  1.00  0.00    -0.744 OA
ENDBRANCH  84  85
ENDBRANCH  52  77
BRANCH  64  89
ATOM     89  C   UNL A   1      47.964  26.760  31.142  1.00  0.00     0.058 A 
ATOM     90  C   UNL A   1      48.203  26.037  32.321  1.00  0.00     0.135 A 
ATOM     91  C   UNL A   1      49.055  26.997  30.289  1.00  0.00     0.135 A 
ATOM     92  F   UNL A   1      47.198  25.786  33.175  1.00  0.00    -0.206 F 
ATOM     93  C   UNL A   1      49.478  25.590  32.656  1.00  0.00     0.059 A 
ATOM     94  C   UNL A   1      50.333  26.538  30.590  1.00  0.00     0.059 A 
ATOM     95  F   UNL A   1      48.881  27.676  29.144  1.00  0.00    -0.206 F 
ATOM     96  C   UNL A   1      50.538  25.847  31.784  1.00  0.00     0.060 A 
BRANCH  96  97
ATOM     97  S   UNL A   1      52.183  25.250  32.226  1.00  0.00     0.124 S 
ATOM     98  O   UNL A   1      52.407  25.923  33.502  1.00  0.00    -0.237 OA
ATOM     99  O   UNL A   1      51.983  23.807  32.298  1.00  0.00    -0.237 OA
ATOM    100  O   UNL A   1      53.020  25.707  31.121  1.00  0.00    -0.744 OA
ENDBRANCH  96  97
ENDBRANCH  64  89
ENDBRANCH  38  39
ENDBRANCH  31  33
ENDBRANCH  30  31
ENDBRANCH  29  30
ENDBRANCH   1  29
TORSDOF 19
ENDMDL
MODEL 3
REMARK VINA RESULT:     -11.2      2.819      8.492
REMARK SMILES O=C(Cn1nc(-c2ccco2)ccc1=O)N[C@@H](C(=O)OCCOC(=O)c1ccc(-c2c3nc(c(-c4c(F)cc(S(=O)(=O)[O-])cc4F)c4ccc([nH]4)c(-c4c(F)cc(S(=O)(=O)[O-])cc4F)c4nc(c(-c5c(F)cc(S(=O)(=O)[O-])cc5F)c5ccc2[nH]5)C=C4)C=C3)cc1)c1ccccc1
REMARK SMILES IDX 21 1 20 2 18 3 19 4 17 5 16 6 1 7 2 8 3 10 4 11 5 12 14 13
REMARK SMILES IDX 6 14 13 15 15 16 12 17 7 18 8 19 11 20 9 21 10 22 92 23
REMARK SMILES IDX 93 24 97 25 94 26 96 27 95 28 22 29 23 30 24 31 25 32 26 33
REMARK SMILES IDX 27 34 91 35 28 36 90 37 29 38 30 39 31 40 84 41 32 42 89 43
REMARK SMILES IDX 83 44 85 45 33 46 88 47 82 48 81 49 34 51 68 52 47 53 67 54
REMARK SMILES IDX 48 55 51 56 66 57 86 58 49 59 50 60 65 62 87 63 52 64 35 65
REMARK SMILES IDX 36 66 45 67 37 68 38 69 44 70 46 71 39 72 40 73 41 74 42 75
REMARK SMILES IDX 43 76 69 77 70 78 79 79 71 80 72 81 78 82 80 83 73 84 74 85
REMARK SMILES IDX 75 86 76 87 77 88 53 89 54 90 63 91 55 92 56 93 62 94 64 95
REMARK SMILES IDX 57 96 58 97 59 98 60 99 61 100
REMARK H PARENT 16 9 85 50 51 61
REMARK Flexibility Score: inf
ROOT
ATOM      1  C   UNL A   1      34.099  27.337  25.273  1.00  0.00     0.274 C 
ENDROOT
BRANCH   1   2
ATOM      2  O   UNL A   1      34.040  27.194  23.839  1.00  0.00    -0.460 OA
BRANCH   2   3
ATOM      3  C   UNL A   1      33.234  26.200  23.350  1.00  0.00     0.333 C 
ATOM      4  O   UNL A   1      33.403  25.698  22.244  1.00  0.00    -0.249 OA
BRANCH   3   5
ATOM      5  C   UNL A   1      32.044  25.878  24.308  1.00  0.00     0.223 C 
BRANCH   5   6
ATOM      6  N   UNL A   1      31.865  24.426  24.449  1.00  0.00    -0.337 N 
ATOM      7  O   UNL A   1      31.900  24.402  26.733  1.00  0.00    -0.273 OA
ATOM      8  C   UNL A   1      31.758  23.801  25.669  1.00  0.00     0.242 C 
ATOM      9  H   UNL A   1      31.821  23.876  23.634  1.00  0.00     0.164 HD
BRANCH   8  10
ATOM     10  C   UNL A   1      31.604  22.280  25.610  1.00  0.00     0.248 C 
BRANCH  10  11
ATOM     11  N   UNL A   1      32.891  21.614  25.424  1.00  0.00    -0.220 N 
ATOM     12  N   UNL A   1      34.025  22.362  25.681  1.00  0.00    -0.166 NA
ATOM     13  C   UNL A   1      32.913  20.279  25.039  1.00  0.00     0.267 A 
ATOM     14  C   UNL A   1      35.180  21.804  25.463  1.00  0.00     0.126 A 
ATOM     15  C   UNL A   1      34.248  19.696  24.792  1.00  0.00     0.076 A 
ATOM     16  O   UNL A   1      31.922  19.569  24.893  1.00  0.00    -0.268 OA
ATOM     17  C   UNL A   1      35.351  20.424  24.962  1.00  0.00     0.040 A 
BRANCH  14  18
ATOM     18  C   UNL A   1      36.383  22.541  25.749  1.00  0.00     0.154 A 
ATOM     19  C   UNL A   1      36.601  23.883  25.999  1.00  0.00     0.052 A 
ATOM     20  O   UNL A   1      37.568  21.863  25.814  1.00  0.00    -0.463 OA
ATOM     21  C   UNL A   1      37.990  24.030  26.224  1.00  0.00     0.043 A 
ATOM     22  C   UNL A   1      38.539  22.779  26.070  1.00  0.00     0.196 A 
ENDBRANCH  14  18
ENDBRANCH  10  11
ENDBRANCH   8  10
ENDBRANCH   5   6
BRANCH   5  23
ATOM     23  C   UNL A   1      30.717  26.569  23.957  1.00  0.00    -0.014 A 
ATOM     24  C   UNL A   1      29.475  25.960  24.219  1.00  0.00     0.006 A 
ATOM     25  C   UNL A   1      30.692  27.812  23.291  1.00  0.00     0.006 A 
ATOM     26  C   UNL A   1      28.269  26.598  23.907  1.00  0.00     0.000 A 
ATOM     27  C   UNL A   1      29.487  28.447  22.975  1.00  0.00     0.000 A 
ATOM     28  C   UNL A   1      28.275  27.845  23.293  1.00  0.00     0.000 A 
ENDBRANCH   5  23
ENDBRANCH   3   5
ENDBRANCH   2   3
ENDBRANCH   1   2
BRANCH   1  29
ATOM     29  C   UNL A   1      33.756  28.769  25.691  1.00  0.00     0.275 C 
BRANCH  29  30
ATOM     30  O   UNL A   1      33.958  28.971  27.101  1.00  0.00    -0.458 OA
BRANCH  30  31
ATOM     31  C   UNL A   1      34.475  30.174  27.449  1.00  0.00     0.338 C 
ATOM     32  O   UNL A   1      33.897  31.251  27.431  1.00  0.00    -0.246 OA
BRANCH  31  33
ATOM     33  C   UNL A   1      35.802  29.971  28.064  1.00  0.00     0.060 A 
ATOM     34  C   UNL A   1      36.998  30.086  27.348  1.00  0.00     0.016 A 
ATOM     35  C   UNL A   1      35.827  29.617  29.412  1.00  0.00     0.016 A 
ATOM     36  C   UNL A   1      38.214  29.799  27.981  1.00  0.00     0.010 A 
ATOM     37  C   UNL A   1      37.031  29.301  30.034  1.00  0.00     0.010 A 
ATOM     38  C   UNL A   1      38.232  29.376  29.320  1.00  0.00    -0.014 A 
BRANCH  38  39
ATOM     39  C   UNL A   1      39.497  29.067  30.021  1.00  0.00     0.031 A 
ATOM     40  C   UNL A   1      39.948  29.882  31.196  1.00  0.00     0.074 A 
ATOM     41  C   UNL A   1      40.286  28.095  29.527  1.00  0.00     0.049 A 
ATOM     42  N   UNL A   1      40.997  29.712  31.959  1.00  0.00    -0.248 NA
ATOM     43  C   UNL A   1      39.126  31.048  31.553  1.00  0.00     0.031 C 
ATOM     44  C   UNL A   1      39.986  27.296  28.339  1.00  0.00     0.029 A 
ATOM     45  N   UNL A   1      41.504  27.633  29.948  1.00  0.00    -0.354 N 
ATOM     46  C   UNL A   1      40.946  30.722  32.910  1.00  0.00     0.074 A 
ATOM     47  C   UNL A   1      39.791  31.538  32.592  1.00  0.00     0.031 C 
ATOM     48  C   UNL A   1      41.000  26.443  28.122  1.00  0.00     0.029 A 
ATOM     49  C   UNL A   1      42.014  26.635  29.157  1.00  0.00     0.049 A 
ATOM     50  H   UNL A   1      41.971  27.985  30.742  1.00  0.00     0.167 HD
ATOM     51  C   UNL A   1      41.777  30.932  33.961  1.00  0.00     0.037 A 
ATOM     52  C   UNL A   1      43.162  25.940  29.262  1.00  0.00     0.037 A 
ATOM     53  C   UNL A   1      42.945  30.131  34.242  1.00  0.00     0.049 A 
ATOM     54  C   UNL A   1      44.073  26.194  30.429  1.00  0.00     0.074 A 
ATOM     55  C   UNL A   1      43.809  30.218  35.320  1.00  0.00     0.029 A 
ATOM     56  N   UNL A   1      43.427  29.115  33.429  1.00  0.00    -0.354 N 
ATOM     57  N   UNL A   1      43.946  27.068  31.398  1.00  0.00    -0.248 NA
ATOM     58  C   UNL A   1      45.271  25.349  30.531  1.00  0.00     0.031 C 
ATOM     59  C   UNL A   1      44.841  29.291  35.133  1.00  0.00     0.029 A 
ATOM     60  C   UNL A   1      44.592  28.588  33.966  1.00  0.00     0.049 A 
ATOM     61  H   UNL A   1      43.005  28.813  32.593  1.00  0.00     0.167 HD
ATOM     62  C   UNL A   1      45.033  26.863  32.240  1.00  0.00     0.074 A 
ATOM     63  C   UNL A   1      45.801  25.774  31.671  1.00  0.00     0.031 C 
ATOM     64  C   UNL A   1      45.362  27.514  33.384  1.00  0.00     0.037 A 
BRANCH  51  65
ATOM     65  C   UNL A   1      41.448  32.053  34.909  1.00  0.00     0.058 A 
ATOM     66  C   UNL A   1      41.967  33.344  34.717  1.00  0.00     0.135 A 
ATOM     67  C   UNL A   1      40.531  31.868  35.958  1.00  0.00     0.135 A 
ATOM     68  F   UNL A   1      42.851  33.577  33.734  1.00  0.00    -0.206 F 
ATOM     69  C   UNL A   1      41.600  34.408  35.535  1.00  0.00     0.059 A 
ATOM     70  C   UNL A   1      40.131  32.924  36.775  1.00  0.00     0.059 A 
ATOM     71  F   UNL A   1      40.002  30.657  36.186  1.00  0.00    -0.206 F 
ATOM     72  C   UNL A   1      40.675  34.190  36.557  1.00  0.00     0.060 A 
BRANCH  72  73
ATOM     73  S   UNL A   1      40.182  35.593  37.582  1.00  0.00     0.124 S 
ATOM     74  O   UNL A   1      41.349  35.748  38.446  1.00  0.00    -0.237 OA
ATOM     75  O   UNL A   1      39.985  36.645  36.591  1.00  0.00    -0.237 OA
ATOM     76  O   UNL A   1      38.970  35.123  38.244  1.00  0.00    -0.744 OA
ENDBRANCH  72  73
ENDBRANCH  51  65
BRANCH  52  77
ATOM     77  C   UNL A   1      43.461  24.883  28.265  1.00  0.00     0.058 A 
ATOM     78  C   UNL A   1      43.038  23.563  28.475  1.00  0.00     0.135 A 
ATOM     79  C   UNL A   1      44.113  25.182  27.059  1.00  0.00     0.135 A 
ATOM     80  F   UNL A   1      42.412  23.233  29.615  1.00  0.00    -0.206 F 
ATOM     81  C   UNL A   1      43.249  22.573  27.524  1.00  0.00     0.059 A 
ATOM     82  C   UNL A   1      44.317  24.212  26.082  1.00  0.00     0.059 A 
ATOM     83  F   UNL A   1      44.516  26.436  26.804  1.00  0.00    -0.206 F 
ATOM     84  C   UNL A   1      43.882  22.910  26.325  1.00  0.00     0.060 A 
BRANCH  84  85
ATOM     85  S   UNL A   1      44.071  21.632  25.064  1.00  0.00     0.124 S 
ATOM     86  O   UNL A   1      43.845  22.390  23.840  1.00  0.00    -0.237 OA
ATOM     87  O   UNL A   1      45.439  21.179  25.295  1.00  0.00    -0.237 OA
ATOM     88  O   UNL A   1      43.034  20.664  25.409  1.00  0.00    -0.744 OA
ENDBRANCH  84  85
ENDBRANCH  52  77
BRANCH  64  89
ATOM     89  C   UNL A   1      46.603  27.062  34.105  1.00  0.00     0.058 A 
ATOM     90  C   UNL A   1      47.854  27.644  33.853  1.00  0.00     0.135 A 
ATOM     91  C   UNL A   1      46.534  26.058  35.086  1.00  0.00     0.135 A 
ATOM     92  F   UNL A   1      47.978  28.604  32.922  1.00  0.00    -0.206 F 
ATOM     93  C   UNL A   1      49.000  27.228  34.525  1.00  0.00     0.059 A 
ATOM     94  C   UNL A   1      47.662  25.645  35.790  1.00  0.00     0.059 A 
ATOM     95  F   UNL A   1      45.361  25.474  35.374  1.00  0.00    -0.206 F 
ATOM     96  C   UNL A   1      48.893  26.227  35.492  1.00  0.00     0.060 A 
BRANCH  96  97
ATOM     97  S   UNL A   1      50.386  25.707  36.365  1.00  0.00     0.124 S 
ATOM     98  O   UNL A   1      50.995  26.992  36.695  1.00  0.00    -0.237 OA
ATOM     99  O   UNL A   1      49.843  24.956  37.491  1.00  0.00    -0.237 OA
ATOM    100  O   UNL A   1      51.101  24.910  35.373  1.00  0.00    -0.744 OA
ENDBRANCH  96  97
ENDBRANCH  64  89
ENDBRANCH  38  39
ENDBRANCH  31  33
ENDBRANCH  30  31
ENDBRANCH  29  30
ENDBRANCH   1  29
TORSDOF 19
ENDMDL
