MODEL 1
REMARK VINA RESULT:     -12.1      0.000      0.000
REMARK SMILES CC(C)(C(=O)N1C[C@@H]2c3ccccc3OC[C@]2(C(=O)OCCOC(=O)c2ccc(-c3c4nc(c(-c5c(F)cc(S(=O)(=O)[O-])cc5F)c5ccc([nH]5)c(-c5c(F)cc(S(=O)(=O)[O-])cc5F)c5nc(c(-c6c(F)cc(S(=O)(=O)[O-])cc6F)c6ccc3[nH]6)C=C5)C=C4)cc2)C1)[NH+]1CCOCC1
REMARK SMILES IDX 21 1 20 2 18 3 19 4 17 5 6 6 7 7 92 8 8 9 9 10 16 11 10 12
REMARK SMILES IDX 14 13 15 14 11 15 13 16 12 17 4 18 5 19 2 20 1 21 3 22 93 23
REMARK SMILES IDX 94 24 98 25 95 27 97 28 96 29 22 30 23 31 24 32 25 33 26 34
REMARK SMILES IDX 27 35 91 36 28 37 90 38 29 39 30 40 31 41 84 42 32 43 89 44
REMARK SMILES IDX 83 45 85 46 33 47 88 48 82 49 81 50 34 52 68 53 47 54 67 55
REMARK SMILES IDX 48 56 51 57 66 58 86 59 49 60 50 61 65 63 87 64 52 65 35 66
REMARK SMILES IDX 36 67 45 68 37 69 38 70 44 71 46 72 39 73 40 74 41 75 42 76
REMARK SMILES IDX 43 77 69 78 70 79 79 80 71 81 72 82 78 83 80 84 73 85 74 86
REMARK SMILES IDX 75 87 76 88 77 89 53 90 54 91 63 92 55 93 56 94 62 95 64 96
REMARK SMILES IDX 57 97 58 98 59 99 60 100 61 101
REMARK H PARENT 93 26 85 51 51 62
REMARK Flexibility Score: inf
ROOT
ATOM      1  C   UNL A   1      32.060  29.124  27.248  1.00  0.00     0.274 C 
ENDROOT
BRANCH   1   2
ATOM      2  O   UNL A   1      31.824  28.190  26.179  1.00  0.00    -0.461 OA
BRANCH   2   3
ATOM      3  C   UNL A   1      32.874  27.498  25.633  1.00  0.00     0.318 C 
ATOM      4  O   UNL A   1      33.978  27.379  26.136  1.00  0.00    -0.251 OA
BRANCH   3   5
ATOM      5  C   UNL A   1      32.459  27.048  24.240  1.00  0.00     0.128 C 
ATOM      6  N   UNL A   1      32.493  24.848  23.302  1.00  0.00    -0.335 N 
ATOM      7  C   UNL A   1      31.221  25.458  22.947  1.00  0.00     0.129 C 
ATOM      8  C   UNL A   1      33.242  25.740  24.134  1.00  0.00     0.142 C 
ATOM      9  C   UNL A   1      31.021  26.564  24.010  1.00  0.00     0.065 C 
ATOM     10  C   UNL A   1      30.095  27.626  23.497  1.00  0.00     0.000 A 
ATOM     11  C   UNL A   1      32.856  28.083  23.188  1.00  0.00     0.251 C 
ATOM     12  C   UNL A   1      28.705  27.418  23.497  1.00  0.00     0.008 A 
ATOM     13  C   UNL A   1      30.598  28.824  22.992  1.00  0.00     0.122 A 
ATOM     14  O   UNL A   1      31.923  29.153  23.013  1.00  0.00    -0.492 OA
ATOM     15  C   UNL A   1      27.838  28.397  23.004  1.00  0.00     0.001 A 
ATOM     16  C   UNL A   1      29.730  29.802  22.500  1.00  0.00     0.047 A 
ATOM     17  C   UNL A   1      28.351  29.588  22.501  1.00  0.00     0.004 A 
BRANCH   6  18
ATOM     18  C   UNL A   1      32.906  23.637  22.792  1.00  0.00     0.283 C 
ATOM     19  O   UNL A   1      33.357  23.608  21.640  1.00  0.00    -0.268 OA
BRANCH  18  20
ATOM     20  C   UNL A   1      32.647  22.278  23.601  1.00  0.00     0.171 C 
ATOM     21  C   UNL A   1      31.606  22.273  24.733  1.00  0.00     0.090 C 
ATOM     22  C   UNL A   1      32.023  21.401  22.479  1.00  0.00     0.090 C 
BRANCH  20  23
ATOM     23  N   UNL A   1      33.938  21.635  24.012  1.00  0.00    -0.319 N 
ATOM     24  C   UNL A   1      33.859  20.553  25.017  1.00  0.00     0.291 C 
ATOM     25  C   UNL A   1      35.067  22.518  24.353  1.00  0.00     0.291 C 
ATOM     26  H   UNL A   1      34.147  21.214  23.107  1.00  0.00     0.349 HD
ATOM     27  C   UNL A   1      33.976  21.013  26.489  1.00  0.00     0.221 C 
ATOM     28  C   UNL A   1      35.118  22.959  25.823  1.00  0.00     0.221 C 
ATOM     29  O   UNL A   1      35.132  21.829  26.703  1.00  0.00    -0.370 OA
ENDBRANCH  20  23
ENDBRANCH  18  20
ENDBRANCH   6  18
ENDBRANCH   3   5
ENDBRANCH   2   3
ENDBRANCH   1   2
BRANCH   1  30
ATOM     30  C   UNL A   1      32.494  30.428  26.590  1.00  0.00     0.275 C 
BRANCH  30  31
ATOM     31  O   UNL A   1      33.897  30.550  26.851  1.00  0.00    -0.458 OA
BRANCH  31  32
ATOM     32  C   UNL A   1      34.310  31.600  27.590  1.00  0.00     0.338 C 
ATOM     33  O   UNL A   1      33.765  32.687  27.699  1.00  0.00    -0.246 OA
BRANCH  32  34
ATOM     34  C   UNL A   1      35.577  31.193  28.224  1.00  0.00     0.060 A 
ATOM     35  C   UNL A   1      35.739  29.901  28.705  1.00  0.00     0.016 A 
ATOM     36  C   UNL A   1      36.613  32.121  28.359  1.00  0.00     0.016 A 
ATOM     37  C   UNL A   1      36.916  29.579  29.385  1.00  0.00     0.010 A 
ATOM     38  C   UNL A   1      37.814  31.782  28.961  1.00  0.00     0.010 A 
ATOM     39  C   UNL A   1      37.960  30.519  29.523  1.00  0.00    -0.014 A 
BRANCH  39  40
ATOM     40  C   UNL A   1      39.208  30.163  30.233  1.00  0.00     0.031 A 
ATOM     41  C   UNL A   1      39.489  30.680  31.617  1.00  0.00     0.074 A 
ATOM     42  C   UNL A   1      40.080  29.348  29.612  1.00  0.00     0.049 A 
ATOM     43  N   UNL A   1      40.420  30.304  32.456  1.00  0.00    -0.248 NA
ATOM     44  C   UNL A   1      38.639  31.771  32.123  1.00  0.00     0.031 C 
ATOM     45  C   UNL A   1      39.959  28.891  28.225  1.00  0.00     0.029 A 
ATOM     46  N   UNL A   1      41.210  28.727  30.071  1.00  0.00    -0.354 N 
ATOM     47  C   UNL A   1      40.254  31.092  33.589  1.00  0.00     0.074 A 
ATOM     48  C   UNL A   1      39.187  32.023  33.304  1.00  0.00     0.031 C 
ATOM     49  C   UNL A   1      40.919  27.987  27.977  1.00  0.00     0.029 A 
ATOM     50  C   UNL A   1      41.730  27.820  29.179  1.00  0.00     0.049 A 
ATOM     51  H   UNL A   1      41.610  28.911  30.953  1.00  0.00     0.167 HD
ATOM     52  C   UNL A   1      40.907  31.016  34.772  1.00  0.00     0.037 A 
ATOM     53  C   UNL A   1      42.718  26.919  29.333  1.00  0.00     0.037 A 
ATOM     54  C   UNL A   1      41.960  30.070  35.038  1.00  0.00     0.049 A 
ATOM     55  C   UNL A   1      43.395  26.812  30.670  1.00  0.00     0.074 A 
ATOM     56  C   UNL A   1      42.658  29.863  36.213  1.00  0.00     0.029 A 
ATOM     57  N   UNL A   1      42.463  29.170  34.109  1.00  0.00    -0.354 N 
ATOM     58  N   UNL A   1      43.159  27.491  31.768  1.00  0.00    -0.248 NA
ATOM     59  C   UNL A   1      44.462  25.812  30.796  1.00  0.00     0.031 C 
ATOM     60  C   UNL A   1      43.606  28.862  35.986  1.00  0.00     0.029 A 
ATOM     61  C   UNL A   1      43.472  28.415  34.680  1.00  0.00     0.049 A 
ATOM     62  H   UNL A   1      42.148  29.083  33.180  1.00  0.00     0.167 HD
ATOM     63  C   UNL A   1      44.040  26.992  32.720  1.00  0.00     0.074 A 
ATOM     64  C   UNL A   1      44.798  25.940  32.073  1.00  0.00     0.031 C 
ATOM     65  C   UNL A   1      44.211  27.373  34.010  1.00  0.00     0.037 A 
BRANCH  52  66
ATOM     66  C   UNL A   1      40.480  31.947  35.874  1.00  0.00     0.058 A 
ATOM     67  C   UNL A   1      39.304  31.718  36.606  1.00  0.00     0.135 A 
ATOM     68  C   UNL A   1      41.269  33.049  36.240  1.00  0.00     0.135 A 
ATOM     69  F   UNL A   1      38.503  30.685  36.293  1.00  0.00    -0.206 F 
ATOM     70  C   UNL A   1      38.911  32.559  37.641  1.00  0.00     0.059 A 
ATOM     71  C   UNL A   1      40.910  33.892  37.291  1.00  0.00     0.059 A 
ATOM     72  F   UNL A   1      42.406  33.317  35.577  1.00  0.00    -0.206 F 
ATOM     73  C   UNL A   1      39.722  33.644  37.978  1.00  0.00     0.060 A 
BRANCH  73  74
ATOM     74  S   UNL A   1      39.199  34.719  39.331  1.00  0.00     0.124 S 
ATOM     75  O   UNL A   1      39.051  36.000  38.648  1.00  0.00    -0.237 OA
ATOM     76  O   UNL A   1      37.958  34.088  39.768  1.00  0.00    -0.237 OA
ATOM     77  O   UNL A   1      40.307  34.640  40.278  1.00  0.00    -0.744 OA
ENDBRANCH  73  74
ENDBRANCH  52  66
BRANCH  53  78
ATOM     78  C   UNL A   1      43.053  26.002  28.213  1.00  0.00     0.058 A 
ATOM     79  C   UNL A   1      44.008  26.362  27.251  1.00  0.00     0.135 A 
ATOM     80  C   UNL A   1      42.470  24.730  28.114  1.00  0.00     0.135 A 
ATOM     81  F   UNL A   1      44.597  27.566  27.306  1.00  0.00    -0.206 F 
ATOM     82  C   UNL A   1      44.368  25.497  26.224  1.00  0.00     0.059 A 
ATOM     83  C   UNL A   1      42.831  23.838  27.109  1.00  0.00     0.059 A 
ATOM     84  F   UNL A   1      41.571  24.330  29.027  1.00  0.00    -0.206 F 
ATOM     85  C   UNL A   1      43.776  24.233  26.164  1.00  0.00     0.060 A 
BRANCH  85  86
ATOM     86  S   UNL A   1      44.291  23.098  24.858  1.00  0.00     0.124 S 
ATOM     87  O   UNL A   1      45.292  23.893  24.155  1.00  0.00    -0.237 OA
ATOM     88  O   UNL A   1      44.798  21.962  25.622  1.00  0.00    -0.237 OA
ATOM     89  O   UNL A   1      43.053  22.847  24.123  1.00  0.00    -0.744 OA
ENDBRANCH  85  86
ENDBRANCH  53  78
BRANCH  65  90
ATOM     90  C   UNL A   1      45.257  26.652  34.809  1.00  0.00     0.058 A 
ATOM     91  C   UNL A   1      46.569  27.143  34.901  1.00  0.00     0.135 A 
ATOM     92  C   UNL A   1      44.924  25.512  35.558  1.00  0.00     0.135 A 
ATOM     93  F   UNL A   1      46.936  28.226  34.200  1.00  0.00    -0.206 F 
ATOM     94  C   UNL A   1      47.518  26.521  35.703  1.00  0.00     0.059 A 
ATOM     95  C   UNL A   1      45.852  24.889  36.385  1.00  0.00     0.059 A 
ATOM     96  F   UNL A   1      43.680  25.011  35.510  1.00  0.00    -0.206 F 
ATOM     97  C   UNL A   1      47.149  25.399  36.447  1.00  0.00     0.060 A 
BRANCH  97  98
ATOM     98  S   UNL A   1      48.378  24.640  37.527  1.00  0.00     0.124 S 
ATOM     99  O   UNL A   1      49.548  25.477  37.277  1.00  0.00    -0.237 OA
ATOM    100  O   UNL A   1      47.766  24.783  38.844  1.00  0.00    -0.237 OA
ATOM    101  O   UNL A   1      48.470  23.270  37.030  1.00  0.00    -0.744 OA
ENDBRANCH  97  98
ENDBRANCH  65  90
ENDBRANCH  39  40
ENDBRANCH  32  34
ENDBRANCH  31  32
ENDBRANCH  30  31
ENDBRANCH   1  30
TORSDOF 17
ENDMDL
MODEL 2
REMARK VINA RESULT:     -12.1      2.796      8.669
REMARK SMILES CC(C)(C(=O)N1C[C@@H]2c3ccccc3OC[C@]2(C(=O)OCCOC(=O)c2ccc(-c3c4nc(c(-c5c(F)cc(S(=O)(=O)[O-])cc5F)c5ccc([nH]5)c(-c5c(F)cc(S(=O)(=O)[O-])cc5F)c5nc(c(-c6c(F)cc(S(=O)(=O)[O-])cc6F)c6ccc3[nH]6)C=C5)C=C4)cc2)C1)[NH+]1CCOCC1
REMARK SMILES IDX 21 1 20 2 18 3 19 4 17 5 6 6 7 7 92 8 8 9 9 10 16 11 10 12
REMARK SMILES IDX 14 13 15 14 11 15 13 16 12 17 4 18 5 19 2 20 1 21 3 22 93 23
REMARK SMILES IDX 94 24 98 25 95 27 97 28 96 29 22 30 23 31 24 32 25 33 26 34
REMARK SMILES IDX 27 35 91 36 28 37 90 38 29 39 30 40 31 41 84 42 32 43 89 44
REMARK SMILES IDX 83 45 85 46 33 47 88 48 82 49 81 50 34 52 68 53 47 54 67 55
REMARK SMILES IDX 48 56 51 57 66 58 86 59 49 60 50 61 65 63 87 64 52 65 35 66
REMARK SMILES IDX 36 67 45 68 37 69 38 70 44 71 46 72 39 73 40 74 41 75 42 76
REMARK SMILES IDX 43 77 69 78 70 79 79 80 71 81 72 82 78 83 80 84 73 85 74 86
REMARK SMILES IDX 75 87 76 88 77 89 53 90 54 91 63 92 55 93 56 94 62 95 64 96
REMARK SMILES IDX 57 97 58 98 59 99 60 100 61 101
REMARK H PARENT 93 26 85 51 51 62
REMARK Flexibility Score: inf
ROOT
ATOM      1  C   UNL A   1      37.974  22.894  24.982  1.00  0.00     0.274 C 
ENDROOT
BRANCH   1   2
ATOM      2  O   UNL A   1      36.667  23.486  24.867  1.00  0.00    -0.461 OA
BRANCH   2   3
ATOM      3  C   UNL A   1      35.745  22.942  24.011  1.00  0.00     0.318 C 
ATOM      4  O   UNL A   1      35.806  22.976  22.794  1.00  0.00    -0.251 OA
BRANCH   3   5
ATOM      5  C   UNL A   1      34.579  22.434  24.846  1.00  0.00     0.128 C 
ATOM      6  N   UNL A   1      32.673  23.635  25.650  1.00  0.00    -0.335 N 
ATOM      7  C   UNL A   1      32.201  22.366  25.115  1.00  0.00     0.129 C 
ATOM      8  C   UNL A   1      34.086  23.748  25.450  1.00  0.00     0.142 C 
ATOM      9  C   UNL A   1      33.316  21.929  24.136  1.00  0.00     0.065 C 
ATOM     10  C   UNL A   1      33.284  20.444  23.932  1.00  0.00     0.000 A 
ATOM     11  C   UNL A   1      35.053  21.424  25.891  1.00  0.00     0.251 C 
ATOM     12  C   UNL A   1      32.339  19.866  23.065  1.00  0.00     0.008 A 
ATOM     13  C   UNL A   1      34.172  19.614  24.612  1.00  0.00     0.122 A 
ATOM     14  O   UNL A   1      35.172  20.079  25.417  1.00  0.00    -0.492 OA
ATOM     15  C   UNL A   1      32.293  18.482  22.884  1.00  0.00     0.001 A 
ATOM     16  C   UNL A   1      34.125  18.229  24.429  1.00  0.00     0.047 A 
ATOM     17  C   UNL A   1      33.184  17.662  23.569  1.00  0.00     0.004 A 
BRANCH   6  18
ATOM     18  C   UNL A   1      31.854  24.506  26.334  1.00  0.00     0.283 C 
ATOM     19  O   UNL A   1      31.240  24.081  27.322  1.00  0.00    -0.268 OA
BRANCH  18  20
ATOM     20  C   UNL A   1      31.568  25.976  25.766  1.00  0.00     0.171 C 
ATOM     21  C   UNL A   1      31.676  26.222  24.252  1.00  0.00     0.090 C 
ATOM     22  C   UNL A   1      30.051  26.108  26.085  1.00  0.00     0.090 C 
BRANCH  20  23
ATOM     23  N   UNL A   1      32.291  27.018  26.565  1.00  0.00    -0.319 N 
ATOM     24  C   UNL A   1      31.557  28.269  26.856  1.00  0.00     0.291 C 
ATOM     25  C   UNL A   1      33.668  27.358  26.166  1.00  0.00     0.291 C 
ATOM     26  H   UNL A   1      32.352  26.477  27.427  1.00  0.00     0.349 HD
ATOM     27  C   UNL A   1      31.732  29.393  25.809  1.00  0.00     0.221 C 
ATOM     28  C   UNL A   1      33.776  28.465  25.108  1.00  0.00     0.221 C 
ATOM     29  O   UNL A   1      33.111  29.659  25.536  1.00  0.00    -0.370 OA
ENDBRANCH  20  23
ENDBRANCH  18  20
ENDBRANCH   6  18
ENDBRANCH   3   5
ENDBRANCH   2   3
ENDBRANCH   1   2
BRANCH   1  30
ATOM     30  C   UNL A   1      38.434  23.145  26.413  1.00  0.00     0.275 C 
BRANCH  30  31
ATOM     31  O   UNL A   1      38.912  24.495  26.439  1.00  0.00    -0.458 OA
BRANCH  31  32
ATOM     32  C   UNL A   1      40.224  24.692  26.679  1.00  0.00     0.338 C 
ATOM     33  O   UNL A   1      41.166  24.133  26.140  1.00  0.00    -0.246 OA
BRANCH  32  34
ATOM     34  C   UNL A   1      40.307  25.700  27.751  1.00  0.00     0.060 A 
ATOM     35  C   UNL A   1      39.371  25.716  28.776  1.00  0.00     0.016 A 
ATOM     36  C   UNL A   1      41.324  26.658  27.723  1.00  0.00     0.016 A 
ATOM     37  C   UNL A   1      39.424  26.744  29.720  1.00  0.00     0.010 A 
ATOM     38  C   UNL A   1      41.429  27.631  28.704  1.00  0.00     0.010 A 
ATOM     39  C   UNL A   1      40.451  27.712  29.688  1.00  0.00    -0.014 A 
BRANCH  39  40
ATOM     40  C   UNL A   1      40.505  28.787  30.702  1.00  0.00     0.031 A 
ATOM     41  C   UNL A   1      39.513  29.918  30.689  1.00  0.00     0.074 A 
ATOM     42  C   UNL A   1      41.459  28.719  31.648  1.00  0.00     0.049 A 
ATOM     43  N   UNL A   1      39.288  30.818  31.613  1.00  0.00    -0.248 NA
ATOM     44  C   UNL A   1      38.680  30.081  29.486  1.00  0.00     0.031 C 
ATOM     45  C   UNL A   1      42.542  27.732  31.677  1.00  0.00     0.029 A 
ATOM     46  N   UNL A   1      41.650  29.458  32.785  1.00  0.00    -0.354 N 
ATOM     47  C   UNL A   1      38.280  31.634  31.113  1.00  0.00     0.074 A 
ATOM     48  C   UNL A   1      37.990  31.176  29.774  1.00  0.00     0.031 C 
ATOM     49  C   UNL A   1      43.224  27.867  32.824  1.00  0.00     0.029 A 
ATOM     50  C   UNL A   1      42.639  28.958  33.596  1.00  0.00     0.049 A 
ATOM     51  H   UNL A   1      41.129  30.267  32.999  1.00  0.00     0.167 HD
ATOM     52  C   UNL A   1      37.629  32.646  31.733  1.00  0.00     0.037 A 
ATOM     53  C   UNL A   1      42.998  29.309  34.845  1.00  0.00     0.037 A 
ATOM     54  C   UNL A   1      37.927  33.077  33.075  1.00  0.00     0.049 A 
ATOM     55  C   UNL A   1      42.229  30.398  35.538  1.00  0.00     0.074 A 
ATOM     56  C   UNL A   1      37.301  34.054  33.826  1.00  0.00     0.029 A 
ATOM     57  N   UNL A   1      38.939  32.549  33.864  1.00  0.00    -0.354 N 
ATOM     58  N   UNL A   1      41.209  31.093  35.094  1.00  0.00    -0.248 NA
ATOM     59  C   UNL A   1      42.650  30.744  36.901  1.00  0.00     0.031 C 
ATOM     60  C   UNL A   1      37.956  34.141  35.058  1.00  0.00     0.029 A 
ATOM     61  C   UNL A   1      38.965  33.189  35.091  1.00  0.00     0.049 A 
ATOM     62  H   UNL A   1      39.549  31.826  33.592  1.00  0.00     0.167 HD
ATOM     63  C   UNL A   1      40.856  31.952  36.129  1.00  0.00     0.074 A 
ATOM     64  C   UNL A   1      41.760  31.672  37.227  1.00  0.00     0.031 C 
ATOM     65  C   UNL A   1      39.878  32.890  36.166  1.00  0.00     0.037 A 
BRANCH  52  66
ATOM     66  C   UNL A   1      36.514  33.328  30.988  1.00  0.00     0.058 A 
ATOM     67  C   UNL A   1      35.175  33.176  31.383  1.00  0.00     0.135 A 
ATOM     68  C   UNL A   1      36.780  34.179  29.903  1.00  0.00     0.135 A 
ATOM     69  F   UNL A   1      34.860  32.365  32.407  1.00  0.00    -0.206 F 
ATOM     70  C   UNL A   1      34.138  33.820  30.716  1.00  0.00     0.059 A 
ATOM     71  C   UNL A   1      35.760  34.856  29.236  1.00  0.00     0.059 A 
ATOM     72  F   UNL A   1      38.041  34.365  29.482  1.00  0.00    -0.206 F 
ATOM     73  C   UNL A   1      34.441  34.659  29.643  1.00  0.00     0.060 A 
BRANCH  73  74
ATOM     74  S   UNL A   1      33.081  35.493  28.797  1.00  0.00     0.124 S 
ATOM     75  O   UNL A   1      33.797  36.481  27.996  1.00  0.00    -0.237 OA
ATOM     76  O   UNL A   1      32.462  34.402  28.051  1.00  0.00    -0.237 OA
ATOM     77  O   UNL A   1      32.280  36.036  29.889  1.00  0.00    -0.744 OA
ENDBRANCH  73  74
ENDBRANCH  52  66
BRANCH  53  78
ATOM     78  C   UNL A   1      44.080  28.558  35.533  1.00  0.00     0.058 A 
ATOM     79  C   UNL A   1      43.787  27.435  36.320  1.00  0.00     0.135 A 
ATOM     80  C   UNL A   1      45.428  28.913  35.374  1.00  0.00     0.135 A 
ATOM     81  F   UNL A   1      42.513  27.054  36.498  1.00  0.00    -0.206 F 
ATOM     82  C   UNL A   1      44.791  26.694  36.934  1.00  0.00     0.059 A 
ATOM     83  C   UNL A   1      46.452  28.174  35.959  1.00  0.00     0.059 A 
ATOM     84  F   UNL A   1      45.761  29.964  34.609  1.00  0.00    -0.206 F 
ATOM     85  C   UNL A   1      46.122  27.069  36.743  1.00  0.00     0.060 A 
BRANCH  85  86
ATOM     86  S   UNL A   1      47.420  26.066  37.499  1.00  0.00     0.124 S 
ATOM     87  O   UNL A   1      48.108  25.542  36.326  1.00  0.00    -0.237 OA
ATOM     88  O   UNL A   1      48.154  27.056  38.282  1.00  0.00    -0.237 OA
ATOM     89  O   UNL A   1      46.672  25.087  38.284  1.00  0.00    -0.744 OA
ENDBRANCH  85  86
ENDBRANCH  53  78
BRANCH  65  90
ATOM     90  C   UNL A   1      39.733  33.686  37.430  1.00  0.00     0.058 A 
ATOM     91  C   UNL A   1      40.407  34.904  37.605  1.00  0.00     0.135 A 
ATOM     92  C   UNL A   1      38.847  33.270  38.437  1.00  0.00     0.135 A 
ATOM     93  F   UNL A   1      41.267  35.340  36.673  1.00  0.00    -0.206 F 
ATOM     94  C   UNL A   1      40.213  35.680  38.742  1.00  0.00     0.059 A 
ATOM     95  C   UNL A   1      38.620  34.043  39.571  1.00  0.00     0.059 A 
ATOM     96  F   UNL A   1      38.173  32.116  38.311  1.00  0.00    -0.206 F 
ATOM     97  C   UNL A   1      39.312  35.246  39.716  1.00  0.00     0.060 A 
BRANCH  97  98
ATOM     98  S   UNL A   1      39.030  36.295  41.156  1.00  0.00     0.124 S 
ATOM     99  O   UNL A   1      37.905  35.620  41.796  1.00  0.00    -0.237 OA
ATOM    100  O   UNL A   1      40.305  36.206  41.860  1.00  0.00    -0.237 OA
ATOM    101  O   UNL A   1      38.730  37.600  40.574  1.00  0.00    -0.744 OA
ENDBRANCH  97  98
ENDBRANCH  65  90
ENDBRANCH  39  40
ENDBRANCH  32  34
ENDBRANCH  31  32
ENDBRANCH  30  31
ENDBRANCH   1  30
TORSDOF 17
ENDMDL
MODEL 3
REMARK VINA RESULT:     -11.7      2.887      7.089
REMARK SMILES CC(C)(C(=O)N1C[C@@H]2c3ccccc3OC[C@]2(C(=O)OCCOC(=O)c2ccc(-c3c4nc(c(-c5c(F)cc(S(=O)(=O)[O-])cc5F)c5ccc([nH]5)c(-c5c(F)cc(S(=O)(=O)[O-])cc5F)c5nc(c(-c6c(F)cc(S(=O)(=O)[O-])cc6F)c6ccc3[nH]6)C=C5)C=C4)cc2)C1)[NH+]1CCOCC1
REMARK SMILES IDX 21 1 20 2 18 3 19 4 17 5 6 6 7 7 92 8 8 9 9 10 16 11 10 12
REMARK SMILES IDX 14 13 15 14 11 15 13 16 12 17 4 18 5 19 2 20 1 21 3 22 93 23
REMARK SMILES IDX 94 24 98 25 95 27 97 28 96 29 22 30 23 31 24 32 25 33 26 34
REMARK SMILES IDX 27 35 91 36 28 37 90 38 29 39 30 40 31 41 84 42 32 43 89 44
REMARK SMILES IDX 83 45 85 46 33 47 88 48 82 49 81 50 34 52 68 53 47 54 67 55
REMARK SMILES IDX 48 56 51 57 66 58 86 59 49 60 50 61 65 63 87 64 52 65 35 66
REMARK SMILES IDX 36 67 45 68 37 69 38 70 44 71 46 72 39 73 40 74 41 75 42 76
REMARK SMILES IDX 43 77 69 78 70 79 79 80 71 81 72 82 78 83 80 84 73 85 74 86
REMARK SMILES IDX 75 87 76 88 77 89 53 90 54 91 63 92 55 93 56 94 62 95 64 96
REMARK SMILES IDX 57 97 58 98 59 99 60 100 61 101
REMARK H PARENT 93 26 85 51 51 62
REMARK Flexibility Score: inf
ROOT
ATOM      1  C   UNL A   1      35.975  23.760  26.482  1.00  0.00     0.274 C 
ENDROOT
BRANCH   1   2
ATOM      2  O   UNL A   1      34.656  23.745  25.908  1.00  0.00    -0.461 OA
BRANCH   2   3
ATOM      3  C   UNL A   1      34.179  24.857  25.263  1.00  0.00     0.318 C 
ATOM      4  O   UNL A   1      34.340  26.008  25.630  1.00  0.00    -0.251 OA
BRANCH   3   5
ATOM      5  C   UNL A   1      33.300  24.385  24.114  1.00  0.00     0.128 C 
ATOM      6  N   UNL A   1      32.519  22.178  23.629  1.00  0.00    -0.335 N 
ATOM      7  C   UNL A   1      31.396  23.088  23.464  1.00  0.00     0.129 C 
ATOM      8  C   UNL A   1      33.667  22.903  24.083  1.00  0.00     0.142 C 
ATOM      9  C   UNL A   1      31.781  24.322  24.314  1.00  0.00     0.065 C 
ATOM     10  C   UNL A   1      31.051  25.540  23.832  1.00  0.00     0.000 A 
ATOM     11  C   UNL A   1      33.646  25.125  22.821  1.00  0.00     0.251 C 
ATOM     12  C   UNL A   1      29.707  25.752  24.189  1.00  0.00     0.008 A 
ATOM     13  C   UNL A   1      31.684  26.468  23.007  1.00  0.00     0.122 A 
ATOM     14  O   UNL A   1      33.003  26.393  22.663  1.00  0.00    -0.492 OA
ATOM     15  C   UNL A   1      29.017  26.876  23.729  1.00  0.00     0.001 A 
ATOM     16  C   UNL A   1      30.992  27.593  22.549  1.00  0.00     0.047 A 
ATOM     17  C   UNL A   1      29.658  27.795  22.905  1.00  0.00     0.004 A 
BRANCH   6  18
ATOM     18  C   UNL A   1      32.457  20.847  23.279  1.00  0.00     0.283 C 
ATOM     19  O   UNL A   1      31.870  20.542  22.233  1.00  0.00    -0.268 OA
BRANCH  18  20
ATOM     20  C   UNL A   1      32.974  19.712  24.285  1.00  0.00     0.171 C 
ATOM     21  C   UNL A   1      34.471  19.651  24.631  1.00  0.00     0.090 C 
ATOM     22  C   UNL A   1      32.277  20.166  25.599  1.00  0.00     0.090 C 
BRANCH  20  23
ATOM     23  N   UNL A   1      32.420  18.368  23.921  1.00  0.00    -0.319 N 
ATOM     24  C   UNL A   1      32.169  17.422  25.030  1.00  0.00     0.291 C 
ATOM     25  C   UNL A   1      33.058  17.639  22.811  1.00  0.00     0.291 C 
ATOM     26  H   UNL A   1      31.519  18.706  23.581  1.00  0.00     0.349 HD
ATOM     27  C   UNL A   1      33.354  16.494  25.383  1.00  0.00     0.221 C 
ATOM     28  C   UNL A   1      34.242  16.752  23.221  1.00  0.00     0.221 C 
ATOM     29  O   UNL A   1      33.860  15.812  24.232  1.00  0.00    -0.370 OA
ENDBRANCH  20  23
ENDBRANCH  18  20
ENDBRANCH   6  18
ENDBRANCH   3   5
ENDBRANCH   2   3
ENDBRANCH   1   2
BRANCH   1  30
ATOM     30  C   UNL A   1      36.874  23.004  25.512  1.00  0.00     0.275 C 
BRANCH  30  31
ATOM     31  O   UNL A   1      38.065  23.791  25.388  1.00  0.00    -0.458 OA
BRANCH  31  32
ATOM     32  C   UNL A   1      39.120  23.459  26.160  1.00  0.00     0.338 C 
ATOM     33  O   UNL A   1      39.670  22.372  26.231  1.00  0.00    -0.246 OA
BRANCH  32  34
ATOM     34  C   UNL A   1      39.468  24.664  26.935  1.00  0.00     0.060 A 
ATOM     35  C   UNL A   1      40.236  25.669  26.365  1.00  0.00     0.016 A 
ATOM     36  C   UNL A   1      39.036  24.784  28.259  1.00  0.00     0.016 A 
ATOM     37  C   UNL A   1      40.627  26.750  27.159  1.00  0.00     0.010 A 
ATOM     38  C   UNL A   1      39.352  25.894  29.025  1.00  0.00     0.010 A 
ATOM     39  C   UNL A   1      40.191  26.868  28.497  1.00  0.00    -0.014 A 
BRANCH  39  40
ATOM     40  C   UNL A   1      40.599  28.025  29.324  1.00  0.00     0.031 A 
ATOM     41  C   UNL A   1      39.699  29.218  29.488  1.00  0.00     0.074 A 
ATOM     42  C   UNL A   1      41.794  27.973  29.939  1.00  0.00     0.049 A 
ATOM     43  N   UNL A   1      39.807  30.212  30.333  1.00  0.00    -0.248 NA
ATOM     44  C   UNL A   1      38.544  29.331  28.582  1.00  0.00     0.031 C 
ATOM     45  C   UNL A   1      42.792  26.917  29.747  1.00  0.00     0.029 A 
ATOM     46  N   UNL A   1      42.356  28.797  30.877  1.00  0.00    -0.354 N 
ATOM     47  C   UNL A   1      38.728  31.050  30.074  1.00  0.00     0.074 A 
ATOM     48  C   UNL A   1      38.022  30.495  28.943  1.00  0.00     0.031 C 
ATOM     49  C   UNL A   1      43.799  27.106  30.613  1.00  0.00     0.029 A 
ATOM     50  C   UNL A   1      43.525  28.302  31.402  1.00  0.00     0.049 A 
ATOM     51  H   UNL A   1      41.961  29.658  31.150  1.00  0.00     0.167 HD
ATOM     52  C   UNL A   1      38.342  32.159  30.748  1.00  0.00     0.037 A 
ATOM     53  C   UNL A   1      44.266  28.738  32.438  1.00  0.00     0.037 A 
ATOM     54  C   UNL A   1      39.056  32.687  31.882  1.00  0.00     0.049 A 
ATOM     55  C   UNL A   1      43.793  29.939  33.208  1.00  0.00     0.074 A 
ATOM     56  C   UNL A   1      38.733  33.772  32.676  1.00  0.00     0.029 A 
ATOM     57  N   UNL A   1      40.239  32.162  32.382  1.00  0.00    -0.354 N 
ATOM     58  N   UNL A   1      42.715  30.663  33.020  1.00  0.00    -0.248 NA
ATOM     59  C   UNL A   1      44.627  30.376  34.334  1.00  0.00     0.031 C 
ATOM     60  C   UNL A   1      39.738  33.923  33.636  1.00  0.00     0.029 A 
ATOM     61  C   UNL A   1      40.667  32.907  33.466  1.00  0.00     0.049 A 
ATOM     62  H   UNL A   1      40.705  31.375  32.019  1.00  0.00     0.167 HD
ATOM     63  C   UNL A   1      42.733  31.636  34.013  1.00  0.00     0.074 A 
ATOM     64  C   UNL A   1      43.919  31.393  34.810  1.00  0.00     0.031 C 
ATOM     65  C   UNL A   1      41.854  32.642  34.241  1.00  0.00     0.037 A 
BRANCH  52  66
ATOM     66  C   UNL A   1      37.081  32.850  30.305  1.00  0.00     0.058 A 
ATOM     67  C   UNL A   1      35.863  32.636  30.969  1.00  0.00     0.135 A 
ATOM     68  C   UNL A   1      37.091  33.769  29.243  1.00  0.00     0.135 A 
ATOM     69  F   UNL A   1      35.790  31.760  31.985  1.00  0.00    -0.206 F 
ATOM     70  C   UNL A   1      34.695  33.287  30.583  1.00  0.00     0.059 A 
ATOM     71  C   UNL A   1      35.940  34.452  28.854  1.00  0.00     0.059 A 
ATOM     72  F   UNL A   1      38.228  34.014  28.572  1.00  0.00    -0.206 F 
ATOM     73  C   UNL A   1      34.744  34.194  29.523  1.00  0.00     0.060 A 
BRANCH  73  74
ATOM     74  S   UNL A   1      33.220  35.035  29.044  1.00  0.00     0.124 S 
ATOM     75  O   UNL A   1      33.734  36.301  28.529  1.00  0.00    -0.237 OA
ATOM     76  O   UNL A   1      32.663  34.126  28.047  1.00  0.00    -0.237 OA
ATOM     77  O   UNL A   1      32.471  35.126  30.293  1.00  0.00    -0.744 OA
ENDBRANCH  73  74
ENDBRANCH  52  66
BRANCH  53  78
ATOM     78  C   UNL A   1      45.475  27.977  32.845  1.00  0.00     0.058 A 
ATOM     79  C   UNL A   1      45.381  26.912  33.752  1.00  0.00     0.135 A 
ATOM     80  C   UNL A   1      46.734  28.261  32.296  1.00  0.00     0.135 A 
ATOM     81  F   UNL A   1      44.198  26.598  34.301  1.00  0.00    -0.206 F 
ATOM     82  C   UNL A   1      46.495  26.159  34.109  1.00  0.00     0.059 A 
ATOM     83  C   UNL A   1      47.858  27.508  32.619  1.00  0.00     0.059 A 
ATOM     84  F   UNL A   1      46.869  29.254  31.403  1.00  0.00    -0.206 F 
ATOM     85  C   UNL A   1      47.730  26.463  33.532  1.00  0.00     0.060 A 
BRANCH  85  86
ATOM     86  S   UNL A   1      49.158  25.444  33.960  1.00  0.00     0.124 S 
ATOM     87  O   UNL A   1      49.521  25.980  35.266  1.00  0.00    -0.237 OA
ATOM     88  O   UNL A   1      48.587  24.100  33.957  1.00  0.00    -0.237 OA
ATOM     89  O   UNL A   1      50.102  25.717  32.880  1.00  0.00    -0.744 OA
ENDBRANCH  85  86
ENDBRANCH  53  78
BRANCH  65  90
ATOM     90  C   UNL A   1      42.137  33.558  35.396  1.00  0.00     0.058 A 
ATOM     91  C   UNL A   1      42.899  34.725  35.230  1.00  0.00     0.135 A 
ATOM     92  C   UNL A   1      41.572  33.312  36.658  1.00  0.00     0.135 A 
ATOM     93  F   UNL A   1      43.464  34.999  34.044  1.00  0.00    -0.206 F 
ATOM     94  C   UNL A   1      43.098  35.614  36.279  1.00  0.00     0.059 A 
ATOM     95  C   UNL A   1      41.738  34.201  37.714  1.00  0.00     0.059 A 
ATOM     96  F   UNL A   1      40.828  32.214  36.863  1.00  0.00    -0.206 F 
ATOM     97  C   UNL A   1      42.507  35.348  37.516  1.00  0.00     0.060 A 
BRANCH  97  98
ATOM     98  S   UNL A   1      42.726  36.542  38.850  1.00  0.00     0.124 S 
ATOM     99  O   UNL A   1      43.163  35.684  39.946  1.00  0.00    -0.237 OA
ATOM    100  O   UNL A   1      43.741  37.437  38.301  1.00  0.00    -0.237 OA
ATOM    101  O   UNL A   1      41.398  37.129  39.004  1.00  0.00    -0.744 OA
ENDBRANCH  97  98
ENDBRANCH  65  90
ENDBRANCH  39  40
ENDBRANCH  32  34
ENDBRANCH  31  32
ENDBRANCH  30  31
ENDBRANCH   1  30
TORSDOF 17
ENDMDL
