MODEL 1
REMARK VINA RESULT:     -10.5      0.000      0.000
REMARK SMILES CC(C)[C@@H]1CCCN1C(=O)N1CCO[C@H](CC(=O)OCCOC(=O)c2ccc(-c3c4nc(c(-c5c(F)cc(S(=O)(=O)[O-])cc5F)c5ccc([nH]5)c(-c5c(F)cc(S(=O)(=O)[O-])cc5F)c5nc(c(-c6c(F)cc(S(=O)(=O)[O-])cc6F)c6ccc3[nH]6)C=C5)C=C4)cc2)C1
REMARK SMILES IDX 20 1 19 2 17 3 18 4 16 5 15 6 11 7 12 8 91 9 13 10 14 11
REMARK SMILES IDX 9 12 10 13 8 14 4 15 5 16 6 17 7 18 2 19 1 20 3 21 21 22
REMARK SMILES IDX 22 23 23 24 24 25 25 26 26 27 90 28 27 29 89 30 28 31 29 32
REMARK SMILES IDX 30 33 83 34 31 35 88 36 82 37 84 38 32 39 87 40 81 41 80 42
REMARK SMILES IDX 33 44 67 45 46 46 66 47 47 48 50 49 65 50 85 51 48 52 49 53
REMARK SMILES IDX 64 55 86 56 51 57 34 58 35 59 44 60 36 61 37 62 43 63 45 64
REMARK SMILES IDX 38 65 39 66 40 67 41 68 42 69 68 70 69 71 78 72 70 73 71 74
REMARK SMILES IDX 77 75 79 76 72 77 73 78 74 79 75 80 76 81 52 82 53 83 62 84
REMARK SMILES IDX 54 85 55 86 61 87 63 88 56 89 57 90 58 91 59 92 60 93
REMARK H PARENT 84 43 50 54
REMARK Flexibility Score: inf
ROOT
ATOM      1  C   UNL A   1      33.629  27.732  26.127  1.00  0.00     0.274 C 
ENDROOT
BRANCH   1   2
ATOM      2  O   UNL A   1      33.239  28.266  24.851  1.00  0.00    -0.462 OA
BRANCH   2   3
ATOM      3  C   UNL A   1      31.907  28.294  24.631  1.00  0.00     0.308 C 
ATOM      4  O   UNL A   1      31.245  29.322  24.509  1.00  0.00    -0.252 OA
BRANCH   3   5
ATOM      5  C   UNL A   1      31.239  26.964  24.734  1.00  0.00     0.156 C 
BRANCH   5   6
ATOM      6  C   UNL A   1      30.898  26.064  23.542  1.00  0.00     0.149 C 
ATOM      7  N   UNL A   1      32.371  24.334  24.333  1.00  0.00    -0.320 N 
ATOM      8  C   UNL A   1      33.092  24.253  23.076  1.00  0.00     0.150 C 
ATOM      9  C   UNL A   1      30.958  24.626  24.087  1.00  0.00     0.154 C 
ATOM     10  C   UNL A   1      32.977  25.589  22.329  1.00  0.00     0.182 C 
ATOM     11  O   UNL A   1      31.666  26.170  22.335  1.00  0.00    -0.374 OA
BRANCH   7  12
ATOM     12  C   UNL A   1      32.698  23.580  25.426  1.00  0.00     0.320 C 
ATOM     13  O   UNL A   1      32.651  24.073  26.553  1.00  0.00    -0.248 OA
BRANCH  12  14
ATOM     14  N   UNL A   1      33.228  22.318  25.196  1.00  0.00    -0.321 N 
ATOM     15  C   UNL A   1      34.580  21.724  25.357  1.00  0.00     0.089 C 
ATOM     16  C   UNL A   1      34.427  20.320  24.753  1.00  0.00     0.027 C 
ATOM     17  C   UNL A   1      33.016  19.948  25.161  1.00  0.00     0.024 C 
ATOM     18  C   UNL A   1      32.259  21.253  24.964  1.00  0.00     0.122 C 
BRANCH  15  19
ATOM     19  C   UNL A   1      35.801  22.479  24.802  1.00  0.00     0.005 C 
ATOM     20  C   UNL A   1      36.202  23.671  25.684  1.00  0.00     0.009 C 
ATOM     21  C   UNL A   1      37.028  21.603  24.558  1.00  0.00     0.009 C 
ENDBRANCH  15  19
ENDBRANCH  12  14
ENDBRANCH   7  12
ENDBRANCH   5   6
ENDBRANCH   3   5
ENDBRANCH   2   3
ENDBRANCH   1   2
BRANCH   1  22
ATOM     22  C   UNL A   1      33.487  28.767  27.247  1.00  0.00     0.275 C 
BRANCH  22  23
ATOM     23  O   UNL A   1      34.141  30.009  26.932  1.00  0.00    -0.458 OA
BRANCH  23  24
ATOM     24  C   UNL A   1      34.728  30.631  27.983  1.00  0.00     0.338 C 
ATOM     25  O   UNL A   1      34.220  31.435  28.744  1.00  0.00    -0.246 OA
BRANCH  24  26
ATOM     26  C   UNL A   1      36.077  30.090  28.186  1.00  0.00     0.060 A 
ATOM     27  C   UNL A   1      36.449  29.668  29.467  1.00  0.00     0.016 A 
ATOM     28  C   UNL A   1      36.997  30.080  27.141  1.00  0.00     0.016 A 
ATOM     29  C   UNL A   1      37.738  29.216  29.715  1.00  0.00     0.010 A 
ATOM     30  C   UNL A   1      38.296  29.640  27.391  1.00  0.00     0.010 A 
ATOM     31  C   UNL A   1      38.671  29.213  28.678  1.00  0.00    -0.014 A 
BRANCH  31  32
ATOM     32  C   UNL A   1      40.078  28.852  28.942  1.00  0.00     0.031 A 
ATOM     33  C   UNL A   1      41.004  29.908  29.460  1.00  0.00     0.074 A 
ATOM     34  C   UNL A   1      40.510  27.604  28.692  1.00  0.00     0.049 A 
ATOM     35  N   UNL A   1      42.307  29.897  29.544  1.00  0.00    -0.248 NA
ATOM     36  C   UNL A   1      40.375  31.150  29.938  1.00  0.00     0.031 C 
ATOM     37  C   UNL A   1      39.666  26.484  28.272  1.00  0.00     0.029 A 
ATOM     38  N   UNL A   1      41.774  27.078  28.730  1.00  0.00    -0.354 N 
ATOM     39  C   UNL A   1      42.659  31.143  30.046  1.00  0.00     0.074 A 
ATOM     40  C   UNL A   1      41.434  31.886  30.244  1.00  0.00     0.031 C 
ATOM     41  C   UNL A   1      40.441  25.404  28.075  1.00  0.00     0.029 A 
ATOM     42  C   UNL A   1      41.836  25.778  28.288  1.00  0.00     0.049 A 
ATOM     43  H   UNL A   1      42.560  27.581  29.043  1.00  0.00     0.167 HD
ATOM     44  C   UNL A   1      43.900  31.618  30.306  1.00  0.00     0.037 A 
ATOM     45  C   UNL A   1      42.906  25.001  28.036  1.00  0.00     0.037 A 
ATOM     46  C   UNL A   1      45.099  30.849  30.102  1.00  0.00     0.049 A 
ATOM     47  C   UNL A   1      44.281  25.579  28.244  1.00  0.00     0.074 A 
ATOM     48  C   UNL A   1      46.412  31.224  30.318  1.00  0.00     0.029 A 
ATOM     49  N   UNL A   1      45.125  29.543  29.631  1.00  0.00    -0.354 N 
ATOM     50  N   UNL A   1      44.615  26.771  28.678  1.00  0.00    -0.248 NA
ATOM     51  C   UNL A   1      45.422  24.716  27.912  1.00  0.00     0.031 C 
ATOM     52  C   UNL A   1      47.235  30.157  29.940  1.00  0.00     0.029 A 
ATOM     53  C   UNL A   1      46.433  29.100  29.534  1.00  0.00     0.049 A 
ATOM     54  H   UNL A   1      44.331  29.010  29.400  1.00  0.00     0.167 HD
ATOM     55  C   UNL A   1      46.005  26.792  28.704  1.00  0.00     0.074 A 
ATOM     56  C   UNL A   1      46.448  25.494  28.236  1.00  0.00     0.031 C 
ATOM     57  C   UNL A   1      46.840  27.791  29.085  1.00  0.00     0.037 A 
BRANCH  44  58
ATOM     58  C   UNL A   1      44.011  33.038  30.784  1.00  0.00     0.058 A 
ATOM     59  C   UNL A   1      43.917  33.375  32.144  1.00  0.00     0.135 A 
ATOM     60  C   UNL A   1      44.202  34.082  29.864  1.00  0.00     0.135 A 
ATOM     61  F   UNL A   1      43.714  32.419  33.065  1.00  0.00    -0.206 F 
ATOM     62  C   UNL A   1      43.967  34.699  32.570  1.00  0.00     0.059 A 
ATOM     63  C   UNL A   1      44.282  35.411  30.271  1.00  0.00     0.059 A 
ATOM     64  F   UNL A   1      44.296  33.818  28.551  1.00  0.00    -0.206 F 
ATOM     65  C   UNL A   1      44.142  35.711  31.625  1.00  0.00     0.060 A 
BRANCH  65  66
ATOM     66  S   UNL A   1      44.176  37.426  32.188  1.00  0.00     0.124 S 
ATOM     67  O   UNL A   1      43.210  37.391  33.281  1.00  0.00    -0.237 OA
ATOM     68  O   UNL A   1      45.570  37.600  32.582  1.00  0.00    -0.237 OA
ATOM     69  O   UNL A   1      43.762  38.179  31.008  1.00  0.00    -0.744 OA
ENDBRANCH  65  66
ENDBRANCH  44  58
BRANCH  45  70
ATOM     70  C   UNL A   1      42.716  23.613  27.541  1.00  0.00     0.058 A 
ATOM     71  C   UNL A   1      42.479  22.560  28.436  1.00  0.00     0.135 A 
ATOM     72  C   UNL A   1      42.736  23.312  26.170  1.00  0.00     0.135 A 
ATOM     73  F   UNL A   1      42.460  22.794  29.757  1.00  0.00    -0.206 F 
ATOM     74  C   UNL A   1      42.272  21.258  27.992  1.00  0.00     0.059 A 
ATOM     75  C   UNL A   1      42.507  22.023  25.699  1.00  0.00     0.059 A 
ATOM     76  F   UNL A   1      42.947  24.286  25.271  1.00  0.00    -0.206 F 
ATOM     77  C   UNL A   1      42.283  21.000  26.619  1.00  0.00     0.060 A 
BRANCH  77  78
ATOM     78  S   UNL A   1      41.957  19.317  26.053  1.00  0.00     0.124 S 
ATOM     79  O   UNL A   1      42.848  19.216  24.903  1.00  0.00    -0.237 OA
ATOM     80  O   UNL A   1      42.328  18.523  27.220  1.00  0.00    -0.237 OA
ATOM     81  O   UNL A   1      40.530  19.336  25.746  1.00  0.00    -0.744 OA
ENDBRANCH  77  78
ENDBRANCH  45  70
BRANCH  57  82
ATOM     82  C   UNL A   1      48.313  27.505  29.069  1.00  0.00     0.058 A 
ATOM     83  C   UNL A   1      49.108  27.792  27.950  1.00  0.00     0.135 A 
ATOM     84  C   UNL A   1      48.949  27.029  30.227  1.00  0.00     0.135 A 
ATOM     85  F   UNL A   1      48.545  28.238  26.816  1.00  0.00    -0.206 F 
ATOM     86  C   UNL A   1      50.488  27.618  27.980  1.00  0.00     0.059 A 
ATOM     87  C   UNL A   1      50.329  26.871  30.287  1.00  0.00     0.059 A 
ATOM     88  F   UNL A   1      48.229  26.748  31.325  1.00  0.00    -0.206 F 
ATOM     89  C   UNL A   1      51.090  27.167  29.157  1.00  0.00     0.060 A 
BRANCH  89  90
ATOM     90  S   UNL A   1      52.889  27.023  29.209  1.00  0.00     0.124 S 
ATOM     91  O   UNL A   1      53.292  28.420  29.322  1.00  0.00    -0.237 OA
ATOM     92  O   UNL A   1      53.101  26.203  30.399  1.00  0.00    -0.237 OA
ATOM     93  O   UNL A   1      53.214  26.374  27.942  1.00  0.00    -0.744 OA
ENDBRANCH  89  90
ENDBRANCH  57  82
ENDBRANCH  31  32
ENDBRANCH  24  26
ENDBRANCH  23  24
ENDBRANCH  22  23
ENDBRANCH   1  22
TORSDOF 18
ENDMDL
MODEL 2
REMARK VINA RESULT:     -10.5      3.531      9.590
REMARK SMILES CC(C)[C@@H]1CCCN1C(=O)N1CCO[C@H](CC(=O)OCCOC(=O)c2ccc(-c3c4nc(c(-c5c(F)cc(S(=O)(=O)[O-])cc5F)c5ccc([nH]5)c(-c5c(F)cc(S(=O)(=O)[O-])cc5F)c5nc(c(-c6c(F)cc(S(=O)(=O)[O-])cc6F)c6ccc3[nH]6)C=C5)C=C4)cc2)C1
REMARK SMILES IDX 20 1 19 2 17 3 18 4 16 5 15 6 11 7 12 8 91 9 13 10 14 11
REMARK SMILES IDX 9 12 10 13 8 14 4 15 5 16 6 17 7 18 2 19 1 20 3 21 21 22
REMARK SMILES IDX 22 23 23 24 24 25 25 26 26 27 90 28 27 29 89 30 28 31 29 32
REMARK SMILES IDX 30 33 83 34 31 35 88 36 82 37 84 38 32 39 87 40 81 41 80 42
REMARK SMILES IDX 33 44 67 45 46 46 66 47 47 48 50 49 65 50 85 51 48 52 49 53
REMARK SMILES IDX 64 55 86 56 51 57 34 58 35 59 44 60 36 61 37 62 43 63 45 64
REMARK SMILES IDX 38 65 39 66 40 67 41 68 42 69 68 70 69 71 78 72 70 73 71 74
REMARK SMILES IDX 77 75 79 76 72 77 73 78 74 79 75 80 76 81 52 82 53 83 62 84
REMARK SMILES IDX 54 85 55 86 61 87 63 88 56 89 57 90 58 91 59 92 60 93
REMARK H PARENT 84 43 50 54
REMARK Flexibility Score: inf
ROOT
ATOM      1  C   UNL A   1      36.016  21.626  25.016  1.00  0.00     0.274 C 
ENDROOT
BRANCH   1   2
ATOM      2  O   UNL A   1      35.404  22.901  24.755  1.00  0.00    -0.462 OA
BRANCH   2   3
ATOM      3  C   UNL A   1      35.051  23.107  23.469  1.00  0.00     0.308 C 
ATOM      4  O   UNL A   1      35.832  23.076  22.521  1.00  0.00    -0.252 OA
BRANCH   3   5
ATOM      5  C   UNL A   1      33.645  23.570  23.284  1.00  0.00     0.156 C 
BRANCH   5   6
ATOM      6  C   UNL A   1      32.430  22.646  23.156  1.00  0.00     0.149 C 
ATOM      7  N   UNL A   1      31.440  23.550  25.154  1.00  0.00    -0.320 N 
ATOM      8  C   UNL A   1      31.278  22.245  25.768  1.00  0.00     0.150 C 
ATOM      9  C   UNL A   1      31.243  23.455  23.707  1.00  0.00     0.154 C 
ATOM     10  C   UNL A   1      32.307  21.268  25.182  1.00  0.00     0.182 C 
ATOM     11  O   UNL A   1      32.467  21.345  23.759  1.00  0.00    -0.374 OA
BRANCH   7  12
ATOM     12  C   UNL A   1      31.094  24.713  25.782  1.00  0.00     0.320 C 
ATOM     13  O   UNL A   1      30.074  24.764  26.471  1.00  0.00    -0.248 OA
BRANCH  12  14
ATOM     14  N   UNL A   1      31.837  25.847  25.483  1.00  0.00    -0.321 N 
ATOM     15  C   UNL A   1      31.496  27.190  24.948  1.00  0.00     0.089 C 
ATOM     16  C   UNL A   1      32.868  27.851  24.744  1.00  0.00     0.027 C 
ATOM     17  C   UNL A   1      33.661  27.313  25.918  1.00  0.00     0.024 C 
ATOM     18  C   UNL A   1      33.205  25.863  25.988  1.00  0.00     0.122 C 
BRANCH  15  19
ATOM     19  C   UNL A   1      30.596  27.295  23.705  1.00  0.00     0.005 C 
ATOM     20  C   UNL A   1      31.246  26.676  22.458  1.00  0.00     0.009 C 
ATOM     21  C   UNL A   1      29.199  26.706  23.885  1.00  0.00     0.009 C 
ENDBRANCH  15  19
ENDBRANCH  12  14
ENDBRANCH   7  12
ENDBRANCH   5   6
ENDBRANCH   3   5
ENDBRANCH   2   3
ENDBRANCH   1   2
BRANCH   1  22
ATOM     22  C   UNL A   1      37.540  21.734  25.119  1.00  0.00     0.275 C 
BRANCH  22  23
ATOM     23  O   UNL A   1      37.964  23.001  25.653  1.00  0.00    -0.458 OA
BRANCH  23  24
ATOM     24  C   UNL A   1      39.211  23.012  26.182  1.00  0.00     0.338 C 
ATOM     25  O   UNL A   1      40.089  22.183  26.024  1.00  0.00    -0.246 OA
BRANCH  24  26
ATOM     26  C   UNL A   1      39.433  24.275  26.897  1.00  0.00     0.060 A 
ATOM     27  C   UNL A   1      40.256  25.244  26.313  1.00  0.00     0.016 A 
ATOM     28  C   UNL A   1      38.905  24.466  28.170  1.00  0.00     0.016 A 
ATOM     29  C   UNL A   1      40.547  26.422  26.988  1.00  0.00     0.010 A 
ATOM     30  C   UNL A   1      39.206  25.642  28.855  1.00  0.00     0.010 A 
ATOM     31  C   UNL A   1      40.033  26.619  28.269  1.00  0.00    -0.014 A 
BRANCH  31  32
ATOM     32  C   UNL A   1      40.423  27.806  29.055  1.00  0.00     0.031 A 
ATOM     33  C   UNL A   1      41.708  27.767  29.823  1.00  0.00     0.074 A 
ATOM     34  C   UNL A   1      39.618  28.882  29.094  1.00  0.00     0.049 A 
ATOM     35  N   UNL A   1      42.141  28.575  30.752  1.00  0.00    -0.248 NA
ATOM     36  C   UNL A   1      42.623  26.658  29.507  1.00  0.00     0.031 C 
ATOM     37  C   UNL A   1      38.393  29.050  28.310  1.00  0.00     0.029 A 
ATOM     38  N   UNL A   1      39.699  30.026  29.842  1.00  0.00    -0.354 N 
ATOM     39  C   UNL A   1      43.361  28.053  31.162  1.00  0.00     0.074 A 
ATOM     40  C   UNL A   1      43.597  26.857  30.383  1.00  0.00     0.031 C 
ATOM     41  C   UNL A   1      37.827  30.225  28.634  1.00  0.00     0.029 A 
ATOM     42  C   UNL A   1      38.613  30.853  29.691  1.00  0.00     0.049 A 
ATOM     43  H   UNL A   1      40.461  30.235  30.430  1.00  0.00     0.167 HD
ATOM     44  C   UNL A   1      44.198  28.532  32.112  1.00  0.00     0.037 A 
ATOM     45  C   UNL A   1      38.272  31.964  30.372  1.00  0.00     0.037 A 
ATOM     46  C   UNL A   1      43.935  29.730  32.865  1.00  0.00     0.049 A 
ATOM     47  C   UNL A   1      39.169  32.430  31.487  1.00  0.00     0.074 A 
ATOM     48  C   UNL A   1      44.700  30.310  33.860  1.00  0.00     0.029 A 
ATOM     49  N   UNL A   1      42.812  30.531  32.702  1.00  0.00    -0.354 N 
ATOM     50  N   UNL A   1      40.301  31.913  31.903  1.00  0.00    -0.248 NA
ATOM     51  C   UNL A   1      38.738  33.617  32.237  1.00  0.00     0.031 C 
ATOM     52  C   UNL A   1      44.020  31.441  34.326  1.00  0.00     0.029 A 
ATOM     53  C   UNL A   1      42.854  31.593  33.588  1.00  0.00     0.049 A 
ATOM     54  H   UNL A   1      42.092  30.368  32.052  1.00  0.00     0.167 HD
ATOM     55  C   UNL A   1      40.735  32.729  32.941  1.00  0.00     0.074 A 
ATOM     56  C   UNL A   1      39.740  33.772  33.093  1.00  0.00     0.031 C 
ATOM     57  C   UNL A   1      41.857  32.629  33.697  1.00  0.00     0.037 A 
BRANCH  44  58
ATOM     58  C   UNL A   1      45.433  27.732  32.414  1.00  0.00     0.058 A 
ATOM     59  C   UNL A   1      45.456  26.749  33.416  1.00  0.00     0.135 A 
ATOM     60  C   UNL A   1      46.619  27.962  31.697  1.00  0.00     0.135 A 
ATOM     61  F   UNL A   1      44.357  26.502  34.147  1.00  0.00    -0.206 F 
ATOM     62  C   UNL A   1      46.620  26.052  33.724  1.00  0.00     0.059 A 
ATOM     63  C   UNL A   1      47.787  27.257  31.969  1.00  0.00     0.059 A 
ATOM     64  F   UNL A   1      46.655  28.892  30.729  1.00  0.00    -0.206 F 
ATOM     65  C   UNL A   1      47.784  26.318  33.000  1.00  0.00     0.060 A 
BRANCH  65  66
ATOM     66  S   UNL A   1      49.295  25.428  33.429  1.00  0.00     0.124 S 
ATOM     67  O   UNL A   1      50.064  25.553  32.195  1.00  0.00    -0.237 OA
ATOM     68  O   UNL A   1      49.797  26.190  34.567  1.00  0.00    -0.237 OA
ATOM     69  O   UNL A   1      48.820  24.083  33.739  1.00  0.00    -0.744 OA
ENDBRANCH  65  66
ENDBRANCH  44  58
BRANCH  45  70
ATOM     70  C   UNL A   1      37.020  32.689  30.031  1.00  0.00     0.058 A 
ATOM     71  C   UNL A   1      35.827  32.419  30.716  1.00  0.00     0.135 A 
ATOM     72  C   UNL A   1      36.993  33.684  29.040  1.00  0.00     0.135 A 
ATOM     73  F   UNL A   1      35.799  31.470  31.664  1.00  0.00    -0.206 F 
ATOM     74  C   UNL A   1      34.650  33.104  30.430  1.00  0.00     0.059 A 
ATOM     75  C   UNL A   1      35.836  34.401  28.753  1.00  0.00     0.059 A 
ATOM     76  F   UNL A   1      38.111  33.989  28.363  1.00  0.00    -0.206 F 
ATOM     77  C   UNL A   1      34.666  34.099  29.450  1.00  0.00     0.060 A 
BRANCH  77  78
ATOM     78  S   UNL A   1      33.147  35.021  29.128  1.00  0.00     0.124 S 
ATOM     79  O   UNL A   1      33.672  36.305  28.679  1.00  0.00    -0.237 OA
ATOM     80  O   UNL A   1      32.503  34.202  28.105  1.00  0.00    -0.237 OA
ATOM     81  O   UNL A   1      32.479  35.030  30.425  1.00  0.00    -0.744 OA
ENDBRANCH  77  78
ENDBRANCH  45  70
BRANCH  57  82
ATOM     82  C   UNL A   1      42.101  33.703  34.717  1.00  0.00     0.058 A 
ATOM     83  C   UNL A   1      41.730  33.545  36.060  1.00  0.00     0.135 A 
ATOM     84  C   UNL A   1      42.806  34.864  34.359  1.00  0.00     0.135 A 
ATOM     85  F   UNL A   1      41.046  32.457  36.448  1.00  0.00    -0.206 F 
ATOM     86  C   UNL A   1      42.051  34.502  37.016  1.00  0.00     0.059 A 
ATOM     87  C   UNL A   1      43.157  35.823  35.303  1.00  0.00     0.059 A 
ATOM     88  F   UNL A   1      43.188  35.057  33.086  1.00  0.00    -0.206 F 
ATOM     89  C   UNL A   1      42.774  35.632  36.630  1.00  0.00     0.060 A 
BRANCH  89  90
ATOM     90  S   UNL A   1      43.254  36.828  37.895  1.00  0.00     0.124 S 
ATOM     91  O   UNL A   1      44.099  36.014  38.762  1.00  0.00    -0.237 OA
ATOM     92  O   UNL A   1      43.946  37.848  37.112  1.00  0.00    -0.237 OA
ATOM     93  O   UNL A   1      41.979  37.244  38.470  1.00  0.00    -0.744 OA
ENDBRANCH  89  90
ENDBRANCH  57  82
ENDBRANCH  31  32
ENDBRANCH  24  26
ENDBRANCH  23  24
ENDBRANCH  22  23
ENDBRANCH   1  22
TORSDOF 18
ENDMDL
MODEL 3
REMARK VINA RESULT:     -10.5      3.604      9.533
REMARK SMILES CC(C)[C@@H]1CCCN1C(=O)N1CCO[C@H](CC(=O)OCCOC(=O)c2ccc(-c3c4nc(c(-c5c(F)cc(S(=O)(=O)[O-])cc5F)c5ccc([nH]5)c(-c5c(F)cc(S(=O)(=O)[O-])cc5F)c5nc(c(-c6c(F)cc(S(=O)(=O)[O-])cc6F)c6ccc3[nH]6)C=C5)C=C4)cc2)C1
REMARK SMILES IDX 20 1 19 2 17 3 18 4 16 5 15 6 11 7 12 8 91 9 13 10 14 11
REMARK SMILES IDX 9 12 10 13 8 14 4 15 5 16 6 17 7 18 2 19 1 20 3 21 21 22
REMARK SMILES IDX 22 23 23 24 24 25 25 26 26 27 90 28 27 29 89 30 28 31 29 32
REMARK SMILES IDX 30 33 83 34 31 35 88 36 82 37 84 38 32 39 87 40 81 41 80 42
REMARK SMILES IDX 33 44 67 45 46 46 66 47 47 48 50 49 65 50 85 51 48 52 49 53
REMARK SMILES IDX 64 55 86 56 51 57 34 58 35 59 44 60 36 61 37 62 43 63 45 64
REMARK SMILES IDX 38 65 39 66 40 67 41 68 42 69 68 70 69 71 78 72 70 73 71 74
REMARK SMILES IDX 77 75 79 76 72 77 73 78 74 79 75 80 76 81 52 82 53 83 62 84
REMARK SMILES IDX 54 85 55 86 61 87 63 88 56 89 57 90 58 91 59 92 60 93
REMARK H PARENT 84 43 50 54
REMARK Flexibility Score: inf
ROOT
ATOM      1  C   UNL A   1      35.714  22.684  24.008  1.00  0.00     0.274 C 
ENDROOT
BRANCH   1   2
ATOM      2  O   UNL A   1      34.925  23.414  23.054  1.00  0.00    -0.462 OA
BRANCH   2   3
ATOM      3  C   UNL A   1      34.140  24.375  23.585  1.00  0.00     0.308 C 
ATOM      4  O   UNL A   1      34.426  25.034  24.580  1.00  0.00    -0.252 OA
BRANCH   3   5
ATOM      5  C   UNL A   1      32.779  24.462  22.978  1.00  0.00     0.156 C 
BRANCH   5   6
ATOM      6  C   UNL A   1      31.731  23.346  23.021  1.00  0.00     0.149 C 
ATOM      7  N   UNL A   1      30.802  24.200  25.070  1.00  0.00    -0.320 N 
ATOM      8  C   UNL A   1      30.922  22.926  25.756  1.00  0.00     0.150 C 
ATOM      9  C   UNL A   1      30.483  23.983  23.658  1.00  0.00     0.154 C 
ATOM     10  C   UNL A   1      32.039  22.095  25.109  1.00  0.00     0.182 C 
ATOM     11  O   UNL A   1      32.044  22.109  23.675  1.00  0.00    -0.374 OA
BRANCH   7  12
ATOM     12  C   UNL A   1      30.327  25.328  25.678  1.00  0.00     0.320 C 
ATOM     13  O   UNL A   1      29.486  25.240  26.573  1.00  0.00    -0.248 OA
BRANCH  12  14
ATOM     14  N   UNL A   1      30.707  26.550  25.142  1.00  0.00    -0.321 N 
ATOM     15  C   UNL A   1      31.941  27.374  25.228  1.00  0.00     0.089 C 
ATOM     16  C   UNL A   1      31.557  28.669  24.496  1.00  0.00     0.027 C 
ATOM     17  C   UNL A   1      30.662  28.156  23.386  1.00  0.00     0.024 C 
ATOM     18  C   UNL A   1      29.849  27.078  24.088  1.00  0.00     0.122 C 
BRANCH  15  19
ATOM     19  C   UNL A   1      32.573  27.636  26.606  1.00  0.00     0.005 C 
ATOM     20  C   UNL A   1      33.811  28.542  26.519  1.00  0.00     0.009 C 
ATOM     21  C   UNL A   1      31.610  28.205  27.645  1.00  0.00     0.009 C 
ENDBRANCH  15  19
ENDBRANCH  12  14
ENDBRANCH   7  12
ENDBRANCH   5   6
ENDBRANCH   3   5
ENDBRANCH   2   3
ENDBRANCH   1   2
BRANCH   1  22
ATOM     22  C   UNL A   1      37.181  23.120  23.989  1.00  0.00     0.275 C 
BRANCH  22  23
ATOM     23  O   UNL A   1      37.545  23.867  25.164  1.00  0.00    -0.458 OA
BRANCH  23  24
ATOM     24  C   UNL A   1      38.600  23.370  25.855  1.00  0.00     0.338 C 
ATOM     25  O   UNL A   1      39.102  22.267  25.746  1.00  0.00    -0.246 OA
BRANCH  24  26
ATOM     26  C   UNL A   1      39.177  24.424  26.699  1.00  0.00     0.060 A 
ATOM     27  C   UNL A   1      38.812  24.482  28.048  1.00  0.00     0.016 A 
ATOM     28  C   UNL A   1      40.000  25.399  26.144  1.00  0.00     0.016 A 
ATOM     29  C   UNL A   1      39.280  25.505  28.862  1.00  0.00     0.010 A 
ATOM     30  C   UNL A   1      40.461  26.435  26.956  1.00  0.00     0.010 A 
ATOM     31  C   UNL A   1      40.097  26.494  28.314  1.00  0.00    -0.014 A 
BRANCH  31  32
ATOM     32  C   UNL A   1      40.509  27.655  29.127  1.00  0.00     0.031 A 
ATOM     33  C   UNL A   1      41.794  27.574  29.892  1.00  0.00     0.074 A 
ATOM     34  C   UNL A   1      39.724  28.744  29.192  1.00  0.00     0.049 A 
ATOM     35  N   UNL A   1      42.243  28.352  30.838  1.00  0.00    -0.248 NA
ATOM     36  C   UNL A   1      42.689  26.457  29.547  1.00  0.00     0.031 C 
ATOM     37  C   UNL A   1      38.501  28.953  28.415  1.00  0.00     0.029 A 
ATOM     38  N   UNL A   1      39.827  29.868  29.967  1.00  0.00    -0.354 N 
ATOM     39  C   UNL A   1      43.454  27.799  31.234  1.00  0.00     0.074 A 
ATOM     40  C   UNL A   1      43.667  26.617  30.427  1.00  0.00     0.031 C 
ATOM     41  C   UNL A   1      37.957  30.130  28.767  1.00  0.00     0.029 A 
ATOM     42  C   UNL A   1      38.756  30.718  29.838  1.00  0.00     0.049 A 
ATOM     43  H   UNL A   1      40.593  30.049  30.558  1.00  0.00     0.167 HD
ATOM     44  C   UNL A   1      44.301  28.240  32.193  1.00  0.00     0.037 A 
ATOM     45  C   UNL A   1      38.435  31.819  30.545  1.00  0.00     0.037 A 
ATOM     46  C   UNL A   1      44.060  29.424  32.975  1.00  0.00     0.049 A 
ATOM     47  C   UNL A   1      39.342  32.242  31.669  1.00  0.00     0.074 A 
ATOM     48  C   UNL A   1      44.837  29.967  33.982  1.00  0.00     0.029 A 
ATOM     49  N   UNL A   1      42.952  30.249  32.833  1.00  0.00    -0.354 N 
ATOM     50  N   UNL A   1      40.465  31.694  32.072  1.00  0.00    -0.248 NA
ATOM     51  C   UNL A   1      38.933  33.418  32.448  1.00  0.00     0.031 C 
ATOM     52  C   UNL A   1      44.178  31.099  34.476  1.00  0.00     0.029 A 
ATOM     53  C   UNL A   1      43.015  31.289  33.744  1.00  0.00     0.049 A 
ATOM     54  H   UNL A   1      42.228  30.114  32.180  1.00  0.00     0.167 HD
ATOM     55  C   UNL A   1      40.915  32.478  33.128  1.00  0.00     0.074 A 
ATOM     56  C   UNL A   1      39.940  33.535  33.306  1.00  0.00     0.031 C 
ATOM     57  C   UNL A   1      42.036  32.340  33.880  1.00  0.00     0.037 A 
BRANCH  44  58
ATOM     58  C   UNL A   1      45.521  27.411  32.474  1.00  0.00     0.058 A 
ATOM     59  C   UNL A   1      45.521  26.389  33.436  1.00  0.00     0.135 A 
ATOM     60  C   UNL A   1      46.717  27.653  31.778  1.00  0.00     0.135 A 
ATOM     61  F   UNL A   1      44.412  26.128  34.146  1.00  0.00    -0.206 F 
ATOM     62  C   UNL A   1      46.673  25.663  33.727  1.00  0.00     0.059 A 
ATOM     63  C   UNL A   1      47.874  26.921  32.033  1.00  0.00     0.059 A 
ATOM     64  F   UNL A   1      46.776  28.620  30.849  1.00  0.00    -0.206 F 
ATOM     65  C   UNL A   1      47.847  25.941  33.025  1.00  0.00     0.060 A 
BRANCH  65  66
ATOM     66  S   UNL A   1      49.341  25.013  33.431  1.00  0.00     0.124 S 
ATOM     67  O   UNL A   1      49.907  24.782  32.106  1.00  0.00    -0.237 OA
ATOM     68  O   UNL A   1      50.073  25.950  34.277  1.00  0.00    -0.237 OA
ATOM     69  O   UNL A   1      48.829  23.827  34.111  1.00  0.00    -0.744 OA
ENDBRANCH  65  66
ENDBRANCH  44  58
BRANCH  45  70
ATOM     70  C   UNL A   1      37.196  32.574  30.224  1.00  0.00     0.058 A 
ATOM     71  C   UNL A   1      37.204  33.582  29.250  1.00  0.00     0.135 A 
ATOM     72  C   UNL A   1      35.975  32.286  30.856  1.00  0.00     0.135 A 
ATOM     73  F   UNL A   1      38.348  33.900  28.625  1.00  0.00    -0.206 F 
ATOM     74  C   UNL A   1      36.050  34.282  28.915  1.00  0.00     0.059 A 
ATOM     75  C   UNL A   1      34.802  32.954  30.522  1.00  0.00     0.059 A 
ATOM     76  F   UNL A   1      35.911  31.321  31.787  1.00  0.00    -0.206 F 
ATOM     77  C   UNL A   1      34.851  33.957  29.554  1.00  0.00     0.060 A 
BRANCH  77  78
ATOM     78  S   UNL A   1      33.348  34.834  29.070  1.00  0.00     0.124 S 
ATOM     79  O   UNL A   1      33.888  36.099  28.586  1.00  0.00    -0.237 OA
ATOM     80  O   UNL A   1      32.789  33.947  28.054  1.00  0.00    -0.237 OA
ATOM     81  O   UNL A   1      32.587  34.907  30.314  1.00  0.00    -0.744 OA
ENDBRANCH  77  78
ENDBRANCH  45  70
BRANCH  57  82
ATOM     82  C   UNL A   1      42.301  33.385  34.924  1.00  0.00     0.058 A 
ATOM     83  C   UNL A   1      43.035  34.545  34.638  1.00  0.00     0.135 A 
ATOM     84  C   UNL A   1      41.728  33.264  36.200  1.00  0.00     0.135 A 
ATOM     85  F   UNL A   1      43.611  34.701  33.435  1.00  0.00    -0.206 F 
ATOM     86  C   UNL A   1      43.190  35.554  35.582  1.00  0.00     0.059 A 
ATOM     87  C   UNL A   1      41.850  34.270  37.152  1.00  0.00     0.059 A 
ATOM     88  F   UNL A   1      41.012  32.174  36.518  1.00  0.00    -0.206 F 
ATOM     89  C   UNL A   1      42.585  35.412  36.833  1.00  0.00     0.060 A 
BRANCH  89  90
ATOM     90  S   UNL A   1      42.725  36.763  38.022  1.00  0.00     0.124 S 
ATOM     91  O   UNL A   1      41.324  37.069  38.286  1.00  0.00    -0.237 OA
ATOM     92  O   UNL A   1      43.456  36.137  39.120  1.00  0.00    -0.237 OA
ATOM     93  O   UNL A   1      43.465  37.786  37.287  1.00  0.00    -0.744 OA
ENDBRANCH  89  90
ENDBRANCH  57  82
ENDBRANCH  31  32
ENDBRANCH  24  26
ENDBRANCH  23  24
ENDBRANCH  22  23
ENDBRANCH   1  22
TORSDOF 18
ENDMDL
