MODEL 1
REMARK VINA RESULT:     -10.7      0.000      0.000
REMARK SMILES [NH3+][C@@H]1C(=O)N2C(C(=O)OCCOC(=O)c3ccc(-c4c5nc(c(-c6c(F)cc(S(=O)(=O)[O-])cc6F)c6ccc([nH]6)c(-c6c(F)cc(S(=O)(=O)[O-])cc6F)c6nc(c(-c7c(F)cc(S(=O)(=O)[O-])cc7F)c7ccc4[nH]7)C=C6)C=C5)cc3)=CCS[C@@H]12
REMARK SMILES IDX 11 1 10 2 9 3 7 4 8 5 6 6 2 7 3 8 84 9 4 10 5 11 83 12 82 13
REMARK SMILES IDX 81 14 1 15 12 19 13 20 14 21 15 22 16 23 80 24 17 25 79 26
REMARK SMILES IDX 18 27 19 28 20 29 73 30 21 31 78 32 72 33 74 34 22 35 77 36
REMARK SMILES IDX 71 37 70 38 23 40 57 41 36 42 56 43 37 44 40 45 55 46 75 47
REMARK SMILES IDX 38 48 39 49 54 51 76 52 41 53 24 54 25 55 34 56 26 57 27 58
REMARK SMILES IDX 33 59 35 60 28 61 29 62 30 63 31 64 32 65 58 66 59 67 68 68
REMARK SMILES IDX 60 69 61 70 67 71 69 72 62 73 63 74 64 75 65 76 66 77 42 78
REMARK SMILES IDX 43 79 52 80 44 81 45 82 51 83 53 84 46 85 47 86 48 87 49 88
REMARK SMILES IDX 50 89
REMARK H PARENT 1 16 1 17 1 18 74 39 40 50
REMARK Flexibility Score: inf
ROOT
ATOM      1  C   UNL A   1      37.247  31.974  33.964  1.00  0.00     0.275 C 
ENDROOT
BRANCH   1   2
ATOM      2  C   UNL A   1      36.217  33.096  34.137  1.00  0.00     0.275 C 
BRANCH   2   3
ATOM      3  O   UNL A   1      35.818  33.642  32.863  1.00  0.00    -0.457 OA
BRANCH   3   4
ATOM      4  C   UNL A   1      34.519  33.453  32.486  1.00  0.00     0.354 C 
ATOM      5  O   UNL A   1      33.596  33.256  33.257  1.00  0.00    -0.244 OA
BRANCH   4   6
ATOM      6  C   UNL A   1      34.383  33.595  30.992  1.00  0.00     0.128 C 
ATOM      7  C   UNL A   1      32.987  36.244  29.318  1.00  0.00     0.305 C 
ATOM      8  C   UNL A   1      32.975  35.722  30.807  1.00  0.00     0.289 C 
ATOM      9  C   UNL A   1      34.047  35.125  29.102  1.00  0.00     0.217 C 
ATOM     10  O   UNL A   1      32.483  36.082  31.847  1.00  0.00    -0.267 OA
ATOM     11  N   UNL A   1      33.745  34.669  30.450  1.00  0.00    -0.282 N 
ATOM     12  S   UNL A   1      33.579  33.794  27.967  1.00  0.00    -0.126 SA
ATOM     13  C   UNL A   1      34.780  32.623  28.664  1.00  0.00     0.101 C 
ATOM     14  C   UNL A   1      34.887  32.654  30.166  1.00  0.00     0.018 C 
BRANCH   7  15
ATOM     15  N   UNL A   1      33.626  37.566  29.123  1.00  0.00    -0.345 N 
ATOM     16  H   UNL A   1      34.023  37.617  28.184  1.00  0.00     0.345 HD
ATOM     17  H   UNL A   1      34.367  37.691  29.813  1.00  0.00     0.345 HD
ATOM     18  H   UNL A   1      32.929  38.301  29.237  1.00  0.00     0.345 HD
ENDBRANCH   7  15
ENDBRANCH   4   6
ENDBRANCH   3   4
ENDBRANCH   2   3
ENDBRANCH   1   2
BRANCH   1  19
ATOM     19  O   UNL A   1      37.644  31.838  32.588  1.00  0.00    -0.458 OA
BRANCH  19  20
ATOM     20  C   UNL A   1      37.354  30.641  32.027  1.00  0.00     0.338 C 
ATOM     21  O   UNL A   1      36.279  30.063  32.035  1.00  0.00    -0.246 OA
BRANCH  20  22
ATOM     22  C   UNL A   1      38.485  30.205  31.196  1.00  0.00     0.060 A 
ATOM     23  C   UNL A   1      39.544  29.613  31.872  1.00  0.00     0.016 A 
ATOM     24  C   UNL A   1      38.573  30.434  29.824  1.00  0.00     0.016 A 
ATOM     25  C   UNL A   1      40.705  29.257  31.202  1.00  0.00     0.010 A 
ATOM     26  C   UNL A   1      39.746  30.065  29.142  1.00  0.00     0.010 A 
ATOM     27  C   UNL A   1      40.829  29.487  29.832  1.00  0.00    -0.014 A 
BRANCH  27  28
ATOM     28  C   UNL A   1      42.134  29.197  29.180  1.00  0.00     0.031 A 
ATOM     29  C   UNL A   1      42.385  27.836  28.592  1.00  0.00     0.074 A 
ATOM     30  C   UNL A   1      43.055  30.169  29.025  1.00  0.00     0.049 A 
ATOM     31  N   UNL A   1      43.473  27.352  28.051  1.00  0.00    -0.248 NA
ATOM     32  C   UNL A   1      41.252  26.897  28.605  1.00  0.00     0.031 C 
ATOM     33  C   UNL A   1      42.893  31.563  29.444  1.00  0.00     0.029 A 
ATOM     34  N   UNL A   1      44.308  30.136  28.461  1.00  0.00    -0.354 N 
ATOM     35  C   UNL A   1      43.170  26.043  27.694  1.00  0.00     0.074 A 
ATOM     36  C   UNL A   1      41.799  25.805  28.088  1.00  0.00     0.031 C 
ATOM     37  C   UNL A   1      44.004  32.249  29.127  1.00  0.00     0.029 A 
ATOM     38  C   UNL A   1      44.980  31.334  28.544  1.00  0.00     0.049 A 
ATOM     39  H   UNL A   1      44.688  29.333  28.038  1.00  0.00     0.167 HD
ATOM     40  C   UNL A   1      43.966  25.124  27.094  1.00  0.00     0.037 A 
ATOM     41  C   UNL A   1      46.253  31.651  28.228  1.00  0.00     0.037 A 
ATOM     42  C   UNL A   1      45.326  25.378  26.688  1.00  0.00     0.049 A 
ATOM     43  C   UNL A   1      47.151  30.587  27.655  1.00  0.00     0.074 A 
ATOM     44  C   UNL A   1      46.217  24.511  26.080  1.00  0.00     0.029 A 
ATOM     45  N   UNL A   1      45.994  26.584  26.853  1.00  0.00    -0.354 N 
ATOM     46  N   UNL A   1      46.869  29.339  27.359  1.00  0.00    -0.248 NA
ATOM     47  C   UNL A   1      48.542  30.969  27.377  1.00  0.00     0.031 C 
ATOM     48  C   UNL A   1      47.440  25.172  25.932  1.00  0.00     0.029 A 
ATOM     49  C   UNL A   1      47.294  26.474  26.383  1.00  0.00     0.049 A 
ATOM     50  H   UNL A   1      45.601  27.397  27.244  1.00  0.00     0.167 HD
ATOM     51  C   UNL A   1      48.039  28.796  26.836  1.00  0.00     0.074 A 
ATOM     52  C   UNL A   1      49.027  29.855  26.844  1.00  0.00     0.031 C 
ATOM     53  C   UNL A   1      48.270  27.537  26.388  1.00  0.00     0.037 A 
BRANCH  40  54
ATOM     54  C   UNL A   1      43.406  23.741  26.896  1.00  0.00     0.058 A 
ATOM     55  C   UNL A   1      42.977  23.277  25.643  1.00  0.00     0.135 A 
ATOM     56  C   UNL A   1      43.309  22.860  27.986  1.00  0.00     0.135 A 
ATOM     57  F   UNL A   1      43.029  24.080  24.569  1.00  0.00    -0.206 F 
ATOM     58  C   UNL A   1      42.440  22.002  25.484  1.00  0.00     0.059 A 
ATOM     59  C   UNL A   1      42.806  21.570  27.845  1.00  0.00     0.059 A 
ATOM     60  F   UNL A   1      43.704  23.251  29.208  1.00  0.00    -0.206 F 
ATOM     61  C   UNL A   1      42.356  21.157  26.593  1.00  0.00     0.060 A 
BRANCH  61  62
ATOM     62  S   UNL A   1      41.643  19.512  26.376  1.00  0.00     0.124 S 
ATOM     63  O   UNL A   1      42.435  18.997  25.262  1.00  0.00    -0.237 OA
ATOM     64  O   UNL A   1      41.895  18.891  27.672  1.00  0.00    -0.237 OA
ATOM     65  O   UNL A   1      40.241  19.784  26.075  1.00  0.00    -0.744 OA
ENDBRANCH  61  62
ENDBRANCH  40  54
BRANCH  41  66
ATOM     66  C   UNL A   1      46.765  33.024  28.493  1.00  0.00     0.058 A 
ATOM     67  C   UNL A   1      47.332  33.366  29.728  1.00  0.00     0.135 A 
ATOM     68  C   UNL A   1      46.696  34.023  27.508  1.00  0.00     0.135 A 
ATOM     69  F   UNL A   1      47.406  32.453  30.709  1.00  0.00    -0.206 F 
ATOM     70  C   UNL A   1      47.803  34.652  29.984  1.00  0.00     0.059 A 
ATOM     71  C   UNL A   1      47.189  35.305  27.728  1.00  0.00     0.059 A 
ATOM     72  F   UNL A   1      46.165  33.750  26.307  1.00  0.00    -0.206 F 
ATOM     73  C   UNL A   1      47.732  35.614  28.973  1.00  0.00     0.060 A 
BRANCH  73  74
ATOM     74  S   UNL A   1      48.385  37.266  29.301  1.00  0.00     0.124 S 
ATOM     75  O   UNL A   1      48.336  37.869  27.975  1.00  0.00    -0.237 OA
ATOM     76  O   UNL A   1      47.429  37.785  30.275  1.00  0.00    -0.237 OA
ATOM     77  O   UNL A   1      49.721  37.002  29.825  1.00  0.00    -0.744 OA
ENDBRANCH  73  74
ENDBRANCH  41  66
BRANCH  53  78
ATOM     78  C   UNL A   1      49.634  27.238  25.822  1.00  0.00     0.058 A 
ATOM     79  C   UNL A   1      50.690  26.782  26.626  1.00  0.00     0.135 A 
ATOM     80  C   UNL A   1      49.869  27.362  24.442  1.00  0.00     0.135 A 
ATOM     81  F   UNL A   1      50.523  26.651  27.952  1.00  0.00    -0.206 F 
ATOM     82  C   UNL A   1      51.937  26.482  26.087  1.00  0.00     0.059 A 
ATOM     83  C   UNL A   1      51.098  27.036  23.877  1.00  0.00     0.059 A 
ATOM     84  F   UNL A   1      48.892  27.784  23.624  1.00  0.00    -0.206 F 
ATOM     85  C   UNL A   1      52.131  26.609  24.709  1.00  0.00     0.060 A 
BRANCH  85  86
ATOM     86  S   UNL A   1      53.744  26.184  24.018  1.00  0.00     0.124 S 
ATOM     87  O   UNL A   1      54.558  27.314  24.451  1.00  0.00    -0.237 OA
ATOM     88  O   UNL A   1      54.034  24.908  24.666  1.00  0.00    -0.237 OA
ATOM     89  O   UNL A   1      53.490  26.108  22.582  1.00  0.00    -0.744 OA
ENDBRANCH  85  86
ENDBRANCH  53  78
ENDBRANCH  27  28
ENDBRANCH  20  22
ENDBRANCH  19  20
ENDBRANCH   1  19
TORSDOF 15
ENDMDL
MODEL 2
REMARK VINA RESULT:     -10.6      5.994     14.136
REMARK SMILES [NH3+][C@@H]1C(=O)N2C(C(=O)OCCOC(=O)c3ccc(-c4c5nc(c(-c6c(F)cc(S(=O)(=O)[O-])cc6F)c6ccc([nH]6)c(-c6c(F)cc(S(=O)(=O)[O-])cc6F)c6nc(c(-c7c(F)cc(S(=O)(=O)[O-])cc7F)c7ccc4[nH]7)C=C6)C=C5)cc3)=CCS[C@@H]12
REMARK SMILES IDX 11 1 10 2 9 3 7 4 8 5 6 6 2 7 3 8 84 9 4 10 5 11 83 12 82 13
REMARK SMILES IDX 81 14 1 15 12 19 13 20 14 21 15 22 16 23 80 24 17 25 79 26
REMARK SMILES IDX 18 27 19 28 20 29 73 30 21 31 78 32 72 33 74 34 22 35 77 36
REMARK SMILES IDX 71 37 70 38 23 40 57 41 36 42 56 43 37 44 40 45 55 46 75 47
REMARK SMILES IDX 38 48 39 49 54 51 76 52 41 53 24 54 25 55 34 56 26 57 27 58
REMARK SMILES IDX 33 59 35 60 28 61 29 62 30 63 31 64 32 65 58 66 59 67 68 68
REMARK SMILES IDX 60 69 61 70 67 71 69 72 62 73 63 74 64 75 65 76 66 77 42 78
REMARK SMILES IDX 43 79 52 80 44 81 45 82 51 83 53 84 46 85 47 86 48 87 49 88
REMARK SMILES IDX 50 89
REMARK H PARENT 1 16 1 17 1 18 74 39 40 50
REMARK Flexibility Score: inf
ROOT
ATOM      1  C   UNL A   1      45.636  25.389  25.348  1.00  0.00     0.275 C 
ENDROOT
BRANCH   1   2
ATOM      2  C   UNL A   1      46.000  23.943  24.996  1.00  0.00     0.275 C 
BRANCH   2   3
ATOM      3  O   UNL A   1      45.053  23.012  25.561  1.00  0.00    -0.457 OA
BRANCH   3   4
ATOM      4  C   UNL A   1      44.228  22.360  24.691  1.00  0.00     0.354 C 
ATOM      5  O   UNL A   1      44.429  22.254  23.494  1.00  0.00    -0.244 OA
BRANCH   4   6
ATOM      6  C   UNL A   1      43.077  21.730  25.434  1.00  0.00     0.128 C 
ATOM      7  C   UNL A   1      42.722  18.404  26.192  1.00  0.00     0.305 C 
ATOM      8  C   UNL A   1      43.622  19.241  25.205  1.00  0.00     0.289 C 
ATOM      9  C   UNL A   1      42.285  19.799  26.725  1.00  0.00     0.217 C 
ATOM     10  O   UNL A   1      44.486  18.996  24.400  1.00  0.00    -0.267 OA
ATOM     11  N   UNL A   1      43.020  20.381  25.614  1.00  0.00    -0.282 N 
ATOM     12  S   UNL A   1      40.540  20.226  26.499  1.00  0.00    -0.126 SA
ATOM     13  C   UNL A   1      40.842  22.012  26.634  1.00  0.00     0.101 C 
ATOM     14  C   UNL A   1      42.081  22.494  25.927  1.00  0.00     0.018 C 
BRANCH   7  15
ATOM     15  N   UNL A   1      43.461  17.685  27.257  1.00  0.00    -0.345 N 
ATOM     16  H   UNL A   1      42.838  17.018  27.713  1.00  0.00     0.345 HD
ATOM     17  H   UNL A   1      43.805  18.355  27.945  1.00  0.00     0.345 HD
ATOM     18  H   UNL A   1      44.250  17.186  26.846  1.00  0.00     0.345 HD
ENDBRANCH   7  15
ENDBRANCH   4   6
ENDBRANCH   3   4
ENDBRANCH   2   3
ENDBRANCH   1   2
BRANCH   1  19
ATOM     19  O   UNL A   1      44.642  25.440  26.386  1.00  0.00    -0.458 OA
BRANCH  19  20
ATOM     20  C   UNL A   1      43.456  25.975  26.014  1.00  0.00     0.338 C 
ATOM     21  O   UNL A   1      42.860  25.791  24.965  1.00  0.00    -0.246 OA
BRANCH  20  22
ATOM     22  C   UNL A   1      42.851  26.667  27.162  1.00  0.00     0.060 A 
ATOM     23  C   UNL A   1      43.286  27.966  27.387  1.00  0.00     0.016 A 
ATOM     24  C   UNL A   1      41.962  26.064  28.049  1.00  0.00     0.016 A 
ATOM     25  C   UNL A   1      42.860  28.675  28.500  1.00  0.00     0.010 A 
ATOM     26  C   UNL A   1      41.521  26.786  29.172  1.00  0.00     0.010 A 
ATOM     27  C   UNL A   1      41.981  28.094  29.414  1.00  0.00    -0.014 A 
BRANCH  27  28
ATOM     28  C   UNL A   1      41.645  28.849  30.651  1.00  0.00     0.031 A 
ATOM     29  C   UNL A   1      40.447  29.759  30.663  1.00  0.00     0.074 A 
ATOM     30  C   UNL A   1      42.342  28.652  31.787  1.00  0.00     0.049 A 
ATOM     31  N   UNL A   1      40.023  30.562  31.604  1.00  0.00    -0.248 NA
ATOM     32  C   UNL A   1      39.607  29.754  29.455  1.00  0.00     0.031 C 
ATOM     33  C   UNL A   1      43.454  27.711  31.946  1.00  0.00     0.029 A 
ATOM     34  N   UNL A   1      42.213  29.224  33.030  1.00  0.00    -0.354 N 
ATOM     35  C   UNL A   1      38.892  31.186  31.091  1.00  0.00     0.074 A 
ATOM     36  C   UNL A   1      38.700  30.675  29.751  1.00  0.00     0.031 C 
ATOM     37  C   UNL A   1      43.905  27.774  33.209  1.00  0.00     0.029 A 
ATOM     38  C   UNL A   1      43.164  28.802  33.931  1.00  0.00     0.049 A 
ATOM     39  H   UNL A   1      41.508  29.873  33.254  1.00  0.00     0.167 HD
ATOM     40  C   UNL A   1      38.088  32.103  31.685  1.00  0.00     0.037 A 
ATOM     41  C   UNL A   1      43.436  29.226  35.182  1.00  0.00     0.037 A 
ATOM     42  C   UNL A   1      38.278  32.591  33.027  1.00  0.00     0.049 A 
ATOM     43  C   UNL A   1      42.592  30.318  35.786  1.00  0.00     0.074 A 
ATOM     44  C   UNL A   1      37.523  33.525  33.716  1.00  0.00     0.029 A 
ATOM     45  N   UNL A   1      39.294  32.191  33.884  1.00  0.00    -0.354 N 
ATOM     46  N   UNL A   1      41.550  30.932  35.278  1.00  0.00    -0.248 NA
ATOM     47  C   UNL A   1      42.964  30.780  37.131  1.00  0.00     0.031 C 
ATOM     48  C   UNL A   1      38.118  33.734  34.965  1.00  0.00     0.029 A 
ATOM     49  C   UNL A   1      39.202  32.879  35.084  1.00  0.00     0.049 A 
ATOM     50  H   UNL A   1      39.978  31.516  33.671  1.00  0.00     0.167 HD
ATOM     51  C   UNL A   1      41.125  31.833  36.250  1.00  0.00     0.074 A 
ATOM     52  C   UNL A   1      42.016  31.673  37.380  1.00  0.00     0.031 C 
ATOM     53  C   UNL A   1      40.090  32.708  36.209  1.00  0.00     0.037 A 
BRANCH  40  54
ATOM     54  C   UNL A   1      36.968  32.682  30.862  1.00  0.00     0.058 A 
ATOM     55  C   UNL A   1      37.183  33.683  29.901  1.00  0.00     0.135 A 
ATOM     56  C   UNL A   1      35.655  32.213  31.035  1.00  0.00     0.135 A 
ATOM     57  F   UNL A   1      38.413  34.182  29.706  1.00  0.00    -0.206 F 
ATOM     58  C   UNL A   1      36.130  34.223  29.166  1.00  0.00     0.059 A 
ATOM     59  C   UNL A   1      34.593  32.715  30.289  1.00  0.00     0.059 A 
ATOM     60  F   UNL A   1      35.392  31.258  31.940  1.00  0.00    -0.206 F 
ATOM     61  C   UNL A   1      34.838  33.733  29.370  1.00  0.00     0.060 A 
BRANCH  61  62
ATOM     62  S   UNL A   1      33.481  34.453  28.421  1.00  0.00     0.124 S 
ATOM     63  O   UNL A   1      33.038  33.307  27.632  1.00  0.00    -0.237 OA
ATOM     64  O   UNL A   1      32.567  34.891  29.471  1.00  0.00    -0.237 OA
ATOM     65  O   UNL A   1      34.122  35.524  27.665  1.00  0.00    -0.744 OA
ENDBRANCH  61  62
ENDBRANCH  40  54
BRANCH  41  66
ATOM     66  C   UNL A   1      44.589  28.649  35.928  1.00  0.00     0.058 A 
ATOM     67  C   UNL A   1      45.884  29.168  35.787  1.00  0.00     0.135 A 
ATOM     68  C   UNL A   1      44.414  27.562  36.801  1.00  0.00     0.135 A 
ATOM     69  F   UNL A   1      46.108  30.195  34.953  1.00  0.00    -0.206 F 
ATOM     70  C   UNL A   1      46.966  28.625  36.474  1.00  0.00     0.059 A 
ATOM     71  C   UNL A   1      45.474  27.023  37.523  1.00  0.00     0.059 A 
ATOM     72  F   UNL A   1      43.197  27.027  36.975  1.00  0.00    -0.206 F 
ATOM     73  C   UNL A   1      46.750  27.555  37.345  1.00  0.00     0.060 A 
BRANCH  73  74
ATOM     74  S   UNL A   1      48.154  26.887  38.264  1.00  0.00     0.124 S 
ATOM     75  O   UNL A   1      47.574  25.687  38.856  1.00  0.00    -0.237 OA
ATOM     76  O   UNL A   1      49.135  26.666  37.206  1.00  0.00    -0.237 OA
ATOM     77  O   UNL A   1      48.483  27.956  39.201  1.00  0.00    -0.744 OA
ENDBRANCH  73  74
ENDBRANCH  41  66
BRANCH  53  78
ATOM     78  C   UNL A   1      39.828  33.536  37.440  1.00  0.00     0.058 A 
ATOM     79  C   UNL A   1      40.493  34.749  37.677  1.00  0.00     0.135 A 
ATOM     80  C   UNL A   1      38.856  33.131  38.370  1.00  0.00     0.135 A 
ATOM     81  F   UNL A   1      41.436  35.181  36.825  1.00  0.00    -0.206 F 
ATOM     82  C   UNL A   1      40.222  35.518  38.805  1.00  0.00     0.059 A 
ATOM     83  C   UNL A   1      38.545  33.901  39.487  1.00  0.00     0.059 A 
ATOM     84  F   UNL A   1      38.181  31.984  38.188  1.00  0.00    -0.206 F 
ATOM     85  C   UNL A   1      39.242  35.088  39.702  1.00  0.00     0.060 A 
BRANCH  85  86
ATOM     86  S   UNL A   1      38.876  36.112  41.143  1.00  0.00     0.124 S 
ATOM     87  O   UNL A   1      37.775  35.379  41.757  1.00  0.00    -0.237 OA
ATOM     88  O   UNL A   1      40.141  36.087  41.873  1.00  0.00    -0.237 OA
ATOM     89  O   UNL A   1      38.523  37.404  40.561  1.00  0.00    -0.744 OA
ENDBRANCH  85  86
ENDBRANCH  53  78
ENDBRANCH  27  28
ENDBRANCH  20  22
ENDBRANCH  19  20
ENDBRANCH   1  19
TORSDOF 15
ENDMDL
MODEL 3
REMARK VINA RESULT:     -10.5      6.555     14.269
REMARK SMILES [NH3+][C@@H]1C(=O)N2C(C(=O)OCCOC(=O)c3ccc(-c4c5nc(c(-c6c(F)cc(S(=O)(=O)[O-])cc6F)c6ccc([nH]6)c(-c6c(F)cc(S(=O)(=O)[O-])cc6F)c6nc(c(-c7c(F)cc(S(=O)(=O)[O-])cc7F)c7ccc4[nH]7)C=C6)C=C5)cc3)=CCS[C@@H]12
REMARK SMILES IDX 11 1 10 2 9 3 7 4 8 5 6 6 2 7 3 8 84 9 4 10 5 11 83 12 82 13
REMARK SMILES IDX 81 14 1 15 12 19 13 20 14 21 15 22 16 23 80 24 17 25 79 26
REMARK SMILES IDX 18 27 19 28 20 29 73 30 21 31 78 32 72 33 74 34 22 35 77 36
REMARK SMILES IDX 71 37 70 38 23 40 57 41 36 42 56 43 37 44 40 45 55 46 75 47
REMARK SMILES IDX 38 48 39 49 54 51 76 52 41 53 24 54 25 55 34 56 26 57 27 58
REMARK SMILES IDX 33 59 35 60 28 61 29 62 30 63 31 64 32 65 58 66 59 67 68 68
REMARK SMILES IDX 60 69 61 70 67 71 69 72 62 73 63 74 64 75 65 76 66 77 42 78
REMARK SMILES IDX 43 79 52 80 44 81 45 82 51 83 53 84 46 85 47 86 48 87 49 88
REMARK SMILES IDX 50 89
REMARK H PARENT 1 16 1 17 1 18 74 39 40 50
REMARK Flexibility Score: inf
ROOT
ATOM      1  C   UNL A   1      38.948  23.236  26.045  1.00  0.00     0.275 C 
ENDROOT
BRANCH   1   2
ATOM      2  C   UNL A   1      39.703  22.201  26.885  1.00  0.00     0.275 C 
BRANCH   2   3
ATOM      3  O   UNL A   1      40.567  21.388  26.064  1.00  0.00    -0.457 OA
BRANCH   3   4
ATOM      4  C   UNL A   1      41.587  20.734  26.694  1.00  0.00     0.354 C 
ATOM      5  O   UNL A   1      41.438  19.871  27.540  1.00  0.00    -0.244 OA
BRANCH   4   6
ATOM      6  C   UNL A   1      42.915  21.182  26.139  1.00  0.00     0.128 C 
ATOM      7  C   UNL A   1      45.031  19.325  24.179  1.00  0.00     0.305 C 
ATOM      8  C   UNL A   1      43.795  19.013  25.107  1.00  0.00     0.289 C 
ATOM      9  C   UNL A   1      44.660  20.812  24.452  1.00  0.00     0.217 C 
ATOM     10  O   UNL A   1      43.180  18.027  25.427  1.00  0.00    -0.267 OA
ATOM     11  N   UNL A   1      43.697  20.324  25.427  1.00  0.00    -0.282 N 
ATOM     12  S   UNL A   1      45.891  21.787  25.354  1.00  0.00    -0.126 SA
ATOM     13  C   UNL A   1      44.675  23.017  25.911  1.00  0.00     0.101 C 
ATOM     14  C   UNL A   1      43.354  22.441  26.345  1.00  0.00     0.018 C 
BRANCH   7  15
ATOM     15  N   UNL A   1      44.827  19.028  22.742  1.00  0.00    -0.345 N 
ATOM     16  H   UNL A   1      45.721  19.083  22.253  1.00  0.00     0.345 HD
ATOM     17  H   UNL A   1      44.179  19.707  22.343  1.00  0.00     0.345 HD
ATOM     18  H   UNL A   1      44.441  18.090  22.640  1.00  0.00     0.345 HD
ENDBRANCH   7  15
ENDBRANCH   4   6
ENDBRANCH   3   4
ENDBRANCH   2   3
ENDBRANCH   1   2
BRANCH   1  19
ATOM     19  O   UNL A   1      38.984  24.536  26.663  1.00  0.00    -0.458 OA
BRANCH  19  20
ATOM     20  C   UNL A   1      40.151  25.204  26.517  1.00  0.00     0.338 C 
ATOM     21  O   UNL A   1      40.848  25.261  25.518  1.00  0.00    -0.246 OA
BRANCH  20  22
ATOM     22  C   UNL A   1      40.374  26.058  27.693  1.00  0.00     0.060 A 
ATOM     23  C   UNL A   1      39.439  25.944  28.713  1.00  0.00     0.016 A 
ATOM     24  C   UNL A   1      41.395  27.002  27.782  1.00  0.00     0.016 A 
ATOM     25  C   UNL A   1      39.494  26.774  29.823  1.00  0.00     0.010 A 
ATOM     26  C   UNL A   1      41.458  27.837  28.912  1.00  0.00     0.010 A 
ATOM     27  C   UNL A   1      40.495  27.739  29.935  1.00  0.00    -0.014 A 
BRANCH  27  28
ATOM     28  C   UNL A   1      40.444  28.682  31.084  1.00  0.00     0.031 A 
ATOM     29  C   UNL A   1      39.432  29.795  31.088  1.00  0.00     0.074 A 
ATOM     30  C   UNL A   1      41.227  28.491  32.165  1.00  0.00     0.049 A 
ATOM     31  N   UNL A   1      39.270  30.767  31.947  1.00  0.00    -0.248 NA
ATOM     32  C   UNL A   1      38.467  29.807  29.977  1.00  0.00     0.031 C 
ATOM     33  C   UNL A   1      42.169  27.383  32.342  1.00  0.00     0.029 A 
ATOM     34  N   UNL A   1      41.348  29.217  33.325  1.00  0.00    -0.354 N 
ATOM     35  C   UNL A   1      38.211  31.528  31.465  1.00  0.00     0.074 A 
ATOM     36  C   UNL A   1      37.776  30.909  30.232  1.00  0.00     0.031 C 
ATOM     37  C   UNL A   1      42.772  27.507  33.536  1.00  0.00     0.029 A 
ATOM     38  C   UNL A   1      42.311  28.732  34.180  1.00  0.00     0.049 A 
ATOM     39  H   UNL A   1      40.798  30.008  33.526  1.00  0.00     0.167 HD
ATOM     40  C   UNL A   1      37.655  32.641  32.003  1.00  0.00     0.037 A 
ATOM     41  C   UNL A   1      42.800  29.240  35.330  1.00  0.00     0.037 A 
ATOM     42  C   UNL A   1      38.085  33.238  33.243  1.00  0.00     0.049 A 
ATOM     43  C   UNL A   1      42.236  30.532  35.858  1.00  0.00     0.074 A 
ATOM     44  C   UNL A   1      37.592  34.371  33.867  1.00  0.00     0.029 A 
ATOM     45  N   UNL A   1      39.111  32.757  34.045  1.00  0.00    -0.354 N 
ATOM     46  N   UNL A   1      41.263  31.268  35.373  1.00  0.00    -0.248 NA
ATOM     47  C   UNL A   1      42.840  31.070  37.085  1.00  0.00     0.031 C 
ATOM     48  C   UNL A   1      38.357  34.608  35.013  1.00  0.00     0.029 A 
ATOM     49  C   UNL A   1      39.284  33.585  35.143  1.00  0.00     0.049 A 
ATOM     50  H   UNL A   1      39.637  31.946  33.860  1.00  0.00     0.167 HD
ATOM     51  C   UNL A   1      41.120  32.339  36.250  1.00  0.00     0.074 A 
ATOM     52  C   UNL A   1      42.098  32.148  37.301  1.00  0.00     0.031 C 
ATOM     53  C   UNL A   1      40.256  33.382  36.190  1.00  0.00     0.037 A 
BRANCH  40  54
ATOM     54  C   UNL A   1      36.563  33.321  31.221  1.00  0.00     0.058 A 
ATOM     55  C   UNL A   1      36.817  34.027  30.035  1.00  0.00     0.135 A 
ATOM     56  C   UNL A   1      35.233  33.250  31.666  1.00  0.00     0.135 A 
ATOM     57  F   UNL A   1      38.071  34.144  29.571  1.00  0.00    -0.206 F 
ATOM     58  C   UNL A   1      35.797  34.669  29.337  1.00  0.00     0.059 A 
ATOM     59  C   UNL A   1      34.192  33.856  30.968  1.00  0.00     0.059 A 
ATOM     60  F   UNL A   1      34.931  32.588  32.794  1.00  0.00    -0.206 F 
ATOM     61  C   UNL A   1      34.488  34.579  29.815  1.00  0.00     0.060 A 
BRANCH  61  62
ATOM     62  S   UNL A   1      33.177  35.429  28.908  1.00  0.00     0.124 S 
ATOM     63  O   UNL A   1      33.943  36.394  28.126  1.00  0.00    -0.237 OA
ATOM     64  O   UNL A   1      32.567  34.340  28.151  1.00  0.00    -0.237 OA
ATOM     65  O   UNL A   1      32.344  35.997  29.964  1.00  0.00    -0.744 OA
ENDBRANCH  61  62
ENDBRANCH  40  54
BRANCH  41  66
ATOM     66  C   UNL A   1      43.916  28.548  36.033  1.00  0.00     0.058 A 
ATOM     67  C   UNL A   1      45.250  28.935  35.844  1.00  0.00     0.135 A 
ATOM     68  C   UNL A   1      43.665  27.480  36.911  1.00  0.00     0.135 A 
ATOM     69  F   UNL A   1      45.546  29.937  35.002  1.00  0.00    -0.206 F 
ATOM     70  C   UNL A   1      46.297  28.283  36.491  1.00  0.00     0.059 A 
ATOM     71  C   UNL A   1      44.691  26.835  37.594  1.00  0.00     0.059 A 
ATOM     72  F   UNL A   1      42.407  27.069  37.130  1.00  0.00    -0.206 F 
ATOM     73  C   UNL A   1      46.006  27.237  37.370  1.00  0.00     0.060 A 
BRANCH  73  74
ATOM     74  S   UNL A   1      47.369  26.428  38.237  1.00  0.00     0.124 S 
ATOM     75  O   UNL A   1      48.520  26.893  37.472  1.00  0.00    -0.237 OA
ATOM     76  O   UNL A   1      47.238  26.971  39.586  1.00  0.00    -0.237 OA
ATOM     77  O   UNL A   1      47.058  25.009  38.106  1.00  0.00    -0.744 OA
ENDBRANCH  73  74
ENDBRANCH  41  66
BRANCH  53  78
ATOM     78  C   UNL A   1      40.290  34.381  37.317  1.00  0.00     0.058 A 
ATOM     79  C   UNL A   1      41.150  35.491  37.303  1.00  0.00     0.135 A 
ATOM     80  C   UNL A   1      39.408  34.252  38.404  1.00  0.00     0.135 A 
ATOM     81  F   UNL A   1      42.018  35.661  36.293  1.00  0.00    -0.206 F 
ATOM     82  C   UNL A   1      41.152  36.422  38.337  1.00  0.00     0.059 A 
ATOM     83  C   UNL A   1      39.370  35.189  39.432  1.00  0.00     0.059 A 
ATOM     84  F   UNL A   1      38.555  33.216  38.464  1.00  0.00    -0.206 F 
ATOM     85  C   UNL A   1      40.254  36.265  39.396  1.00  0.00     0.060 A 
BRANCH  85  86
ATOM     86  S   UNL A   1      40.244  37.499  40.714  1.00  0.00     0.124 S 
ATOM     87  O   UNL A   1      40.745  36.727  41.846  1.00  0.00    -0.237 OA
ATOM     88  O   UNL A   1      41.148  38.519  40.192  1.00  0.00    -0.237 OA
ATOM     89  O   UNL A   1      38.842  37.897  40.797  1.00  0.00    -0.744 OA
ENDBRANCH  85  86
ENDBRANCH  53  78
ENDBRANCH  27  28
ENDBRANCH  20  22
ENDBRANCH  19  20
ENDBRANCH   1  19
TORSDOF 15
ENDMDL
