MODEL 1
REMARK VINA RESULT:     -11.8      0.000      0.000
REMARK SMILES Cc1nsc(N(C)C(=O)[C@@H](C)NC(N)=O)c1C(=O)OCCOC(=O)c1ccc(-c2c3nc(c(-c4c(F)cc(S(=O)(=O)[O-])cc4F)c4ccc([nH]4)c(-c4c(F)cc(S(=O)(=O)[O-])cc4F)c4nc(c(-c5c(F)cc(S(=O)(=O)[O-])cc5F)c5ccc2[nH]5)C=C4)C=C3)cc1
REMARK SMILES IDX 20 1 19 2 17 3 18 4 16 5 1 6 2 7 3 8 4 9 5 10 6 11 7 12 8 13
REMARK SMILES IDX 9 14 10 15 11 16 12 17 13 18 14 20 15 21 21 24 22 25 23 26
REMARK SMILES IDX 24 27 25 28 26 29 90 30 27 31 89 32 28 33 29 34 30 35 83 36
REMARK SMILES IDX 31 37 88 38 82 39 84 40 32 41 87 42 81 43 80 44 33 46 67 47
REMARK SMILES IDX 46 48 66 49 47 50 50 51 65 52 85 53 48 54 49 55 64 57 86 58
REMARK SMILES IDX 51 59 34 60 35 61 44 62 36 63 37 64 43 65 45 66 38 67 39 68
REMARK SMILES IDX 40 69 41 70 42 71 68 72 69 73 78 74 70 75 71 76 77 77 79 78
REMARK SMILES IDX 72 79 73 80 74 81 75 82 76 83 52 84 53 85 62 86 54 87 55 88
REMARK SMILES IDX 61 89 63 90 56 91 57 92 58 93 59 94 60 95
REMARK H PARENT 12 19 14 22 14 23 84 45 50 56
REMARK Flexibility Score: inf
ROOT
ATOM      1  C   UNL A   1      36.811  22.203  25.610  1.00  0.00     0.275 C 
ENDROOT
BRANCH   1   2
ATOM      2  O   UNL A   1      35.955  21.059  25.650  1.00  0.00    -0.458 OA
BRANCH   2   3
ATOM      3  C   UNL A   1      34.664  21.270  26.036  1.00  0.00     0.343 C 
ATOM      4  O   UNL A   1      34.285  21.369  27.191  1.00  0.00    -0.246 OA
BRANCH   3   5
ATOM      5  C   UNL A   1      33.777  21.220  24.887  1.00  0.00     0.117 A 
ATOM      6  C   UNL A   1      33.722  18.592  24.812  1.00  0.00     0.069 C 
ATOM      7  C   UNL A   1      33.309  19.953  24.355  1.00  0.00     0.068 A 
ATOM      8  N   UNL A   1      32.423  20.021  23.368  1.00  0.00    -0.195 NA
ATOM      9  S   UNL A   1      32.211  21.593  22.962  1.00  0.00    -0.017 S 
ATOM     10  C   UNL A   1      33.282  22.290  24.133  1.00  0.00     0.133 A 
BRANCH  10  11
ATOM     11  N   UNL A   1      33.466  23.715  24.070  1.00  0.00    -0.303 N 
ATOM     12  C   UNL A   1      34.491  24.296  23.197  1.00  0.00     0.154 C 
BRANCH  11  13
ATOM     13  C   UNL A   1      32.781  24.524  24.996  1.00  0.00     0.249 C 
ATOM     14  O   UNL A   1      33.346  25.083  25.941  1.00  0.00    -0.272 OA
BRANCH  13  15
ATOM     15  C   UNL A   1      31.253  24.818  24.856  1.00  0.00     0.170 C 
ATOM     16  C   UNL A   1      30.793  25.386  23.517  1.00  0.00     0.041 C 
BRANCH  15  17
ATOM     17  N   UNL A   1      30.393  23.728  25.312  1.00  0.00    -0.327 N 
ATOM     18  C   UNL A   1      30.401  23.300  26.604  1.00  0.00     0.312 C 
ATOM     19  H   UNL A   1      29.791  23.292  24.668  1.00  0.00     0.166 HD
ATOM     20  N   UNL A   1      29.514  22.306  26.838  1.00  0.00    -0.352 N 
ATOM     21  O   UNL A   1      31.098  23.743  27.504  1.00  0.00    -0.249 OA
ATOM     22  H   UNL A   1      28.959  21.959  26.103  1.00  0.00     0.161 HD
ATOM     23  H   UNL A   1      29.425  21.929  27.743  1.00  0.00     0.161 HD
ENDBRANCH  15  17
ENDBRANCH  13  15
ENDBRANCH  11  13
ENDBRANCH  10  11
ENDBRANCH   3   5
ENDBRANCH   2   3
ENDBRANCH   1   2
BRANCH   1  24
ATOM     24  C   UNL A   1      38.232  21.703  25.409  1.00  0.00     0.275 C 
BRANCH  24  25
ATOM     25  O   UNL A   1      39.027  21.915  26.574  1.00  0.00    -0.458 OA
BRANCH  25  26
ATOM     26  C   UNL A   1      40.221  22.531  26.418  1.00  0.00     0.338 C 
ATOM     27  O   UNL A   1      41.211  22.109  25.838  1.00  0.00    -0.246 OA
BRANCH  26  28
ATOM     28  C   UNL A   1      40.209  23.747  27.254  1.00  0.00     0.060 A 
ATOM     29  C   UNL A   1      39.203  24.700  27.057  1.00  0.00     0.016 A 
ATOM     30  C   UNL A   1      41.296  24.014  28.101  1.00  0.00     0.016 A 
ATOM     31  C   UNL A   1      39.354  25.958  27.624  1.00  0.00     0.010 A 
ATOM     32  C   UNL A   1      41.460  25.270  28.637  1.00  0.00     0.010 A 
ATOM     33  C   UNL A   1      40.514  26.248  28.358  1.00  0.00    -0.014 A 
BRANCH  33  34
ATOM     34  C   UNL A   1      40.670  27.554  28.974  1.00  0.00     0.031 A 
ATOM     35  C   UNL A   1      41.755  28.359  28.356  1.00  0.00     0.074 A 
ATOM     36  C   UNL A   1      39.823  28.045  29.903  1.00  0.00     0.049 A 
ATOM     37  N   UNL A   1      42.899  28.653  28.875  1.00  0.00    -0.248 NA
ATOM     38  C   UNL A   1      41.638  28.736  26.937  1.00  0.00     0.031 C 
ATOM     39  C   UNL A   1      38.565  27.470  30.389  1.00  0.00     0.029 A 
ATOM     40  N   UNL A   1      39.886  29.229  30.573  1.00  0.00    -0.354 N 
ATOM     41  C   UNL A   1      43.547  29.465  27.949  1.00  0.00     0.074 A 
ATOM     42  C   UNL A   1      42.813  29.330  26.719  1.00  0.00     0.031 C 
ATOM     43  C   UNL A   1      37.891  28.398  31.114  1.00  0.00     0.029 A 
ATOM     44  C   UNL A   1      38.730  29.576  31.269  1.00  0.00     0.049 A 
ATOM     45  H   UNL A   1      40.689  29.799  30.565  1.00  0.00     0.167 HD
ATOM     46  C   UNL A   1      44.496  30.355  28.352  1.00  0.00     0.037 A 
ATOM     47  C   UNL A   1      38.487  30.748  31.915  1.00  0.00     0.037 A 
ATOM     48  C   UNL A   1      44.937  30.055  29.692  1.00  0.00     0.049 A 
ATOM     49  C   UNL A   1      39.812  31.356  32.205  1.00  0.00     0.074 A 
ATOM     50  C   UNL A   1      45.572  28.988  30.297  1.00  0.00     0.029 A 
ATOM     51  N   UNL A   1      44.378  30.789  30.710  1.00  0.00    -0.354 N 
ATOM     52  N   UNL A   1      40.680  30.830  33.025  1.00  0.00    -0.248 NA
ATOM     53  C   UNL A   1      40.359  32.281  31.226  1.00  0.00     0.031 C 
ATOM     54  C   UNL A   1      44.963  28.879  31.583  1.00  0.00     0.029 A 
ATOM     55  C   UNL A   1      44.052  29.927  31.723  1.00  0.00     0.049 A 
ATOM     56  H   UNL A   1      44.237  31.763  30.710  1.00  0.00     0.167 HD
ATOM     57  C   UNL A   1      41.906  31.000  32.398  1.00  0.00     0.074 A 
ATOM     58  C   UNL A   1      41.654  31.974  31.335  1.00  0.00     0.031 C 
ATOM     59  C   UNL A   1      42.932  30.126  32.617  1.00  0.00     0.037 A 
BRANCH  46  60
ATOM     60  C   UNL A   1      44.735  31.712  27.730  1.00  0.00     0.058 A 
ATOM     61  C   UNL A   1      45.932  31.927  27.012  1.00  0.00     0.135 A 
ATOM     62  C   UNL A   1      44.011  32.877  28.063  1.00  0.00     0.135 A 
ATOM     63  F   UNL A   1      46.697  30.892  26.630  1.00  0.00    -0.206 F 
ATOM     64  C   UNL A   1      46.421  33.203  26.735  1.00  0.00     0.059 A 
ATOM     65  C   UNL A   1      44.457  34.158  27.753  1.00  0.00     0.059 A 
ATOM     66  F   UNL A   1      42.884  32.838  28.783  1.00  0.00    -0.206 F 
ATOM     67  C   UNL A   1      45.683  34.314  27.127  1.00  0.00     0.060 A 
BRANCH  67  68
ATOM     68  S   UNL A   1      46.358  35.960  26.848  1.00  0.00     0.124 S 
ATOM     69  O   UNL A   1      47.180  36.143  28.038  1.00  0.00    -0.237 OA
ATOM     70  O   UNL A   1      47.080  35.778  25.593  1.00  0.00    -0.237 OA
ATOM     71  O   UNL A   1      45.168  36.800  26.764  1.00  0.00    -0.744 OA
ENDBRANCH  67  68
ENDBRANCH  46  60
BRANCH  47  72
ATOM     72  C   UNL A   1      37.230  31.549  31.963  1.00  0.00     0.058 A 
ATOM     73  C   UNL A   1      36.695  32.007  33.184  1.00  0.00     0.135 A 
ATOM     74  C   UNL A   1      36.707  32.147  30.801  1.00  0.00     0.135 A 
ATOM     75  F   UNL A   1      37.146  31.509  34.346  1.00  0.00    -0.206 F 
ATOM     76  C   UNL A   1      35.747  33.037  33.251  1.00  0.00     0.059 A 
ATOM     77  C   UNL A   1      35.759  33.172  30.841  1.00  0.00     0.059 A 
ATOM     78  F   UNL A   1      37.177  31.818  29.588  1.00  0.00    -0.206 F 
ATOM     79  C   UNL A   1      35.302  33.631  32.071  1.00  0.00     0.060 A 
BRANCH  79  80
ATOM     80  S   UNL A   1      34.224  35.085  32.153  1.00  0.00     0.124 S 
ATOM     81  O   UNL A   1      34.047  35.412  30.742  1.00  0.00    -0.237 OA
ATOM     82  O   UNL A   1      33.046  34.562  32.838  1.00  0.00    -0.237 OA
ATOM     83  O   UNL A   1      35.010  36.047  32.922  1.00  0.00    -0.744 OA
ENDBRANCH  79  80
ENDBRANCH  47  72
BRANCH  59  84
ATOM     84  C   UNL A   1      42.808  29.166  33.773  1.00  0.00     0.058 A 
ATOM     85  C   UNL A   1      42.223  27.889  33.700  1.00  0.00     0.135 A 
ATOM     86  C   UNL A   1      43.443  29.510  34.976  1.00  0.00     0.135 A 
ATOM     87  F   UNL A   1      41.684  27.440  32.558  1.00  0.00    -0.206 F 
ATOM     88  C   UNL A   1      42.230  27.013  34.789  1.00  0.00     0.059 A 
ATOM     89  C   UNL A   1      43.490  28.642  36.061  1.00  0.00     0.059 A 
ATOM     90  F   UNL A   1      44.075  30.689  35.087  1.00  0.00    -0.206 F 
ATOM     91  C   UNL A   1      42.867  27.400  35.967  1.00  0.00     0.060 A 
BRANCH  91  92
ATOM     92  S   UNL A   1      42.932  26.250  37.359  1.00  0.00     0.124 S 
ATOM     93  O   UNL A   1      41.552  26.263  37.832  1.00  0.00    -0.237 OA
ATOM     94  O   UNL A   1      43.374  25.010  36.726  1.00  0.00    -0.237 OA
ATOM     95  O   UNL A   1      43.907  26.860  38.261  1.00  0.00    -0.744 OA
ENDBRANCH  91  92
ENDBRANCH  59  84
ENDBRANCH  33  34
ENDBRANCH  26  28
ENDBRANCH  25  26
ENDBRANCH  24  25
ENDBRANCH   1  24
TORSDOF 18
ENDMDL
MODEL 2
REMARK VINA RESULT:     -11.7      3.824      9.854
REMARK SMILES Cc1nsc(N(C)C(=O)[C@@H](C)NC(N)=O)c1C(=O)OCCOC(=O)c1ccc(-c2c3nc(c(-c4c(F)cc(S(=O)(=O)[O-])cc4F)c4ccc([nH]4)c(-c4c(F)cc(S(=O)(=O)[O-])cc4F)c4nc(c(-c5c(F)cc(S(=O)(=O)[O-])cc5F)c5ccc2[nH]5)C=C4)C=C3)cc1
REMARK SMILES IDX 20 1 19 2 17 3 18 4 16 5 1 6 2 7 3 8 4 9 5 10 6 11 7 12 8 13
REMARK SMILES IDX 9 14 10 15 11 16 12 17 13 18 14 20 15 21 21 24 22 25 23 26
REMARK SMILES IDX 24 27 25 28 26 29 90 30 27 31 89 32 28 33 29 34 30 35 83 36
REMARK SMILES IDX 31 37 88 38 82 39 84 40 32 41 87 42 81 43 80 44 33 46 67 47
REMARK SMILES IDX 46 48 66 49 47 50 50 51 65 52 85 53 48 54 49 55 64 57 86 58
REMARK SMILES IDX 51 59 34 60 35 61 44 62 36 63 37 64 43 65 45 66 38 67 39 68
REMARK SMILES IDX 40 69 41 70 42 71 68 72 69 73 78 74 70 75 71 76 77 77 79 78
REMARK SMILES IDX 72 79 73 80 74 81 75 82 76 83 52 84 53 85 62 86 54 87 55 88
REMARK SMILES IDX 61 89 63 90 56 91 57 92 58 93 59 94 60 95
REMARK H PARENT 12 19 14 22 14 23 84 45 50 56
REMARK Flexibility Score: inf
ROOT
ATOM      1  C   UNL A   1      31.991  30.886  26.286  1.00  0.00     0.275 C 
ENDROOT
BRANCH   1   2
ATOM      2  O   UNL A   1      31.458  29.653  25.799  1.00  0.00    -0.458 OA
BRANCH   2   3
ATOM      3  C   UNL A   1      32.117  29.067  24.759  1.00  0.00     0.343 C 
ATOM      4  O   UNL A   1      32.983  29.602  24.087  1.00  0.00    -0.246 OA
BRANCH   3   5
ATOM      5  C   UNL A   1      31.547  27.763  24.468  1.00  0.00     0.117 A 
ATOM      6  C   UNL A   1      33.712  26.452  25.181  1.00  0.00     0.069 C 
ATOM      7  C   UNL A   1      32.296  26.544  24.716  1.00  0.00     0.068 A 
ATOM      8  N   UNL A   1      31.646  25.403  24.511  1.00  0.00    -0.195 NA
ATOM      9  S   UNL A   1      30.166  25.746  23.902  1.00  0.00    -0.017 S 
ATOM     10  C   UNL A   1      30.294  27.474  23.915  1.00  0.00     0.133 A 
BRANCH  10  11
ATOM     11  N   UNL A   1      29.189  28.206  23.357  1.00  0.00    -0.303 N 
ATOM     12  C   UNL A   1      27.830  27.658  23.411  1.00  0.00     0.154 C 
BRANCH  11  13
ATOM     13  C   UNL A   1      29.460  29.360  22.596  1.00  0.00     0.249 C 
ATOM     14  O   UNL A   1      30.316  29.388  21.708  1.00  0.00    -0.272 OA
BRANCH  13  15
ATOM     15  C   UNL A   1      28.647  30.680  22.791  1.00  0.00     0.170 C 
ATOM     16  C   UNL A   1      27.329  30.558  23.550  1.00  0.00     0.041 C 
BRANCH  15  17
ATOM     17  N   UNL A   1      29.447  31.808  23.263  1.00  0.00    -0.327 N 
ATOM     18  C   UNL A   1      29.122  33.094  22.958  1.00  0.00     0.312 C 
ATOM     19  H   UNL A   1      30.241  31.634  23.817  1.00  0.00     0.166 HD
ATOM     20  N   UNL A   1      29.962  33.998  23.512  1.00  0.00    -0.352 N 
ATOM     21  O   UNL A   1      28.173  33.455  22.278  1.00  0.00    -0.249 OA
ATOM     22  H   UNL A   1      30.723  33.692  24.057  1.00  0.00     0.161 HD
ATOM     23  H   UNL A   1      29.814  34.960  23.369  1.00  0.00     0.161 HD
ENDBRANCH  15  17
ENDBRANCH  13  15
ENDBRANCH  11  13
ENDBRANCH  10  11
ENDBRANCH   3   5
ENDBRANCH   2   3
ENDBRANCH   1   2
BRANCH   1  24
ATOM     24  C   UNL A   1      32.961  30.552  27.409  1.00  0.00     0.275 C 
BRANCH  24  25
ATOM     25  O   UNL A   1      34.194  31.253  27.255  1.00  0.00    -0.458 OA
BRANCH  25  26
ATOM     26  C   UNL A   1      34.833  31.656  28.377  1.00  0.00     0.338 C 
ATOM     27  O   UNL A   1      34.449  32.467  29.207  1.00  0.00    -0.246 OA
BRANCH  26  28
ATOM     28  C   UNL A   1      36.197  31.093  28.340  1.00  0.00     0.060 A 
ATOM     29  C   UNL A   1      36.392  29.811  27.816  1.00  0.00     0.016 A 
ATOM     30  C   UNL A   1      37.241  31.771  28.989  1.00  0.00     0.016 A 
ATOM     31  C   UNL A   1      37.602  29.171  28.045  1.00  0.00     0.010 A 
ATOM     32  C   UNL A   1      38.429  31.125  29.243  1.00  0.00     0.010 A 
ATOM     33  C   UNL A   1      38.586  29.814  28.812  1.00  0.00    -0.014 A 
BRANCH  33  34
ATOM     34  C   UNL A   1      39.864  29.162  29.039  1.00  0.00     0.031 A 
ATOM     35  C   UNL A   1      40.172  28.978  30.480  1.00  0.00     0.074 A 
ATOM     36  C   UNL A   1      40.620  28.641  28.049  1.00  0.00     0.049 A 
ATOM     37  N   UNL A   1      41.060  29.607  31.174  1.00  0.00    -0.248 NA
ATOM     38  C   UNL A   1      39.282  28.131  31.292  1.00  0.00     0.031 C 
ATOM     39  C   UNL A   1      40.299  28.509  26.625  1.00  0.00     0.029 A 
ATOM     40  N   UNL A   1      41.841  28.044  28.134  1.00  0.00    -0.354 N 
ATOM     41  C   UNL A   1      41.015  29.057  32.451  1.00  0.00     0.074 A 
ATOM     42  C   UNL A   1      39.796  28.296  32.514  1.00  0.00     0.031 C 
ATOM     43  C   UNL A   1      41.205  27.695  26.028  1.00  0.00     0.029 A 
ATOM     44  C   UNL A   1      42.249  27.368  26.986  1.00  0.00     0.049 A 
ATOM     45  H   UNL A   1      42.395  28.087  28.947  1.00  0.00     0.167 HD
ATOM     46  C   UNL A   1      42.110  29.093  33.260  1.00  0.00     0.037 A 
ATOM     47  C   UNL A   1      43.359  26.595  26.845  1.00  0.00     0.037 A 
ATOM     48  C   UNL A   1      43.076  30.044  32.766  1.00  0.00     0.049 A 
ATOM     49  C   UNL A   1      44.308  27.017  27.909  1.00  0.00     0.074 A 
ATOM     50  C   UNL A   1      43.087  31.409  32.560  1.00  0.00     0.029 A 
ATOM     51  N   UNL A   1      44.122  29.541  32.031  1.00  0.00    -0.354 N 
ATOM     52  N   UNL A   1      44.866  28.195  27.948  1.00  0.00    -0.248 NA
ATOM     53  C   UNL A   1      44.261  26.305  29.175  1.00  0.00     0.031 C 
ATOM     54  C   UNL A   1      43.829  31.594  31.355  1.00  0.00     0.029 A 
ATOM     55  C   UNL A   1      44.294  30.346  30.936  1.00  0.00     0.049 A 
ATOM     56  H   UNL A   1      44.654  28.744  32.253  1.00  0.00     0.167 HD
ATOM     57  C   UNL A   1      44.834  28.556  29.288  1.00  0.00     0.074 A 
ATOM     58  C   UNL A   1      44.527  27.318  30.004  1.00  0.00     0.031 C 
ATOM     59  C   UNL A   1      44.776  29.870  29.658  1.00  0.00     0.037 A 
BRANCH  46  60
ATOM     60  C   UNL A   1      42.501  28.013  34.244  1.00  0.00     0.058 A 
ATOM     61  C   UNL A   1      42.472  28.310  35.624  1.00  0.00     0.135 A 
ATOM     62  C   UNL A   1      43.187  26.831  33.892  1.00  0.00     0.135 A 
ATOM     63  F   UNL A   1      41.838  29.404  36.076  1.00  0.00    -0.206 F 
ATOM     64  C   UNL A   1      43.157  27.547  36.569  1.00  0.00     0.059 A 
ATOM     65  C   UNL A   1      43.836  26.028  34.826  1.00  0.00     0.059 A 
ATOM     66  F   UNL A   1      43.340  26.442  32.622  1.00  0.00    -0.206 F 
ATOM     67  C   UNL A   1      43.851  26.417  36.157  1.00  0.00     0.060 A 
BRANCH  67  68
ATOM     68  S   UNL A   1      44.807  25.483  37.364  1.00  0.00     0.124 S 
ATOM     69  O   UNL A   1      44.165  25.878  38.612  1.00  0.00    -0.237 OA
ATOM     70  O   UNL A   1      44.575  24.110  36.931  1.00  0.00    -0.237 OA
ATOM     71  O   UNL A   1      46.167  25.975  37.168  1.00  0.00    -0.744 OA
ENDBRANCH  67  68
ENDBRANCH  46  60
BRANCH  47  72
ATOM     72  C   UNL A   1      43.513  25.297  26.127  1.00  0.00     0.058 A 
ATOM     73  C   UNL A   1      44.577  25.072  25.231  1.00  0.00     0.135 A 
ATOM     74  C   UNL A   1      42.809  24.151  26.544  1.00  0.00     0.135 A 
ATOM     75  F   UNL A   1      45.318  26.103  24.793  1.00  0.00    -0.206 F 
ATOM     76  C   UNL A   1      44.958  23.787  24.823  1.00  0.00     0.059 A 
ATOM     77  C   UNL A   1      43.167  22.860  26.148  1.00  0.00     0.059 A 
ATOM     78  F   UNL A   1      41.807  24.245  27.431  1.00  0.00    -0.206 F 
ATOM     79  C   UNL A   1      44.260  22.682  25.308  1.00  0.00     0.060 A 
BRANCH  79  80
ATOM     80  S   UNL A   1      44.860  21.013  24.940  1.00  0.00     0.124 S 
ATOM     81  O   UNL A   1      46.222  21.057  25.462  1.00  0.00    -0.237 OA
ATOM     82  O   UNL A   1      43.921  20.175  25.681  1.00  0.00    -0.237 OA
ATOM     83  O   UNL A   1      44.751  20.926  23.486  1.00  0.00    -0.744 OA
ENDBRANCH  79  80
ENDBRANCH  47  72
BRANCH  59  84
ATOM     84  C   UNL A   1      45.055  30.913  28.607  1.00  0.00     0.058 A 
ATOM     85  C   UNL A   1      44.117  31.385  27.670  1.00  0.00     0.135 A 
ATOM     86  C   UNL A   1      46.298  31.563  28.649  1.00  0.00     0.135 A 
ATOM     87  F   UNL A   1      42.873  30.891  27.629  1.00  0.00    -0.206 F 
ATOM     88  C   UNL A   1      44.419  32.426  26.788  1.00  0.00     0.059 A 
ATOM     89  C   UNL A   1      46.608  32.621  27.801  1.00  0.00     0.059 A 
ATOM     90  F   UNL A   1      47.213  31.201  29.562  1.00  0.00    -0.206 F 
ATOM     91  C   UNL A   1      45.669  33.038  26.861  1.00  0.00     0.060 A 
BRANCH  91  92
ATOM     92  S   UNL A   1      46.045  34.422  25.763  1.00  0.00     0.124 S 
ATOM     93  O   UNL A   1      45.193  34.141  24.613  1.00  0.00    -0.237 OA
ATOM     94  O   UNL A   1      45.662  35.579  26.568  1.00  0.00    -0.237 OA
ATOM     95  O   UNL A   1      47.480  34.289  25.524  1.00  0.00    -0.744 OA
ENDBRANCH  91  92
ENDBRANCH  59  84
ENDBRANCH  33  34
ENDBRANCH  26  28
ENDBRANCH  25  26
ENDBRANCH  24  25
ENDBRANCH   1  24
TORSDOF 18
ENDMDL
MODEL 3
REMARK VINA RESULT:     -11.6      3.206      9.586
REMARK SMILES Cc1nsc(N(C)C(=O)[C@@H](C)NC(N)=O)c1C(=O)OCCOC(=O)c1ccc(-c2c3nc(c(-c4c(F)cc(S(=O)(=O)[O-])cc4F)c4ccc([nH]4)c(-c4c(F)cc(S(=O)(=O)[O-])cc4F)c4nc(c(-c5c(F)cc(S(=O)(=O)[O-])cc5F)c5ccc2[nH]5)C=C4)C=C3)cc1
REMARK SMILES IDX 20 1 19 2 17 3 18 4 16 5 1 6 2 7 3 8 4 9 5 10 6 11 7 12 8 13
REMARK SMILES IDX 9 14 10 15 11 16 12 17 13 18 14 20 15 21 21 24 22 25 23 26
REMARK SMILES IDX 24 27 25 28 26 29 90 30 27 31 89 32 28 33 29 34 30 35 83 36
REMARK SMILES IDX 31 37 88 38 82 39 84 40 32 41 87 42 81 43 80 44 33 46 67 47
REMARK SMILES IDX 46 48 66 49 47 50 50 51 65 52 85 53 48 54 49 55 64 57 86 58
REMARK SMILES IDX 51 59 34 60 35 61 44 62 36 63 37 64 43 65 45 66 38 67 39 68
REMARK SMILES IDX 40 69 41 70 42 71 68 72 69 73 78 74 70 75 71 76 77 77 79 78
REMARK SMILES IDX 72 79 73 80 74 81 75 82 76 83 52 84 53 85 62 86 54 87 55 88
REMARK SMILES IDX 61 89 63 90 56 91 57 92 58 93 59 94 60 95
REMARK H PARENT 12 19 14 22 14 23 84 45 50 56
REMARK Flexibility Score: inf
ROOT
ATOM      1  C   UNL A   1      33.838  28.860  26.635  1.00  0.00     0.275 C 
ENDROOT
BRANCH   1   2
ATOM      2  O   UNL A   1      32.629  28.295  26.122  1.00  0.00    -0.458 OA
BRANCH   2   3
ATOM      3  C   UNL A   1      32.603  28.005  24.790  1.00  0.00     0.343 C 
ATOM      4  O   UNL A   1      33.485  28.283  23.995  1.00  0.00    -0.246 OA
BRANCH   3   5
ATOM      5  C   UNL A   1      31.315  27.445  24.419  1.00  0.00     0.117 A 
ATOM      6  C   UNL A   1      30.296  29.769  23.726  1.00  0.00     0.069 C 
ATOM      7  C   UNL A   1      30.260  28.284  23.879  1.00  0.00     0.068 A 
ATOM      8  N   UNL A   1      29.159  27.657  23.477  1.00  0.00    -0.195 NA
ATOM      9  S   UNL A   1      29.299  26.068  23.843  1.00  0.00    -0.017 S 
ATOM     10  C   UNL A   1      30.887  26.118  24.535  1.00  0.00     0.133 A 
BRANCH  10  11
ATOM     11  N   UNL A   1      31.389  24.889  25.087  1.00  0.00    -0.303 N 
ATOM     12  C   UNL A   1      31.564  24.739  26.535  1.00  0.00     0.154 C 
BRANCH  11  13
ATOM     13  C   UNL A   1      31.884  23.908  24.207  1.00  0.00     0.249 C 
ATOM     14  O   UNL A   1      31.517  22.730  24.244  1.00  0.00    -0.272 OA
BRANCH  13  15
ATOM     15  C   UNL A   1      32.902  24.260  23.075  1.00  0.00     0.170 C 
ATOM     16  C   UNL A   1      34.123  23.354  22.957  1.00  0.00     0.041 C 
BRANCH  15  17
ATOM     17  N   UNL A   1      32.284  24.516  21.776  1.00  0.00    -0.327 N 
ATOM     18  C   UNL A   1      32.668  25.561  20.993  1.00  0.00     0.312 C 
ATOM     19  H   UNL A   1      31.571  23.917  21.458  1.00  0.00     0.166 HD
ATOM     20  N   UNL A   1      32.002  25.612  19.816  1.00  0.00    -0.352 N 
ATOM     21  O   UNL A   1      33.529  26.383  21.262  1.00  0.00    -0.249 OA
ATOM     22  H   UNL A   1      31.310  24.942  19.613  1.00  0.00     0.161 HD
ATOM     23  H   UNL A   1      32.209  26.320  19.164  1.00  0.00     0.161 HD
ENDBRANCH  15  17
ENDBRANCH  13  15
ENDBRANCH  11  13
ENDBRANCH  10  11
ENDBRANCH   3   5
ENDBRANCH   2   3
ENDBRANCH   1   2
BRANCH   1  24
ATOM     24  C   UNL A   1      33.591  30.344  26.856  1.00  0.00     0.275 C 
BRANCH  24  25
ATOM     25  O   UNL A   1      34.131  30.780  28.102  1.00  0.00    -0.458 OA
BRANCH  25  26
ATOM     26  C   UNL A   1      35.127  31.695  28.071  1.00  0.00     0.338 C 
ATOM     27  O   UNL A   1      35.097  32.818  27.591  1.00  0.00    -0.246 OA
BRANCH  26  28
ATOM     28  C   UNL A   1      36.357  31.031  28.544  1.00  0.00     0.060 A 
ATOM     29  C   UNL A   1      37.440  31.815  28.958  1.00  0.00     0.016 A 
ATOM     30  C   UNL A   1      36.489  29.640  28.405  1.00  0.00     0.016 A 
ATOM     31  C   UNL A   1      38.680  31.212  29.120  1.00  0.00     0.010 A 
ATOM     32  C   UNL A   1      37.725  29.048  28.535  1.00  0.00     0.010 A 
ATOM     33  C   UNL A   1      38.821  29.844  28.845  1.00  0.00    -0.014 A 
BRANCH  33  34
ATOM     34  C   UNL A   1      40.109  29.199  29.034  1.00  0.00     0.031 A 
ATOM     35  C   UNL A   1      40.451  28.998  30.465  1.00  0.00     0.074 A 
ATOM     36  C   UNL A   1      40.845  28.697  28.021  1.00  0.00     0.049 A 
ATOM     37  N   UNL A   1      41.349  29.624  31.147  1.00  0.00    -0.248 NA
ATOM     38  C   UNL A   1      39.586  28.132  31.286  1.00  0.00     0.031 C 
ATOM     39  C   UNL A   1      40.493  28.582  26.602  1.00  0.00     0.029 A 
ATOM     40  N   UNL A   1      42.073  28.109  28.070  1.00  0.00    -0.354 N 
ATOM     41  C   UNL A   1      41.337  29.056  32.418  1.00  0.00     0.074 A 
ATOM     42  C   UNL A   1      40.126  28.285  32.497  1.00  0.00     0.031 C 
ATOM     43  C   UNL A   1      41.391  27.783  25.974  1.00  0.00     0.029 A 
ATOM     44  C   UNL A   1      42.459  27.451  26.903  1.00  0.00     0.049 A 
ATOM     45  H   UNL A   1      42.645  28.145  28.870  1.00  0.00     0.167 HD
ATOM     46  C   UNL A   1      42.450  29.090  33.202  1.00  0.00     0.037 A 
ATOM     47  C   UNL A   1      43.572  26.689  26.727  1.00  0.00     0.037 A 
ATOM     48  C   UNL A   1      43.397  30.054  32.699  1.00  0.00     0.049 A 
ATOM     49  C   UNL A   1      44.541  27.103  27.774  1.00  0.00     0.074 A 
ATOM     50  C   UNL A   1      43.394  31.423  32.512  1.00  0.00     0.029 A 
ATOM     51  N   UNL A   1      44.430  29.570  31.934  1.00  0.00    -0.354 N 
ATOM     52  N   UNL A   1      45.091  28.285  27.818  1.00  0.00    -0.248 NA
ATOM     53  C   UNL A   1      44.528  26.374  29.032  1.00  0.00     0.031 C 
ATOM     54  C   UNL A   1      44.107  31.629  31.293  1.00  0.00     0.029 A 
ATOM     55  C   UNL A   1      44.572  30.391  30.846  1.00  0.00     0.049 A 
ATOM     56  H   UNL A   1      44.974  28.774  32.133  1.00  0.00     0.167 HD
ATOM     57  C   UNL A   1      45.087  28.628  29.162  1.00  0.00     0.074 A 
ATOM     58  C   UNL A   1      44.806  27.378  29.868  1.00  0.00     0.031 C 
ATOM     59  C   UNL A   1      45.028  29.936  29.552  1.00  0.00     0.037 A 
BRANCH  46  60
ATOM     60  C   UNL A   1      42.872  28.000  34.161  1.00  0.00     0.058 A 
ATOM     61  C   UNL A   1      42.978  28.309  35.535  1.00  0.00     0.135 A 
ATOM     62  C   UNL A   1      43.465  26.781  33.767  1.00  0.00     0.135 A 
ATOM     63  F   UNL A   1      42.440  29.437  36.027  1.00  0.00    -0.206 F 
ATOM     64  C   UNL A   1      43.703  27.520  36.427  1.00  0.00     0.059 A 
ATOM     65  C   UNL A   1      44.152  25.955  34.651  1.00  0.00     0.059 A 
ATOM     66  F   UNL A   1      43.488  26.375  32.493  1.00  0.00    -0.206 F 
ATOM     67  C   UNL A   1      44.303  26.353  35.970  1.00  0.00     0.060 A 
BRANCH  67  68
ATOM     68  S   UNL A   1      45.313  25.383  37.102  1.00  0.00     0.124 S 
ATOM     69  O   UNL A   1      44.314  24.916  38.057  1.00  0.00    -0.237 OA
ATOM     70  O   UNL A   1      45.869  24.369  36.211  1.00  0.00    -0.237 OA
ATOM     71  O   UNL A   1      46.273  26.355  37.613  1.00  0.00    -0.744 OA
ENDBRANCH  67  68
ENDBRANCH  46  60
BRANCH  47  72
ATOM     72  C   UNL A   1      43.719  25.402  25.987  1.00  0.00     0.058 A 
ATOM     73  C   UNL A   1      44.866  25.121  25.218  1.00  0.00     0.135 A 
ATOM     74  C   UNL A   1      42.889  24.301  26.277  1.00  0.00     0.135 A 
ATOM     75  F   UNL A   1      45.725  26.104  24.908  1.00  0.00    -0.206 F 
ATOM     76  C   UNL A   1      45.201  23.822  24.814  1.00  0.00     0.059 A 
ATOM     77  C   UNL A   1      43.200  22.998  25.883  1.00  0.00     0.059 A 
ATOM     78  F   UNL A   1      41.796  24.448  27.041  1.00  0.00    -0.206 F 
ATOM     79  C   UNL A   1      44.372  22.761  25.173  1.00  0.00     0.060 A 
BRANCH  79  80
ATOM     80  S   UNL A   1      44.891  21.061  24.823  1.00  0.00     0.124 S 
ATOM     81  O   UNL A   1      44.678  20.969  23.382  1.00  0.00    -0.237 OA
ATOM     82  O   UNL A   1      46.284  21.064  25.262  1.00  0.00    -0.237 OA
ATOM     83  O   UNL A   1      43.988  20.255  25.640  1.00  0.00    -0.744 OA
ENDBRANCH  79  80
ENDBRANCH  47  72
BRANCH  59  84
ATOM     84  C   UNL A   1      45.275  30.996  28.509  1.00  0.00     0.058 A 
ATOM     85  C   UNL A   1      44.304  31.497  27.622  1.00  0.00     0.135 A 
ATOM     86  C   UNL A   1      46.527  31.630  28.509  1.00  0.00     0.135 A 
ATOM     87  F   UNL A   1      43.053  31.018  27.626  1.00  0.00    -0.206 F 
ATOM     88  C   UNL A   1      44.581  32.551  26.747  1.00  0.00     0.059 A 
ATOM     89  C   UNL A   1      46.815  32.700  27.669  1.00  0.00     0.059 A 
ATOM     90  F   UNL A   1      47.476  31.239  29.376  1.00  0.00    -0.206 F 
ATOM     91  C   UNL A   1      45.842  33.146  26.778  1.00  0.00     0.060 A 
BRANCH  91  92
ATOM     92  S   UNL A   1      46.188  34.546  25.691  1.00  0.00     0.124 S 
ATOM     93  O   UNL A   1      45.271  34.307  24.581  1.00  0.00    -0.237 OA
ATOM     94  O   UNL A   1      45.871  35.693  26.538  1.00  0.00    -0.237 OA
ATOM     95  O   UNL A   1      47.605  34.390  25.374  1.00  0.00    -0.744 OA
ENDBRANCH  91  92
ENDBRANCH  59  84
ENDBRANCH  33  34
ENDBRANCH  26  28
ENDBRANCH  25  26
ENDBRANCH  24  25
ENDBRANCH   1  24
TORSDOF 18
ENDMDL
