MODEL 1
REMARK VINA RESULT:     -12.1      0.000      0.000
REMARK SMILES CC(C)(C)c1cc(Nc2ccccc2C(=O)OCCOC(=O)c2ccc(-c3c4nc(c(-c5c(F)cc(S(=O)(=O)[O-])cc5F)c5ccc([nH]5)c(-c5c(F)cc(S(=O)(=O)[O-])cc5F)c5nc(c(-c6c(F)cc(S(=O)(=O)[O-])cc6F)c6ccc3[nH]6)C=C5)C=C4)cc2)cc2c1OCC2(C)C
REMARK SMILES IDX 18 1 17 2 15 3 16 4 14 5 9 6 10 7 11 8 13 9 12 10 8 11 7 13
REMARK SMILES IDX 5 14 6 15 91 16 90 17 92 18 89 19 94 20 93 21 95 22 96 23
REMARK SMILES IDX 2 24 1 25 3 26 4 27 19 28 20 29 21 30 22 31 23 32 24 33
REMARK SMILES IDX 88 34 25 35 87 36 26 37 27 38 28 39 81 40 29 41 86 42 80 43
REMARK SMILES IDX 82 44 30 45 85 46 79 47 78 48 31 50 65 51 44 52 64 53 45 54
REMARK SMILES IDX 48 55 63 56 83 57 46 58 47 59 62 61 84 62 49 63 32 64 33 65
REMARK SMILES IDX 42 66 34 67 35 68 41 69 43 70 36 71 37 72 38 73 39 74 40 75
REMARK SMILES IDX 66 76 67 77 76 78 68 79 69 80 75 81 77 82 70 83 71 84 72 85
REMARK SMILES IDX 73 86 74 87 50 88 51 89 60 90 52 91 53 92 59 93 61 94 54 95
REMARK SMILES IDX 55 96 56 97 57 98 58 99
REMARK H PARENT 8 12 82 49 48 60
REMARK Flexibility Score: inf
ROOT
ATOM      1  C   UNL A   1      42.260  19.084  26.819  1.00  0.00     0.275 C 
ENDROOT
BRANCH   1   2
ATOM      2  O   UNL A   1      41.563  20.244  26.323  1.00  0.00    -0.458 OA
BRANCH   2   3
ATOM      3  C   UNL A   1      40.246  20.108  26.024  1.00  0.00     0.340 C 
ATOM      4  O   UNL A   1      39.690  19.066  25.730  1.00  0.00    -0.246 OA
BRANCH   3   5
ATOM      5  C   UNL A   1      39.511  21.401  26.179  1.00  0.00     0.083 A 
ATOM      6  C   UNL A   1      38.245  21.662  25.626  1.00  0.00     0.053 A 
ATOM      7  C   UNL A   1      37.695  22.951  25.800  1.00  0.00     0.027 A 
ATOM      8  C   UNL A   1      38.401  23.973  26.434  1.00  0.00     0.002 A 
ATOM      9  C   UNL A   1      40.181  22.421  26.885  1.00  0.00     0.018 A 
ATOM     10  C   UNL A   1      39.652  23.710  26.971  1.00  0.00     0.001 A 
BRANCH   6  11
ATOM     11  N   UNL A   1      37.572  20.733  24.800  1.00  0.00    -0.355 N 
ATOM     12  H   UNL A   1      38.121  20.268  24.129  1.00  0.00     0.167 HD
BRANCH  11  13
ATOM     13  C   UNL A   1      36.203  20.398  24.831  1.00  0.00     0.039 A 
ATOM     14  C   UNL A   1      33.843  21.149  24.735  1.00  0.00     0.002 A 
ATOM     15  C   UNL A   1      35.230  21.418  24.813  1.00  0.00     0.034 A 
ATOM     16  C   UNL A   1      33.500  19.801  24.598  1.00  0.00     0.127 A 
ATOM     17  C   UNL A   1      34.443  18.788  24.643  1.00  0.00     0.006 A 
ATOM     18  O   UNL A   1      32.240  19.323  24.343  1.00  0.00    -0.492 OA
ATOM     19  C   UNL A   1      35.783  19.070  24.794  1.00  0.00     0.034 A 
ATOM     20  C   UNL A   1      33.825  17.455  24.409  1.00  0.00     0.028 C 
ATOM     21  C   UNL A   1      32.346  17.878  24.411  1.00  0.00     0.240 C 
ATOM     22  C   UNL A   1      34.269  16.898  23.049  1.00  0.00     0.020 C 
ATOM     23  C   UNL A   1      34.138  16.450  25.520  1.00  0.00     0.020 C 
BRANCH  14  24
ATOM     24  C   UNL A   1      32.801  22.279  24.740  1.00  0.00    -0.009 C 
ATOM     25  C   UNL A   1      33.401  23.656  25.123  1.00  0.00     0.016 C 
ATOM     26  C   UNL A   1      31.671  22.018  25.762  1.00  0.00     0.016 C 
ATOM     27  C   UNL A   1      32.200  22.402  23.329  1.00  0.00     0.016 C 
ENDBRANCH  14  24
ENDBRANCH  11  13
ENDBRANCH   6  11
ENDBRANCH   3   5
ENDBRANCH   2   3
ENDBRANCH   1   2
BRANCH   1  28
ATOM     28  C   UNL A   1      43.185  18.499  25.749  1.00  0.00     0.275 C 
BRANCH  28  29
ATOM     29  O   UNL A   1      43.363  19.439  24.675  1.00  0.00    -0.458 OA
BRANCH  29  30
ATOM     30  C   UNL A   1      44.641  19.760  24.377  1.00  0.00     0.338 C 
ATOM     31  O   UNL A   1      45.456  19.095  23.758  1.00  0.00    -0.246 OA
BRANCH  30  32
ATOM     32  C   UNL A   1      44.861  21.155  24.778  1.00  0.00     0.060 A 
ATOM     33  C   UNL A   1      44.663  22.220  23.904  1.00  0.00     0.016 A 
ATOM     34  C   UNL A   1      45.261  21.384  26.092  1.00  0.00     0.016 A 
ATOM     35  C   UNL A   1      44.913  23.522  24.355  1.00  0.00     0.010 A 
ATOM     36  C   UNL A   1      45.480  22.678  26.551  1.00  0.00     0.010 A 
ATOM     37  C   UNL A   1      45.330  23.762  25.681  1.00  0.00    -0.014 A 
BRANCH  37  38
ATOM     38  C   UNL A   1      45.578  25.143  26.173  1.00  0.00     0.031 A 
ATOM     39  C   UNL A   1      46.959  25.744  26.132  1.00  0.00     0.074 A 
ATOM     40  C   UNL A   1      44.557  25.841  26.707  1.00  0.00     0.049 A 
ATOM     41  N   UNL A   1      47.344  26.947  26.479  1.00  0.00    -0.248 NA
ATOM     42  C   UNL A   1      48.057  24.877  25.673  1.00  0.00     0.031 C 
ATOM     43  C   UNL A   1      43.198  25.330  26.893  1.00  0.00     0.029 A 
ATOM     44  N   UNL A   1      44.500  27.125  27.184  1.00  0.00    -0.354 N 
ATOM     45  C   UNL A   1      48.721  26.980  26.282  1.00  0.00     0.074 A 
ATOM     46  C   UNL A   1      49.114  25.657  25.848  1.00  0.00     0.031 C 
ATOM     47  C   UNL A   1      42.427  26.308  27.393  1.00  0.00     0.029 A 
ATOM     48  C   UNL A   1      43.241  27.505  27.589  1.00  0.00     0.049 A 
ATOM     49  H   UNL A   1      45.283  27.719  27.234  1.00  0.00     0.167 HD
ATOM     50  C   UNL A   1      49.573  28.025  26.420  1.00  0.00     0.037 A 
ATOM     51  C   UNL A   1      42.788  28.687  28.047  1.00  0.00     0.037 A 
ATOM     52  C   UNL A   1      49.166  29.346  26.826  1.00  0.00     0.049 A 
ATOM     53  C   UNL A   1      43.739  29.846  28.151  1.00  0.00     0.074 A 
ATOM     54  C   UNL A   1      49.934  30.494  26.915  1.00  0.00     0.029 A 
ATOM     55  N   UNL A   1      47.879  29.696  27.212  1.00  0.00    -0.354 N 
ATOM     56  N   UNL A   1      45.019  29.886  27.870  1.00  0.00    -0.248 NA
ATOM     57  C   UNL A   1      43.185  31.121  28.628  1.00  0.00     0.031 C 
ATOM     58  C   UNL A   1      49.122  31.528  27.396  1.00  0.00     0.029 A 
ATOM     59  C   UNL A   1      47.837  31.036  27.561  1.00  0.00     0.049 A 
ATOM     60  H   UNL A   1      47.110  29.081  27.234  1.00  0.00     0.167 HD
ATOM     61  C   UNL A   1      45.424  31.192  28.124  1.00  0.00     0.074 A 
ATOM     62  C   UNL A   1      44.247  31.915  28.562  1.00  0.00     0.031 C 
ATOM     63  C   UNL A   1      46.659  31.740  28.007  1.00  0.00     0.037 A 
BRANCH  50  64
ATOM     64  C   UNL A   1      51.028  27.794  26.103  1.00  0.00     0.058 A 
ATOM     65  C   UNL A   1      51.944  27.418  27.099  1.00  0.00     0.135 A 
ATOM     66  C   UNL A   1      51.505  27.900  24.786  1.00  0.00     0.135 A 
ATOM     67  F   UNL A   1      51.548  27.309  28.377  1.00  0.00    -0.206 F 
ATOM     68  C   UNL A   1      53.285  27.186  26.808  1.00  0.00     0.059 A 
ATOM     69  C   UNL A   1      52.837  27.643  24.466  1.00  0.00     0.059 A 
ATOM     70  F   UNL A   1      50.674  28.250  23.792  1.00  0.00    -0.206 F 
ATOM     71  C   UNL A   1      53.723  27.300  25.487  1.00  0.00     0.060 A 
BRANCH  71  72
ATOM     72  S   UNL A   1      55.463  26.985  25.129  1.00  0.00     0.124 S 
ATOM     73  O   UNL A   1      56.060  28.289  25.406  1.00  0.00    -0.237 OA
ATOM     74  O   UNL A   1      55.790  25.925  26.078  1.00  0.00    -0.237 OA
ATOM     75  O   UNL A   1      55.457  26.586  23.726  1.00  0.00    -0.744 OA
ENDBRANCH  71  72
ENDBRANCH  50  64
BRANCH  51  76
ATOM     76  C   UNL A   1      41.346  28.836  28.374  1.00  0.00     0.058 A 
ATOM     77  C   UNL A   1      40.905  28.796  29.705  1.00  0.00     0.135 A 
ATOM     78  C   UNL A   1      40.394  29.095  27.376  1.00  0.00     0.135 A 
ATOM     79  F   UNL A   1      41.777  28.545  30.692  1.00  0.00    -0.206 F 
ATOM     80  C   UNL A   1      39.573  29.014  30.037  1.00  0.00     0.059 A 
ATOM     81  C   UNL A   1      39.059  29.340  27.685  1.00  0.00     0.059 A 
ATOM     82  F   UNL A   1      40.768  29.161  26.089  1.00  0.00    -0.206 F 
ATOM     83  C   UNL A   1      38.658  29.297  29.020  1.00  0.00     0.060 A 
BRANCH  83  84
ATOM     84  S   UNL A   1      36.950  29.671  29.476  1.00  0.00     0.124 S 
ATOM     85  O   UNL A   1      36.994  31.122  29.616  1.00  0.00    -0.237 OA
ATOM     86  O   UNL A   1      36.211  29.162  28.325  1.00  0.00    -0.237 OA
ATOM     87  O   UNL A   1      36.761  28.922  30.714  1.00  0.00    -0.744 OA
ENDBRANCH  83  84
ENDBRANCH  51  76
BRANCH  63  88
ATOM     88  C   UNL A   1      46.810  33.194  28.360  1.00  0.00     0.058 A 
ATOM     89  C   UNL A   1      47.211  33.597  29.643  1.00  0.00     0.135 A 
ATOM     90  C   UNL A   1      46.624  34.189  27.387  1.00  0.00     0.135 A 
ATOM     91  F   UNL A   1      47.397  32.685  30.610  1.00  0.00    -0.206 F 
ATOM     92  C   UNL A   1      47.410  34.937  29.953  1.00  0.00     0.059 A 
ATOM     93  C   UNL A   1      46.841  35.534  27.668  1.00  0.00     0.059 A 
ATOM     94  F   UNL A   1      46.249  33.856  26.141  1.00  0.00    -0.206 F 
ATOM     95  C   UNL A   1      47.228  35.899  28.958  1.00  0.00     0.060 A 
BRANCH  95  96
ATOM     96  S   UNL A   1      47.532  37.631  29.367  1.00  0.00     0.124 S 
ATOM     97  O   UNL A   1      48.250  37.514  30.631  1.00  0.00    -0.237 OA
ATOM     98  O   UNL A   1      48.322  38.085  28.227  1.00  0.00    -0.237 OA
ATOM     99  O   UNL A   1      46.190  38.200  29.458  1.00  0.00    -0.744 OA
ENDBRANCH  95  96
ENDBRANCH  63  88
ENDBRANCH  37  38
ENDBRANCH  30  32
ENDBRANCH  29  30
ENDBRANCH  28  29
ENDBRANCH   1  28
TORSDOF 17
ENDMDL
MODEL 2
REMARK VINA RESULT:     -11.9      0.481      2.092
REMARK SMILES CC(C)(C)c1cc(Nc2ccccc2C(=O)OCCOC(=O)c2ccc(-c3c4nc(c(-c5c(F)cc(S(=O)(=O)[O-])cc5F)c5ccc([nH]5)c(-c5c(F)cc(S(=O)(=O)[O-])cc5F)c5nc(c(-c6c(F)cc(S(=O)(=O)[O-])cc6F)c6ccc3[nH]6)C=C5)C=C4)cc2)cc2c1OCC2(C)C
REMARK SMILES IDX 18 1 17 2 15 3 16 4 14 5 9 6 10 7 11 8 13 9 12 10 8 11 7 13
REMARK SMILES IDX 5 14 6 15 91 16 90 17 92 18 89 19 94 20 93 21 95 22 96 23
REMARK SMILES IDX 2 24 1 25 3 26 4 27 19 28 20 29 21 30 22 31 23 32 24 33
REMARK SMILES IDX 88 34 25 35 87 36 26 37 27 38 28 39 81 40 29 41 86 42 80 43
REMARK SMILES IDX 82 44 30 45 85 46 79 47 78 48 31 50 65 51 44 52 64 53 45 54
REMARK SMILES IDX 48 55 63 56 83 57 46 58 47 59 62 61 84 62 49 63 32 64 33 65
REMARK SMILES IDX 42 66 34 67 35 68 41 69 43 70 36 71 37 72 38 73 39 74 40 75
REMARK SMILES IDX 66 76 67 77 76 78 68 79 69 80 75 81 77 82 70 83 71 84 72 85
REMARK SMILES IDX 73 86 74 87 50 88 51 89 60 90 52 91 53 92 59 93 61 94 54 95
REMARK SMILES IDX 55 96 56 97 57 98 58 99
REMARK H PARENT 8 12 82 49 48 60
REMARK Flexibility Score: inf
ROOT
ATOM      1  C   UNL A   1      42.265  18.998  26.780  1.00  0.00     0.275 C 
ENDROOT
BRANCH   1   2
ATOM      2  O   UNL A   1      41.613  20.200  26.326  1.00  0.00    -0.458 OA
BRANCH   2   3
ATOM      3  C   UNL A   1      40.294  20.122  26.011  1.00  0.00     0.340 C 
ATOM      4  O   UNL A   1      39.705  19.110  25.678  1.00  0.00    -0.246 OA
BRANCH   3   5
ATOM      5  C   UNL A   1      39.605  21.435  26.203  1.00  0.00     0.083 A 
ATOM      6  C   UNL A   1      38.302  21.716  25.756  1.00  0.00     0.053 A 
ATOM      7  C   UNL A   1      37.798  23.020  25.950  1.00  0.00     0.027 A 
ATOM      8  C   UNL A   1      38.578  24.037  26.500  1.00  0.00     0.002 A 
ATOM      9  C   UNL A   1      40.356  22.451  26.827  1.00  0.00     0.018 A 
ATOM     10  C   UNL A   1      39.865  23.753  26.933  1.00  0.00     0.001 A 
BRANCH   6  11
ATOM     11  N   UNL A   1      37.540  20.788  25.009  1.00  0.00    -0.355 N 
ATOM     12  H   UNL A   1      38.047  20.124  24.489  1.00  0.00     0.167 HD
BRANCH  11  13
ATOM     13  C   UNL A   1      36.135  20.708  24.927  1.00  0.00     0.039 A 
ATOM     14  C   UNL A   1      34.113  19.303  24.637  1.00  0.00     0.002 A 
ATOM     15  C   UNL A   1      35.518  19.475  24.629  1.00  0.00     0.034 A 
ATOM     16  C   UNL A   1      33.374  20.419  25.036  1.00  0.00     0.127 A 
ATOM     17  C   UNL A   1      33.964  21.643  25.302  1.00  0.00     0.006 A 
ATOM     18  O   UNL A   1      32.023  20.435  25.273  1.00  0.00    -0.492 OA
ATOM     19  C   UNL A   1      35.329  21.807  25.217  1.00  0.00     0.034 A 
ATOM     20  C   UNL A   1      32.966  22.643  25.768  1.00  0.00     0.028 C 
ATOM     21  C   UNL A   1      31.686  21.821  25.536  1.00  0.00     0.240 C 
ATOM     22  C   UNL A   1      33.190  22.964  27.252  1.00  0.00     0.020 C 
ATOM     23  C   UNL A   1      32.981  23.930  24.940  1.00  0.00     0.020 C 
BRANCH  14  24
ATOM     24  C   UNL A   1      33.465  17.954  24.286  1.00  0.00    -0.009 C 
ATOM     25  C   UNL A   1      34.501  16.859  23.924  1.00  0.00     0.016 C 
ATOM     26  C   UNL A   1      32.530  18.064  23.059  1.00  0.00     0.016 C 
ATOM     27  C   UNL A   1      32.662  17.462  25.502  1.00  0.00     0.016 C 
ENDBRANCH  14  24
ENDBRANCH  11  13
ENDBRANCH   6  11
ENDBRANCH   3   5
ENDBRANCH   2   3
ENDBRANCH   1   2
BRANCH   1  28
ATOM     28  C   UNL A   1      43.272  18.494  25.743  1.00  0.00     0.275 C 
BRANCH  28  29
ATOM     29  O   UNL A   1      43.413  19.450  24.678  1.00  0.00    -0.458 OA
BRANCH  29  30
ATOM     30  C   UNL A   1      44.680  19.779  24.343  1.00  0.00     0.338 C 
ATOM     31  O   UNL A   1      45.480  19.119  23.699  1.00  0.00    -0.246 OA
BRANCH  30  32
ATOM     32  C   UNL A   1      44.903  21.174  24.739  1.00  0.00     0.060 A 
ATOM     33  C   UNL A   1      44.735  22.235  23.854  1.00  0.00     0.016 A 
ATOM     34  C   UNL A   1      45.277  21.409  26.060  1.00  0.00     0.016 A 
ATOM     35  C   UNL A   1      44.987  23.538  24.301  1.00  0.00     0.010 A 
ATOM     36  C   UNL A   1      45.498  22.705  26.515  1.00  0.00     0.010 A 
ATOM     37  C   UNL A   1      45.376  23.784  25.635  1.00  0.00    -0.014 A 
BRANCH  37  38
ATOM     38  C   UNL A   1      45.626  25.165  26.123  1.00  0.00     0.031 A 
ATOM     39  C   UNL A   1      47.009  25.763  26.085  1.00  0.00     0.074 A 
ATOM     40  C   UNL A   1      44.605  25.868  26.650  1.00  0.00     0.049 A 
ATOM     41  N   UNL A   1      47.396  26.966  26.429  1.00  0.00    -0.248 NA
ATOM     42  C   UNL A   1      48.106  24.891  25.634  1.00  0.00     0.031 C 
ATOM     43  C   UNL A   1      43.243  25.362  26.832  1.00  0.00     0.029 A 
ATOM     44  N   UNL A   1      44.548  27.154  27.122  1.00  0.00    -0.354 N 
ATOM     45  C   UNL A   1      48.773  26.994  26.238  1.00  0.00     0.074 A 
ATOM     46  C   UNL A   1      49.165  25.669  25.811  1.00  0.00     0.031 C 
ATOM     47  C   UNL A   1      42.473  26.344  27.325  1.00  0.00     0.029 A 
ATOM     48  C   UNL A   1      43.290  27.539  27.520  1.00  0.00     0.049 A 
ATOM     49  H   UNL A   1      45.334  27.746  27.173  1.00  0.00     0.167 HD
ATOM     50  C   UNL A   1      49.627  28.037  26.376  1.00  0.00     0.037 A 
ATOM     51  C   UNL A   1      42.837  28.724  27.972  1.00  0.00     0.037 A 
ATOM     52  C   UNL A   1      49.223  29.361  26.775  1.00  0.00     0.049 A 
ATOM     53  C   UNL A   1      43.791  29.880  28.076  1.00  0.00     0.074 A 
ATOM     54  C   UNL A   1      49.993  30.507  26.864  1.00  0.00     0.029 A 
ATOM     55  N   UNL A   1      47.935  29.716  27.155  1.00  0.00    -0.354 N 
ATOM     56  N   UNL A   1      45.073  29.917  27.800  1.00  0.00    -0.248 NA
ATOM     57  C   UNL A   1      43.239  31.159  28.545  1.00  0.00     0.031 C 
ATOM     58  C   UNL A   1      49.182  31.545  27.337  1.00  0.00     0.029 A 
ATOM     59  C   UNL A   1      47.895  31.057  27.499  1.00  0.00     0.049 A 
ATOM     60  H   UNL A   1      47.164  29.104  27.176  1.00  0.00     0.167 HD
ATOM     61  C   UNL A   1      45.480  31.222  28.051  1.00  0.00     0.074 A 
ATOM     62  C   UNL A   1      44.303  31.950  28.482  1.00  0.00     0.031 C 
ATOM     63  C   UNL A   1      46.717  31.766  27.937  1.00  0.00     0.037 A 
BRANCH  50  64
ATOM     64  C   UNL A   1      51.083  27.802  26.066  1.00  0.00     0.058 A 
ATOM     65  C   UNL A   1      51.592  27.970  24.767  1.00  0.00     0.135 A 
ATOM     66  C   UNL A   1      51.990  27.454  27.080  1.00  0.00     0.135 A 
ATOM     67  F   UNL A   1      50.772  28.294  23.756  1.00  0.00    -0.206 F 
ATOM     68  C   UNL A   1      52.939  27.771  24.479  1.00  0.00     0.059 A 
ATOM     69  C   UNL A   1      53.348  27.279  26.821  1.00  0.00     0.059 A 
ATOM     70  F   UNL A   1      51.562  27.286  28.341  1.00  0.00    -0.206 F 
ATOM     71  C   UNL A   1      53.811  27.427  25.514  1.00  0.00     0.060 A 
BRANCH  71  72
ATOM     72  S   UNL A   1      55.556  27.184  25.122  1.00  0.00     0.124 S 
ATOM     73  O   UNL A   1      56.152  27.139  26.454  1.00  0.00    -0.237 OA
ATOM     74  O   UNL A   1      55.538  25.919  24.394  1.00  0.00    -0.237 OA
ATOM     75  O   UNL A   1      55.894  28.358  24.325  1.00  0.00    -0.744 OA
ENDBRANCH  71  72
ENDBRANCH  50  64
BRANCH  51  76
ATOM     76  C   UNL A   1      41.394  28.877  28.292  1.00  0.00     0.058 A 
ATOM     77  C   UNL A   1      40.954  28.902  29.624  1.00  0.00     0.135 A 
ATOM     78  C   UNL A   1      40.440  29.078  27.284  1.00  0.00     0.135 A 
ATOM     79  F   UNL A   1      41.829  28.708  30.622  1.00  0.00    -0.206 F 
ATOM     80  C   UNL A   1      39.621  29.125  29.946  1.00  0.00     0.059 A 
ATOM     81  C   UNL A   1      39.103  29.328  27.581  1.00  0.00     0.059 A 
ATOM     82  F   UNL A   1      40.813  29.082  25.994  1.00  0.00    -0.206 F 
ATOM     83  C   UNL A   1      38.704  29.350  28.917  1.00  0.00     0.060 A 
BRANCH  83  84
ATOM     84  S   UNL A   1      36.993  29.733  29.354  1.00  0.00     0.124 S 
ATOM     85  O   UNL A   1      36.817  28.947  30.570  1.00  0.00    -0.237 OA
ATOM     86  O   UNL A   1      37.042  31.181  29.531  1.00  0.00    -0.237 OA
ATOM     87  O   UNL A   1      36.238  29.276  28.192  1.00  0.00    -0.744 OA
ENDBRANCH  83  84
ENDBRANCH  51  76
BRANCH  63  88
ATOM     88  C   UNL A   1      46.870  33.221  28.285  1.00  0.00     0.058 A 
ATOM     89  C   UNL A   1      47.248  33.628  29.574  1.00  0.00     0.135 A 
ATOM     90  C   UNL A   1      46.711  34.212  27.304  1.00  0.00     0.135 A 
ATOM     91  F   UNL A   1      47.407  32.720  30.550  1.00  0.00    -0.206 F 
ATOM     92  C   UNL A   1      47.449  34.969  29.881  1.00  0.00     0.059 A 
ATOM     93  C   UNL A   1      46.931  35.557  27.583  1.00  0.00     0.059 A 
ATOM     94  F   UNL A   1      46.360  33.875  26.052  1.00  0.00    -0.206 F 
ATOM     95  C   UNL A   1      47.294  35.927  28.877  1.00  0.00     0.060 A 
BRANCH  95  96
ATOM     96  S   UNL A   1      47.601  37.659  29.284  1.00  0.00     0.124 S 
ATOM     97  O   UNL A   1      48.709  37.979  28.390  1.00  0.00    -0.237 OA
ATOM     98  O   UNL A   1      46.323  38.285  28.960  1.00  0.00    -0.237 OA
ATOM     99  O   UNL A   1      47.932  37.622  30.705  1.00  0.00    -0.744 OA
ENDBRANCH  95  96
ENDBRANCH  63  88
ENDBRANCH  37  38
ENDBRANCH  30  32
ENDBRANCH  29  30
ENDBRANCH  28  29
ENDBRANCH   1  28
TORSDOF 17
ENDMDL
MODEL 3
REMARK VINA RESULT:     -11.9      6.779     10.512
REMARK SMILES CC(C)(C)c1cc(Nc2ccccc2C(=O)OCCOC(=O)c2ccc(-c3c4nc(c(-c5c(F)cc(S(=O)(=O)[O-])cc5F)c5ccc([nH]5)c(-c5c(F)cc(S(=O)(=O)[O-])cc5F)c5nc(c(-c6c(F)cc(S(=O)(=O)[O-])cc6F)c6ccc3[nH]6)C=C5)C=C4)cc2)cc2c1OCC2(C)C
REMARK SMILES IDX 18 1 17 2 15 3 16 4 14 5 9 6 10 7 11 8 13 9 12 10 8 11 7 13
REMARK SMILES IDX 5 14 6 15 91 16 90 17 92 18 89 19 94 20 93 21 95 22 96 23
REMARK SMILES IDX 2 24 1 25 3 26 4 27 19 28 20 29 21 30 22 31 23 32 24 33
REMARK SMILES IDX 88 34 25 35 87 36 26 37 27 38 28 39 81 40 29 41 86 42 80 43
REMARK SMILES IDX 82 44 30 45 85 46 79 47 78 48 31 50 65 51 44 52 64 53 45 54
REMARK SMILES IDX 48 55 63 56 83 57 46 58 47 59 62 61 84 62 49 63 32 64 33 65
REMARK SMILES IDX 42 66 34 67 35 68 41 69 43 70 36 71 37 72 38 73 39 74 40 75
REMARK SMILES IDX 66 76 67 77 76 78 68 79 69 80 75 81 77 82 70 83 71 84 72 85
REMARK SMILES IDX 73 86 74 87 50 88 51 89 60 90 52 91 53 92 59 93 61 94 54 95
REMARK SMILES IDX 55 96 56 97 57 98 58 99
REMARK H PARENT 8 12 82 49 48 60
REMARK Flexibility Score: inf
ROOT
ATOM      1  C   UNL A   1      45.714  23.636  25.467  1.00  0.00     0.275 C 
ENDROOT
BRANCH   1   2
ATOM      2  O   UNL A   1      45.161  22.802  26.505  1.00  0.00    -0.458 OA
BRANCH   2   3
ATOM      3  C   UNL A   1      44.237  21.874  26.144  1.00  0.00     0.340 C 
ATOM      4  O   UNL A   1      44.462  20.862  25.506  1.00  0.00    -0.246 OA
BRANCH   3   5
ATOM      5  C   UNL A   1      42.887  22.197  26.700  1.00  0.00     0.083 A 
ATOM      6  C   UNL A   1      42.625  22.409  28.065  1.00  0.00     0.053 A 
ATOM      7  C   UNL A   1      41.290  22.645  28.459  1.00  0.00     0.027 A 
ATOM      8  C   UNL A   1      40.235  22.600  27.547  1.00  0.00     0.002 A 
ATOM      9  C   UNL A   1      41.822  22.230  25.778  1.00  0.00     0.018 A 
ATOM     10  C   UNL A   1      40.501  22.383  26.204  1.00  0.00     0.001 A 
BRANCH   6  11
ATOM     11  N   UNL A   1      43.620  22.265  29.059  1.00  0.00    -0.355 N 
ATOM     12  H   UNL A   1      43.964  21.355  29.204  1.00  0.00     0.167 HD
BRANCH  11  13
ATOM     13  C   UNL A   1      44.173  23.279  29.867  1.00  0.00     0.039 A 
ATOM     14  C   UNL A   1      44.698  24.119  32.140  1.00  0.00     0.002 A 
ATOM     15  C   UNL A   1      44.073  23.192  31.270  1.00  0.00     0.034 A 
ATOM     16  C   UNL A   1      45.489  25.087  31.516  1.00  0.00     0.127 A 
ATOM     17  C   UNL A   1      45.573  25.202  30.139  1.00  0.00     0.006 A 
ATOM     18  O   UNL A   1      46.311  25.978  32.159  1.00  0.00    -0.492 OA
ATOM     19  C   UNL A   1      44.897  24.333  29.311  1.00  0.00     0.034 A 
ATOM     20  C   UNL A   1      46.529  26.267  29.735  1.00  0.00     0.028 C 
ATOM     21  C   UNL A   1      46.825  26.856  31.126  1.00  0.00     0.240 C 
ATOM     22  C   UNL A   1      47.775  25.645  29.091  1.00  0.00     0.020 C 
ATOM     23  C   UNL A   1      45.907  27.301  28.793  1.00  0.00     0.020 C 
BRANCH  14  24
ATOM     24  C   UNL A   1      44.553  24.015  33.666  1.00  0.00    -0.009 C 
ATOM     25  C   UNL A   1      43.456  24.949  34.238  1.00  0.00     0.016 C 
ATOM     26  C   UNL A   1      45.858  24.407  34.398  1.00  0.00     0.016 C 
ATOM     27  C   UNL A   1      44.176  22.567  34.028  1.00  0.00     0.016 C 
ENDBRANCH  14  24
ENDBRANCH  11  13
ENDBRANCH   6  11
ENDBRANCH   3   5
ENDBRANCH   2   3
ENDBRANCH   1   2
BRANCH   1  28
ATOM     28  C   UNL A   1      44.695  24.678  24.999  1.00  0.00     0.275 C 
BRANCH  28  29
ATOM     29  O   UNL A   1      44.078  25.316  26.130  1.00  0.00    -0.458 OA
BRANCH  29  30
ATOM     30  C   UNL A   1      42.859  25.857  25.911  1.00  0.00     0.338 C 
ATOM     31  O   UNL A   1      42.073  25.594  25.014  1.00  0.00    -0.246 OA
BRANCH  30  32
ATOM     32  C   UNL A   1      42.535  26.719  27.053  1.00  0.00     0.060 A 
ATOM     33  C   UNL A   1      42.861  28.072  27.080  1.00  0.00     0.016 A 
ATOM     34  C   UNL A   1      41.860  26.133  28.121  1.00  0.00     0.016 A 
ATOM     35  C   UNL A   1      42.536  28.825  28.216  1.00  0.00     0.010 A 
ATOM     36  C   UNL A   1      41.509  26.886  29.237  1.00  0.00     0.010 A 
ATOM     37  C   UNL A   1      41.862  28.237  29.307  1.00  0.00    -0.014 A 
BRANCH  37  38
ATOM     38  C   UNL A   1      41.497  29.034  30.507  1.00  0.00     0.031 A 
ATOM     39  C   UNL A   1      42.310  28.948  31.773  1.00  0.00     0.074 A 
ATOM     40  C   UNL A   1      40.392  29.804  30.469  1.00  0.00     0.049 A 
ATOM     41  N   UNL A   1      42.158  29.605  32.896  1.00  0.00    -0.248 NA
ATOM     42  C   UNL A   1      43.417  27.978  31.796  1.00  0.00     0.031 C 
ATOM     43  C   UNL A   1      39.470  29.894  29.336  1.00  0.00     0.029 A 
ATOM     44  N   UNL A   1      39.862  30.661  31.400  1.00  0.00    -0.354 N 
ATOM     45  C   UNL A   1      43.144  29.128  33.754  1.00  0.00     0.074 A 
ATOM     46  C   UNL A   1      43.846  28.081  33.046  1.00  0.00     0.031 C 
ATOM     47  C   UNL A   1      38.518  30.798  29.617  1.00  0.00     0.029 A 
ATOM     48  C   UNL A   1      38.746  31.331  30.958  1.00  0.00     0.049 A 
ATOM     49  H   UNL A   1      40.243  30.784  32.300  1.00  0.00     0.167 HD
ATOM     50  C   UNL A   1      43.454  29.548  35.005  1.00  0.00     0.037 A 
ATOM     51  C   UNL A   1      38.000  32.281  31.553  1.00  0.00     0.037 A 
ATOM     52  C   UNL A   1      42.765  30.612  35.691  1.00  0.00     0.049 A 
ATOM     53  C   UNL A   1      38.387  32.763  32.923  1.00  0.00     0.074 A 
ATOM     54  C   UNL A   1      43.054  31.169  36.923  1.00  0.00     0.029 A 
ATOM     55  N   UNL A   1      41.649  31.277  35.202  1.00  0.00    -0.354 N 
ATOM     56  N   UNL A   1      39.380  32.370  33.683  1.00  0.00    -0.248 NA
ATOM     57  C   UNL A   1      37.558  33.823  33.514  1.00  0.00     0.031 C 
ATOM     58  C   UNL A   1      42.088  32.143  37.200  1.00  0.00     0.029 A 
ATOM     59  C   UNL A   1      41.224  32.225  36.120  1.00  0.00     0.049 A 
ATOM     60  H   UNL A   1      41.223  31.101  34.333  1.00  0.00     0.167 HD
ATOM     61  C   UNL A   1      39.304  33.140  34.838  1.00  0.00     0.074 A 
ATOM     62  C   UNL A   1      38.179  34.036  34.667  1.00  0.00     0.031 C 
ATOM     63  C   UNL A   1      40.094  33.104  35.940  1.00  0.00     0.037 A 
BRANCH  50  64
ATOM     64  C   UNL A   1      44.607  28.878  35.707  1.00  0.00     0.058 A 
ATOM     65  C   UNL A   1      45.922  29.355  35.577  1.00  0.00     0.135 A 
ATOM     66  C   UNL A   1      44.394  27.780  36.557  1.00  0.00     0.135 A 
ATOM     67  F   UNL A   1      46.187  30.396  34.772  1.00  0.00    -0.206 F 
ATOM     68  C   UNL A   1      46.987  28.751  36.238  1.00  0.00     0.059 A 
ATOM     69  C   UNL A   1      45.441  27.178  37.252  1.00  0.00     0.059 A 
ATOM     70  F   UNL A   1      43.158  27.285  36.725  1.00  0.00    -0.206 F 
ATOM     71  C   UNL A   1      46.736  27.663  37.075  1.00  0.00     0.060 A 
BRANCH  71  72
ATOM     72  S   UNL A   1      48.130  26.899  37.931  1.00  0.00     0.124 S 
ATOM     73  O   UNL A   1      48.821  28.069  38.466  1.00  0.00    -0.237 OA
ATOM     74  O   UNL A   1      47.464  26.053  38.917  1.00  0.00    -0.237 OA
ATOM     75  O   UNL A   1      48.835  26.186  36.871  1.00  0.00    -0.744 OA
ENDBRANCH  71  72
ENDBRANCH  50  64
BRANCH  51  76
ATOM     76  C   UNL A   1      36.855  32.875  30.816  1.00  0.00     0.058 A 
ATOM     77  C   UNL A   1      35.535  32.536  31.148  1.00  0.00     0.135 A 
ATOM     78  C   UNL A   1      37.052  33.846  29.822  1.00  0.00     0.135 A 
ATOM     79  F   UNL A   1      35.297  31.609  32.087  1.00  0.00    -0.206 F 
ATOM     80  C   UNL A   1      34.449  33.142  30.526  1.00  0.00     0.059 A 
ATOM     81  C   UNL A   1      35.982  34.484  29.201  1.00  0.00     0.059 A 
ATOM     82  F   UNL A   1      38.296  34.217  29.480  1.00  0.00    -0.206 F 
ATOM     83  C   UNL A   1      34.683  34.125  29.561  1.00  0.00     0.060 A 
BRANCH  83  84
ATOM     84  S   UNL A   1      33.264  34.970  28.829  1.00  0.00     0.124 S 
ATOM     85  O   UNL A   1      33.908  36.074  28.127  1.00  0.00    -0.237 OA
ATOM     86  O   UNL A   1      32.690  33.925  27.986  1.00  0.00    -0.237 OA
ATOM     87  O   UNL A   1      32.460  35.342  29.989  1.00  0.00    -0.744 OA
ENDBRANCH  83  84
ENDBRANCH  51  76
BRANCH  63  88
ATOM     88  C   UNL A   1      39.772  34.059  37.056  1.00  0.00     0.058 A 
ATOM     89  C   UNL A   1      39.050  33.647  38.186  1.00  0.00     0.135 A 
ATOM     90  C   UNL A   1      40.254  35.378  37.030  1.00  0.00     0.135 A 
ATOM     91  F   UNL A   1      38.563  32.398  38.258  1.00  0.00    -0.206 F 
ATOM     92  C   UNL A   1      38.804  34.513  39.246  1.00  0.00     0.059 A 
ATOM     93  C   UNL A   1      40.041  36.254  38.089  1.00  0.00     0.059 A 
ATOM     94  F   UNL A   1      40.959  35.821  35.976  1.00  0.00    -0.206 F 
ATOM     95  C   UNL A   1      39.309  35.814  39.191  1.00  0.00     0.060 A 
BRANCH  95  96
ATOM     96  S   UNL A   1      39.017  36.911  40.595  1.00  0.00     0.124 S 
ATOM     97  O   UNL A   1      38.272  36.041  41.499  1.00  0.00    -0.237 OA
ATOM     98  O   UNL A   1      40.374  37.247  41.013  1.00  0.00    -0.237 OA
ATOM     99  O   UNL A   1      38.255  38.012  40.014  1.00  0.00    -0.744 OA
ENDBRANCH  95  96
ENDBRANCH  63  88
ENDBRANCH  37  38
ENDBRANCH  30  32
ENDBRANCH  29  30
ENDBRANCH  28  29
ENDBRANCH   1  28
TORSDOF 17
ENDMDL
