MODEL 1
REMARK VINA RESULT:     -10.9      0.000      0.000
REMARK SMILES O=C(/C=C/c1cc(F)cc(COCc2ccco2)c1)OCCOC(=O)c1ccc(-c2c3nc(c(-c4c(F)cc(S(=O)(=O)[O-])cc4F)c4ccc([nH]4)c(-c4c(F)cc(S(=O)(=O)[O-])cc4F)c4nc(c(-c5c(F)cc(S(=O)(=O)[O-])cc5F)c5ccc2[nH]5)C=C4)C=C3)cc1
REMARK SMILES IDX 21 1 20 2 2 3 1 4 3 5 4 6 5 7 6 8 19 9 7 10 10 11 8 12 9 13
REMARK SMILES IDX 11 14 12 15 13 16 14 17 15 18 18 19 16 20 17 21 22 22 23 23
REMARK SMILES IDX 24 24 25 25 26 26 27 27 91 28 28 29 90 30 29 31 30 32 31 33
REMARK SMILES IDX 84 34 32 35 89 36 83 37 85 38 33 39 88 40 82 41 81 42 34 44
REMARK SMILES IDX 68 45 47 46 67 47 48 48 51 49 66 50 86 51 49 52 50 53 65 55
REMARK SMILES IDX 87 56 52 57 35 58 36 59 45 60 37 61 38 62 44 63 46 64 39 65
REMARK SMILES IDX 40 66 41 67 42 68 43 69 69 70 70 71 79 72 71 73 72 74 78 75
REMARK SMILES IDX 80 76 73 77 74 78 75 79 76 80 77 81 53 82 54 83 63 84 55 85
REMARK SMILES IDX 56 86 62 87 64 88 57 89 58 90 59 91 60 92 61 93
REMARK H PARENT 85 43 51 54
REMARK Flexibility Score: inf
ROOT
ATOM      1  C   UNL A   1      40.217  22.220  26.931  1.00  0.00     0.275 C 
ENDROOT
BRANCH   1   2
ATOM      2  O   UNL A   1      39.007  22.331  26.154  1.00  0.00    -0.459 OA
BRANCH   2   3
ATOM      3  C   UNL A   1      38.170  23.390  26.047  1.00  0.00     0.330 C 
ATOM      4  O   UNL A   1      38.315  24.375  26.764  1.00  0.00    -0.247 OA
BRANCH   3   5
ATOM      5  C   UNL A   1      36.968  23.308  25.201  1.00  0.00     0.094 C 
ATOM      6  C   UNL A   1      35.776  23.881  25.408  1.00  0.00     0.016 C 
BRANCH   6   7
ATOM      7  C   UNL A   1      34.719  23.861  24.387  1.00  0.00    -0.022 A 
ATOM      8  C   UNL A   1      34.441  24.954  23.566  1.00  0.00     0.047 A 
ATOM      9  C   UNL A   1      33.959  22.688  24.240  1.00  0.00     0.014 A 
ATOM     10  C   UNL A   1      33.410  24.867  22.635  1.00  0.00     0.124 A 
ATOM     11  C   UNL A   1      32.908  22.603  23.310  1.00  0.00    -0.019 A 
ATOM     12  F   UNL A   1      33.164  25.911  21.836  1.00  0.00    -0.207 F 
ATOM     13  C   UNL A   1      32.640  23.714  22.504  1.00  0.00     0.045 A 
BRANCH  11  14
ATOM     14  C   UNL A   1      32.121  21.321  23.161  1.00  0.00     0.196 C 
BRANCH  14  15
ATOM     15  O   UNL A   1      32.772  20.139  23.618  1.00  0.00    -0.369 OA
BRANCH  15  16
ATOM     16  C   UNL A   1      32.344  18.907  23.035  1.00  0.00     0.235 C 
BRANCH  16  17
ATOM     17  C   UNL A   1      32.771  17.737  23.851  1.00  0.00     0.129 A 
ATOM     18  C   UNL A   1      33.799  16.819  23.756  1.00  0.00     0.048 A 
ATOM     19  O   UNL A   1      32.086  17.529  25.016  1.00  0.00    -0.467 OA
ATOM     20  C   UNL A   1      33.729  16.004  24.911  1.00  0.00     0.042 A 
ATOM     21  C   UNL A   1      32.676  16.484  25.651  1.00  0.00     0.195 A 
ENDBRANCH  16  17
ENDBRANCH  15  16
ENDBRANCH  14  15
ENDBRANCH  11  14
ENDBRANCH   6   7
ENDBRANCH   3   5
ENDBRANCH   2   3
ENDBRANCH   1   2
BRANCH   1  22
ATOM     22  C   UNL A   1      41.497  22.645  26.210  1.00  0.00     0.275 C 
BRANCH  22  23
ATOM     23  O   UNL A   1      42.202  23.688  26.897  1.00  0.00    -0.458 OA
BRANCH  23  24
ATOM     24  C   UNL A   1      42.007  24.936  26.396  1.00  0.00     0.338 C 
ATOM     25  O   UNL A   1      41.874  25.232  25.220  1.00  0.00    -0.246 OA
BRANCH  24  26
ATOM     26  C   UNL A   1      41.833  25.899  27.505  1.00  0.00     0.060 A 
ATOM     27  C   UNL A   1      40.778  25.699  28.405  1.00  0.00     0.016 A 
ATOM     28  C   UNL A   1      42.701  26.979  27.675  1.00  0.00     0.016 A 
ATOM     29  C   UNL A   1      40.593  26.579  29.475  1.00  0.00     0.010 A 
ATOM     30  C   UNL A   1      42.515  27.856  28.746  1.00  0.00     0.010 A 
ATOM     31  C   UNL A   1      41.451  27.673  29.646  1.00  0.00    -0.014 A 
BRANCH  31  32
ATOM     32  C   UNL A   1      41.205  28.690  30.698  1.00  0.00     0.031 A 
ATOM     33  C   UNL A   1      42.001  28.639  31.970  1.00  0.00     0.074 A 
ATOM     34  C   UNL A   1      40.244  29.621  30.548  1.00  0.00     0.049 A 
ATOM     35  N   UNL A   1      41.888  29.373  33.047  1.00  0.00    -0.248 NA
ATOM     36  C   UNL A   1      43.061  27.621  32.042  1.00  0.00     0.031 C 
ATOM     37  C   UNL A   1      39.406  29.783  29.364  1.00  0.00     0.029 A 
ATOM     38  N   UNL A   1      39.793  30.586  31.415  1.00  0.00    -0.354 N 
ATOM     39  C   UNL A   1      42.855  28.904  33.926  1.00  0.00     0.074 A 
ATOM     40  C   UNL A   1      43.524  27.801  33.271  1.00  0.00     0.031 C 
ATOM     41  C   UNL A   1      38.519  30.767  29.587  1.00  0.00     0.029 A 
ATOM     42  C   UNL A   1      38.714  31.293  30.938  1.00  0.00     0.049 A 
ATOM     43  H   UNL A   1      40.203  30.757  32.294  1.00  0.00     0.167 HD
ATOM     44  C   UNL A   1      43.167  29.363  35.161  1.00  0.00     0.037 A 
ATOM     45  C   UNL A   1      37.953  32.239  31.528  1.00  0.00     0.037 A 
ATOM     46  C   UNL A   1      42.509  30.467  35.807  1.00  0.00     0.049 A 
ATOM     47  C   UNL A   1      38.275  32.694  32.925  1.00  0.00     0.074 A 
ATOM     48  C   UNL A   1      42.805  31.042  37.030  1.00  0.00     0.029 A 
ATOM     49  N   UNL A   1      41.414  31.148  35.298  1.00  0.00    -0.354 N 
ATOM     50  N   UNL A   1      39.236  32.288  33.720  1.00  0.00    -0.248 NA
ATOM     51  C   UNL A   1      37.415  33.736  33.508  1.00  0.00     0.031 C 
ATOM     52  C   UNL A   1      41.857  32.038  37.284  1.00  0.00     0.029 A 
ATOM     53  C   UNL A   1      40.999  32.115  36.198  1.00  0.00     0.049 A 
ATOM     54  H   UNL A   1      40.994  30.971  34.425  1.00  0.00     0.167 HD
ATOM     55  C   UNL A   1      39.111  33.038  34.885  1.00  0.00     0.074 A 
ATOM     56  C   UNL A   1      37.981  33.924  34.695  1.00  0.00     0.031 C 
ATOM     57  C   UNL A   1      39.873  32.997  36.006  1.00  0.00     0.037 A 
BRANCH  44  58
ATOM     58  C   UNL A   1      44.267  28.660  35.903  1.00  0.00     0.058 A 
ATOM     59  C   UNL A   1      43.970  27.607  36.781  1.00  0.00     0.135 A 
ATOM     60  C   UNL A   1      45.609  29.052  35.774  1.00  0.00     0.135 A 
ATOM     61  F   UNL A   1      42.704  27.191  36.936  1.00  0.00    -0.206 F 
ATOM     62  C   UNL A   1      44.966  26.965  37.508  1.00  0.00     0.059 A 
ATOM     63  C   UNL A   1      46.625  28.408  36.475  1.00  0.00     0.059 A 
ATOM     64  F   UNL A   1      45.947  30.040  34.932  1.00  0.00    -0.206 F 
ATOM     65  C   UNL A   1      46.292  27.372  37.347  1.00  0.00     0.060 A 
BRANCH  65  66
ATOM     66  S   UNL A   1      47.583  26.488  38.248  1.00  0.00     0.124 S 
ATOM     67  O   UNL A   1      48.259  25.770  37.174  1.00  0.00    -0.237 OA
ATOM     68  O   UNL A   1      48.335  27.580  38.859  1.00  0.00    -0.237 OA
ATOM     69  O   UNL A   1      46.832  25.659  39.186  1.00  0.00    -0.744 OA
ENDBRANCH  65  66
ENDBRANCH  44  58
BRANCH  45  70
ATOM     70  C   UNL A   1      36.812  32.818  30.774  1.00  0.00     0.058 A 
ATOM     71  C   UNL A   1      37.002  33.872  29.868  1.00  0.00     0.135 A 
ATOM     72  C   UNL A   1      35.501  32.374  30.998  1.00  0.00     0.135 A 
ATOM     73  F   UNL A   1      38.238  34.329  29.615  1.00  0.00    -0.206 F 
ATOM     74  C   UNL A   1      35.927  34.497  29.243  1.00  0.00     0.059 A 
ATOM     75  C   UNL A   1      34.411  32.970  30.370  1.00  0.00     0.059 A 
ATOM     76  F   UNL A   1      35.273  31.355  31.841  1.00  0.00    -0.206 F 
ATOM     77  C   UNL A   1      34.633  34.047  29.512  1.00  0.00     0.060 A 
BRANCH  77  78
ATOM     78  S   UNL A   1      33.248  34.911  28.740  1.00  0.00     0.124 S 
ATOM     79  O   UNL A   1      32.422  35.234  29.900  1.00  0.00    -0.237 OA
ATOM     80  O   UNL A   1      33.910  36.041  28.097  1.00  0.00    -0.237 OA
ATOM     81  O   UNL A   1      32.692  33.913  27.832  1.00  0.00    -0.744 OA
ENDBRANCH  77  78
ENDBRANCH  45  70
BRANCH  57  82
ATOM     82  C   UNL A   1      39.540  33.935  37.133  1.00  0.00     0.058 A 
ATOM     83  C   UNL A   1      40.098  35.223  37.172  1.00  0.00     0.135 A 
ATOM     84  C   UNL A   1      38.790  33.512  38.240  1.00  0.00     0.135 A 
ATOM     85  F   UNL A   1      40.827  35.676  36.140  1.00  0.00    -0.206 F 
ATOM     86  C   UNL A   1      39.957  36.044  38.286  1.00  0.00     0.059 A 
ATOM     87  C   UNL A   1      38.617  34.325  39.358  1.00  0.00     0.059 A 
ATOM     88  F   UNL A   1      38.225  32.293  38.247  1.00  0.00    -0.206 F 
ATOM     89  C   UNL A   1      39.227  35.580  39.380  1.00  0.00     0.060 A 
BRANCH  89  90
ATOM     90  S   UNL A   1      39.097  36.638  40.838  1.00  0.00     0.124 S 
ATOM     91  O   UNL A   1      38.383  37.794  40.305  1.00  0.00    -0.237 OA
ATOM     92  O   UNL A   1      38.342  35.798  41.763  1.00  0.00    -0.237 OA
ATOM     93  O   UNL A   1      40.488  36.877  41.212  1.00  0.00    -0.744 OA
ENDBRANCH  89  90
ENDBRANCH  57  82
ENDBRANCH  31  32
ENDBRANCH  24  26
ENDBRANCH  23  24
ENDBRANCH  22  23
ENDBRANCH   1  22
TORSDOF 19
ENDMDL
MODEL 2
REMARK VINA RESULT:     -10.8      5.137     10.453
REMARK SMILES O=C(/C=C/c1cc(F)cc(COCc2ccco2)c1)OCCOC(=O)c1ccc(-c2c3nc(c(-c4c(F)cc(S(=O)(=O)[O-])cc4F)c4ccc([nH]4)c(-c4c(F)cc(S(=O)(=O)[O-])cc4F)c4nc(c(-c5c(F)cc(S(=O)(=O)[O-])cc5F)c5ccc2[nH]5)C=C4)C=C3)cc1
REMARK SMILES IDX 21 1 20 2 2 3 1 4 3 5 4 6 5 7 6 8 19 9 7 10 10 11 8 12 9 13
REMARK SMILES IDX 11 14 12 15 13 16 14 17 15 18 18 19 16 20 17 21 22 22 23 23
REMARK SMILES IDX 24 24 25 25 26 26 27 27 91 28 28 29 90 30 29 31 30 32 31 33
REMARK SMILES IDX 84 34 32 35 89 36 83 37 85 38 33 39 88 40 82 41 81 42 34 44
REMARK SMILES IDX 68 45 47 46 67 47 48 48 51 49 66 50 86 51 49 52 50 53 65 55
REMARK SMILES IDX 87 56 52 57 35 58 36 59 45 60 37 61 38 62 44 63 46 64 39 65
REMARK SMILES IDX 40 66 41 67 42 68 43 69 69 70 70 71 79 72 71 73 72 74 78 75
REMARK SMILES IDX 80 76 73 77 74 78 75 79 76 80 77 81 53 82 54 83 63 84 55 85
REMARK SMILES IDX 56 86 62 87 64 88 57 89 58 90 59 91 60 92 61 93
REMARK H PARENT 85 43 51 54
REMARK Flexibility Score: inf
ROOT
ATOM      1  C   UNL A   1      31.702  29.065  26.404  1.00  0.00     0.275 C 
ENDROOT
BRANCH   1   2
ATOM      2  O   UNL A   1      32.292  27.765  26.200  1.00  0.00    -0.459 OA
BRANCH   2   3
ATOM      3  C   UNL A   1      33.194  27.387  25.263  1.00  0.00     0.330 C 
ATOM      4  O   UNL A   1      33.436  28.111  24.302  1.00  0.00    -0.247 OA
BRANCH   3   5
ATOM      5  C   UNL A   1      33.764  26.030  25.281  1.00  0.00     0.094 C 
ATOM      6  C   UNL A   1      33.461  25.021  26.108  1.00  0.00     0.016 C 
BRANCH   6   7
ATOM      7  C   UNL A   1      33.980  23.663  25.897  1.00  0.00    -0.022 A 
ATOM      8  C   UNL A   1      35.327  23.337  26.051  1.00  0.00     0.047 A 
ATOM      9  C   UNL A   1      33.074  22.657  25.522  1.00  0.00     0.014 A 
ATOM     10  C   UNL A   1      35.747  22.031  25.814  1.00  0.00     0.124 A 
ATOM     11  C   UNL A   1      33.499  21.340  25.269  1.00  0.00    -0.019 A 
ATOM     12  F   UNL A   1      37.037  21.721  25.985  1.00  0.00    -0.207 F 
ATOM     13  C   UNL A   1      34.855  21.038  25.419  1.00  0.00     0.045 A 
BRANCH  11  14
ATOM     14  C   UNL A   1      32.497  20.275  24.885  1.00  0.00     0.196 C 
BRANCH  14  15
ATOM     15  O   UNL A   1      32.791  19.547  23.697  1.00  0.00    -0.369 OA
BRANCH  15  16
ATOM     16  C   UNL A   1      32.285  18.214  23.620  1.00  0.00     0.235 C 
BRANCH  16  17
ATOM     17  C   UNL A   1      33.220  17.235  24.238  1.00  0.00     0.129 A 
ATOM     18  C   UNL A   1      34.593  17.168  24.377  1.00  0.00     0.048 A 
ATOM     19  O   UNL A   1      32.647  16.194  24.914  1.00  0.00    -0.467 OA
ATOM     20  C   UNL A   1      34.870  16.024  25.163  1.00  0.00     0.042 A 
ATOM     21  C   UNL A   1      33.651  15.472  25.473  1.00  0.00     0.195 A 
ENDBRANCH  16  17
ENDBRANCH  15  16
ENDBRANCH  14  15
ENDBRANCH  11  14
ENDBRANCH   6   7
ENDBRANCH   3   5
ENDBRANCH   2   3
ENDBRANCH   1   2
BRANCH   1  22
ATOM     22  C   UNL A   1      32.686  30.180  26.763  1.00  0.00     0.275 C 
BRANCH  22  23
ATOM     23  O   UNL A   1      33.793  29.713  27.546  1.00  0.00    -0.458 OA
BRANCH  23  24
ATOM     24  C   UNL A   1      34.546  30.693  28.114  1.00  0.00     0.338 C 
ATOM     25  O   UNL A   1      34.147  31.774  28.512  1.00  0.00    -0.246 OA
BRANCH  24  26
ATOM     26  C   UNL A   1      35.928  30.206  28.320  1.00  0.00     0.060 A 
ATOM     27  C   UNL A   1      36.278  29.703  29.580  1.00  0.00     0.016 A 
ATOM     28  C   UNL A   1      36.868  30.225  27.289  1.00  0.00     0.016 A 
ATOM     29  C   UNL A   1      37.570  29.220  29.807  1.00  0.00     0.010 A 
ATOM     30  C   UNL A   1      38.158  29.739  27.518  1.00  0.00     0.010 A 
ATOM     31  C   UNL A   1      38.524  29.248  28.782  1.00  0.00    -0.014 A 
BRANCH  31  32
ATOM     32  C   UNL A   1      39.934  28.855  29.029  1.00  0.00     0.031 A 
ATOM     33  C   UNL A   1      40.906  29.884  29.533  1.00  0.00     0.074 A 
ATOM     34  C   UNL A   1      40.362  27.609  28.757  1.00  0.00     0.049 A 
ATOM     35  N   UNL A   1      42.194  29.777  29.731  1.00  0.00    -0.248 NA
ATOM     36  C   UNL A   1      40.354  31.211  29.848  1.00  0.00     0.031 C 
ATOM     37  C   UNL A   1      39.523  26.518  28.270  1.00  0.00     0.029 A 
ATOM     38  N   UNL A   1      41.620  27.062  28.823  1.00  0.00    -0.354 N 
ATOM     39  C   UNL A   1      42.609  31.020  30.189  1.00  0.00     0.074 A 
ATOM     40  C   UNL A   1      41.443  31.877  30.205  1.00  0.00     0.031 C 
ATOM     41  C   UNL A   1      40.293  25.439  28.050  1.00  0.00     0.029 A 
ATOM     42  C   UNL A   1      41.683  25.768  28.363  1.00  0.00     0.049 A 
ATOM     43  H   UNL A   1      42.403  27.550  29.168  1.00  0.00     0.167 HD
ATOM     44  C   UNL A   1      43.848  31.408  30.574  1.00  0.00     0.037 A 
ATOM     45  C   UNL A   1      42.740  24.947  28.190  1.00  0.00     0.037 A 
ATOM     46  C   UNL A   1      45.005  30.553  30.567  1.00  0.00     0.049 A 
ATOM     47  C   UNL A   1      44.120  25.415  28.565  1.00  0.00     0.074 A 
ATOM     48  C   UNL A   1      46.285  30.843  31.004  1.00  0.00     0.029 A 
ATOM     49  N   UNL A   1      45.031  29.254  30.083  1.00  0.00    -0.354 N 
ATOM     50  N   UNL A   1      44.489  26.572  29.060  1.00  0.00    -0.248 NA
ATOM     51  C   UNL A   1      45.229  24.469  28.363  1.00  0.00     0.031 C 
ATOM     52  C   UNL A   1      47.098  29.737  30.737  1.00  0.00     0.029 A 
ATOM     53  C   UNL A   1      46.313  28.740  30.177  1.00  0.00     0.049 A 
ATOM     54  H   UNL A   1      44.252  28.768  29.726  1.00  0.00     0.167 HD
ATOM     55  C   UNL A   1      45.864  26.487  29.249  1.00  0.00     0.074 A 
ATOM     56  C   UNL A   1      46.266  25.165  28.816  1.00  0.00     0.031 C 
ATOM     57  C   UNL A   1      46.711  27.422  29.745  1.00  0.00     0.037 A 
BRANCH  44  58
ATOM     58  C   UNL A   1      44.020  32.829  31.026  1.00  0.00     0.058 A 
ATOM     59  C   UNL A   1      44.358  33.831  30.105  1.00  0.00     0.135 A 
ATOM     60  C   UNL A   1      43.885  33.193  32.376  1.00  0.00     0.135 A 
ATOM     61  F   UNL A   1      44.493  33.537  28.803  1.00  0.00    -0.206 F 
ATOM     62  C   UNL A   1      44.559  35.147  30.505  1.00  0.00     0.059 A 
ATOM     63  C   UNL A   1      44.059  34.509  32.795  1.00  0.00     0.059 A 
ATOM     64  F   UNL A   1      43.542  32.275  33.292  1.00  0.00    -0.206 F 
ATOM     65  C   UNL A   1      44.406  35.477  31.853  1.00  0.00     0.060 A 
BRANCH  65  66
ATOM     66  S   UNL A   1      44.606  37.202  32.348  1.00  0.00     0.124 S 
ATOM     67  O   UNL A   1      45.992  37.224  32.801  1.00  0.00    -0.237 OA
ATOM     68  O   UNL A   1      44.331  37.914  31.103  1.00  0.00    -0.237 OA
ATOM     69  O   UNL A   1      43.598  37.373  33.390  1.00  0.00    -0.744 OA
ENDBRANCH  65  66
ENDBRANCH  44  58
BRANCH  45  70
ATOM     70  C   UNL A   1      42.513  23.587  27.636  1.00  0.00     0.058 A 
ATOM     71  C   UNL A   1      42.411  22.469  28.478  1.00  0.00     0.135 A 
ATOM     72  C   UNL A   1      42.464  23.372  26.251  1.00  0.00     0.135 A 
ATOM     73  F   UNL A   1      42.447  22.624  29.811  1.00  0.00    -0.206 F 
ATOM     74  C   UNL A   1      42.312  21.180  27.966  1.00  0.00     0.059 A 
ATOM     75  C   UNL A   1      42.346  22.093  25.716  1.00  0.00     0.059 A 
ATOM     76  F   UNL A   1      42.538  24.414  25.409  1.00  0.00    -0.206 F 
ATOM     77  C   UNL A   1      42.295  21.001  26.582  1.00  0.00     0.060 A 
BRANCH  77  78
ATOM     78  S   UNL A   1      42.231  19.315  25.936  1.00  0.00     0.124 S 
ATOM     79  O   UNL A   1      43.100  19.417  24.768  1.00  0.00    -0.237 OA
ATOM     80  O   UNL A   1      42.755  18.538  27.054  1.00  0.00    -0.237 OA
ATOM     81  O   UNL A   1      40.814  19.118  25.648  1.00  0.00    -0.744 OA
ENDBRANCH  77  78
ENDBRANCH  45  70
BRANCH  57  82
ATOM     82  C   UNL A   1      48.169  27.075  29.869  1.00  0.00     0.058 A 
ATOM     83  C   UNL A   1      48.657  26.470  31.038  1.00  0.00     0.135 A 
ATOM     84  C   UNL A   1      49.100  27.467  28.896  1.00  0.00     0.135 A 
ATOM     85  F   UNL A   1      47.809  26.078  32.003  1.00  0.00    -0.206 F 
ATOM     86  C   UNL A   1      50.021  26.303  31.257  1.00  0.00     0.059 A 
ATOM     87  C   UNL A   1      50.469  27.290  29.083  1.00  0.00     0.059 A 
ATOM     88  F   UNL A   1      48.683  28.038  27.754  1.00  0.00    -0.206 F 
ATOM     89  C   UNL A   1      50.920  26.731  30.280  1.00  0.00     0.060 A 
BRANCH  89  90
ATOM     90  S   UNL A   1      52.688  26.553  30.602  1.00  0.00     0.124 S 
ATOM     91  O   UNL A   1      52.706  25.483  31.593  1.00  0.00    -0.237 OA
ATOM     92  O   UNL A   1      53.208  26.203  29.283  1.00  0.00    -0.237 OA
ATOM     93  O   UNL A   1      53.080  27.870  31.093  1.00  0.00    -0.744 OA
ENDBRANCH  89  90
ENDBRANCH  57  82
ENDBRANCH  31  32
ENDBRANCH  24  26
ENDBRANCH  23  24
ENDBRANCH  22  23
ENDBRANCH   1  22
TORSDOF 19
ENDMDL
MODEL 3
REMARK VINA RESULT:     -10.8      1.095      8.452
REMARK SMILES O=C(/C=C/c1cc(F)cc(COCc2ccco2)c1)OCCOC(=O)c1ccc(-c2c3nc(c(-c4c(F)cc(S(=O)(=O)[O-])cc4F)c4ccc([nH]4)c(-c4c(F)cc(S(=O)(=O)[O-])cc4F)c4nc(c(-c5c(F)cc(S(=O)(=O)[O-])cc5F)c5ccc2[nH]5)C=C4)C=C3)cc1
REMARK SMILES IDX 21 1 20 2 2 3 1 4 3 5 4 6 5 7 6 8 19 9 7 10 10 11 8 12 9 13
REMARK SMILES IDX 11 14 12 15 13 16 14 17 15 18 18 19 16 20 17 21 22 22 23 23
REMARK SMILES IDX 24 24 25 25 26 26 27 27 91 28 28 29 90 30 29 31 30 32 31 33
REMARK SMILES IDX 84 34 32 35 89 36 83 37 85 38 33 39 88 40 82 41 81 42 34 44
REMARK SMILES IDX 68 45 47 46 67 47 48 48 51 49 66 50 86 51 49 52 50 53 65 55
REMARK SMILES IDX 87 56 52 57 35 58 36 59 45 60 37 61 38 62 44 63 46 64 39 65
REMARK SMILES IDX 40 66 41 67 42 68 43 69 69 70 70 71 79 72 71 73 72 74 78 75
REMARK SMILES IDX 80 76 73 77 74 78 75 79 76 80 77 81 53 82 54 83 63 84 55 85
REMARK SMILES IDX 56 86 62 87 64 88 57 89 58 90 59 91 60 92 61 93
REMARK H PARENT 85 43 51 54
REMARK Flexibility Score: inf
ROOT
ATOM      1  C   UNL A   1      42.766  22.024  26.112  1.00  0.00     0.275 C 
ENDROOT
BRANCH   1   2
ATOM      2  O   UNL A   1      41.469  21.566  25.677  1.00  0.00    -0.459 OA
BRANCH   2   3
ATOM      3  C   UNL A   1      40.399  21.223  26.432  1.00  0.00     0.330 C 
ATOM      4  O   UNL A   1      40.474  20.298  27.236  1.00  0.00    -0.247 OA
BRANCH   3   5
ATOM      5  C   UNL A   1      39.082  21.828  26.177  1.00  0.00     0.094 C 
ATOM      6  C   UNL A   1      38.096  21.356  25.403  1.00  0.00     0.016 C 
BRANCH   6   7
ATOM      7  C   UNL A   1      36.763  21.975  25.383  1.00  0.00    -0.022 A 
ATOM      8  C   UNL A   1      36.568  23.351  25.495  1.00  0.00     0.047 A 
ATOM      9  C   UNL A   1      35.644  21.136  25.246  1.00  0.00     0.014 A 
ATOM     10  C   UNL A   1      35.272  23.862  25.487  1.00  0.00     0.124 A 
ATOM     11  C   UNL A   1      34.334  21.649  25.253  1.00  0.00    -0.019 A 
ATOM     12  F   UNL A   1      35.094  25.185  25.572  1.00  0.00    -0.207 F 
ATOM     13  C   UNL A   1      34.161  23.031  25.376  1.00  0.00     0.045 A 
BRANCH  11  14
ATOM     14  C   UNL A   1      33.151  20.724  25.085  1.00  0.00     0.196 C 
BRANCH  14  15
ATOM     15  O   UNL A   1      33.140  19.942  23.895  1.00  0.00    -0.369 OA
BRANCH  15  16
ATOM     16  C   UNL A   1      32.431  18.703  23.948  1.00  0.00     0.235 C 
BRANCH  16  17
ATOM     17  C   UNL A   1      33.316  17.582  24.369  1.00  0.00     0.129 A 
ATOM     18  C   UNL A   1      34.678  17.358  24.319  1.00  0.00     0.048 A 
ATOM     19  O   UNL A   1      32.714  16.557  25.044  1.00  0.00    -0.467 OA
ATOM     20  C   UNL A   1      34.916  16.131  24.982  1.00  0.00     0.042 A 
ATOM     21  C   UNL A   1      33.689  15.688  25.414  1.00  0.00     0.195 A 
ENDBRANCH  16  17
ENDBRANCH  15  16
ENDBRANCH  14  15
ENDBRANCH  11  14
ENDBRANCH   6   7
ENDBRANCH   3   5
ENDBRANCH   2   3
ENDBRANCH   1   2
BRANCH   1  22
ATOM     22  C   UNL A   1      42.807  23.459  26.641  1.00  0.00     0.275 C 
BRANCH  22  23
ATOM     23  O   UNL A   1      41.573  24.161  26.443  1.00  0.00    -0.458 OA
BRANCH  23  24
ATOM     24  C   UNL A   1      41.706  25.473  26.114  1.00  0.00     0.338 C 
ATOM     25  O   UNL A   1      41.896  25.924  24.996  1.00  0.00    -0.246 OA
BRANCH  24  26
ATOM     26  C   UNL A   1      41.443  26.316  27.300  1.00  0.00     0.060 A 
ATOM     27  C   UNL A   1      42.193  27.488  27.467  1.00  0.00     0.016 A 
ATOM     28  C   UNL A   1      40.463  25.975  28.233  1.00  0.00     0.016 A 
ATOM     29  C   UNL A   1      41.961  28.317  28.569  1.00  0.00     0.010 A 
ATOM     30  C   UNL A   1      40.231  26.807  29.331  1.00  0.00     0.010 A 
ATOM     31  C   UNL A   1      40.988  27.976  29.517  1.00  0.00    -0.014 A 
BRANCH  31  32
ATOM     32  C   UNL A   1      40.805  28.772  30.756  1.00  0.00     0.031 A 
ATOM     33  C   UNL A   1      39.752  29.842  30.794  1.00  0.00     0.074 A 
ATOM     34  C   UNL A   1      41.603  28.583  31.823  1.00  0.00     0.049 A 
ATOM     35  N   UNL A   1      39.485  30.706  31.738  1.00  0.00    -0.248 NA
ATOM     36  C   UNL A   1      38.892  29.960  29.606  1.00  0.00     0.031 C 
ATOM     37  C   UNL A   1      42.657  27.577  31.918  1.00  0.00     0.029 A 
ATOM     38  N   UNL A   1      41.670  29.254  33.019  1.00  0.00    -0.354 N 
ATOM     39  C   UNL A   1      38.430  31.473  31.259  1.00  0.00     0.074 A 
ATOM     40  C   UNL A   1      38.130  30.995  29.927  1.00  0.00     0.031 C 
ATOM     41  C   UNL A   1      43.288  27.715  33.096  1.00  0.00     0.029 A 
ATOM     42  C   UNL A   1      42.696  28.832  33.831  1.00  0.00     0.049 A 
ATOM     43  H   UNL A   1      41.042  29.970  33.272  1.00  0.00     0.167 HD
ATOM     44  C   UNL A   1      37.764  32.474  31.881  1.00  0.00     0.037 A 
ATOM     45  C   UNL A   1      43.127  29.304  35.020  1.00  0.00     0.037 A 
ATOM     46  C   UNL A   1      38.057  32.941  33.210  1.00  0.00     0.049 A 
ATOM     47  C   UNL A   1      42.413  30.458  35.670  1.00  0.00     0.074 A 
ATOM     48  C   UNL A   1      37.389  33.905  33.944  1.00  0.00     0.029 A 
ATOM     49  N   UNL A   1      39.110  32.498  33.995  1.00  0.00    -0.354 N 
ATOM     50  N   UNL A   1      41.375  31.132  35.236  1.00  0.00    -0.248 NA
ATOM     51  C   UNL A   1      42.924  30.919  36.970  1.00  0.00     0.031 C 
ATOM     52  C   UNL A   1      38.069  34.082  35.153  1.00  0.00     0.029 A 
ATOM     53  C   UNL A   1      39.133  33.194  35.192  1.00  0.00     0.049 A 
ATOM     54  H   UNL A   1      39.747  31.791  33.739  1.00  0.00     0.167 HD
ATOM     55  C   UNL A   1      41.094  32.078  36.216  1.00  0.00     0.074 A 
ATOM     56  C   UNL A   1      42.072  31.893  37.268  1.00  0.00     0.031 C 
ATOM     57  C   UNL A   1      40.108  33.008  36.239  1.00  0.00     0.037 A 
BRANCH  44  58
ATOM     58  C   UNL A   1      36.655  33.143  31.123  1.00  0.00     0.058 A 
ATOM     59  C   UNL A   1      36.946  34.060  30.101  1.00  0.00     0.135 A 
ATOM     60  C   UNL A   1      35.306  32.907  31.430  1.00  0.00     0.135 A 
ATOM     61  F   UNL A   1      38.219  34.318  29.765  1.00  0.00    -0.206 F 
ATOM     62  C   UNL A   1      35.937  34.721  29.410  1.00  0.00     0.059 A 
ATOM     63  C   UNL A   1      34.279  33.540  30.735  1.00  0.00     0.059 A 
ATOM     64  F   UNL A   1      34.975  32.023  32.385  1.00  0.00    -0.206 F 
ATOM     65  C   UNL A   1      34.606  34.453  29.733  1.00  0.00     0.060 A 
BRANCH  65  66
ATOM     66  S   UNL A   1      33.305  35.269  28.784  1.00  0.00     0.124 S 
ATOM     67  O   UNL A   1      32.508  35.886  29.837  1.00  0.00    -0.237 OA
ATOM     68  O   UNL A   1      34.068  36.187  27.941  1.00  0.00    -0.237 OA
ATOM     69  O   UNL A   1      32.666  34.168  28.071  1.00  0.00    -0.744 OA
ENDBRANCH  65  66
ENDBRANCH  44  58
BRANCH  45  70
ATOM     70  C   UNL A   1      44.300  28.662  35.667  1.00  0.00     0.058 A 
ATOM     71  C   UNL A   1      44.135  27.640  36.615  1.00  0.00     0.135 A 
ATOM     72  C   UNL A   1      45.602  29.107  35.402  1.00  0.00     0.135 A 
ATOM     73  F   UNL A   1      42.908  27.176  36.899  1.00  0.00    -0.206 F 
ATOM     74  C   UNL A   1      45.218  27.112  37.309  1.00  0.00     0.059 A 
ATOM     75  C   UNL A   1      46.703  28.580  36.070  1.00  0.00     0.059 A 
ATOM     76  F   UNL A   1      45.809  30.069  34.489  1.00  0.00    -0.206 F 
ATOM     77  C   UNL A   1      46.498  27.599  37.040  1.00  0.00     0.060 A 
BRANCH  77  78
ATOM     78  S   UNL A   1      47.883  26.945  37.997  1.00  0.00     0.124 S 
ATOM     79  O   UNL A   1      48.901  26.781  36.963  1.00  0.00    -0.237 OA
ATOM     80  O   UNL A   1      48.122  28.014  38.960  1.00  0.00    -0.237 OA
ATOM     81  O   UNL A   1      47.352  25.707  38.556  1.00  0.00    -0.744 OA
ENDBRANCH  77  78
ENDBRANCH  45  70
BRANCH  57  82
ATOM     82  C   UNL A   1      40.004  33.911  37.437  1.00  0.00     0.058 A 
ATOM     83  C   UNL A   1      39.063  33.646  38.445  1.00  0.00     0.135 A 
ATOM     84  C   UNL A   1      40.731  35.108  37.516  1.00  0.00     0.135 A 
ATOM     85  F   UNL A   1      38.338  32.516  38.415  1.00  0.00    -0.206 F 
ATOM     86  C   UNL A   1      38.816  34.556  39.468  1.00  0.00     0.059 A 
ATOM     87  C   UNL A   1      40.517  36.024  38.544  1.00  0.00     0.059 A 
ATOM     88  F   UNL A   1      41.652  35.402  36.584  1.00  0.00    -0.206 F 
ATOM     89  C   UNL A   1      39.538  35.750  39.500  1.00  0.00     0.060 A 
BRANCH  89  90
ATOM     90  S   UNL A   1      39.171  36.942  40.807  1.00  0.00     0.124 S 
ATOM     91  O   UNL A   1      40.487  37.513  41.069  1.00  0.00    -0.237 OA
ATOM     92  O   UNL A   1      38.214  37.830  40.153  1.00  0.00    -0.237 OA
ATOM     93  O   UNL A   1      38.620  36.116  41.877  1.00  0.00    -0.744 OA
ENDBRANCH  89  90
ENDBRANCH  57  82
ENDBRANCH  31  32
ENDBRANCH  24  26
ENDBRANCH  23  24
ENDBRANCH  22  23
ENDBRANCH   1  22
TORSDOF 19
ENDMDL
