MODEL 1
REMARK VINA RESULT:     -12.6      0.000      0.000
REMARK SMILES Cc1ccccc1C[C@@H](CC(F)(F)F)C(=O)OCCOC(=O)c1ccc(-c2c3nc(c(-c4c(F)cc(S(=O)(=O)[O-])cc4F)c4ccc([nH]4)c(-c4c(F)cc(S(=O)(=O)[O-])cc4F)c4nc(c(-c5c(F)cc(S(=O)(=O)[O-])cc5F)c5ccc2[nH]5)C=C4)C=C3)cc1
REMARK SMILES IDX 19 1 18 2 17 3 15 4 16 5 9 6 8 7 7 8 1 9 2 10 3 11 4 12 6 13
REMARK SMILES IDX 5 14 10 15 11 16 12 17 13 18 14 19 20 20 21 21 22 22 23 23
REMARK SMILES IDX 24 24 88 25 25 26 87 27 26 28 27 29 28 30 81 31 29 32 86 33
REMARK SMILES IDX 80 34 82 35 30 36 85 37 79 38 78 39 31 41 65 42 44 43 64 44
REMARK SMILES IDX 45 45 48 46 63 47 83 48 46 49 47 50 62 52 84 53 49 54 32 55
REMARK SMILES IDX 33 56 42 57 34 58 35 59 41 60 43 61 36 62 37 63 38 64 39 65
REMARK SMILES IDX 40 66 66 67 67 68 76 69 68 70 69 71 75 72 77 73 70 74 71 75
REMARK SMILES IDX 72 76 73 77 74 78 50 79 51 80 60 81 52 82 53 83 59 84 61 85
REMARK SMILES IDX 54 86 55 87 56 88 57 89 58 90
REMARK H PARENT 82 40 48 51
REMARK Flexibility Score: inf
ROOT
ATOM      1  C   UNL A   1      34.066  31.629  27.888  1.00  0.00     0.275 C 
ENDROOT
BRANCH   1   2
ATOM      2  C   UNL A   1      32.976  30.814  27.175  1.00  0.00     0.274 C 
BRANCH   2   3
ATOM      3  O   UNL A   1      32.827  29.385  27.238  1.00  0.00    -0.462 OA
BRANCH   3   4
ATOM      4  C   UNL A   1      33.450  28.363  26.454  1.00  0.00     0.309 C 
ATOM      5  O   UNL A   1      34.546  28.899  26.167  1.00  0.00    -0.252 OA
BRANCH   4   6
ATOM      6  C   UNL A   1      32.478  26.479  25.825  1.00  0.00     0.112 C 
BRANCH   6   7
ATOM      7  C   UNL A   1      31.264  26.146  24.496  1.00  0.00     0.051 C 
BRANCH   7   8
ATOM      8  C   UNL A   1      30.519  27.306  23.759  1.00  0.00    -0.044 A 
ATOM      9  C   UNL A   1      32.692  28.345  22.776  1.00  0.00     0.044 C 
ATOM     10  C   UNL A   1      31.204  28.294  23.009  1.00  0.00    -0.048 A 
ATOM     11  C   UNL A   1      30.477  29.301  22.320  1.00  0.00     0.004 A 
ATOM     12  C   UNL A   1      29.091  29.369  22.354  1.00  0.00     0.000 A 
ATOM     13  C   UNL A   1      29.108  27.380  23.693  1.00  0.00     0.004 A 
ATOM     14  C   UNL A   1      28.403  28.396  23.040  1.00  0.00     0.000 A 
ENDBRANCH   7   8
ENDBRANCH   6   7
BRANCH   6  15
ATOM     15  C   UNL A   1      33.083  24.828  25.804  1.00  0.00     0.131 C 
BRANCH  15  16
ATOM     16  C   UNL A   1      34.369  24.460  25.035  1.00  0.00     0.389 C 
ATOM     17  F   UNL A   1      35.515  24.778  25.670  1.00  0.00    -0.171 F 
ATOM     18  F   UNL A   1      34.383  23.116  24.843  1.00  0.00    -0.171 F 
ATOM     19  F   UNL A   1      34.492  25.004  23.812  1.00  0.00    -0.171 F 
ENDBRANCH  15  16
ENDBRANCH   6  15
ENDBRANCH   4   6
ENDBRANCH   3   4
ENDBRANCH   2   3
ENDBRANCH   1   2
BRANCH   1  20
ATOM     20  O   UNL A   1      35.434  31.734  27.439  1.00  0.00    -0.458 OA
BRANCH  20  21
ATOM     21  C   UNL A   1      36.579  31.557  28.144  1.00  0.00     0.338 C 
ATOM     22  O   UNL A   1      37.178  32.453  28.715  1.00  0.00    -0.246 OA
BRANCH  21  23
ATOM     23  C   UNL A   1      37.123  30.199  28.105  1.00  0.00     0.060 A 
ATOM     24  C   UNL A   1      36.907  29.110  29.524  1.00  0.00     0.016 A 
ATOM     25  C   UNL A   1      38.438  29.900  26.929  1.00  0.00     0.016 A 
ATOM     26  C   UNL A   1      38.190  27.869  29.910  1.00  0.00     0.010 A 
ATOM     27  C   UNL A   1      39.706  28.700  27.332  1.00  0.00     0.010 A 
ATOM     28  C   UNL A   1      39.630  27.746  28.863  1.00  0.00    -0.014 A 
BRANCH  28  29
ATOM     29  C   UNL A   1      40.977  27.272  29.251  1.00  0.00     0.031 A 
ATOM     30  C   UNL A   1      41.370  25.888  28.860  1.00  0.00     0.074 A 
ATOM     31  C   UNL A   1      41.883  28.187  29.661  1.00  0.00     0.049 A 
ATOM     32  N   UNL A   1      41.915  24.967  29.591  1.00  0.00    -0.248 NA
ATOM     33  C   UNL A   1      40.961  25.340  27.569  1.00  0.00     0.031 C 
ATOM     34  C   UNL A   1      43.339  28.117  29.586  1.00  0.00     0.029 A 
ATOM     35  N   UNL A   1      41.672  29.383  30.324  1.00  0.00    -0.354 N 
ATOM     36  C   UNL A   1      42.182  23.920  28.699  1.00  0.00     0.074 A 
ATOM     37  C   UNL A   1      41.204  24.043  27.677  1.00  0.00     0.031 C 
ATOM     38  C   UNL A   1      43.876  29.050  30.395  1.00  0.00     0.029 A 
ATOM     39  C   UNL A   1      42.784  29.687  31.113  1.00  0.00     0.049 A 
ATOM     40  H   UNL A   1      40.861  29.937  30.251  1.00  0.00     0.167 HD
ATOM     41  C   UNL A   1      43.447  23.435  28.502  1.00  0.00     0.037 A 
ATOM     42  C   UNL A   1      42.668  29.685  32.476  1.00  0.00     0.037 A 
ATOM     43  C   UNL A   1      44.363  24.206  29.324  1.00  0.00     0.049 A 
ATOM     44  C   UNL A   1      43.330  28.461  33.095  1.00  0.00     0.074 A 
ATOM     45  C   UNL A   1      45.278  25.213  29.071  1.00  0.00     0.029 A 
ATOM     46  N   UNL A   1      44.114  24.240  30.678  1.00  0.00    -0.354 N 
ATOM     47  N   UNL A   1      43.606  27.364  32.434  1.00  0.00    -0.248 NA
ATOM     48  C   UNL A   1      43.843  28.414  34.461  1.00  0.00     0.031 C 
ATOM     49  C   UNL A   1      45.594  25.830  30.318  1.00  0.00     0.029 A 
ATOM     50  C   UNL A   1      44.866  25.194  31.311  1.00  0.00     0.049 A 
ATOM     51  H   UNL A   1      43.474  23.649  31.137  1.00  0.00     0.167 HD
ATOM     52  C   UNL A   1      44.332  26.500  33.221  1.00  0.00     0.074 A 
ATOM     53  C   UNL A   1      44.461  27.219  34.474  1.00  0.00     0.031 C 
ATOM     54  C   UNL A   1      44.777  25.287  32.760  1.00  0.00     0.037 A 
BRANCH  41  55
ATOM     55  C   UNL A   1      43.891  22.514  27.362  1.00  0.00     0.058 A 
ATOM     56  C   UNL A   1      43.201  21.308  27.108  1.00  0.00     0.135 A 
ATOM     57  C   UNL A   1      44.933  22.780  26.440  1.00  0.00     0.135 A 
ATOM     58  F   UNL A   1      42.147  20.937  27.846  1.00  0.00    -0.206 F 
ATOM     59  C   UNL A   1      43.535  20.432  26.068  1.00  0.00     0.059 A 
ATOM     60  C   UNL A   1      45.324  21.893  25.427  1.00  0.00     0.059 A 
ATOM     61  F   UNL A   1      45.583  23.951  26.423  1.00  0.00    -0.206 F 
ATOM     62  C   UNL A   1      44.604  20.726  25.234  1.00  0.00     0.060 A 
BRANCH  62  63
ATOM     63  S   UNL A   1      44.976  19.610  23.867  1.00  0.00     0.124 S 
ATOM     64  O   UNL A   1      44.459  20.348  22.719  1.00  0.00    -0.237 OA
ATOM     65  O   UNL A   1      46.428  19.502  23.951  1.00  0.00    -0.237 OA
ATOM     66  O   UNL A   1      44.238  18.396  24.206  1.00  0.00    -0.744 OA
ENDBRANCH  62  63
ENDBRANCH  41  55
BRANCH  42  67
ATOM     67  C   UNL A   1      41.429  30.405  32.909  1.00  0.00     0.058 A 
ATOM     68  C   UNL A   1      40.329  29.587  33.259  1.00  0.00     0.135 A 
ATOM     69  C   UNL A   1      41.471  31.684  33.479  1.00  0.00     0.135 A 
ATOM     70  F   UNL A   1      40.200  28.372  32.700  1.00  0.00    -0.206 F 
ATOM     71  C   UNL A   1      39.448  29.926  34.284  1.00  0.00     0.059 A 
ATOM     72  C   UNL A   1      40.563  32.063  34.480  1.00  0.00     0.059 A 
ATOM     73  F   UNL A   1      42.477  32.521  33.186  1.00  0.00    -0.206 F 
ATOM     74  C   UNL A   1      39.609  31.145  34.933  1.00  0.00     0.060 A 
BRANCH  74  75
ATOM     75  S   UNL A   1      38.599  31.475  36.403  1.00  0.00     0.124 S 
ATOM     76  O   UNL A   1      38.185  30.130  36.793  1.00  0.00    -0.237 OA
ATOM     77  O   UNL A   1      39.534  32.121  37.317  1.00  0.00    -0.237 OA
ATOM     78  O   UNL A   1      37.528  32.327  35.892  1.00  0.00    -0.744 OA
ENDBRANCH  74  75
ENDBRANCH  42  67
BRANCH  54  79
ATOM     79  C   UNL A   1      45.196  24.051  33.570  1.00  0.00     0.058 A 
ATOM     80  C   UNL A   1      46.508  23.759  33.967  1.00  0.00     0.135 A 
ATOM     81  C   UNL A   1      44.226  23.135  34.093  1.00  0.00     0.135 A 
ATOM     82  F   UNL A   1      47.536  24.560  33.682  1.00  0.00    -0.206 F 
ATOM     83  C   UNL A   1      46.839  22.633  34.724  1.00  0.00     0.059 A 
ATOM     84  C   UNL A   1      44.525  22.063  34.926  1.00  0.00     0.059 A 
ATOM     85  F   UNL A   1      42.916  23.227  33.837  1.00  0.00    -0.206 F 
ATOM     86  C   UNL A   1      45.844  21.793  35.202  1.00  0.00     0.060 A 
BRANCH  86  87
ATOM     87  S   UNL A   1      46.298  20.356  36.173  1.00  0.00     0.124 S 
ATOM     88  O   UNL A   1      45.659  19.284  35.417  1.00  0.00    -0.237 OA
ATOM     89  O   UNL A   1      47.756  20.395  36.110  1.00  0.00    -0.237 OA
ATOM     90  O   UNL A   1      45.724  20.629  37.486  1.00  0.00    -0.744 OA
ENDBRANCH  86  87
ENDBRANCH  54  79
ENDBRANCH  28  29
ENDBRANCH  21  23
ENDBRANCH  20  21
ENDBRANCH   1  20
TORSDOF 18
ENDMDL
MODEL 2
REMARK VINA RESULT:     -12.5      5.316     10.887
REMARK SMILES Cc1ccccc1C[C@@H](CC(F)(F)F)C(=O)OCCOC(=O)c1ccc(-c2c3nc(c(-c4c(F)cc(S(=O)(=O)[O-])cc4F)c4ccc([nH]4)c(-c4c(F)cc(S(=O)(=O)[O-])cc4F)c4nc(c(-c5c(F)cc(S(=O)(=O)[O-])cc5F)c5ccc2[nH]5)C=C4)C=C3)cc1
REMARK SMILES IDX 19 1 18 2 17 3 15 4 16 5 9 6 8 7 7 8 1 9 2 10 3 11 4 12 6 13
REMARK SMILES IDX 5 14 10 15 11 16 12 17 13 18 14 19 20 20 21 21 22 22 23 23
REMARK SMILES IDX 24 24 88 25 25 26 87 27 26 28 27 29 28 30 81 31 29 32 86 33
REMARK SMILES IDX 80 34 82 35 30 36 85 37 79 38 78 39 31 41 65 42 44 43 64 44
REMARK SMILES IDX 45 45 48 46 63 47 83 48 46 49 47 50 62 52 84 53 49 54 32 55
REMARK SMILES IDX 33 56 42 57 34 58 35 59 41 60 43 61 36 62 37 63 38 64 39 65
REMARK SMILES IDX 40 66 66 67 67 68 76 69 68 70 69 71 75 72 77 73 70 74 71 75
REMARK SMILES IDX 72 76 73 77 74 78 50 79 51 80 60 81 52 82 53 83 59 84 61 85
REMARK SMILES IDX 54 86 55 87 56 88 57 89 58 90
REMARK H PARENT 82 40 48 51
REMARK Flexibility Score: inf
ROOT
ATOM      1  C   UNL A   1      45.488  29.669  26.871  1.00  0.00     0.275 C 
ENDROOT
BRANCH   1   2
ATOM      2  C   UNL A   1      43.978  29.931  26.987  1.00  0.00     0.274 C 
BRANCH   2   3
ATOM      3  O   UNL A   1      42.981  29.496  26.046  1.00  0.00    -0.462 OA
BRANCH   3   4
ATOM      4  C   UNL A   1      42.382  28.208  25.875  1.00  0.00     0.309 C 
ATOM      5  O   UNL A   1      42.342  28.112  24.626  1.00  0.00    -0.252 OA
BRANCH   4   6
ATOM      6  C   UNL A   1      41.588  26.953  27.515  1.00  0.00     0.112 C 
BRANCH   6   7
ATOM      7  C   UNL A   1      41.325  27.327  29.287  1.00  0.00     0.051 C 
BRANCH   7   8
ATOM      8  C   UNL A   1      40.697  28.681  29.752  1.00  0.00    -0.044 A 
ATOM      9  C   UNL A   1      38.529  27.587  30.685  1.00  0.00     0.044 C 
ATOM     10  C   UNL A   1      39.420  28.758  30.361  1.00  0.00    -0.048 A 
ATOM     11  C   UNL A   1      38.915  30.009  30.807  1.00  0.00     0.004 A 
ATOM     12  C   UNL A   1      39.629  31.191  30.665  1.00  0.00     0.000 A 
ATOM     13  C   UNL A   1      41.410  29.903  29.705  1.00  0.00     0.004 A 
ATOM     14  C   UNL A   1      40.889  31.134  30.116  1.00  0.00     0.000 A 
ENDBRANCH   7   8
ENDBRANCH   6   7
BRANCH   6  15
ATOM     15  C   UNL A   1      40.350  25.705  27.506  1.00  0.00     0.131 C 
BRANCH  15  16
ATOM     16  C   UNL A   1      40.726  24.208  27.456  1.00  0.00     0.389 C 
ATOM     17  F   UNL A   1      41.399  23.834  26.350  1.00  0.00    -0.171 F 
ATOM     18  F   UNL A   1      41.525  23.932  28.518  1.00  0.00    -0.171 F 
ATOM     19  F   UNL A   1      39.697  23.347  27.540  1.00  0.00    -0.171 F 
ENDBRANCH  15  16
ENDBRANCH   6  15
ENDBRANCH   4   6
ENDBRANCH   3   4
ENDBRANCH   2   3
ENDBRANCH   1   2
BRANCH   1  20
ATOM     20  O   UNL A   1      46.254  28.872  27.799  1.00  0.00    -0.458 OA
BRANCH  20  21
ATOM     21  C   UNL A   1      46.912  27.707  27.581  1.00  0.00     0.338 C 
ATOM     22  O   UNL A   1      47.647  27.502  26.630  1.00  0.00    -0.246 OA
BRANCH  21  23
ATOM     23  C   UNL A   1      46.609  26.641  28.537  1.00  0.00     0.060 A 
ATOM     24  C   UNL A   1      45.015  25.804  28.465  1.00  0.00     0.016 A 
ATOM     25  C   UNL A   1      47.569  26.627  30.047  1.00  0.00     0.016 A 
ATOM     26  C   UNL A   1      44.256  25.178  30.004  1.00  0.00     0.010 A 
ATOM     27  C   UNL A   1      46.804  26.036  31.556  1.00  0.00     0.010 A 
ATOM     28  C   UNL A   1      45.117  25.392  31.553  1.00  0.00    -0.014 A 
BRANCH  28  29
ATOM     29  C   UNL A   1      44.516  25.495  32.901  1.00  0.00     0.031 A 
ATOM     30  C   UNL A   1      43.983  26.820  33.329  1.00  0.00     0.074 A 
ATOM     31  C   UNL A   1      44.203  24.351  33.550  1.00  0.00     0.049 A 
ATOM     32  N   UNL A   1      44.180  27.445  34.448  1.00  0.00    -0.248 NA
ATOM     33  C   UNL A   1      43.302  27.688  32.371  1.00  0.00     0.031 C 
ATOM     34  C   UNL A   1      43.179  24.139  34.567  1.00  0.00     0.029 A 
ATOM     35  N   UNL A   1      44.820  23.115  33.479  1.00  0.00    -0.354 N 
ATOM     36  C   UNL A   1      43.353  28.574  34.370  1.00  0.00     0.074 A 
ATOM     37  C   UNL A   1      43.241  28.860  32.984  1.00  0.00     0.031 C 
ATOM     38  C   UNL A   1      43.410  22.973  35.200  1.00  0.00     0.029 A 
ATOM     39  C   UNL A   1      44.663  22.439  34.692  1.00  0.00     0.049 A 
ATOM     40  H   UNL A   1      45.298  22.763  32.693  1.00  0.00     0.167 HD
ATOM     41  C   UNL A   1      42.370  28.821  35.291  1.00  0.00     0.037 A 
ATOM     42  C   UNL A   1      45.757  22.191  35.475  1.00  0.00     0.037 A 
ATOM     43  C   UNL A   1      42.361  27.731  36.251  1.00  0.00     0.049 A 
ATOM     44  C   UNL A   1      45.795  23.105  36.693  1.00  0.00     0.074 A 
ATOM     45  C   UNL A   1      41.547  26.631  36.459  1.00  0.00     0.029 A 
ATOM     46  N   UNL A   1      43.536  27.477  36.923  1.00  0.00    -0.354 N 
ATOM     47  N   UNL A   1      45.135  24.233  36.784  1.00  0.00    -0.248 NA
ATOM     48  C   UNL A   1      46.473  22.771  37.942  1.00  0.00     0.031 C 
ATOM     49  C   UNL A   1      42.257  25.726  37.303  1.00  0.00     0.029 A 
ATOM     50  C   UNL A   1      43.491  26.283  37.593  1.00  0.00     0.049 A 
ATOM     51  H   UNL A   1      44.313  28.081  36.924  1.00  0.00     0.167 HD
ATOM     52  C   UNL A   1      45.252  24.756  38.051  1.00  0.00     0.074 A 
ATOM     53  C   UNL A   1      46.088  23.789  38.735  1.00  0.00     0.031 C 
ATOM     54  C   UNL A   1      44.630  25.921  38.423  1.00  0.00     0.037 A 
BRANCH  41  55
ATOM     55  C   UNL A   1      41.239  29.843  35.148  1.00  0.00     0.058 A 
ATOM     56  C   UNL A   1      40.131  29.570  34.315  1.00  0.00     0.135 A 
ATOM     57  C   UNL A   1      41.140  31.073  35.844  1.00  0.00     0.135 A 
ATOM     58  F   UNL A   1      40.034  28.421  33.635  1.00  0.00    -0.206 F 
ATOM     59  C   UNL A   1      39.050  30.446  34.158  1.00  0.00     0.059 A 
ATOM     60  C   UNL A   1      40.098  31.993  35.660  1.00  0.00     0.059 A 
ATOM     61  F   UNL A   1      42.012  31.419  36.800  1.00  0.00    -0.206 F 
ATOM     62  C   UNL A   1      39.043  31.661  34.827  1.00  0.00     0.060 A 
BRANCH  62  63
ATOM     63  S   UNL A   1      37.611  32.745  34.651  1.00  0.00     0.124 S 
ATOM     64  O   UNL A   1      36.846  32.076  33.604  1.00  0.00    -0.237 OA
ATOM     65  O   UNL A   1      37.032  32.700  35.989  1.00  0.00    -0.237 OA
ATOM     66  O   UNL A   1      38.197  34.026  34.267  1.00  0.00    -0.744 OA
ENDBRANCH  62  63
ENDBRANCH  41  55
BRANCH  42  67
ATOM     67  C   UNL A   1      46.894  21.665  34.656  1.00  0.00     0.058 A 
ATOM     68  C   UNL A   1      47.970  22.558  34.447  1.00  0.00     0.135 A 
ATOM     69  C   UNL A   1      47.184  20.297  34.575  1.00  0.00     0.135 A 
ATOM     70  F   UNL A   1      47.745  23.883  34.453  1.00  0.00    -0.206 F 
ATOM     71  C   UNL A   1      49.294  22.126  34.391  1.00  0.00     0.059 A 
ATOM     72  C   UNL A   1      48.508  19.841  34.470  1.00  0.00     0.059 A 
ATOM     73  F   UNL A   1      46.212  19.389  34.750  1.00  0.00    -0.206 F 
ATOM     74  C   UNL A   1      49.559  20.763  34.463  1.00  0.00     0.060 A 
BRANCH  74  75
ATOM     75  S   UNL A   1      51.287  20.232  34.609  1.00  0.00     0.124 S 
ATOM     76  O   UNL A   1      51.779  20.424  33.247  1.00  0.00    -0.237 OA
ATOM     77  O   UNL A   1      51.839  21.151  35.598  1.00  0.00    -0.237 OA
ATOM     78  O   UNL A   1      51.178  18.839  35.036  1.00  0.00    -0.744 OA
ENDBRANCH  74  75
ENDBRANCH  42  67
BRANCH  54  79
ATOM     79  C   UNL A   1      44.974  26.858  39.592  1.00  0.00     0.058 A 
ATOM     80  C   UNL A   1      44.546  26.680  40.914  1.00  0.00     0.135 A 
ATOM     81  C   UNL A   1      45.880  27.954  39.428  1.00  0.00     0.135 A 
ATOM     82  F   UNL A   1      43.795  25.644  41.290  1.00  0.00    -0.206 F 
ATOM     83  C   UNL A   1      44.903  27.547  41.950  1.00  0.00     0.059 A 
ATOM     84  C   UNL A   1      46.322  28.770  40.463  1.00  0.00     0.059 A 
ATOM     85  F   UNL A   1      46.409  28.302  38.249  1.00  0.00    -0.206 F 
ATOM     86  C   UNL A   1      45.793  28.586  41.718  1.00  0.00     0.060 A 
BRANCH  86  87
ATOM     87  S   UNL A   1      46.234  29.681  43.066  1.00  0.00     0.124 S 
ATOM     88  O   UNL A   1      46.657  30.875  42.341  1.00  0.00    -0.237 OA
ATOM     89  O   UNL A   1      44.974  29.792  43.793  1.00  0.00    -0.237 OA
ATOM     90  O   UNL A   1      47.295  28.962  43.765  1.00  0.00    -0.744 OA
ENDBRANCH  86  87
ENDBRANCH  54  79
ENDBRANCH  28  29
ENDBRANCH  21  23
ENDBRANCH  20  21
ENDBRANCH   1  20
TORSDOF 18
ENDMDL
MODEL 3
REMARK VINA RESULT:     -12.4      5.253     10.803
REMARK SMILES Cc1ccccc1C[C@@H](CC(F)(F)F)C(=O)OCCOC(=O)c1ccc(-c2c3nc(c(-c4c(F)cc(S(=O)(=O)[O-])cc4F)c4ccc([nH]4)c(-c4c(F)cc(S(=O)(=O)[O-])cc4F)c4nc(c(-c5c(F)cc(S(=O)(=O)[O-])cc5F)c5ccc2[nH]5)C=C4)C=C3)cc1
REMARK SMILES IDX 19 1 18 2 17 3 15 4 16 5 9 6 8 7 7 8 1 9 2 10 3 11 4 12 6 13
REMARK SMILES IDX 5 14 10 15 11 16 12 17 13 18 14 19 20 20 21 21 22 22 23 23
REMARK SMILES IDX 24 24 88 25 25 26 87 27 26 28 27 29 28 30 81 31 29 32 86 33
REMARK SMILES IDX 80 34 82 35 30 36 85 37 79 38 78 39 31 41 65 42 44 43 64 44
REMARK SMILES IDX 45 45 48 46 63 47 83 48 46 49 47 50 62 52 84 53 49 54 32 55
REMARK SMILES IDX 33 56 42 57 34 58 35 59 41 60 43 61 36 62 37 63 38 64 39 65
REMARK SMILES IDX 40 66 66 67 67 68 76 69 68 70 69 71 75 72 77 73 70 74 71 75
REMARK SMILES IDX 72 76 73 77 74 78 50 79 51 80 60 81 52 82 53 83 59 84 61 85
REMARK SMILES IDX 54 86 55 87 56 88 57 89 58 90
REMARK H PARENT 82 40 48 51
REMARK Flexibility Score: inf
ROOT
ATOM      1  C   UNL A   1      44.668  28.786  27.573  1.00  0.00     0.275 C 
ENDROOT
BRANCH   1   2
ATOM      2  C   UNL A   1      43.912  29.999  27.009  1.00  0.00     0.274 C 
BRANCH   2   3
ATOM      3  O   UNL A   1      42.824  29.942  26.070  1.00  0.00    -0.462 OA
BRANCH   3   4
ATOM      4  C   UNL A   1      41.789  28.966  25.926  1.00  0.00     0.309 C 
ATOM      5  O   UNL A   1      42.113  28.411  24.850  1.00  0.00    -0.252 OA
BRANCH   4   6
ATOM      6  C   UNL A   1      40.025  28.785  27.248  1.00  0.00     0.112 C 
BRANCH   6   7
ATOM      7  C   UNL A   1      39.204  27.308  27.951  1.00  0.00     0.051 C 
BRANCH   7   8
ATOM      8  C   UNL A   1      39.789  25.873  27.748  1.00  0.00    -0.044 A 
ATOM      9  C   UNL A   1      42.042  26.405  28.935  1.00  0.00     0.044 C 
ATOM     10  C   UNL A   1      41.086  25.510  28.189  1.00  0.00    -0.048 A 
ATOM     11  C   UNL A   1      41.553  24.179  28.019  1.00  0.00     0.004 A 
ATOM     12  C   UNL A   1      40.781  23.193  27.422  1.00  0.00     0.000 A 
ATOM     13  C   UNL A   1      39.021  24.809  27.219  1.00  0.00     0.004 A 
ATOM     14  C   UNL A   1      39.502  23.510  27.026  1.00  0.00     0.000 A 
ENDBRANCH   7   8
ENDBRANCH   6   7
BRANCH   6  15
ATOM     15  C   UNL A   1      39.452  29.826  28.544  1.00  0.00     0.131 C 
BRANCH  15  16
ATOM     16  C   UNL A   1      40.328  30.116  29.781  1.00  0.00     0.389 C 
ATOM     17  F   UNL A   1      40.587  29.040  30.551  1.00  0.00    -0.171 F 
ATOM     18  F   UNL A   1      41.525  30.595  29.356  1.00  0.00    -0.171 F 
ATOM     19  F   UNL A   1      39.847  31.039  30.632  1.00  0.00    -0.171 F 
ENDBRANCH  15  16
ENDBRANCH   6  15
ENDBRANCH   4   6
ENDBRANCH   3   4
ENDBRANCH   2   3
ENDBRANCH   1   2
BRANCH   1  20
ATOM     20  O   UNL A   1      45.161  27.687  26.776  1.00  0.00    -0.458 OA
BRANCH  20  21
ATOM     21  C   UNL A   1      46.322  26.998  26.900  1.00  0.00     0.338 C 
ATOM     22  O   UNL A   1      47.227  27.028  26.083  1.00  0.00    -0.246 OA
BRANCH  21  23
ATOM     23  C   UNL A   1      46.394  26.117  28.065  1.00  0.00     0.060 A 
ATOM     24  C   UNL A   1      45.196  24.784  28.251  1.00  0.00     0.016 A 
ATOM     25  C   UNL A   1      47.269  26.749  29.492  1.00  0.00     0.016 A 
ATOM     26  C   UNL A   1      44.675  24.267  29.924  1.00  0.00     0.010 A 
ATOM     27  C   UNL A   1      46.731  26.257  31.128  1.00  0.00     0.010 A 
ATOM     28  C   UNL A   1      45.377  25.082  31.348  1.00  0.00    -0.014 A 
BRANCH  28  29
ATOM     29  C   UNL A   1      44.752  25.247  32.679  1.00  0.00     0.031 A 
ATOM     30  C   UNL A   1      44.168  26.577  33.017  1.00  0.00     0.074 A 
ATOM     31  C   UNL A   1      44.469  24.136  33.394  1.00  0.00     0.049 A 
ATOM     32  N   UNL A   1      44.326  27.276  34.096  1.00  0.00    -0.248 NA
ATOM     33  C   UNL A   1      43.472  27.359  31.998  1.00  0.00     0.031 C 
ATOM     34  C   UNL A   1      43.437  23.951  34.409  1.00  0.00     0.029 A 
ATOM     35  N   UNL A   1      45.128  22.919  33.408  1.00  0.00    -0.354 N 
ATOM     36  C   UNL A   1      43.463  28.369  33.938  1.00  0.00     0.074 A 
ATOM     37  C   UNL A   1      43.362  28.564  32.535  1.00  0.00     0.031 C 
ATOM     38  C   UNL A   1      43.697  22.835  35.117  1.00  0.00     0.029 A 
ATOM     39  C   UNL A   1      44.975  22.315  34.659  1.00  0.00     0.049 A 
ATOM     40  H   UNL A   1      45.629  22.537  32.652  1.00  0.00     0.167 HD
ATOM     41  C   UNL A   1      42.459  28.639  34.829  1.00  0.00     0.037 A 
ATOM     42  C   UNL A   1      46.065  22.154  35.470  1.00  0.00     0.037 A 
ATOM     43  C   UNL A   1      42.472  27.610  35.854  1.00  0.00     0.049 A 
ATOM     44  C   UNL A   1      46.053  23.143  36.629  1.00  0.00     0.074 A 
ATOM     45  C   UNL A   1      41.693  26.498  36.120  1.00  0.00     0.029 A 
ATOM     46  N   UNL A   1      43.644  27.439  36.556  1.00  0.00    -0.354 N 
ATOM     47  N   UNL A   1      45.355  24.250  36.641  1.00  0.00    -0.248 NA
ATOM     48  C   UNL A   1      46.723  22.911  37.905  1.00  0.00     0.031 C 
ATOM     49  C   UNL A   1      42.420  25.672  37.028  1.00  0.00     0.029 A 
ATOM     50  C   UNL A   1      43.630  26.288  37.299  1.00  0.00     0.049 A 
ATOM     51  H   UNL A   1      44.401  28.069  36.530  1.00  0.00     0.167 HD
ATOM     52  C   UNL A   1      45.434  24.854  37.874  1.00  0.00     0.074 A 
ATOM     53  C   UNL A   1      46.292  23.961  38.628  1.00  0.00     0.031 C 
ATOM     54  C   UNL A   1      44.768  26.018  38.165  1.00  0.00     0.037 A 
BRANCH  41  55
ATOM     55  C   UNL A   1      41.296  29.609  34.607  1.00  0.00     0.058 A 
ATOM     56  C   UNL A   1      40.180  29.224  33.831  1.00  0.00     0.135 A 
ATOM     57  C   UNL A   1      41.175  30.901  35.178  1.00  0.00     0.135 A 
ATOM     58  F   UNL A   1      40.105  28.008  33.272  1.00  0.00    -0.206 F 
ATOM     59  C   UNL A   1      39.072  30.050  33.609  1.00  0.00     0.059 A 
ATOM     60  C   UNL A   1      40.102  31.768  34.923  1.00  0.00     0.059 A 
ATOM     61  F   UNL A   1      42.054  31.365  36.074  1.00  0.00    -0.206 F 
ATOM     62  C   UNL A   1      39.042  31.326  34.151  1.00  0.00     0.060 A 
BRANCH  62  63
ATOM     63  S   UNL A   1      37.577  32.347  33.898  1.00  0.00     0.124 S 
ATOM     64  O   UNL A   1      36.826  31.568  32.918  1.00  0.00    -0.237 OA
ATOM     65  O   UNL A   1      37.008  32.398  35.240  1.00  0.00    -0.237 OA
ATOM     66  O   UNL A   1      38.121  33.608  33.401  1.00  0.00    -0.744 OA
ENDBRANCH  62  63
ENDBRANCH  41  55
BRANCH  42  67
ATOM     67  C   UNL A   1      47.231  21.618  34.700  1.00  0.00     0.058 A 
ATOM     68  C   UNL A   1      48.343  22.485  34.579  1.00  0.00     0.135 A 
ATOM     69  C   UNL A   1      47.488  20.245  34.595  1.00  0.00     0.135 A 
ATOM     70  F   UNL A   1      48.155  23.815  34.612  1.00  0.00    -0.206 F 
ATOM     71  C   UNL A   1      49.654  22.015  34.584  1.00  0.00     0.059 A 
ATOM     72  C   UNL A   1      48.802  19.753  34.550  1.00  0.00     0.059 A 
ATOM     73  F   UNL A   1      46.482  19.362  34.688  1.00  0.00    -0.206 F 
ATOM     74  C   UNL A   1      49.877  20.644  34.630  1.00  0.00     0.060 A 
BRANCH  74  75
ATOM     75  S   UNL A   1      51.579  20.058  34.856  1.00  0.00     0.124 S 
ATOM     76  O   UNL A   1      51.369  18.707  35.367  1.00  0.00    -0.237 OA
ATOM     77  O   UNL A   1      52.140  20.128  33.512  1.00  0.00    -0.237 OA
ATOM     78  O   UNL A   1      52.136  21.004  35.820  1.00  0.00    -0.744 OA
ENDBRANCH  74  75
ENDBRANCH  42  67
BRANCH  54  79
ATOM     79  C   UNL A   1      45.062  27.036  39.277  1.00  0.00     0.058 A 
ATOM     80  C   UNL A   1      44.754  26.855  40.632  1.00  0.00     0.135 A 
ATOM     81  C   UNL A   1      45.798  28.237  39.015  1.00  0.00     0.135 A 
ATOM     82  F   UNL A   1      44.178  25.744  41.092  1.00  0.00    -0.206 F 
ATOM     83  C   UNL A   1      45.062  27.801  41.613  1.00  0.00     0.059 A 
ATOM     84  C   UNL A   1      46.196  29.144  39.991  1.00  0.00     0.059 A 
ATOM     85  F   UNL A   1      46.192  28.606  37.791  1.00  0.00    -0.206 F 
ATOM     86  C   UNL A   1      45.785  28.939  41.286  1.00  0.00     0.060 A 
BRANCH  86  87
ATOM     87  S   UNL A   1      46.166  30.134  42.566  1.00  0.00     0.124 S 
ATOM     88  O   UNL A   1      44.831  30.477  43.048  1.00  0.00    -0.237 OA
ATOM     89  O   UNL A   1      46.989  29.349  43.481  1.00  0.00    -0.237 OA
ATOM     90  O   UNL A   1      46.868  31.196  41.852  1.00  0.00    -0.744 OA
ENDBRANCH  86  87
ENDBRANCH  54  79
ENDBRANCH  28  29
ENDBRANCH  21  23
ENDBRANCH  20  21
ENDBRANCH   1  20
TORSDOF 18
ENDMDL
