MODEL 1
REMARK VINA RESULT:     -11.1      0.000      0.000
REMARK SMILES O=C(OCCOC(=O)c1cc(S(=O)(=O)Cc2cccc(O)c2)ccc1F)c1ccc(-c2c3nc(c(-c4c(F)cc(S(=O)(=O)[O-])cc4F)c4ccc([nH]4)c(-c4c(F)cc(S(=O)(=O)[O-])cc4F)c4nc(c(-c5c(F)cc(S(=O)(=O)[O-])cc5F)c5ccc2[nH]5)C=C4)C=C3)cc1
REMARK SMILES IDX 5 1 4 2 3 3 2 4 1 5 27 6 28 7 92 8 29 9 91 10 30 11 31 12
REMARK SMILES IDX 32 13 85 14 33 15 90 16 84 17 86 18 34 19 89 20 83 21 82 22
REMARK SMILES IDX 35 24 69 25 48 26 68 27 49 28 52 29 67 30 87 31 50 32 51 33
REMARK SMILES IDX 66 35 88 36 53 37 36 38 37 39 46 40 38 41 39 42 45 43 47 44
REMARK SMILES IDX 40 45 41 46 42 47 43 48 44 49 70 50 71 51 80 52 72 53 73 54
REMARK SMILES IDX 79 55 81 56 74 57 75 58 76 59 77 60 78 61 54 62 55 63 64 64
REMARK SMILES IDX 56 65 57 66 63 67 65 68 58 69 59 70 60 71 61 72 62 73 6 74
REMARK SMILES IDX 7 75 8 76 9 77 10 78 25 79 11 80 24 81 26 82 23 83 12 84
REMARK SMILES IDX 13 85 14 86 15 87 16 88 17 89 22 90 18 91 20 92 19 93 21 94
REMARK H PARENT 86 23 52 34 21 95
REMARK Flexibility Score: inf
ROOT
ATOM      1  C   UNL A   1      33.652  28.334  25.783  1.00  0.00     0.275 C 
ENDROOT
BRANCH   1   2
ATOM      2  C   UNL A   1      33.296  29.770  26.158  1.00  0.00     0.275 C 
BRANCH   2   3
ATOM      3  O   UNL A   1      33.498  30.099  27.542  1.00  0.00    -0.458 OA
BRANCH   3   4
ATOM      4  C   UNL A   1      34.507  30.779  28.136  1.00  0.00     0.338 C 
ATOM      5  O   UNL A   1      34.361  31.978  28.364  1.00  0.00    -0.246 OA
BRANCH   4   6
ATOM      6  C   UNL A   1      35.843  30.177  28.420  1.00  0.00     0.060 A 
ATOM      7  C   UNL A   1      36.260  29.650  29.645  1.00  0.00     0.016 A 
ATOM      8  C   UNL A   1      36.773  30.213  27.370  1.00  0.00     0.016 A 
ATOM      9  C   UNL A   1      37.543  29.108  29.798  1.00  0.00     0.010 A 
ATOM     10  C   UNL A   1      38.053  29.670  27.517  1.00  0.00     0.010 A 
ATOM     11  C   UNL A   1      38.453  29.123  28.738  1.00  0.00    -0.014 A 
BRANCH  11  12
ATOM     12  C   UNL A   1      39.866  28.740  28.963  1.00  0.00     0.031 A 
ATOM     13  C   UNL A   1      40.782  29.740  29.610  1.00  0.00     0.074 A 
ATOM     14  C   UNL A   1      40.316  27.516  28.632  1.00  0.00     0.049 A 
ATOM     15  N   UNL A   1      42.031  29.605  29.972  1.00  0.00    -0.248 NA
ATOM     16  C   UNL A   1      40.213  31.069  29.893  1.00  0.00     0.031 C 
ATOM     17  C   UNL A   1      39.510  26.458  28.028  1.00  0.00     0.029 A 
ATOM     18  N   UNL A   1      41.560  26.951  28.761  1.00  0.00    -0.354 N 
ATOM     19  C   UNL A   1      42.379  30.812  30.564  1.00  0.00     0.074 A 
ATOM     20  C   UNL A   1      41.245  31.698  30.431  1.00  0.00     0.031 C 
ATOM     21  C   UNL A   1      40.284  25.382  27.808  1.00  0.00     0.029 A 
ATOM     22  C   UNL A   1      41.636  25.665  28.279  1.00  0.00     0.049 A 
ATOM     23  H   UNL A   1      42.327  27.423  29.160  1.00  0.00     0.167 HD
ATOM     24  C   UNL A   1      43.527  31.139  31.200  1.00  0.00     0.037 A 
ATOM     25  C   UNL A   1      42.673  24.805  28.249  1.00  0.00     0.037 A 
ATOM     26  C   UNL A   1      44.657  30.260  31.308  1.00  0.00     0.049 A 
ATOM     27  C   UNL A   1      43.966  25.208  28.903  1.00  0.00     0.074 A 
ATOM     28  C   UNL A   1      45.884  30.496  31.899  1.00  0.00     0.029 A 
ATOM     29  N   UNL A   1      44.692  28.965  30.809  1.00  0.00    -0.354 N 
ATOM     30  N   UNL A   1      44.277  26.350  29.472  1.00  0.00    -0.248 NA
ATOM     31  C   UNL A   1      45.037  24.203  28.946  1.00  0.00     0.031 C 
ATOM     32  C   UNL A   1      46.674  29.354  31.728  1.00  0.00     0.029 A 
ATOM     33  C   UNL A   1      45.924  28.393  31.065  1.00  0.00     0.049 A 
ATOM     34  H   UNL A   1      43.949  28.520  30.342  1.00  0.00     0.167 HD
ATOM     35  C   UNL A   1      45.553  26.179  29.997  1.00  0.00     0.074 A 
ATOM     36  C   UNL A   1      45.969  24.833  29.651  1.00  0.00     0.031 C 
ATOM     37  C   UNL A   1      46.306  27.048  30.714  1.00  0.00     0.037 A 
BRANCH  24  38
ATOM     38  C   UNL A   1      43.590  32.504  31.824  1.00  0.00     0.058 A 
ATOM     39  C   UNL A   1      44.019  33.615  31.086  1.00  0.00     0.135 A 
ATOM     40  C   UNL A   1      43.183  32.714  33.153  1.00  0.00     0.135 A 
ATOM     41  F   UNL A   1      44.405  33.471  29.808  1.00  0.00    -0.206 F 
ATOM     42  C   UNL A   1      44.034  34.891  31.640  1.00  0.00     0.059 A 
ATOM     43  C   UNL A   1      43.167  33.985  33.720  1.00  0.00     0.059 A 
ATOM     44  F   UNL A   1      42.735  31.687  33.893  1.00  0.00    -0.206 F 
ATOM     45  C   UNL A   1      43.600  35.068  32.955  1.00  0.00     0.060 A 
BRANCH  45  46
ATOM     46  S   UNL A   1      43.534  36.741  33.629  1.00  0.00     0.124 S 
ATOM     47  O   UNL A   1      43.622  37.553  32.419  1.00  0.00    -0.237 OA
ATOM     48  O   UNL A   1      42.243  36.749  34.309  1.00  0.00    -0.237 OA
ATOM     49  O   UNL A   1      44.697  36.794  34.511  1.00  0.00    -0.744 OA
ENDBRANCH  45  46
ENDBRANCH  24  38
BRANCH  25  50
ATOM     50  C   UNL A   1      42.498  23.456  27.646  1.00  0.00     0.058 A 
ATOM     51  C   UNL A   1      42.191  22.342  28.441  1.00  0.00     0.135 A 
ATOM     52  C   UNL A   1      42.670  23.248  26.268  1.00  0.00     0.135 A 
ATOM     53  F   UNL A   1      42.027  22.487  29.765  1.00  0.00    -0.206 F 
ATOM     54  C   UNL A   1      42.075  21.068  27.897  1.00  0.00     0.059 A 
ATOM     55  C   UNL A   1      42.543  21.984  25.698  1.00  0.00     0.059 A 
ATOM     56  F   UNL A   1      42.956  24.285  25.467  1.00  0.00    -0.206 F 
ATOM     57  C   UNL A   1      42.258  20.898  26.524  1.00  0.00     0.060 A 
BRANCH  57  58
ATOM     58  S   UNL A   1      42.129  19.229  25.841  1.00  0.00     0.124 S 
ATOM     59  O   UNL A   1      42.660  18.426  26.938  1.00  0.00    -0.237 OA
ATOM     60  O   UNL A   1      40.695  19.110  25.600  1.00  0.00    -0.237 OA
ATOM     61  O   UNL A   1      42.963  19.289  24.645  1.00  0.00    -0.744 OA
ENDBRANCH  57  58
ENDBRANCH  25  50
BRANCH  37  62
ATOM     62  C   UNL A   1      47.643  26.572  31.203  1.00  0.00     0.058 A 
ATOM     63  C   UNL A   1      48.764  26.629  30.360  1.00  0.00     0.135 A 
ATOM     64  C   UNL A   1      47.792  25.976  32.463  1.00  0.00     0.135 A 
ATOM     65  F   UNL A   1      48.668  27.187  29.142  1.00  0.00    -0.206 F 
ATOM     66  C   UNL A   1      49.985  26.091  30.743  1.00  0.00     0.059 A 
ATOM     67  C   UNL A   1      49.012  25.451  32.877  1.00  0.00     0.059 A 
ATOM     68  F   UNL A   1      46.749  25.909  33.306  1.00  0.00    -0.206 F 
ATOM     69  C   UNL A   1      50.098  25.496  32.001  1.00  0.00     0.060 A 
BRANCH  69  70
ATOM     70  S   UNL A   1      51.691  24.799  32.486  1.00  0.00     0.124 S 
ATOM     71  O   UNL A   1      51.759  25.168  33.895  1.00  0.00    -0.237 OA
ATOM     72  O   UNL A   1      51.505  23.378  32.209  1.00  0.00    -0.237 OA
ATOM     73  O   UNL A   1      52.638  25.482  31.609  1.00  0.00    -0.744 OA
ENDBRANCH  69  70
ENDBRANCH  37  62
ENDBRANCH  11  12
ENDBRANCH   4   6
ENDBRANCH   3   4
ENDBRANCH   2   3
ENDBRANCH   1   2
BRANCH   1  74
ATOM     74  O   UNL A   1      33.283  27.374  26.783  1.00  0.00    -0.458 OA
BRANCH  74  75
ATOM     75  C   UNL A   1      31.965  27.059  26.833  1.00  0.00     0.341 C 
ATOM     76  O   UNL A   1      31.125  27.537  27.577  1.00  0.00    -0.246 OA
BRANCH  75  77
ATOM     77  C   UNL A   1      31.632  26.098  25.770  1.00  0.00     0.097 A 
ATOM     78  C   UNL A   1      32.185  24.813  25.810  1.00  0.00     0.039 A 
ATOM     79  C   UNL A   1      30.795  26.454  24.720  1.00  0.00     0.137 A 
ATOM     80  C   UNL A   1      31.834  23.865  24.831  1.00  0.00     0.068 A 
ATOM     81  C   UNL A   1      30.493  25.531  23.718  1.00  0.00     0.041 A 
ATOM     82  F   UNL A   1      30.275  27.686  24.640  1.00  0.00    -0.206 F 
ATOM     83  C   UNL A   1      30.999  24.228  23.777  1.00  0.00     0.023 A 
BRANCH  80  84
ATOM     84  S   UNL A   1      32.504  22.226  25.030  1.00  0.00     0.182 S 
ATOM     85  O   UNL A   1      31.358  21.415  25.406  1.00  0.00    -0.223 OA
ATOM     86  O   UNL A   1      33.210  21.927  23.797  1.00  0.00    -0.223 OA
BRANCH  84  87
ATOM     87  C   UNL A   1      33.641  22.149  26.391  1.00  0.00     0.177 C 
BRANCH  87  88
ATOM     88  C   UNL A   1      35.098  22.350  26.058  1.00  0.00    -0.029 A 
ATOM     89  C   UNL A   1      35.692  23.615  25.942  1.00  0.00     0.005 A 
ATOM     90  C   UNL A   1      35.869  21.229  25.704  1.00  0.00     0.051 A 
ATOM     91  C   UNL A   1      37.031  23.745  25.554  1.00  0.00     0.004 A 
ATOM     92  C   UNL A   1      37.199  21.369  25.314  1.00  0.00     0.115 A 
ATOM     93  C   UNL A   1      37.793  22.619  25.250  1.00  0.00     0.046 A 
BRANCH  92  94
ATOM     94  O   UNL A   1      37.880  20.237  24.982  1.00  0.00    -0.508 OA
ATOM     95  H   UNL A   1      38.648  20.292  24.447  1.00  0.00     0.293 HD
ENDBRANCH  92  94
ENDBRANCH  87  88
ENDBRANCH  84  87
ENDBRANCH  80  84
ENDBRANCH  75  77
ENDBRANCH  74  75
ENDBRANCH   1  74
TORSDOF 18
ENDMDL
MODEL 2
REMARK VINA RESULT:     -11.1      3.625     10.370
REMARK SMILES O=C(OCCOC(=O)c1cc(S(=O)(=O)Cc2cccc(O)c2)ccc1F)c1ccc(-c2c3nc(c(-c4c(F)cc(S(=O)(=O)[O-])cc4F)c4ccc([nH]4)c(-c4c(F)cc(S(=O)(=O)[O-])cc4F)c4nc(c(-c5c(F)cc(S(=O)(=O)[O-])cc5F)c5ccc2[nH]5)C=C4)C=C3)cc1
REMARK SMILES IDX 5 1 4 2 3 3 2 4 1 5 27 6 28 7 92 8 29 9 91 10 30 11 31 12
REMARK SMILES IDX 32 13 85 14 33 15 90 16 84 17 86 18 34 19 89 20 83 21 82 22
REMARK SMILES IDX 35 24 69 25 48 26 68 27 49 28 52 29 67 30 87 31 50 32 51 33
REMARK SMILES IDX 66 35 88 36 53 37 36 38 37 39 46 40 38 41 39 42 45 43 47 44
REMARK SMILES IDX 40 45 41 46 42 47 43 48 44 49 70 50 71 51 80 52 72 53 73 54
REMARK SMILES IDX 79 55 81 56 74 57 75 58 76 59 77 60 78 61 54 62 55 63 64 64
REMARK SMILES IDX 56 65 57 66 63 67 65 68 58 69 59 70 60 71 61 72 62 73 6 74
REMARK SMILES IDX 7 75 8 76 9 77 10 78 25 79 11 80 24 81 26 82 23 83 12 84
REMARK SMILES IDX 13 85 14 86 15 87 16 88 17 89 22 90 18 91 20 92 19 93 21 94
REMARK H PARENT 86 23 52 34 21 95
REMARK Flexibility Score: inf
ROOT
ATOM      1  C   UNL A   1      33.623  33.860  28.194  1.00  0.00     0.275 C 
ENDROOT
BRANCH   1   2
ATOM      2  C   UNL A   1      33.443  32.367  27.928  1.00  0.00     0.275 C 
BRANCH   2   3
ATOM      3  O   UNL A   1      34.377  31.517  28.613  1.00  0.00    -0.458 OA
BRANCH   3   4
ATOM      4  C   UNL A   1      34.850  30.295  28.275  1.00  0.00     0.338 C 
ATOM      5  O   UNL A   1      34.072  29.468  27.803  1.00  0.00    -0.246 OA
BRANCH   4   6
ATOM      6  C   UNL A   1      36.246  29.850  28.558  1.00  0.00     0.060 A 
ATOM      7  C   UNL A   1      36.731  29.408  29.791  1.00  0.00     0.016 A 
ATOM      8  C   UNL A   1      37.156  29.956  27.495  1.00  0.00     0.016 A 
ATOM      9  C   UNL A   1      38.066  29.012  29.942  1.00  0.00     0.010 A 
ATOM     10  C   UNL A   1      38.488  29.560  27.640  1.00  0.00     0.010 A 
ATOM     11  C   UNL A   1      38.958  29.094  28.870  1.00  0.00    -0.014 A 
BRANCH  11  12
ATOM     12  C   UNL A   1      40.407  28.874  29.087  1.00  0.00     0.031 A 
ATOM     13  C   UNL A   1      40.977  27.519  28.777  1.00  0.00     0.074 A 
ATOM     14  C   UNL A   1      41.205  29.869  29.515  1.00  0.00     0.049 A 
ATOM     15  N   UNL A   1      42.220  27.115  28.817  1.00  0.00    -0.248 NA
ATOM     16  C   UNL A   1      40.019  26.480  28.360  1.00  0.00     0.031 C 
ATOM     17  C   UNL A   1      40.766  31.229  29.816  1.00  0.00     0.029 A 
ATOM     18  N   UNL A   1      42.554  29.893  29.766  1.00  0.00    -0.354 N 
ATOM     19  C   UNL A   1      42.196  25.795  28.388  1.00  0.00     0.074 A 
ATOM     20  C   UNL A   1      40.812  25.436  28.181  1.00  0.00     0.031 C 
ATOM     21  C   UNL A   1      41.817  31.950  30.244  1.00  0.00     0.029 A 
ATOM     22  C   UNL A   1      43.010  31.109  30.221  1.00  0.00     0.049 A 
ATOM     23  H   UNL A   1      43.140  29.113  29.634  1.00  0.00     0.167 HD
ATOM     24  C   UNL A   1      43.238  24.967  28.146  1.00  0.00     0.037 A 
ATOM     25  C   UNL A   1      44.254  31.505  30.552  1.00  0.00     0.037 A 
ATOM     26  C   UNL A   1      44.610  25.325  28.376  1.00  0.00     0.049 A 
ATOM     27  C   UNL A   1      45.398  30.551  30.340  1.00  0.00     0.074 A 
ATOM     28  C   UNL A   1      45.745  24.558  28.200  1.00  0.00     0.029 A 
ATOM     29  N   UNL A   1      45.029  26.567  28.833  1.00  0.00    -0.354 N 
ATOM     30  N   UNL A   1      45.361  29.307  29.920  1.00  0.00    -0.248 NA
ATOM     31  C   UNL A   1      46.751  31.056  30.610  1.00  0.00     0.031 C 
ATOM     32  C   UNL A   1      46.851  25.326  28.583  1.00  0.00     0.029 A 
ATOM     33  C   UNL A   1      46.405  26.584  28.960  1.00  0.00     0.049 A 
ATOM     34  H   UNL A   1      44.434  27.324  29.037  1.00  0.00     0.167 HD
ATOM     35  C   UNL A   1      46.687  28.903  29.813  1.00  0.00     0.074 A 
ATOM     36  C   UNL A   1      47.501  30.024  30.243  1.00  0.00     0.031 C 
ATOM     37  C   UNL A   1      47.187  27.718  29.383  1.00  0.00     0.037 A 
BRANCH  24  38
ATOM     38  C   UNL A   1      42.910  23.607  27.602  1.00  0.00     0.058 A 
ATOM     39  C   UNL A   1      42.976  23.345  26.227  1.00  0.00     0.135 A 
ATOM     40  C   UNL A   1      42.565  22.546  28.458  1.00  0.00     0.135 A 
ATOM     41  F   UNL A   1      43.314  24.320  25.367  1.00  0.00    -0.206 F 
ATOM     42  C   UNL A   1      42.722  22.075  25.718  1.00  0.00     0.059 A 
ATOM     43  C   UNL A   1      42.330  21.263  27.973  1.00  0.00     0.059 A 
ATOM     44  F   UNL A   1      42.518  22.738  29.786  1.00  0.00    -0.206 F 
ATOM     45  C   UNL A   1      42.406  21.039  26.599  1.00  0.00     0.060 A 
BRANCH  45  46
ATOM     46  S   UNL A   1      42.173  19.377  25.934  1.00  0.00     0.124 S 
ATOM     47  O   UNL A   1      42.673  18.547  27.025  1.00  0.00    -0.237 OA
ATOM     48  O   UNL A   1      40.732  19.334  25.709  1.00  0.00    -0.237 OA
ATOM     49  O   UNL A   1      42.987  19.383  24.721  1.00  0.00    -0.744 OA
ENDBRANCH  45  46
ENDBRANCH  24  38
BRANCH  25  50
ATOM     50  C   UNL A   1      44.484  32.891  31.043  1.00  0.00     0.058 A 
ATOM     51  C   UNL A   1      44.426  33.192  32.412  1.00  0.00     0.135 A 
ATOM     52  C   UNL A   1      44.729  33.946  30.151  1.00  0.00     0.135 A 
ATOM     53  F   UNL A   1      44.184  32.220  33.304  1.00  0.00    -0.206 F 
ATOM     54  C   UNL A   1      44.589  34.492  32.879  1.00  0.00     0.059 A 
ATOM     55  C   UNL A   1      44.911  35.253  30.596  1.00  0.00     0.059 A 
ATOM     56  F   UNL A   1      44.801  33.705  28.834  1.00  0.00    -0.206 F 
ATOM     57  C   UNL A   1      44.825  35.517  31.962  1.00  0.00     0.060 A 
BRANCH  57  58
ATOM     58  S   UNL A   1      45.007  37.203  32.589  1.00  0.00     0.124 S 
ATOM     59  O   UNL A   1      46.079  37.035  33.565  1.00  0.00    -0.237 OA
ATOM     60  O   UNL A   1      45.356  37.941  31.380  1.00  0.00    -0.237 OA
ATOM     61  O   UNL A   1      43.690  37.499  33.146  1.00  0.00    -0.744 OA
ENDBRANCH  57  58
ENDBRANCH  25  50
BRANCH  37  62
ATOM     62  C   UNL A   1      48.681  27.575  29.324  1.00  0.00     0.058 A 
ATOM     63  C   UNL A   1      49.395  28.071  28.221  1.00  0.00     0.135 A 
ATOM     64  C   UNL A   1      49.388  26.867  30.307  1.00  0.00     0.135 A 
ATOM     65  F   UNL A   1      48.759  28.751  27.254  1.00  0.00    -0.206 F 
ATOM     66  C   UNL A   1      50.759  27.851  28.085  1.00  0.00     0.059 A 
ATOM     67  C   UNL A   1      50.758  26.655  30.201  1.00  0.00     0.059 A 
ATOM     68  F   UNL A   1      48.747  26.383  31.382  1.00  0.00    -0.206 F 
ATOM     69  C   UNL A   1      51.432  27.135  29.077  1.00  0.00     0.060 A 
BRANCH  69  70
ATOM     70  S   UNL A   1      53.204  26.855  28.886  1.00  0.00     0.124 S 
ATOM     71  O   UNL A   1      53.232  25.807  27.872  1.00  0.00    -0.237 OA
ATOM     72  O   UNL A   1      53.682  28.166  28.459  1.00  0.00    -0.237 OA
ATOM     73  O   UNL A   1      53.626  26.448  30.224  1.00  0.00    -0.744 OA
ENDBRANCH  69  70
ENDBRANCH  37  62
ENDBRANCH  11  12
ENDBRANCH   4   6
ENDBRANCH   3   4
ENDBRANCH   2   3
ENDBRANCH   1   2
BRANCH   1  74
ATOM     74  O   UNL A   1      32.843  34.341  29.298  1.00  0.00    -0.458 OA
BRANCH  74  75
ATOM     75  C   UNL A   1      33.055  35.635  29.644  1.00  0.00     0.341 C 
ATOM     76  O   UNL A   1      32.780  36.624  28.984  1.00  0.00    -0.246 OA
BRANCH  75  77
ATOM     77  C   UNL A   1      33.593  35.714  31.011  1.00  0.00     0.097 A 
ATOM     78  C   UNL A   1      34.249  34.604  31.555  1.00  0.00     0.039 A 
ATOM     79  C   UNL A   1      33.441  36.865  31.774  1.00  0.00     0.137 A 
ATOM     80  C   UNL A   1      34.816  34.682  32.839  1.00  0.00     0.068 A 
ATOM     81  C   UNL A   1      33.953  36.922  33.070  1.00  0.00     0.041 A 
ATOM     82  F   UNL A   1      32.791  37.933  31.290  1.00  0.00    -0.206 F 
ATOM     83  C   UNL A   1      34.656  35.836  33.604  1.00  0.00     0.023 A 
BRANCH  80  84
ATOM     84  S   UNL A   1      35.725  33.255  33.399  1.00  0.00     0.182 S 
ATOM     85  O   UNL A   1      35.660  33.336  34.849  1.00  0.00    -0.223 OA
ATOM     86  O   UNL A   1      35.135  32.112  32.725  1.00  0.00    -0.223 OA
BRANCH  84  87
ATOM     87  C   UNL A   1      37.443  33.369  32.968  1.00  0.00     0.177 C 
BRANCH  87  88
ATOM     88  C   UNL A   1      37.753  33.616  31.513  1.00  0.00    -0.029 A 
ATOM     89  C   UNL A   1      37.067  32.988  30.464  1.00  0.00     0.005 A 
ATOM     90  C   UNL A   1      38.876  34.397  31.187  1.00  0.00     0.051 A 
ATOM     91  C   UNL A   1      37.448  33.195  29.132  1.00  0.00     0.004 A 
ATOM     92  C   UNL A   1      39.251  34.593  29.860  1.00  0.00     0.115 A 
ATOM     93  C   UNL A   1      38.536  34.009  28.826  1.00  0.00     0.046 A 
BRANCH  92  94
ATOM     94  O   UNL A   1      40.352  35.359  29.623  1.00  0.00    -0.508 OA
ATOM     95  H   UNL A   1      40.254  36.261  29.387  1.00  0.00     0.293 HD
ENDBRANCH  92  94
ENDBRANCH  87  88
ENDBRANCH  84  87
ENDBRANCH  80  84
ENDBRANCH  75  77
ENDBRANCH  74  75
ENDBRANCH   1  74
TORSDOF 18
ENDMDL
MODEL 3
REMARK VINA RESULT:     -11.0      3.437      6.196
REMARK SMILES O=C(OCCOC(=O)c1cc(S(=O)(=O)Cc2cccc(O)c2)ccc1F)c1ccc(-c2c3nc(c(-c4c(F)cc(S(=O)(=O)[O-])cc4F)c4ccc([nH]4)c(-c4c(F)cc(S(=O)(=O)[O-])cc4F)c4nc(c(-c5c(F)cc(S(=O)(=O)[O-])cc5F)c5ccc2[nH]5)C=C4)C=C3)cc1
REMARK SMILES IDX 5 1 4 2 3 3 2 4 1 5 27 6 28 7 92 8 29 9 91 10 30 11 31 12
REMARK SMILES IDX 32 13 85 14 33 15 90 16 84 17 86 18 34 19 89 20 83 21 82 22
REMARK SMILES IDX 35 24 69 25 48 26 68 27 49 28 52 29 67 30 87 31 50 32 51 33
REMARK SMILES IDX 66 35 88 36 53 37 36 38 37 39 46 40 38 41 39 42 45 43 47 44
REMARK SMILES IDX 40 45 41 46 42 47 43 48 44 49 70 50 71 51 80 52 72 53 73 54
REMARK SMILES IDX 79 55 81 56 74 57 75 58 76 59 77 60 78 61 54 62 55 63 64 64
REMARK SMILES IDX 56 65 57 66 63 67 65 68 58 69 59 70 60 71 61 72 62 73 6 74
REMARK SMILES IDX 7 75 8 76 9 77 10 78 25 79 11 80 24 81 26 82 23 83 12 84
REMARK SMILES IDX 13 85 14 86 15 87 16 88 17 89 22 90 18 91 20 92 19 93 21 94
REMARK H PARENT 86 23 52 34 21 95
REMARK Flexibility Score: inf
ROOT
ATOM      1  C   UNL A   1      33.332  34.425  28.340  1.00  0.00     0.275 C 
ENDROOT
BRANCH   1   2
ATOM      2  C   UNL A   1      33.316  32.974  27.866  1.00  0.00     0.275 C 
BRANCH   2   3
ATOM      3  O   UNL A   1      34.302  32.128  28.482  1.00  0.00    -0.458 OA
BRANCH   3   4
ATOM      4  C   UNL A   1      34.602  30.830  28.247  1.00  0.00     0.338 C 
ATOM      5  O   UNL A   1      33.700  30.063  27.917  1.00  0.00    -0.246 OA
BRANCH   4   6
ATOM      6  C   UNL A   1      35.955  30.246  28.486  1.00  0.00     0.060 A 
ATOM      7  C   UNL A   1      36.428  29.747  29.702  1.00  0.00     0.016 A 
ATOM      8  C   UNL A   1      36.840  30.272  27.398  1.00  0.00     0.016 A 
ATOM      9  C   UNL A   1      37.721  29.219  29.812  1.00  0.00     0.010 A 
ATOM     10  C   UNL A   1      38.130  29.743  27.502  1.00  0.00     0.010 A 
ATOM     11  C   UNL A   1      38.586  29.222  28.715  1.00  0.00    -0.014 A 
BRANCH  11  12
ATOM     12  C   UNL A   1      40.012  28.857  28.888  1.00  0.00     0.031 A 
ATOM     13  C   UNL A   1      40.944  29.880  29.471  1.00  0.00     0.074 A 
ATOM     14  C   UNL A   1      40.458  27.629  28.567  1.00  0.00     0.049 A 
ATOM     15  N   UNL A   1      42.209  29.764  29.783  1.00  0.00    -0.248 NA
ATOM     16  C   UNL A   1      40.375  31.211  29.747  1.00  0.00     0.031 C 
ATOM     17  C   UNL A   1      39.637  26.550  28.024  1.00  0.00     0.029 A 
ATOM     18  N   UNL A   1      41.712  27.079  28.656  1.00  0.00    -0.354 N 
ATOM     19  C   UNL A   1      42.571  30.988  30.330  1.00  0.00     0.074 A 
ATOM     20  C   UNL A   1      41.424  31.861  30.226  1.00  0.00     0.031 C 
ATOM     21  C   UNL A   1      40.412  25.476  27.795  1.00  0.00     0.029 A 
ATOM     22  C   UNL A   1      41.780  25.782  28.202  1.00  0.00     0.049 A 
ATOM     23  H   UNL A   1      42.490  27.566  29.011  1.00  0.00     0.167 HD
ATOM     24  C   UNL A   1      43.741  31.341  30.909  1.00  0.00     0.037 A 
ATOM     25  C   UNL A   1      42.822  24.930  28.147  1.00  0.00     0.037 A 
ATOM     26  C   UNL A   1      44.883  30.474  30.988  1.00  0.00     0.049 A 
ATOM     27  C   UNL A   1      44.138  25.359  28.736  1.00  0.00     0.074 A 
ATOM     28  C   UNL A   1      46.132  30.734  31.520  1.00  0.00     0.029 A 
ATOM     29  N   UNL A   1      44.909  29.168  30.520  1.00  0.00    -0.354 N 
ATOM     30  N   UNL A   1      44.462  26.518  29.264  1.00  0.00    -0.248 NA
ATOM     31  C   UNL A   1      45.220  24.365  28.756  1.00  0.00     0.031 C 
ATOM     32  C   UNL A   1      46.925  29.595  31.343  1.00  0.00     0.029 A 
ATOM     33  C   UNL A   1      46.157  28.613  30.736  1.00  0.00     0.049 A 
ATOM     34  H   UNL A   1      44.151  28.705  30.096  1.00  0.00     0.167 HD
ATOM     35  C   UNL A   1      45.761  26.370  29.737  1.00  0.00     0.074 A 
ATOM     36  C   UNL A   1      46.174  25.020  29.405  1.00  0.00     0.031 C 
ATOM     37  C   UNL A   1      46.535  27.263  30.401  1.00  0.00     0.037 A 
BRANCH  24  38
ATOM     38  C   UNL A   1      43.818  32.720  31.497  1.00  0.00     0.058 A 
ATOM     39  C   UNL A   1      43.581  32.937  32.861  1.00  0.00     0.135 A 
ATOM     40  C   UNL A   1      44.166  33.829  30.705  1.00  0.00     0.135 A 
ATOM     41  F   UNL A   1      43.259  31.910  33.664  1.00  0.00    -0.206 F 
ATOM     42  C   UNL A   1      43.697  34.204  33.424  1.00  0.00     0.059 A 
ATOM     43  C   UNL A   1      44.311  35.100  31.252  1.00  0.00     0.059 A 
ATOM     44  F   UNL A   1      44.432  33.668  29.399  1.00  0.00    -0.206 F 
ATOM     45  C   UNL A   1      44.070  35.278  32.614  1.00  0.00     0.060 A 
BRANCH  45  46
ATOM     46  S   UNL A   1      44.310  36.897  33.376  1.00  0.00     0.124 S 
ATOM     47  O   UNL A   1      44.251  36.568  34.796  1.00  0.00    -0.237 OA
ATOM     48  O   UNL A   1      45.620  37.287  32.865  1.00  0.00    -0.237 OA
ATOM     49  O   UNL A   1      43.189  37.679  32.862  1.00  0.00    -0.744 OA
ENDBRANCH  45  46
ENDBRANCH  24  38
BRANCH  25  50
ATOM     50  C   UNL A   1      42.635  23.566  27.584  1.00  0.00     0.058 A 
ATOM     51  C   UNL A   1      42.381  22.467  28.419  1.00  0.00     0.135 A 
ATOM     52  C   UNL A   1      42.741  23.328  26.205  1.00  0.00     0.135 A 
ATOM     53  F   UNL A   1      42.281  22.641  29.745  1.00  0.00    -0.206 F 
ATOM     54  C   UNL A   1      42.254  21.179  27.909  1.00  0.00     0.059 A 
ATOM     55  C   UNL A   1      42.601  22.050  25.669  1.00  0.00     0.059 A 
ATOM     56  F   UNL A   1      42.974  24.349  25.367  1.00  0.00    -0.206 F 
ATOM     57  C   UNL A   1      42.372  20.980  26.533  1.00  0.00     0.060 A 
BRANCH  57  58
ATOM     58  S   UNL A   1      42.230  19.295  25.896  1.00  0.00     0.124 S 
ATOM     59  O   UNL A   1      43.089  19.357  24.718  1.00  0.00    -0.237 OA
ATOM     60  O   UNL A   1      42.736  18.504  27.012  1.00  0.00    -0.237 OA
ATOM     61  O   UNL A   1      40.802  19.156  25.626  1.00  0.00    -0.744 OA
ENDBRANCH  57  58
ENDBRANCH  25  50
BRANCH  37  62
ATOM     62  C   UNL A   1      47.897  26.809  30.842  1.00  0.00     0.058 A 
ATOM     63  C   UNL A   1      48.059  26.157  32.075  1.00  0.00     0.135 A 
ATOM     64  C   UNL A   1      49.045  27.103  30.093  1.00  0.00     0.135 A 
ATOM     65  F   UNL A   1      46.989  25.859  32.829  1.00  0.00    -0.206 F 
ATOM     66  C   UNL A   1      49.318  25.830  32.560  1.00  0.00     0.059 A 
ATOM     67  C   UNL A   1      50.315  26.765  30.549  1.00  0.00     0.059 A 
ATOM     68  F   UNL A   1      48.936  27.717  28.904  1.00  0.00    -0.206 F 
ATOM     69  C   UNL A   1      50.442  26.146  31.794  1.00  0.00     0.060 A 
BRANCH  69  70
ATOM     70  S   UNL A   1      52.073  25.716  32.437  1.00  0.00     0.124 S 
ATOM     71  O   UNL A   1      51.796  24.466  33.135  1.00  0.00    -0.237 OA
ATOM     72  O   UNL A   1      52.867  25.601  31.217  1.00  0.00    -0.237 OA
ATOM     73  O   UNL A   1      52.408  26.854  33.289  1.00  0.00    -0.744 OA
ENDBRANCH  69  70
ENDBRANCH  37  62
ENDBRANCH  11  12
ENDBRANCH   4   6
ENDBRANCH   3   4
ENDBRANCH   2   3
ENDBRANCH   1   2
BRANCH   1  74
ATOM     74  O   UNL A   1      32.759  34.606  29.643  1.00  0.00    -0.458 OA
BRANCH  74  75
ATOM     75  C   UNL A   1      33.046  35.785  30.249  1.00  0.00     0.341 C 
ATOM     76  O   UNL A   1      32.643  36.890  29.926  1.00  0.00    -0.246 OA
BRANCH  75  77
ATOM     77  C   UNL A   1      33.856  35.554  31.454  1.00  0.00     0.097 A 
ATOM     78  C   UNL A   1      35.053  34.836  31.348  1.00  0.00     0.039 A 
ATOM     79  C   UNL A   1      33.441  36.019  32.696  1.00  0.00     0.137 A 
ATOM     80  C   UNL A   1      35.867  34.653  32.481  1.00  0.00     0.068 A 
ATOM     81  C   UNL A   1      34.221  35.787  33.829  1.00  0.00     0.041 A 
ATOM     82  F   UNL A   1      32.286  36.684  32.832  1.00  0.00    -0.206 F 
ATOM     83  C   UNL A   1      35.444  35.117  33.725  1.00  0.00     0.023 A 
BRANCH  80  84
ATOM     84  S   UNL A   1      37.421  33.823  32.222  1.00  0.00     0.182 S 
ATOM     85  O   UNL A   1      37.095  32.720  31.332  1.00  0.00    -0.223 OA
ATOM     86  O   UNL A   1      38.354  34.843  31.775  1.00  0.00    -0.223 OA
BRANCH  84  87
ATOM     87  C   UNL A   1      38.026  33.093  33.723  1.00  0.00     0.177 C 
BRANCH  87  88
ATOM     88  C   UNL A   1      38.614  31.709  33.605  1.00  0.00    -0.029 A 
ATOM     89  C   UNL A   1      39.985  31.468  33.440  1.00  0.00     0.005 A 
ATOM     90  C   UNL A   1      37.740  30.612  33.508  1.00  0.00     0.051 A 
ATOM     91  C   UNL A   1      40.467  30.166  33.258  1.00  0.00     0.004 A 
ATOM     92  C   UNL A   1      38.228  29.321  33.322  1.00  0.00     0.115 A 
ATOM     93  C   UNL A   1      39.589  29.086  33.210  1.00  0.00     0.046 A 
BRANCH  92  94
ATOM     94  O   UNL A   1      37.319  28.310  33.234  1.00  0.00    -0.508 OA
ATOM     95  H   UNL A   1      37.590  27.423  33.370  1.00  0.00     0.293 HD
ENDBRANCH  92  94
ENDBRANCH  87  88
ENDBRANCH  84  87
ENDBRANCH  80  84
ENDBRANCH  75  77
ENDBRANCH  74  75
ENDBRANCH   1  74
TORSDOF 18
ENDMDL
