MODEL 1
REMARK VINA RESULT:     -13.6      0.000      0.000
REMARK SMILES Cc1ccc(C)c(-c2cc(C(=O)OCCOC(=O)c3ccc(-c4c5nc(c(-c6c(F)cc(S(=O)(=O)[O-])cc6F)c6ccc([nH]6)c(-c6c(F)cc(S(=O)(=O)[O-])cc6F)c6nc(c(-c7c(F)cc(S(=O)(=O)[O-])cc7F)c7ccc4[nH]7)C=C6)C=C5)cc3)c3cc(C)ccc3n2)c1
REMARK SMILES IDX 15 1 14 2 13 3 11 4 12 5 10 6 8 7 9 8 92 9 91 10 85 11 90 12
REMARK SMILES IDX 86 13 89 14 87 15 88 16 7 17 1 18 2 19 3 20 93 21 4 22 5 23
REMARK SMILES IDX 6 24 16 25 17 26 18 27 19 28 20 29 84 30 21 31 83 32 22 33
REMARK SMILES IDX 23 34 24 35 77 36 25 37 82 38 76 39 78 40 26 41 81 42 75 43
REMARK SMILES IDX 74 44 27 46 61 47 40 48 60 49 41 50 44 51 59 52 79 53 42 54
REMARK SMILES IDX 43 55 58 57 80 58 45 59 28 60 29 61 38 62 30 63 31 64 37 65
REMARK SMILES IDX 39 66 32 67 33 68 34 69 35 70 36 71 62 72 63 73 72 74 64 75
REMARK SMILES IDX 65 76 71 77 73 78 66 79 67 80 68 81 69 82 70 83 46 84 47 85
REMARK SMILES IDX 56 86 48 87 49 88 55 89 57 90 50 91 51 92 52 93 53 94 54 95
REMARK H PARENT 78 45 44 56
REMARK Flexibility Score: inf
ROOT
ATOM      1  C   UNL A   1      40.527  22.184  27.607  1.00  0.00     0.275 C 
ENDROOT
BRANCH   1   2
ATOM      2  C   UNL A   1      39.376  22.982  26.998  1.00  0.00     0.275 C 
BRANCH   2   3
ATOM      3  O   UNL A   1      39.161  22.453  25.692  1.00  0.00    -0.458 OA
BRANCH   3   4
ATOM      4  C   UNL A   1      38.206  21.303  25.548  1.00  0.00     0.339 C 
ATOM      5  O   UNL A   1      39.047  20.370  25.421  1.00  0.00    -0.246 OA
BRANCH   4   6
ATOM      6  C   UNL A   1      36.040  21.406  25.601  1.00  0.00     0.071 A 
ATOM      7  C   UNL A   1      33.850  23.016  25.533  1.00  0.00     0.072 A 
ATOM      8  C   UNL A   1      35.153  22.653  25.980  1.00  0.00     0.045 A 
ATOM      9  N   UNL A   1      33.083  22.142  24.904  1.00  0.00    -0.248 NA
ATOM     10  C   UNL A   1      33.503  20.902  24.741  1.00  0.00     0.072 A 
ATOM     11  C   UNL A   1      34.847  20.390  24.994  1.00  0.00     0.015 A 
ATOM     12  C   UNL A   1      32.430  20.159  24.235  1.00  0.00     0.029 A 
ATOM     13  C   UNL A   1      34.788  18.970  24.555  1.00  0.00     0.014 A 
ATOM     14  C   UNL A   1      32.499  18.819  23.899  1.00  0.00     0.005 A 
ATOM     15  C   UNL A   1      33.708  18.203  24.053  1.00  0.00    -0.050 A 
ATOM     16  C   UNL A   1      33.940  16.769  23.682  1.00  0.00     0.044 C 
BRANCH   7  17
ATOM     17  C   UNL A   1      33.230  24.390  25.629  1.00  0.00     0.003 A 
ATOM     18  C   UNL A   1      33.896  27.999  24.337  1.00  0.00     0.044 C 
ATOM     19  C   UNL A   1      33.266  26.811  25.014  1.00  0.00    -0.050 A 
ATOM     20  C   UNL A   1      32.089  27.021  25.729  1.00  0.00     0.004 A 
ATOM     21  C   UNL A   1      33.823  25.506  24.969  1.00  0.00     0.014 A 
ATOM     22  C   UNL A   1      31.450  25.944  26.329  1.00  0.00     0.004 A 
ATOM     23  C   UNL A   1      31.984  24.635  26.259  1.00  0.00    -0.042 A 
ATOM     24  C   UNL A   1      31.138  23.555  26.875  1.00  0.00     0.045 C 
ENDBRANCH   7  17
ENDBRANCH   4   6
ENDBRANCH   3   4
ENDBRANCH   2   3
ENDBRANCH   1   2
BRANCH   1  25
ATOM     25  O   UNL A   1      41.855  22.782  27.463  1.00  0.00    -0.458 OA
BRANCH  25  26
ATOM     26  C   UNL A   1      42.466  22.957  26.252  1.00  0.00     0.338 C 
ATOM     27  O   UNL A   1      42.647  22.071  25.434  1.00  0.00    -0.246 OA
BRANCH  26  28
ATOM     28  C   UNL A   1      43.161  24.259  26.133  1.00  0.00     0.060 A 
ATOM     29  C   UNL A   1      44.296  24.680  27.491  1.00  0.00     0.016 A 
ATOM     30  C   UNL A   1      42.149  25.546  25.384  1.00  0.00     0.016 A 
ATOM     31  C   UNL A   1      44.349  26.415  28.149  1.00  0.00     0.010 A 
ATOM     32  C   UNL A   1      42.176  27.249  26.104  1.00  0.00     0.010 A 
ATOM     33  C   UNL A   1      43.194  27.660  27.533  1.00  0.00    -0.014 A 
BRANCH  33  34
ATOM     34  C   UNL A   1      42.437  28.739  28.381  1.00  0.00     0.031 A 
ATOM     35  C   UNL A   1      43.290  29.957  28.293  1.00  0.00     0.074 A 
ATOM     36  C   UNL A   1      41.158  28.914  28.905  1.00  0.00     0.049 A 
ATOM     37  N   UNL A   1      44.301  30.191  29.067  1.00  0.00    -0.248 NA
ATOM     38  C   UNL A   1      43.290  30.787  27.071  1.00  0.00     0.031 C 
ATOM     39  C   UNL A   1      39.976  28.031  28.960  1.00  0.00     0.029 A 
ATOM     40  N   UNL A   1      40.617  30.052  29.549  1.00  0.00    -0.354 N 
ATOM     41  C   UNL A   1      44.857  31.353  28.562  1.00  0.00     0.074 A 
ATOM     42  C   UNL A   1      44.474  31.396  27.184  1.00  0.00     0.031 C 
ATOM     43  C   UNL A   1      38.856  28.698  29.374  1.00  0.00     0.029 A 
ATOM     44  C   UNL A   1      39.196  30.059  29.763  1.00  0.00     0.049 A 
ATOM     45  H   UNL A   1      41.186  30.802  29.834  1.00  0.00     0.167 HD
ATOM     46  C   UNL A   1      45.220  32.377  29.382  1.00  0.00     0.037 A 
ATOM     47  C   UNL A   1      38.388  31.019  30.367  1.00  0.00     0.037 A 
ATOM     48  C   UNL A   1      45.175  31.955  30.763  1.00  0.00     0.049 A 
ATOM     49  C   UNL A   1      39.282  31.839  31.223  1.00  0.00     0.074 A 
ATOM     50  C   UNL A   1      45.770  30.936  31.483  1.00  0.00     0.029 A 
ATOM     51  N   UNL A   1      44.068  32.332  31.488  1.00  0.00    -0.354 N 
ATOM     52  N   UNL A   1      39.892  31.359  32.271  1.00  0.00    -0.248 NA
ATOM     53  C   UNL A   1      39.912  32.973  30.568  1.00  0.00     0.031 C 
ATOM     54  C   UNL A   1      44.741  30.430  32.331  1.00  0.00     0.029 A 
ATOM     55  C   UNL A   1      43.618  31.243  32.195  1.00  0.00     0.049 A 
ATOM     56  H   UNL A   1      43.666  33.230  31.499  1.00  0.00     0.167 HD
ATOM     57  C   UNL A   1      41.199  31.784  32.112  1.00  0.00     0.074 A 
ATOM     58  C   UNL A   1      41.148  32.775  31.031  1.00  0.00     0.031 C 
ATOM     59  C   UNL A   1      42.246  31.074  32.621  1.00  0.00     0.037 A 
BRANCH  46  60
ATOM     60  C   UNL A   1      45.213  33.835  28.982  1.00  0.00     0.058 A 
ATOM     61  C   UNL A   1      46.401  34.574  29.130  1.00  0.00     0.135 A 
ATOM     62  C   UNL A   1      44.059  34.594  28.672  1.00  0.00     0.135 A 
ATOM     63  F   UNL A   1      47.552  33.958  29.436  1.00  0.00    -0.206 F 
ATOM     64  C   UNL A   1      46.431  35.964  29.024  1.00  0.00     0.059 A 
ATOM     65  C   UNL A   1      44.079  35.973  28.505  1.00  0.00     0.059 A 
ATOM     66  F   UNL A   1      42.835  34.062  28.598  1.00  0.00    -0.206 F 
ATOM     67  C   UNL A   1      45.263  36.655  28.712  1.00  0.00     0.060 A 
BRANCH  67  68
ATOM     68  S   UNL A   1      45.299  38.450  28.610  1.00  0.00     0.124 S 
ATOM     69  O   UNL A   1      44.852  38.828  29.946  1.00  0.00    -0.237 OA
ATOM     70  O   UNL A   1      46.703  38.701  28.307  1.00  0.00    -0.237 OA
ATOM     71  O   UNL A   1      44.367  38.743  27.525  1.00  0.00    -0.744 OA
ENDBRANCH  67  68
ENDBRANCH  46  60
BRANCH  47  72
ATOM     72  C   UNL A   1      36.998  31.579  30.034  1.00  0.00     0.058 A 
ATOM     73  C   UNL A   1      36.119  32.212  30.967  1.00  0.00     0.135 A 
ATOM     74  C   UNL A   1      36.651  31.799  28.692  1.00  0.00     0.135 A 
ATOM     75  F   UNL A   1      36.350  32.115  32.287  1.00  0.00    -0.206 F 
ATOM     76  C   UNL A   1      35.009  33.016  30.584  1.00  0.00     0.059 A 
ATOM     77  C   UNL A   1      35.565  32.597  28.289  1.00  0.00     0.059 A 
ATOM     78  F   UNL A   1      37.427  31.310  27.715  1.00  0.00    -0.206 F 
ATOM     79  C   UNL A   1      34.751  33.219  29.231  1.00  0.00     0.060 A 
BRANCH  79  80
ATOM     80  S   UNL A   1      33.440  34.363  28.677  1.00  0.00     0.124 S 
ATOM     81  O   UNL A   1      32.759  34.688  29.926  1.00  0.00    -0.237 OA
ATOM     82  O   UNL A   1      34.196  35.449  28.065  1.00  0.00    -0.237 OA
ATOM     83  O   UNL A   1      32.660  33.552  27.742  1.00  0.00    -0.744 OA
ENDBRANCH  79  80
ENDBRANCH  47  72
BRANCH  59  84
ATOM     84  C   UNL A   1      41.960  29.927  33.565  1.00  0.00     0.058 A 
ATOM     85  C   UNL A   1      41.864  28.572  33.190  1.00  0.00     0.135 A 
ATOM     86  C   UNL A   1      41.975  30.200  34.940  1.00  0.00     0.135 A 
ATOM     87  F   UNL A   1      41.925  28.211  31.902  1.00  0.00    -0.206 F 
ATOM     88  C   UNL A   1      41.777  27.544  34.136  1.00  0.00     0.059 A 
ATOM     89  C   UNL A   1      41.915  29.193  35.899  1.00  0.00     0.059 A 
ATOM     90  F   UNL A   1      42.116  31.466  35.367  1.00  0.00    -0.206 F 
ATOM     91  C   UNL A   1      41.810  27.866  35.492  1.00  0.00     0.060 A 
BRANCH  91  92
ATOM     92  S   UNL A   1      41.783  26.542  36.723  1.00  0.00     0.124 S 
ATOM     93  O   UNL A   1      41.790  25.345  35.890  1.00  0.00    -0.237 OA
ATOM     94  O   UNL A   1      43.003  26.793  37.485  1.00  0.00    -0.237 OA
ATOM     95  O   UNL A   1      40.542  26.784  37.457  1.00  0.00    -0.744 OA
ENDBRANCH  91  92
ENDBRANCH  59  84
ENDBRANCH  33  34
ENDBRANCH  26  28
ENDBRANCH  25  26
ENDBRANCH   1  25
TORSDOF 15
ENDMDL
MODEL 2
REMARK VINA RESULT:     -13.4      3.750      7.940
REMARK SMILES Cc1ccc(C)c(-c2cc(C(=O)OCCOC(=O)c3ccc(-c4c5nc(c(-c6c(F)cc(S(=O)(=O)[O-])cc6F)c6ccc([nH]6)c(-c6c(F)cc(S(=O)(=O)[O-])cc6F)c6nc(c(-c7c(F)cc(S(=O)(=O)[O-])cc7F)c7ccc4[nH]7)C=C6)C=C5)cc3)c3cc(C)ccc3n2)c1
REMARK SMILES IDX 15 1 14 2 13 3 11 4 12 5 10 6 8 7 9 8 92 9 91 10 85 11 90 12
REMARK SMILES IDX 86 13 89 14 87 15 88 16 7 17 1 18 2 19 3 20 93 21 4 22 5 23
REMARK SMILES IDX 6 24 16 25 17 26 18 27 19 28 20 29 84 30 21 31 83 32 22 33
REMARK SMILES IDX 23 34 24 35 77 36 25 37 82 38 76 39 78 40 26 41 81 42 75 43
REMARK SMILES IDX 74 44 27 46 61 47 40 48 60 49 41 50 44 51 59 52 79 53 42 54
REMARK SMILES IDX 43 55 58 57 80 58 45 59 28 60 29 61 38 62 30 63 31 64 37 65
REMARK SMILES IDX 39 66 32 67 33 68 34 69 35 70 36 71 62 72 63 73 72 74 64 75
REMARK SMILES IDX 65 76 71 77 73 78 66 79 67 80 68 81 69 82 70 83 46 84 47 85
REMARK SMILES IDX 56 86 48 87 49 88 55 89 57 90 50 91 51 92 52 93 53 94 54 95
REMARK H PARENT 78 45 44 56
REMARK Flexibility Score: inf
ROOT
ATOM      1  C   UNL A   1      40.474  24.819  27.023  1.00  0.00     0.275 C 
ENDROOT
BRANCH   1   2
ATOM      2  C   UNL A   1      39.089  24.420  26.518  1.00  0.00     0.275 C 
BRANCH   2   3
ATOM      3  O   UNL A   1      38.925  23.039  26.828  1.00  0.00    -0.458 OA
BRANCH   3   4
ATOM      4  C   UNL A   1      38.050  22.215  25.929  1.00  0.00     0.339 C 
ATOM      5  O   UNL A   1      38.942  21.492  25.403  1.00  0.00    -0.246 OA
BRANCH   4   6
ATOM      6  C   UNL A   1      35.893  22.348  25.746  1.00  0.00     0.071 A 
ATOM      7  C   UNL A   1      33.757  23.968  25.288  1.00  0.00     0.072 A 
ATOM      8  C   UNL A   1      34.999  23.638  25.902  1.00  0.00     0.045 A 
ATOM      9  N   UNL A   1      33.039  23.042  24.675  1.00  0.00    -0.248 NA
ATOM     10  C   UNL A   1      33.445  21.787  24.685  1.00  0.00     0.072 A 
ATOM     11  C   UNL A   1      34.745  21.288  25.127  1.00  0.00     0.015 A 
ATOM     12  C   UNL A   1      32.412  21.008  24.150  1.00  0.00     0.029 A 
ATOM     13  C   UNL A   1      34.699  19.831  24.832  1.00  0.00     0.014 A 
ATOM     14  C   UNL A   1      32.485  19.639  23.962  1.00  0.00     0.005 A 
ATOM     15  C   UNL A   1      33.658  19.029  24.302  1.00  0.00    -0.050 A 
ATOM     16  C   UNL A   1      33.895  17.561  24.106  1.00  0.00     0.044 C 
BRANCH   7  17
ATOM     17  C   UNL A   1      33.162  25.352  25.178  1.00  0.00     0.003 A 
ATOM     18  C   UNL A   1      31.703  28.105  27.508  1.00  0.00     0.044 C 
ATOM     19  C   UNL A   1      32.183  27.363  26.289  1.00  0.00    -0.050 A 
ATOM     20  C   UNL A   1      32.061  27.999  25.055  1.00  0.00     0.004 A 
ATOM     21  C   UNL A   1      32.728  26.054  26.340  1.00  0.00     0.014 A 
ATOM     22  C   UNL A   1      32.533  27.369  23.910  1.00  0.00     0.004 A 
ATOM     23  C   UNL A   1      33.109  26.077  23.961  1.00  0.00    -0.042 A 
ATOM     24  C   UNL A   1      33.660  25.560  22.661  1.00  0.00     0.045 C 
ENDBRANCH   7  17
ENDBRANCH   4   6
ENDBRANCH   3   4
ENDBRANCH   2   3
ENDBRANCH   1   2
BRANCH   1  25
ATOM     25  O   UNL A   1      40.827  26.228  26.848  1.00  0.00    -0.458 OA
BRANCH  25  26
ATOM     26  C   UNL A   1      40.329  27.225  27.640  1.00  0.00     0.338 C 
ATOM     27  O   UNL A   1      40.003  28.330  27.240  1.00  0.00    -0.246 OA
BRANCH  26  28
ATOM     28  C   UNL A   1      40.491  26.955  29.088  1.00  0.00     0.060 A 
ATOM     29  C   UNL A   1      38.951  26.821  30.047  1.00  0.00     0.016 A 
ATOM     30  C   UNL A   1      41.926  27.765  29.812  1.00  0.00     0.016 A 
ATOM     31  C   UNL A   1      38.842  27.587  31.734  1.00  0.00     0.010 A 
ATOM     32  C   UNL A   1      41.766  28.575  31.468  1.00  0.00     0.010 A 
ATOM     33  C   UNL A   1      40.213  28.570  32.380  1.00  0.00    -0.014 A 
BRANCH  33  34
ATOM     34  C   UNL A   1      40.109  29.914  33.181  1.00  0.00     0.031 A 
ATOM     35  C   UNL A   1      38.943  30.621  32.583  1.00  0.00     0.074 A 
ATOM     36  C   UNL A   1      40.604  30.432  34.375  1.00  0.00     0.049 A 
ATOM     37  N   UNL A   1      39.009  31.363  31.524  1.00  0.00    -0.248 NA
ATOM     38  C   UNL A   1      37.564  30.211  32.918  1.00  0.00     0.031 C 
ATOM     39  C   UNL A   1      41.578  29.913  35.356  1.00  0.00     0.029 A 
ATOM     40  N   UNL A   1      40.279  31.656  35.007  1.00  0.00    -0.354 N 
ATOM     41  C   UNL A   1      37.696  31.715  31.270  1.00  0.00     0.074 A 
ATOM     42  C   UNL A   1      36.899  30.683  31.860  1.00  0.00     0.031 C 
ATOM     43  C   UNL A   1      41.599  30.662  36.502  1.00  0.00     0.029 A 
ATOM     44  C   UNL A   1      40.742  31.829  36.356  1.00  0.00     0.049 A 
ATOM     45  H   UNL A   1      39.761  32.353  34.545  1.00  0.00     0.167 HD
ATOM     46  C   UNL A   1      37.352  32.999  30.976  1.00  0.00     0.037 A 
ATOM     47  C   UNL A   1      40.588  32.910  37.221  1.00  0.00     0.037 A 
ATOM     48  C   UNL A   1      38.535  33.792  30.733  1.00  0.00     0.049 A 
ATOM     49  C   UNL A   1      40.295  34.089  36.369  1.00  0.00     0.074 A 
ATOM     50  C   UNL A   1      39.604  33.694  29.862  1.00  0.00     0.029 A 
ATOM     51  N   UNL A   1      38.963  34.594  31.766  1.00  0.00    -0.354 N 
ATOM     52  N   UNL A   1      41.160  34.587  35.531  1.00  0.00    -0.248 NA
ATOM     53  C   UNL A   1      38.892  34.308  36.060  1.00  0.00     0.031 C 
ATOM     54  C   UNL A   1      40.751  34.026  30.642  1.00  0.00     0.029 A 
ATOM     55  C   UNL A   1      40.322  34.444  31.900  1.00  0.00     0.049 A 
ATOM     56  H   UNL A   1      38.393  35.177  32.316  1.00  0.00     0.167 HD
ATOM     57  C   UNL A   1      40.436  34.733  34.361  1.00  0.00     0.074 A 
ATOM     58  C   UNL A   1      39.036  34.533  34.753  1.00  0.00     0.031 C 
ATOM     59  C   UNL A   1      41.036  34.669  33.138  1.00  0.00     0.037 A 
BRANCH  46  60
ATOM     60  C   UNL A   1      36.015  33.622  31.305  1.00  0.00     0.058 A 
ATOM     61  C   UNL A   1      35.237  34.133  30.250  1.00  0.00     0.135 A 
ATOM     62  C   UNL A   1      35.557  33.941  32.606  1.00  0.00     0.135 A 
ATOM     63  F   UNL A   1      35.586  33.903  28.975  1.00  0.00    -0.206 F 
ATOM     64  C   UNL A   1      34.119  34.937  30.469  1.00  0.00     0.059 A 
ATOM     65  C   UNL A   1      34.414  34.691  32.847  1.00  0.00     0.059 A 
ATOM     66  F   UNL A   1      36.233  33.621  33.715  1.00  0.00    -0.206 F 
ATOM     67  C   UNL A   1      33.716  35.211  31.773  1.00  0.00     0.060 A 
BRANCH  67  68
ATOM     68  S   UNL A   1      32.293  36.275  32.053  1.00  0.00     0.124 S 
ATOM     69  O   UNL A   1      32.056  36.805  30.715  1.00  0.00    -0.237 OA
ATOM     70  O   UNL A   1      31.306  35.323  32.552  1.00  0.00    -0.237 OA
ATOM     71  O   UNL A   1      32.782  37.237  33.037  1.00  0.00    -0.744 OA
ENDBRANCH  67  68
ENDBRANCH  46  60
BRANCH  47  72
ATOM     72  C   UNL A   1      40.290  33.015  38.724  1.00  0.00     0.058 A 
ATOM     73  C   UNL A   1      41.103  33.701  39.679  1.00  0.00     0.135 A 
ATOM     74  C   UNL A   1      39.000  32.717  39.190  1.00  0.00     0.135 A 
ATOM     75  F   UNL A   1      42.351  34.081  39.357  1.00  0.00    -0.206 F 
ATOM     76  C   UNL A   1      40.649  34.077  40.975  1.00  0.00     0.059 A 
ATOM     77  C   UNL A   1      38.526  33.085  40.461  1.00  0.00     0.059 A 
ATOM     78  F   UNL A   1      38.117  32.126  38.372  1.00  0.00    -0.206 F 
ATOM     79  C   UNL A   1      39.342  33.779  41.351  1.00  0.00     0.060 A 
BRANCH  79  80
ATOM     80  S   UNL A   1      38.653  34.371  42.935  1.00  0.00     0.124 S 
ATOM     81  O   UNL A   1      39.853  34.708  43.693  1.00  0.00    -0.237 OA
ATOM     82  O   UNL A   1      37.824  35.499  42.525  1.00  0.00    -0.237 OA
ATOM     83  O   UNL A   1      37.913  33.212  43.433  1.00  0.00    -0.744 OA
ENDBRANCH  79  80
ENDBRANCH  47  72
BRANCH  59  84
ATOM     84  C   UNL A   1      42.547  34.663  33.066  1.00  0.00     0.058 A 
ATOM     85  C   UNL A   1      43.345  33.523  32.843  1.00  0.00     0.135 A 
ATOM     86  C   UNL A   1      43.198  35.904  33.032  1.00  0.00     0.135 A 
ATOM     87  F   UNL A   1      42.795  32.303  32.778  1.00  0.00    -0.206 F 
ATOM     88  C   UNL A   1      44.722  33.614  32.610  1.00  0.00     0.059 A 
ATOM     89  C   UNL A   1      44.562  36.022  32.775  1.00  0.00     0.059 A 
ATOM     90  F   UNL A   1      42.489  37.034  33.185  1.00  0.00    -0.206 F 
ATOM     91  C   UNL A   1      45.321  34.873  32.571  1.00  0.00     0.060 A 
BRANCH  91  92
ATOM     92  S   UNL A   1      47.082  35.010  32.186  1.00  0.00     0.124 S 
ATOM     93  O   UNL A   1      47.331  36.434  32.380  1.00  0.00    -0.237 OA
ATOM     94  O   UNL A   1      47.692  34.119  33.169  1.00  0.00    -0.237 OA
ATOM     95  O   UNL A   1      47.166  34.545  30.803  1.00  0.00    -0.744 OA
ENDBRANCH  91  92
ENDBRANCH  59  84
ENDBRANCH  33  34
ENDBRANCH  26  28
ENDBRANCH  25  26
ENDBRANCH   1  25
TORSDOF 15
ENDMDL
MODEL 3
REMARK VINA RESULT:     -13.3      1.170      3.437
REMARK SMILES Cc1ccc(C)c(-c2cc(C(=O)OCCOC(=O)c3ccc(-c4c5nc(c(-c6c(F)cc(S(=O)(=O)[O-])cc6F)c6ccc([nH]6)c(-c6c(F)cc(S(=O)(=O)[O-])cc6F)c6nc(c(-c7c(F)cc(S(=O)(=O)[O-])cc7F)c7ccc4[nH]7)C=C6)C=C5)cc3)c3cc(C)ccc3n2)c1
REMARK SMILES IDX 15 1 14 2 13 3 11 4 12 5 10 6 8 7 9 8 92 9 91 10 85 11 90 12
REMARK SMILES IDX 86 13 89 14 87 15 88 16 7 17 1 18 2 19 3 20 93 21 4 22 5 23
REMARK SMILES IDX 6 24 16 25 17 26 18 27 19 28 20 29 84 30 21 31 83 32 22 33
REMARK SMILES IDX 23 34 24 35 77 36 25 37 82 38 76 39 78 40 26 41 81 42 75 43
REMARK SMILES IDX 74 44 27 46 61 47 40 48 60 49 41 50 44 51 59 52 79 53 42 54
REMARK SMILES IDX 43 55 58 57 80 58 45 59 28 60 29 61 38 62 30 63 31 64 37 65
REMARK SMILES IDX 39 66 32 67 33 68 34 69 35 70 36 71 62 72 63 73 72 74 64 75
REMARK SMILES IDX 65 76 71 77 73 78 66 79 67 80 68 81 69 82 70 83 46 84 47 85
REMARK SMILES IDX 56 86 48 87 49 88 55 89 57 90 50 91 51 92 52 93 53 94 54 95
REMARK H PARENT 78 45 44 56
REMARK Flexibility Score: inf
ROOT
ATOM      1  C   UNL A   1      40.640  21.331  27.267  1.00  0.00     0.275 C 
ENDROOT
BRANCH   1   2
ATOM      2  C   UNL A   1      39.764  21.919  26.163  1.00  0.00     0.275 C 
BRANCH   2   3
ATOM      3  O   UNL A   1      38.618  22.473  26.804  1.00  0.00    -0.458 OA
BRANCH   3   4
ATOM      4  C   UNL A   1      37.839  23.524  26.067  1.00  0.00     0.339 C 
ATOM      5  O   UNL A   1      38.680  24.464  26.128  1.00  0.00    -0.246 OA
BRANCH   4   6
ATOM      6  C   UNL A   1      35.866  23.297  25.195  1.00  0.00     0.071 A 
ATOM      7  C   UNL A   1      33.955  21.559  24.344  1.00  0.00     0.072 A 
ATOM      8  C   UNL A   1      35.294  22.035  24.443  1.00  0.00     0.045 A 
ATOM      9  N   UNL A   1      32.937  22.332  24.683  1.00  0.00    -0.248 NA
ATOM     10  C   UNL A   1      33.158  23.578  25.057  1.00  0.00     0.072 A 
ATOM     11  C   UNL A   1      34.451  24.188  25.359  1.00  0.00     0.015 A 
ATOM     12  C   UNL A   1      31.914  24.212  25.159  1.00  0.00     0.029 A 
ATOM     13  C   UNL A   1      34.111  25.561  25.818  1.00  0.00     0.014 A 
ATOM     14  C   UNL A   1      31.738  25.522  25.567  1.00  0.00     0.005 A 
ATOM     15  C   UNL A   1      32.860  26.219  25.915  1.00  0.00    -0.050 A 
ATOM     16  C   UNL A   1      32.813  27.630  26.421  1.00  0.00     0.044 C 
BRANCH   7  17
ATOM     17  C   UNL A   1      33.536  20.163  23.948  1.00  0.00     0.003 A 
ATOM     18  C   UNL A   1      34.113  16.494  25.106  1.00  0.00     0.044 C 
ATOM     19  C   UNL A   1      33.615  17.700  24.356  1.00  0.00    -0.050 A 
ATOM     20  C   UNL A   1      32.750  17.484  23.285  1.00  0.00     0.004 A 
ATOM     21  C   UNL A   1      33.998  19.028  24.677  1.00  0.00     0.014 A 
ATOM     22  C   UNL A   1      32.230  18.571  22.594  1.00  0.00     0.004 A 
ATOM     23  C   UNL A   1      32.583  19.900  22.932  1.00  0.00    -0.042 A 
ATOM     24  C   UNL A   1      31.872  20.977  22.161  1.00  0.00     0.045 C 
ENDBRANCH   7  17
ENDBRANCH   4   6
ENDBRANCH   3   4
ENDBRANCH   2   3
ENDBRANCH   1   2
BRANCH   1  25
ATOM     25  O   UNL A   1      42.005  21.855  27.335  1.00  0.00    -0.458 OA
BRANCH  25  26
ATOM     26  C   UNL A   1      42.797  22.016  26.232  1.00  0.00     0.338 C 
ATOM     27  O   UNL A   1      43.032  21.142  25.416  1.00  0.00    -0.246 OA
BRANCH  26  28
ATOM     28  C   UNL A   1      43.592  23.265  26.263  1.00  0.00     0.060 A 
ATOM     29  C   UNL A   1      44.557  23.554  27.778  1.00  0.00     0.016 A 
ATOM     30  C   UNL A   1      42.786  24.649  25.440  1.00  0.00     0.016 A 
ATOM     31  C   UNL A   1      44.642  25.258  28.510  1.00  0.00     0.010 A 
ATOM     32  C   UNL A   1      42.834  26.321  26.230  1.00  0.00     0.010 A 
ATOM     33  C   UNL A   1      43.673  26.606  27.799  1.00  0.00    -0.014 A 
BRANCH  33  34
ATOM     34  C   UNL A   1      42.884  27.711  28.583  1.00  0.00     0.031 A 
ATOM     35  C   UNL A   1      43.752  28.920  28.508  1.00  0.00     0.074 A 
ATOM     36  C   UNL A   1      41.583  27.909  29.038  1.00  0.00     0.049 A 
ATOM     37  N   UNL A   1      44.726  29.164  29.326  1.00  0.00    -0.248 NA
ATOM     38  C   UNL A   1      43.820  29.720  27.269  1.00  0.00     0.031 C 
ATOM     39  C   UNL A   1      40.392  27.036  29.055  1.00  0.00     0.029 A 
ATOM     40  N   UNL A   1      41.021  29.066  29.627  1.00  0.00    -0.354 N 
ATOM     41  C   UNL A   1      45.316  30.310  28.822  1.00  0.00     0.074 A 
ATOM     42  C   UNL A   1      45.002  30.322  27.425  1.00  0.00     0.031 C 
ATOM     43  C   UNL A   1      39.259  27.722  29.398  1.00  0.00     0.029 A 
ATOM     44  C   UNL A   1      39.592  29.089  29.771  1.00  0.00     0.049 A 
ATOM     45  H   UNL A   1      41.582  29.819  29.923  1.00  0.00     0.167 HD
ATOM     46  C   UNL A   1      45.648  31.350  29.634  1.00  0.00     0.037 A 
ATOM     47  C   UNL A   1      38.764  30.070  30.312  1.00  0.00     0.037 A 
ATOM     48  C   UNL A   1      45.531  30.961  31.020  1.00  0.00     0.049 A 
ATOM     49  C   UNL A   1      39.622  30.903  31.191  1.00  0.00     0.074 A 
ATOM     50  C   UNL A   1      46.080  29.955  31.793  1.00  0.00     0.029 A 
ATOM     51  N   UNL A   1      44.393  31.365  31.681  1.00  0.00    -0.354 N 
ATOM     52  N   UNL A   1      40.175  30.443  32.279  1.00  0.00    -0.248 NA
ATOM     53  C   UNL A   1      40.293  32.016  30.542  1.00  0.00     0.031 C 
ATOM     54  C   UNL A   1      45.007  29.478  32.601  1.00  0.00     0.029 A 
ATOM     55  C   UNL A   1      43.899  30.296  32.390  1.00  0.00     0.049 A 
ATOM     56  H   UNL A   1      43.999  32.266  31.651  1.00  0.00     0.167 HD
ATOM     57  C   UNL A   1      41.492  30.855  32.175  1.00  0.00     0.074 A 
ATOM     58  C   UNL A   1      41.503  31.819  31.069  1.00  0.00     0.031 C 
ATOM     59  C   UNL A   1      42.506  30.149  32.752  1.00  0.00     0.037 A 
BRANCH  46  60
ATOM     60  C   UNL A   1      45.674  32.798  29.200  1.00  0.00     0.058 A 
ATOM     61  C   UNL A   1      44.481  33.375  28.725  1.00  0.00     0.135 A 
ATOM     62  C   UNL A   1      46.840  33.579  29.017  1.00  0.00     0.135 A 
ATOM     63  F   UNL A   1      43.316  32.717  28.835  1.00  0.00    -0.206 F 
ATOM     64  C   UNL A   1      44.456  34.609  28.079  1.00  0.00     0.059 A 
ATOM     65  C   UNL A   1      46.829  34.836  28.427  1.00  0.00     0.059 A 
ATOM     66  F   UNL A   1      48.066  33.137  29.317  1.00  0.00    -0.206 F 
ATOM     67  C   UNL A   1      45.637  35.332  27.934  1.00  0.00     0.060 A 
BRANCH  67  68
ATOM     68  S   UNL A   1      45.607  36.910  27.069  1.00  0.00     0.124 S 
ATOM     69  O   UNL A   1      46.468  36.632  25.926  1.00  0.00    -0.237 OA
ATOM     70  O   UNL A   1      44.185  37.062  26.782  1.00  0.00    -0.237 OA
ATOM     71  O   UNL A   1      46.145  37.843  28.055  1.00  0.00    -0.744 OA
ENDBRANCH  67  68
ENDBRANCH  46  60
BRANCH  47  72
ATOM     72  C   UNL A   1      37.397  30.632  29.897  1.00  0.00     0.058 A 
ATOM     73  C   UNL A   1      36.486  31.309  30.767  1.00  0.00     0.135 A 
ATOM     74  C   UNL A   1      37.112  30.807  28.535  1.00  0.00     0.135 A 
ATOM     75  F   UNL A   1      36.658  31.258  32.099  1.00  0.00    -0.206 F 
ATOM     76  C   UNL A   1      35.403  32.110  30.307  1.00  0.00     0.059 A 
ATOM     77  C   UNL A   1      36.055  31.601  28.055  1.00  0.00     0.059 A 
ATOM     78  F   UNL A   1      37.924  30.274  27.611  1.00  0.00    -0.206 F 
ATOM     79  C   UNL A   1      35.208  32.267  28.937  1.00  0.00     0.060 A 
BRANCH  79  80
ATOM     80  S   UNL A   1      33.937  33.404  28.285  1.00  0.00     0.124 S 
ATOM     81  O   UNL A   1      33.042  32.499  27.572  1.00  0.00    -0.237 OA
ATOM     82  O   UNL A   1      33.394  34.010  29.495  1.00  0.00    -0.237 OA
ATOM     83  O   UNL A   1      34.704  34.311  27.432  1.00  0.00    -0.744 OA
ENDBRANCH  79  80
ENDBRANCH  47  72
BRANCH  59  84
ATOM     84  C   UNL A   1      42.164  29.027  33.707  1.00  0.00     0.058 A 
ATOM     85  C   UNL A   1      42.243  27.653  33.407  1.00  0.00     0.135 A 
ATOM     86  C   UNL A   1      41.930  29.366  35.047  1.00  0.00     0.135 A 
ATOM     87  F   UNL A   1      42.544  27.237  32.169  1.00  0.00    -0.206 F 
ATOM     88  C   UNL A   1      42.085  26.667  34.388  1.00  0.00     0.059 A 
ATOM     89  C   UNL A   1      41.796  28.405  36.045  1.00  0.00     0.059 A 
ATOM     90  F   UNL A   1      41.894  30.658  35.412  1.00  0.00    -0.206 F 
ATOM     91  C   UNL A   1      41.868  27.056  35.710  1.00  0.00     0.060 A 
BRANCH  91  92
ATOM     92  S   UNL A   1      41.748  25.795  37.000  1.00  0.00     0.124 S 
ATOM     93  O   UNL A   1      42.894  26.109  37.846  1.00  0.00    -0.237 OA
ATOM     94  O   UNL A   1      40.436  26.063  37.583  1.00  0.00    -0.237 OA
ATOM     95  O   UNL A   1      41.844  24.539  36.260  1.00  0.00    -0.744 OA
ENDBRANCH  91  92
ENDBRANCH  59  84
ENDBRANCH  33  34
ENDBRANCH  26  28
ENDBRANCH  25  26
ENDBRANCH   1  25
TORSDOF 15
ENDMDL
