MODEL 1
REMARK VINA RESULT:     -13.1      0.000      0.000
REMARK SMILES C[N@@H+]1CCN(C(=O)c2ccc3[nH]c4c(c3c2)CSCC4)C[C@H]1C(=O)OCCOC(=O)c1ccc(-c2c3nc(c(-c4c(F)cc(S(=O)(=O)[O-])cc4F)c4ccc([nH]4)c(-c4c(F)cc(S(=O)(=O)[O-])cc4F)c4nc(c(-c5c(F)cc(S(=O)(=O)[O-])cc5F)c5ccc2[nH]5)C=C4)C=C3)cc1
REMARK SMILES IDX 27 1 26 2 25 3 23 4 24 5 22 6 1 7 2 8 3 9 4 11 21 12 5 13
REMARK SMILES IDX 6 14 7 15 8 16 9 17 16 18 10 19 15 20 11 21 14 22 12 23
REMARK SMILES IDX 13 24 17 25 20 27 18 28 19 29 28 30 29 31 30 32 31 33 32 34
REMARK SMILES IDX 96 35 33 36 95 37 34 38 35 39 36 40 89 41 37 42 94 43 88 44
REMARK SMILES IDX 90 45 38 46 93 47 87 48 86 49 39 51 73 52 52 53 72 54 53 55
REMARK SMILES IDX 56 56 71 57 91 58 54 59 55 60 70 62 92 63 57 64 40 65 41 66
REMARK SMILES IDX 50 67 42 68 43 69 49 70 51 71 44 72 45 73 46 74 47 75 48 76
REMARK SMILES IDX 74 77 75 78 84 79 76 80 77 81 83 82 85 83 78 84 79 85 80 86
REMARK SMILES IDX 81 87 82 88 58 89 59 90 68 91 60 92 61 93 67 94 69 95 62 96
REMARK SMILES IDX 63 97 64 98 65 99 66 100
REMARK H PARENT 2 10 12 26 90 50 56 61
REMARK Flexibility Score: inf
ROOT
ATOM      1  C   UNL A   1      38.929  21.549  25.741  1.00  0.00     0.275 C 
ENDROOT
BRANCH   1   2
ATOM      2  C   UNL A   1      37.690  22.207  25.111  1.00  0.00     0.274 C 
BRANCH   2   3
ATOM      3  O   UNL A   1      36.488  21.951  25.877  1.00  0.00    -0.458 OA
BRANCH   3   4
ATOM      4  C   UNL A   1      35.668  21.085  25.250  1.00  0.00     0.366 C 
ATOM      5  O   UNL A   1      36.064  19.997  24.831  1.00  0.00    -0.245 OA
BRANCH   4   6
ATOM      6  C   UNL A   1      34.246  21.495  24.984  1.00  0.00     0.314 C 
ATOM      7  C   UNL A   1      33.042  19.776  26.340  1.00  0.00     0.333 C 
ATOM      8  N   UNL A   1      33.071  21.133  25.822  1.00  0.00    -0.323 N 
ATOM      9  C   UNL A   1      31.874  21.396  24.941  1.00  0.00     0.284 C 
ATOM     10  H   UNL A   1      33.097  21.692  26.675  1.00  0.00     0.348 HD
ATOM     11  C   UNL A   1      31.845  22.804  24.233  1.00  0.00     0.181 C 
ATOM     12  C   UNL A   1      34.206  23.019  24.883  1.00  0.00     0.197 C 
ATOM     13  N   UNL A   1      33.185  23.333  23.901  1.00  0.00    -0.326 N 
BRANCH  13  14
ATOM     14  C   UNL A   1      33.412  24.050  22.733  1.00  0.00     0.254 C 
ATOM     15  O   UNL A   1      33.900  23.513  21.741  1.00  0.00    -0.269 OA
BRANCH  14  16
ATOM     16  C   UNL A   1      33.150  25.535  22.678  1.00  0.00     0.040 A 
ATOM     17  C   UNL A   1      32.150  26.074  21.854  1.00  0.00     0.016 A 
ATOM     18  C   UNL A   1      33.686  26.330  23.694  1.00  0.00     0.024 A 
ATOM     19  C   UNL A   1      31.618  27.354  22.026  1.00  0.00     0.027 A 
ATOM     20  C   UNL A   1      33.095  27.585  23.961  1.00  0.00     0.004 A 
ATOM     21  C   UNL A   1      32.061  28.046  23.145  1.00  0.00     0.046 A 
ATOM     22  C   UNL A   1      33.242  28.525  25.020  1.00  0.00    -0.009 A 
ATOM     23  N   UNL A   1      31.554  29.187  23.723  1.00  0.00    -0.358 N 
ATOM     24  C   UNL A   1      32.184  29.408  24.913  1.00  0.00     0.021 A 
ATOM     25  C   UNL A   1      34.224  28.467  26.139  1.00  0.00     0.107 C 
ATOM     26  H   UNL A   1      30.848  29.754  23.338  1.00  0.00     0.166 HD
ATOM     27  C   UNL A   1      31.728  30.426  25.900  1.00  0.00     0.065 C 
ATOM     28  S   UNL A   1      34.200  29.982  27.165  1.00  0.00    -0.157 SA
ATOM     29  C   UNL A   1      32.378  30.186  27.271  1.00  0.00     0.076 C 
ENDBRANCH  14  16
ENDBRANCH  13  14
ENDBRANCH   4   6
ENDBRANCH   3   4
ENDBRANCH   2   3
ENDBRANCH   1   2
BRANCH   1  30
ATOM     30  O   UNL A   1      39.410  22.298  26.873  1.00  0.00    -0.458 OA
BRANCH  30  31
ATOM     31  C   UNL A   1      40.620  22.889  26.745  1.00  0.00     0.338 C 
ATOM     32  O   UNL A   1      41.549  22.505  26.036  1.00  0.00    -0.246 OA
BRANCH  31  33
ATOM     33  C   UNL A   1      40.554  24.244  27.333  1.00  0.00     0.060 A 
ATOM     34  C   UNL A   1      39.712  25.238  26.833  1.00  0.00     0.016 A 
ATOM     35  C   UNL A   1      41.515  24.556  28.304  1.00  0.00     0.016 A 
ATOM     36  C   UNL A   1      39.899  26.550  27.255  1.00  0.00     0.010 A 
ATOM     37  C   UNL A   1      41.749  25.872  28.674  1.00  0.00     0.010 A 
ATOM     38  C   UNL A   1      40.942  26.867  28.141  1.00  0.00    -0.014 A 
BRANCH  38  39
ATOM     39  C   UNL A   1      40.997  28.223  28.666  1.00  0.00     0.031 A 
ATOM     40  C   UNL A   1      42.225  28.941  28.312  1.00  0.00     0.074 A 
ATOM     41  C   UNL A   1      40.017  28.900  29.285  1.00  0.00     0.049 A 
ATOM     42  N   UNL A   1      43.274  29.112  29.039  1.00  0.00    -0.248 NA
ATOM     43  C   UNL A   1      42.351  29.406  26.924  1.00  0.00     0.031 C 
ATOM     44  C   UNL A   1      38.610  28.581  29.230  1.00  0.00     0.029 A 
ATOM     45  N   UNL A   1      40.056  30.046  30.026  1.00  0.00    -0.354 N 
ATOM     46  C   UNL A   1      44.072  29.964  28.297  1.00  0.00     0.074 A 
ATOM     47  C   UNL A   1      43.582  29.919  26.942  1.00  0.00     0.031 C 
ATOM     48  C   UNL A   1      37.894  29.529  29.862  1.00  0.00     0.029 A 
ATOM     49  C   UNL A   1      38.804  30.514  30.403  1.00  0.00     0.049 A 
ATOM     50  H   UNL A   1      40.894  30.499  30.272  1.00  0.00     0.167 HD
ATOM     51  C   UNL A   1      44.862  30.883  28.914  1.00  0.00     0.037 A 
ATOM     52  C   UNL A   1      38.472  31.664  31.040  1.00  0.00     0.037 A 
ATOM     53  C   UNL A   1      45.078  30.567  30.305  1.00  0.00     0.049 A 
ATOM     54  C   UNL A   1      39.696  32.159  31.716  1.00  0.00     0.074 A 
ATOM     55  C   UNL A   1      45.512  29.437  30.976  1.00  0.00     0.029 A 
ATOM     56  N   UNL A   1      44.453  31.336  31.258  1.00  0.00    -0.354 N 
ATOM     57  N   UNL A   1      40.308  31.511  32.678  1.00  0.00    -0.248 NA
ATOM     58  C   UNL A   1      40.535  33.095  30.978  1.00  0.00     0.031 C 
ATOM     59  C   UNL A   1      44.709  29.367  32.154  1.00  0.00     0.029 A 
ATOM     60  C   UNL A   1      43.864  30.479  32.157  1.00  0.00     0.049 A 
ATOM     61  H   UNL A   1      44.431  32.320  31.291  1.00  0.00     0.167 HD
ATOM     62  C   UNL A   1      41.666  31.642  32.400  1.00  0.00     0.074 A 
ATOM     63  C   UNL A   1      41.741  32.688  31.383  1.00  0.00     0.031 C 
ATOM     64  C   UNL A   1      42.584  30.709  32.801  1.00  0.00     0.037 A 
BRANCH  51  65
ATOM     65  C   UNL A   1      45.126  32.228  28.304  1.00  0.00     0.058 A 
ATOM     66  C   UNL A   1      46.435  32.601  27.968  1.00  0.00     0.135 A 
ATOM     67  C   UNL A   1      44.150  33.251  28.218  1.00  0.00     0.135 A 
ATOM     68  F   UNL A   1      47.443  31.722  28.082  1.00  0.00    -0.206 F 
ATOM     69  C   UNL A   1      46.753  33.897  27.564  1.00  0.00     0.059 A 
ATOM     70  C   UNL A   1      44.429  34.526  27.753  1.00  0.00     0.059 A 
ATOM     71  F   UNL A   1      42.899  33.078  28.667  1.00  0.00    -0.206 F 
ATOM     72  C   UNL A   1      45.741  34.849  27.454  1.00  0.00     0.060 A 
BRANCH  72  73
ATOM     73  S   UNL A   1      46.158  36.532  26.968  1.00  0.00     0.124 S 
ATOM     74  O   UNL A   1      46.938  36.297  25.759  1.00  0.00    -0.237 OA
ATOM     75  O   UNL A   1      44.839  37.126  26.777  1.00  0.00    -0.237 OA
ATOM     76  O   UNL A   1      46.905  37.037  28.116  1.00  0.00    -0.744 OA
ENDBRANCH  72  73
ENDBRANCH  51  65
BRANCH  52  77
ATOM     77  C   UNL A   1      37.226  32.418  30.709  1.00  0.00     0.058 A 
ATOM     78  C   UNL A   1      36.086  32.496  31.520  1.00  0.00     0.135 A 
ATOM     79  C   UNL A   1      37.171  33.164  29.504  1.00  0.00     0.135 A 
ATOM     80  F   UNL A   1      36.066  31.886  32.715  1.00  0.00    -0.206 F 
ATOM     81  C   UNL A   1      34.937  33.210  31.122  1.00  0.00     0.059 A 
ATOM     82  C   UNL A   1      36.039  33.845  29.072  1.00  0.00     0.059 A 
ATOM     83  F   UNL A   1      38.257  33.275  28.721  1.00  0.00    -0.206 F 
ATOM     84  C   UNL A   1      34.920  33.870  29.888  1.00  0.00     0.060 A 
BRANCH  84  85
ATOM     85  S   UNL A   1      33.449  34.775  29.342  1.00  0.00     0.124 S 
ATOM     86  O   UNL A   1      32.701  34.946  30.583  1.00  0.00    -0.237 OA
ATOM     87  O   UNL A   1      34.036  35.988  28.782  1.00  0.00    -0.237 OA
ATOM     88  O   UNL A   1      32.834  33.875  28.370  1.00  0.00    -0.744 OA
ENDBRANCH  84  85
ENDBRANCH  52  77
BRANCH  64  89
ATOM     89  C   UNL A   1      42.156  29.669  33.805  1.00  0.00     0.058 A 
ATOM     90  C   UNL A   1      41.698  28.393  33.430  1.00  0.00     0.135 A 
ATOM     91  C   UNL A   1      42.431  29.878  35.164  1.00  0.00     0.135 A 
ATOM     92  F   UNL A   1      41.499  28.086  32.140  1.00  0.00    -0.206 F 
ATOM     93  C   UNL A   1      41.521  27.372  34.368  1.00  0.00     0.059 A 
ATOM     94  C   UNL A   1      42.252  28.875  36.118  1.00  0.00     0.059 A 
ATOM     95  F   UNL A   1      42.948  31.049  35.570  1.00  0.00    -0.206 F 
ATOM     96  C   UNL A   1      41.785  27.626  35.712  1.00  0.00     0.060 A 
BRANCH  96  97
ATOM     97  S   UNL A   1      41.590  26.293  36.918  1.00  0.00     0.124 S 
ATOM     98  O   UNL A   1      42.802  26.444  37.717  1.00  0.00    -0.237 OA
ATOM     99  O   UNL A   1      40.345  26.647  37.594  1.00  0.00    -0.237 OA
ATOM    100  O   UNL A   1      41.522  25.093  36.089  1.00  0.00    -0.744 OA
ENDBRANCH  96  97
ENDBRANCH  64  89
ENDBRANCH  38  39
ENDBRANCH  31  33
ENDBRANCH  30  31
ENDBRANCH   1  30
TORSDOF 16
ENDMDL
MODEL 2
REMARK VINA RESULT:     -13.0      3.895      6.726
REMARK SMILES C[N@@H+]1CCN(C(=O)c2ccc3[nH]c4c(c3c2)CSCC4)C[C@H]1C(=O)OCCOC(=O)c1ccc(-c2c3nc(c(-c4c(F)cc(S(=O)(=O)[O-])cc4F)c4ccc([nH]4)c(-c4c(F)cc(S(=O)(=O)[O-])cc4F)c4nc(c(-c5c(F)cc(S(=O)(=O)[O-])cc5F)c5ccc2[nH]5)C=C4)C=C3)cc1
REMARK SMILES IDX 27 1 26 2 25 3 23 4 24 5 22 6 1 7 2 8 3 9 4 11 21 12 5 13
REMARK SMILES IDX 6 14 7 15 8 16 9 17 16 18 10 19 15 20 11 21 14 22 12 23
REMARK SMILES IDX 13 24 17 25 20 27 18 28 19 29 28 30 29 31 30 32 31 33 32 34
REMARK SMILES IDX 96 35 33 36 95 37 34 38 35 39 36 40 89 41 37 42 94 43 88 44
REMARK SMILES IDX 90 45 38 46 93 47 87 48 86 49 39 51 73 52 52 53 72 54 53 55
REMARK SMILES IDX 56 56 71 57 91 58 54 59 55 60 70 62 92 63 57 64 40 65 41 66
REMARK SMILES IDX 50 67 42 68 43 69 49 70 51 71 44 72 45 73 46 74 47 75 48 76
REMARK SMILES IDX 74 77 75 78 84 79 76 80 77 81 83 82 85 83 78 84 79 85 80 86
REMARK SMILES IDX 81 87 82 88 58 89 59 90 68 91 60 92 61 93 67 94 69 95 62 96
REMARK SMILES IDX 63 97 64 98 65 99 66 100
REMARK H PARENT 2 10 12 26 90 50 56 61
REMARK Flexibility Score: inf
ROOT
ATOM      1  C   UNL A   1      40.872  21.749  27.774  1.00  0.00     0.275 C 
ENDROOT
BRANCH   1   2
ATOM      2  C   UNL A   1      41.372  20.344  27.398  1.00  0.00     0.274 C 
BRANCH   2   3
ATOM      3  O   UNL A   1      42.801  20.319  27.164  1.00  0.00    -0.458 OA
BRANCH   3   4
ATOM      4  C   UNL A   1      43.096  20.372  25.850  1.00  0.00     0.366 C 
ATOM      5  O   UNL A   1      42.593  19.596  25.036  1.00  0.00    -0.245 OA
BRANCH   4   6
ATOM      6  C   UNL A   1      44.130  21.356  25.378  1.00  0.00     0.314 C 
ATOM      7  C   UNL A   1      46.043  19.804  24.963  1.00  0.00     0.333 C 
ATOM      8  N   UNL A   1      45.344  21.021  24.587  1.00  0.00    -0.323 N 
ATOM      9  C   UNL A   1      46.244  22.223  24.735  1.00  0.00     0.284 C 
ATOM     10  H   UNL A   1      45.061  20.823  23.627  1.00  0.00     0.348 HD
ATOM     11  C   UNL A   1      45.568  23.620  24.455  1.00  0.00     0.181 C 
ATOM     12  C   UNL A   1      43.415  22.437  24.568  1.00  0.00     0.197 C 
ATOM     13  N   UNL A   1      44.136  23.673  24.818  1.00  0.00    -0.326 N 
BRANCH  13  14
ATOM     14  C   UNL A   1      43.568  24.817  25.362  1.00  0.00     0.254 C 
ATOM     15  O   UNL A   1      42.904  25.588  24.672  1.00  0.00    -0.269 OA
BRANCH  14  16
ATOM     16  C   UNL A   1      43.824  25.196  26.800  1.00  0.00     0.040 A 
ATOM     17  C   UNL A   1      43.222  24.502  27.861  1.00  0.00     0.016 A 
ATOM     18  C   UNL A   1      44.916  26.024  27.071  1.00  0.00     0.024 A 
ATOM     19  C   UNL A   1      43.689  24.552  29.177  1.00  0.00     0.027 A 
ATOM     20  C   UNL A   1      45.477  26.012  28.367  1.00  0.00     0.004 A 
ATOM     21  C   UNL A   1      44.870  25.254  29.371  1.00  0.00     0.046 A 
ATOM     22  C   UNL A   1      46.677  26.547  28.915  1.00  0.00    -0.009 A 
ATOM     23  N   UNL A   1      45.704  25.274  30.465  1.00  0.00    -0.358 N 
ATOM     24  C   UNL A   1      46.847  25.951  30.150  1.00  0.00     0.021 A 
ATOM     25  C   UNL A   1      47.661  27.428  28.225  1.00  0.00     0.107 C 
ATOM     26  H   UNL A   1      45.507  24.864  31.338  1.00  0.00     0.166 HD
ATOM     27  C   UNL A   1      48.051  25.971  31.026  1.00  0.00     0.065 C 
ATOM     28  S   UNL A   1      48.956  28.047  29.360  1.00  0.00    -0.157 SA
ATOM     29  C   UNL A   1      49.279  26.476  30.255  1.00  0.00     0.076 C 
ENDBRANCH  14  16
ENDBRANCH  13  14
ENDBRANCH   4   6
ENDBRANCH   3   4
ENDBRANCH   2   3
ENDBRANCH   1   2
BRANCH   1  30
ATOM     30  O   UNL A   1      40.642  22.561  26.607  1.00  0.00    -0.458 OA
BRANCH  30  31
ATOM     31  C   UNL A   1      39.429  23.153  26.504  1.00  0.00     0.338 C 
ATOM     32  O   UNL A   1      38.356  22.588  26.299  1.00  0.00    -0.246 OA
BRANCH  31  33
ATOM     33  C   UNL A   1      39.535  24.544  26.995  1.00  0.00     0.060 A 
ATOM     34  C   UNL A   1      40.109  25.564  26.237  1.00  0.00     0.016 A 
ATOM     35  C   UNL A   1      39.204  24.764  28.339  1.00  0.00     0.016 A 
ATOM     36  C   UNL A   1      40.419  26.769  26.859  1.00  0.00     0.010 A 
ATOM     37  C   UNL A   1      39.574  25.937  28.978  1.00  0.00     0.010 A 
ATOM     38  C   UNL A   1      40.188  26.936  28.235  1.00  0.00    -0.014 A 
BRANCH  38  39
ATOM     39  C   UNL A   1      40.387  28.261  28.801  1.00  0.00     0.031 A 
ATOM     40  C   UNL A   1      41.631  28.905  28.366  1.00  0.00     0.074 A 
ATOM     41  C   UNL A   1      39.515  28.979  29.526  1.00  0.00     0.049 A 
ATOM     42  N   UNL A   1      42.747  28.971  29.005  1.00  0.00    -0.248 NA
ATOM     43  C   UNL A   1      41.673  29.417  26.990  1.00  0.00     0.031 C 
ATOM     44  C   UNL A   1      38.089  28.763  29.582  1.00  0.00     0.029 A 
ATOM     45  N   UNL A   1      39.701  30.088  30.301  1.00  0.00    -0.354 N 
ATOM     46  C   UNL A   1      43.540  29.795  28.226  1.00  0.00     0.074 A 
ATOM     47  C   UNL A   1      42.935  29.840  26.919  1.00  0.00     0.031 C 
ATOM     48  C   UNL A   1      37.501  29.732  30.308  1.00  0.00     0.029 A 
ATOM     49  C   UNL A   1      38.523  30.627  30.801  1.00  0.00     0.049 A 
ATOM     50  H   UNL A   1      40.588  30.470  30.488  1.00  0.00     0.167 HD
ATOM     51  C   UNL A   1      44.445  30.629  28.804  1.00  0.00     0.037 A 
ATOM     52  C   UNL A   1      38.332  31.770  31.505  1.00  0.00     0.037 A 
ATOM     53  C   UNL A   1      44.754  30.242  30.159  1.00  0.00     0.049 A 
ATOM     54  C   UNL A   1      39.642  32.149  32.089  1.00  0.00     0.074 A 
ATOM     55  C   UNL A   1      45.158  29.057  30.749  1.00  0.00     0.029 A 
ATOM     56  N   UNL A   1      44.269  31.013  31.190  1.00  0.00    -0.354 N 
ATOM     57  N   UNL A   1      40.284  31.421  32.971  1.00  0.00    -0.248 NA
ATOM     58  C   UNL A   1      40.482  33.053  31.315  1.00  0.00     0.031 C 
ATOM     59  C   UNL A   1      44.454  28.995  31.990  1.00  0.00     0.029 A 
ATOM     60  C   UNL A   1      43.697  30.162  32.106  1.00  0.00     0.049 A 
ATOM     61  H   UNL A   1      44.323  31.994  31.259  1.00  0.00     0.167 HD
ATOM     62  C   UNL A   1      41.620  31.467  32.580  1.00  0.00     0.074 A 
ATOM     63  C   UNL A   1      41.685  32.546  31.598  1.00  0.00     0.031 C 
ATOM     64  C   UNL A   1      42.497  30.456  32.867  1.00  0.00     0.037 A 
BRANCH  51  65
ATOM     65  C   UNL A   1      44.755  31.977  28.221  1.00  0.00     0.058 A 
ATOM     66  C   UNL A   1      46.048  32.261  27.761  1.00  0.00     0.135 A 
ATOM     67  C   UNL A   1      43.864  33.076  28.281  1.00  0.00     0.135 A 
ATOM     68  F   UNL A   1      46.986  31.300  27.731  1.00  0.00    -0.206 F 
ATOM     69  C   UNL A   1      46.429  33.545  27.374  1.00  0.00     0.059 A 
ATOM     70  C   UNL A   1      44.199  34.346  27.838  1.00  0.00     0.059 A 
ATOM     71  F   UNL A   1      42.657  32.982  28.855  1.00  0.00    -0.206 F 
ATOM     72  C   UNL A   1      45.494  34.578  27.411  1.00  0.00     0.060 A 
BRANCH  72  73
ATOM     73  S   UNL A   1      45.997  36.243  26.948  1.00  0.00     0.124 S 
ATOM     74  O   UNL A   1      44.707  36.917  26.856  1.00  0.00    -0.237 OA
ATOM     75  O   UNL A   1      46.842  36.628  28.073  1.00  0.00    -0.237 OA
ATOM     76  O   UNL A   1      46.699  36.043  25.684  1.00  0.00    -0.744 OA
ENDBRANCH  72  73
ENDBRANCH  51  65
BRANCH  52  77
ATOM     77  C   UNL A   1      37.121  32.623  31.311  1.00  0.00     0.058 A 
ATOM     78  C   UNL A   1      36.852  33.405  30.181  1.00  0.00     0.135 A 
ATOM     79  C   UNL A   1      36.118  32.632  32.314  1.00  0.00     0.135 A 
ATOM     80  F   UNL A   1      37.704  33.406  29.143  1.00  0.00    -0.206 F 
ATOM     81  C   UNL A   1      35.695  34.204  30.086  1.00  0.00     0.059 A 
ATOM     82  C   UNL A   1      34.987  33.438  32.262  1.00  0.00     0.059 A 
ATOM     83  F   UNL A   1      36.205  31.812  33.373  1.00  0.00    -0.206 F 
ATOM     84  C   UNL A   1      34.774  34.224  31.140  1.00  0.00     0.060 A 
BRANCH  84  85
ATOM     85  S   UNL A   1      33.291  35.259  31.055  1.00  0.00     0.124 S 
ATOM     86  O   UNL A   1      33.842  36.609  31.083  1.00  0.00    -0.237 OA
ATOM     87  O   UNL A   1      32.705  34.838  29.786  1.00  0.00    -0.237 OA
ATOM     88  O   UNL A   1      32.536  34.876  32.246  1.00  0.00    -0.744 OA
ENDBRANCH  84  85
ENDBRANCH  52  77
BRANCH  64  89
ATOM     89  C   UNL A   1      42.079  29.407  33.866  1.00  0.00     0.058 A 
ATOM     90  C   UNL A   1      41.505  28.180  33.488  1.00  0.00     0.135 A 
ATOM     91  C   UNL A   1      42.476  29.544  35.204  1.00  0.00     0.135 A 
ATOM     92  F   UNL A   1      41.182  27.938  32.209  1.00  0.00    -0.206 F 
ATOM     93  C   UNL A   1      41.333  27.138  34.402  1.00  0.00     0.059 A 
ATOM     94  C   UNL A   1      42.305  28.519  36.135  1.00  0.00     0.059 A 
ATOM     95  F   UNL A   1      43.105  30.661  35.605  1.00  0.00    -0.206 F 
ATOM     96  C   UNL A   1      41.721  27.320  35.727  1.00  0.00     0.060 A 
BRANCH  96  97
ATOM     97  S   UNL A   1      41.531  25.957  36.900  1.00  0.00     0.124 S 
ATOM     98  O   UNL A   1      40.446  26.447  37.743  1.00  0.00    -0.237 OA
ATOM     99  O   UNL A   1      41.194  24.829  36.035  1.00  0.00    -0.237 OA
ATOM    100  O   UNL A   1      42.843  25.874  37.538  1.00  0.00    -0.744 OA
ENDBRANCH  96  97
ENDBRANCH  64  89
ENDBRANCH  38  39
ENDBRANCH  31  33
ENDBRANCH  30  31
ENDBRANCH   1  30
TORSDOF 16
ENDMDL
MODEL 3
REMARK VINA RESULT:     -12.6      3.160      9.647
REMARK SMILES C[N@@H+]1CCN(C(=O)c2ccc3[nH]c4c(c3c2)CSCC4)C[C@H]1C(=O)OCCOC(=O)c1ccc(-c2c3nc(c(-c4c(F)cc(S(=O)(=O)[O-])cc4F)c4ccc([nH]4)c(-c4c(F)cc(S(=O)(=O)[O-])cc4F)c4nc(c(-c5c(F)cc(S(=O)(=O)[O-])cc5F)c5ccc2[nH]5)C=C4)C=C3)cc1
REMARK SMILES IDX 27 1 26 2 25 3 23 4 24 5 22 6 1 7 2 8 3 9 4 11 21 12 5 13
REMARK SMILES IDX 6 14 7 15 8 16 9 17 16 18 10 19 15 20 11 21 14 22 12 23
REMARK SMILES IDX 13 24 17 25 20 27 18 28 19 29 28 30 29 31 30 32 31 33 32 34
REMARK SMILES IDX 96 35 33 36 95 37 34 38 35 39 36 40 89 41 37 42 94 43 88 44
REMARK SMILES IDX 90 45 38 46 93 47 87 48 86 49 39 51 73 52 52 53 72 54 53 55
REMARK SMILES IDX 56 56 71 57 91 58 54 59 55 60 70 62 92 63 57 64 40 65 41 66
REMARK SMILES IDX 50 67 42 68 43 69 49 70 51 71 44 72 45 73 46 74 47 75 48 76
REMARK SMILES IDX 74 77 75 78 84 79 76 80 77 81 83 82 85 83 78 84 79 85 80 86
REMARK SMILES IDX 81 87 82 88 58 89 59 90 68 91 60 92 61 93 67 94 69 95 62 96
REMARK SMILES IDX 63 97 64 98 65 99 66 100
REMARK H PARENT 2 10 12 26 90 50 56 61
REMARK Flexibility Score: inf
ROOT
ATOM      1  C   UNL A   1      33.253  31.126  27.582  1.00  0.00     0.275 C 
ENDROOT
BRANCH   1   2
ATOM      2  C   UNL A   1      32.742  29.805  26.983  1.00  0.00     0.274 C 
BRANCH   2   3
ATOM      3  O   UNL A   1      31.827  30.024  25.882  1.00  0.00    -0.458 OA
BRANCH   3   4
ATOM      4  C   UNL A   1      32.124  29.250  24.820  1.00  0.00     0.366 C 
ATOM      5  O   UNL A   1      33.079  29.495  24.081  1.00  0.00    -0.245 OA
BRANCH   4   6
ATOM      6  C   UNL A   1      31.215  28.101  24.482  1.00  0.00     0.314 C 
ATOM      7  C   UNL A   1      29.447  29.315  23.200  1.00  0.00     0.333 C 
ATOM      8  N   UNL A   1      30.206  28.090  23.389  1.00  0.00    -0.323 N 
ATOM      9  C   UNL A   1      29.290  26.938  23.722  1.00  0.00     0.284 C 
ATOM     10  H   UNL A   1      30.694  27.996  22.499  1.00  0.00     0.348 HD
ATOM     11  C   UNL A   1      30.006  25.572  24.054  1.00  0.00     0.181 C 
ATOM     12  C   UNL A   1      32.086  26.871  24.230  1.00  0.00     0.197 C 
ATOM     13  N   UNL A   1      31.323  25.731  24.706  1.00  0.00    -0.326 N 
BRANCH  13  14
ATOM     14  C   UNL A   1      31.752  24.856  25.695  1.00  0.00     0.254 C 
ATOM     15  O   UNL A   1      31.309  24.922  26.840  1.00  0.00    -0.269 OA
BRANCH  14  16
ATOM     16  C   UNL A   1      32.845  23.854  25.415  1.00  0.00     0.040 A 
ATOM     17  C   UNL A   1      33.980  23.758  26.236  1.00  0.00     0.016 A 
ATOM     18  C   UNL A   1      32.562  22.809  24.533  1.00  0.00     0.024 A 
ATOM     19  C   UNL A   1      34.821  22.643  26.258  1.00  0.00     0.027 A 
ATOM     20  C   UNL A   1      33.330  21.625  24.609  1.00  0.00     0.004 A 
ATOM     21  C   UNL A   1      34.412  21.563  25.488  1.00  0.00     0.046 A 
ATOM     22  C   UNL A   1      33.185  20.332  24.032  1.00  0.00    -0.009 A 
ATOM     23  N   UNL A   1      34.865  20.264  25.496  1.00  0.00    -0.358 N 
ATOM     24  C   UNL A   1      34.052  19.497  24.713  1.00  0.00     0.021 A 
ATOM     25  C   UNL A   1      32.169  19.908  23.028  1.00  0.00     0.107 C 
ATOM     26  H   UNL A   1      35.653  19.939  25.989  1.00  0.00     0.166 HD
ATOM     27  C   UNL A   1      34.121  18.010  24.674  1.00  0.00     0.065 C 
ATOM     28  S   UNL A   1      32.469  18.213  22.409  1.00  0.00    -0.157 SA
ATOM     29  C   UNL A   1      32.863  17.422  24.019  1.00  0.00     0.076 C 
ENDBRANCH  14  16
ENDBRANCH  13  14
ENDBRANCH   4   6
ENDBRANCH   3   4
ENDBRANCH   2   3
ENDBRANCH   1   2
BRANCH   1  30
ATOM     30  O   UNL A   1      34.676  31.093  27.803  1.00  0.00    -0.458 OA
BRANCH  30  31
ATOM     31  C   UNL A   1      35.139  31.742  28.897  1.00  0.00     0.338 C 
ATOM     32  O   UNL A   1      34.501  32.509  29.616  1.00  0.00    -0.246 OA
BRANCH  31  33
ATOM     33  C   UNL A   1      36.434  31.147  29.292  1.00  0.00     0.060 A 
ATOM     34  C   UNL A   1      37.574  31.916  29.519  1.00  0.00     0.016 A 
ATOM     35  C   UNL A   1      36.523  29.748  29.246  1.00  0.00     0.016 A 
ATOM     36  C   UNL A   1      38.806  31.278  29.617  1.00  0.00     0.010 A 
ATOM     37  C   UNL A   1      37.756  29.115  29.275  1.00  0.00     0.010 A 
ATOM     38  C   UNL A   1      38.897  29.885  29.455  1.00  0.00    -0.014 A 
BRANCH  38  39
ATOM     39  C   UNL A   1      40.180  29.253  29.718  1.00  0.00     0.031 A 
ATOM     40  C   UNL A   1      40.509  29.164  31.144  1.00  0.00     0.074 A 
ATOM     41  C   UNL A   1      40.984  28.637  28.837  1.00  0.00     0.049 A 
ATOM     42  N   UNL A   1      41.276  29.944  31.824  1.00  0.00    -0.248 NA
ATOM     43  C   UNL A   1      39.783  28.163  31.937  1.00  0.00     0.031 C 
ATOM     44  C   UNL A   1      40.589  28.145  27.539  1.00  0.00     0.029 A 
ATOM     45  N   UNL A   1      42.292  28.258  28.938  1.00  0.00    -0.354 N 
ATOM     46  C   UNL A   1      41.357  29.346  33.070  1.00  0.00     0.074 A 
ATOM     47  C   UNL A   1      40.258  28.417  33.157  1.00  0.00     0.031 C 
ATOM     48  C   UNL A   1      41.607  27.478  26.966  1.00  0.00     0.029 A 
ATOM     49  C   UNL A   1      42.750  27.526  27.850  1.00  0.00     0.049 A 
ATOM     50  H   UNL A   1      42.859  28.484  29.710  1.00  0.00     0.167 HD
ATOM     51  C   UNL A   1      42.501  29.422  33.800  1.00  0.00     0.037 A 
ATOM     52  C   UNL A   1      43.943  26.908  27.671  1.00  0.00     0.037 A 
ATOM     53  C   UNL A   1      43.363  30.487  33.349  1.00  0.00     0.049 A 
ATOM     54  C   UNL A   1      44.901  27.521  28.624  1.00  0.00     0.074 A 
ATOM     55  C   UNL A   1      43.176  31.839  33.114  1.00  0.00     0.029 A 
ATOM     56  N   UNL A   1      44.516  30.159  32.674  1.00  0.00    -0.354 N 
ATOM     57  N   UNL A   1      45.266  28.780  28.580  1.00  0.00    -0.248 NA
ATOM     58  C   UNL A   1      45.044  26.888  29.928  1.00  0.00     0.031 C 
ATOM     59  C   UNL A   1      43.932  32.125  31.938  1.00  0.00     0.029 A 
ATOM     60  C   UNL A   1      44.571  30.946  31.548  1.00  0.00     0.049 A 
ATOM     61  H   UNL A   1      45.180  29.485  32.947  1.00  0.00     0.167 HD
ATOM     62  C   UNL A   1      45.283  29.202  29.907  1.00  0.00     0.074 A 
ATOM     63  C   UNL A   1      45.209  27.972  30.691  1.00  0.00     0.031 C 
ATOM     64  C   UNL A   1      45.072  30.508  30.258  1.00  0.00     0.037 A 
BRANCH  51  65
ATOM     65  C   UNL A   1      42.947  28.294  34.683  1.00  0.00     0.058 A 
ATOM     66  C   UNL A   1      43.236  28.533  36.034  1.00  0.00     0.135 A 
ATOM     67  C   UNL A   1      43.292  27.010  34.194  1.00  0.00     0.135 A 
ATOM     68  F   UNL A   1      43.009  29.741  36.574  1.00  0.00    -0.206 F 
ATOM     69  C   UNL A   1      43.817  27.561  36.848  1.00  0.00     0.059 A 
ATOM     70  C   UNL A   1      43.806  26.007  35.000  1.00  0.00     0.059 A 
ATOM     71  F   UNL A   1      43.226  26.705  32.890  1.00  0.00    -0.206 F 
ATOM     72  C   UNL A   1      44.091  26.300  36.322  1.00  0.00     0.060 A 
BRANCH  72  73
ATOM     73  S   UNL A   1      44.876  25.059  37.362  1.00  0.00     0.124 S 
ATOM     74  O   UNL A   1      46.232  25.586  37.465  1.00  0.00    -0.237 OA
ATOM     75  O   UNL A   1      44.068  25.126  38.575  1.00  0.00    -0.237 OA
ATOM     76  O   UNL A   1      44.731  23.830  36.587  1.00  0.00    -0.744 OA
ENDBRANCH  72  73
ENDBRANCH  51  65
BRANCH  52  77
ATOM     77  C   UNL A   1      44.056  25.604  26.951  1.00  0.00     0.058 A 
ATOM     78  C   UNL A   1      43.687  24.357  27.470  1.00  0.00     0.135 A 
ATOM     79  C   UNL A   1      44.531  25.594  25.615  1.00  0.00     0.135 A 
ATOM     80  F   UNL A   1      43.156  24.269  28.699  1.00  0.00    -0.206 F 
ATOM     81  C   UNL A   1      43.850  23.166  26.733  1.00  0.00     0.059 A 
ATOM     82  C   UNL A   1      44.736  24.432  24.880  1.00  0.00     0.059 A 
ATOM     83  F   UNL A   1      44.780  26.746  24.971  1.00  0.00    -0.206 F 
ATOM     84  C   UNL A   1      44.389  23.214  25.443  1.00  0.00     0.060 A 
BRANCH  84  85
ATOM     85  S   UNL A   1      44.630  21.698  24.483  1.00  0.00     0.124 S 
ATOM     86  O   UNL A   1      46.024  21.366  24.756  1.00  0.00    -0.237 OA
ATOM     87  O   UNL A   1      43.637  20.807  25.076  1.00  0.00    -0.237 OA
ATOM     88  O   UNL A   1      44.353  22.112  23.110  1.00  0.00    -0.744 OA
ENDBRANCH  84  85
ENDBRANCH  52  77
BRANCH  64  89
ATOM     89  C   UNL A   1      45.104  31.555  29.174  1.00  0.00     0.058 A 
ATOM     90  C   UNL A   1      46.302  32.089  28.666  1.00  0.00     0.135 A 
ATOM     91  C   UNL A   1      43.923  31.853  28.480  1.00  0.00     0.135 A 
ATOM     92  F   UNL A   1      47.482  31.778  29.220  1.00  0.00    -0.206 F 
ATOM     93  C   UNL A   1      46.321  32.885  27.518  1.00  0.00     0.059 A 
ATOM     94  C   UNL A   1      43.920  32.653  27.336  1.00  0.00     0.059 A 
ATOM     95  F   UNL A   1      42.760  31.305  28.869  1.00  0.00    -0.206 F 
ATOM     96  C   UNL A   1      45.124  33.175  26.868  1.00  0.00     0.060 A 
BRANCH  96  97
ATOM     97  S   UNL A   1      45.156  34.175  25.361  1.00  0.00     0.124 S 
ATOM     98  O   UNL A   1      44.404  35.354  25.778  1.00  0.00    -0.237 OA
ATOM     99  O   UNL A   1      46.584  34.386  25.142  1.00  0.00    -0.237 OA
ATOM    100  O   UNL A   1      44.500  33.321  24.374  1.00  0.00    -0.744 OA
ENDBRANCH  96  97
ENDBRANCH  64  89
ENDBRANCH  38  39
ENDBRANCH  31  33
ENDBRANCH  30  31
ENDBRANCH   1  30
TORSDOF 16
ENDMDL
