MODEL 1
REMARK VINA RESULT:     -10.7      0.000      0.000
REMARK SMILES CCCC[C@@H](C(=O)OCCOC(=O)c1ccc(-c2c3nc(c(-c4c(F)cc(S(=O)(=O)[O-])cc4F)c4ccc([nH]4)c(-c4c(F)cc(S(=O)(=O)[O-])cc4F)c4nc(c(-c5c(F)cc(S(=O)(=O)[O-])cc5F)c5ccc2[nH]5)C=C4)C=C3)cc1)[C@@H](O)c1cccc(C(F)(F)F)c1
REMARK SMILES IDX 9 1 8 2 6 3 7 4 5 5 4 6 3 7 2 8 1 9 80 10 81 11 82 13 83 14
REMARK SMILES IDX 91 15 84 16 86 17 85 18 87 19 88 20 89 21 90 22 10 23 11 24
REMARK SMILES IDX 12 25 13 26 14 27 15 28 79 29 16 30 78 31 17 32 18 33 19 34
REMARK SMILES IDX 72 35 20 36 77 37 71 38 73 39 21 40 76 41 70 42 69 43 22 45
REMARK SMILES IDX 56 46 35 47 55 48 36 49 39 50 54 51 74 52 37 53 38 54 53 56
REMARK SMILES IDX 75 57 40 58 23 59 24 60 33 61 25 62 26 63 32 64 34 65 27 66
REMARK SMILES IDX 28 67 29 68 30 69 31 70 57 71 58 72 67 73 59 74 60 75 66 76
REMARK SMILES IDX 68 77 61 78 62 79 63 80 64 81 65 82 41 83 42 84 51 85 43 86
REMARK SMILES IDX 44 87 50 88 52 89 45 90 46 91 47 92 48 93 49 94
REMARK H PARENT 81 12 73 44 39 55
REMARK Flexibility Score: inf
ROOT
ATOM      1  C   UNL A   1      32.253  30.271  26.837  1.00  0.00     0.274 C 
ENDROOT
BRANCH   1   2
ATOM      2  O   UNL A   1      32.783  28.929  26.840  1.00  0.00    -0.462 OA
BRANCH   2   3
ATOM      3  C   UNL A   1      31.893  27.938  27.122  1.00  0.00     0.312 C 
ATOM      4  O   UNL A   1      31.026  28.067  27.974  1.00  0.00    -0.252 OA
BRANCH   3   5
ATOM      5  C   UNL A   1      32.175  26.654  26.338  1.00  0.00     0.132 C 
BRANCH   5   6
ATOM      6  C   UNL A   1      33.650  26.634  25.832  1.00  0.00     0.018 C 
BRANCH   6   7
ATOM      7  C   UNL A   1      34.035  25.539  24.827  1.00  0.00     0.001 C 
BRANCH   7   8
ATOM      8  C   UNL A   1      34.866  24.383  25.385  1.00  0.00    -0.003 C 
ATOM      9  C   UNL A   1      34.086  23.476  26.323  1.00  0.00     0.004 C 
ENDBRANCH   7   8
ENDBRANCH   6   7
ENDBRANCH   5   6
BRANCH   5  10
ATOM     10  C   UNL A   1      31.234  26.473  25.104  1.00  0.00     0.158 C 
BRANCH  10  11
ATOM     11  O   UNL A   1      29.936  26.088  25.591  1.00  0.00    -0.388 OA
ATOM     12  H   UNL A   1      29.249  26.503  25.047  1.00  0.00     0.211 HD
ENDBRANCH  10  11
BRANCH  10  13
ATOM     13  C   UNL A   1      30.950  27.599  24.120  1.00  0.00    -0.018 A 
ATOM     14  C   UNL A   1      31.932  28.270  23.383  1.00  0.00     0.006 A 
ATOM     15  C   UNL A   1      29.606  27.981  23.913  1.00  0.00     0.019 A 
ATOM     16  C   UNL A   1      31.586  29.201  22.399  1.00  0.00     0.001 A 
ATOM     17  C   UNL A   1      29.248  28.961  22.969  1.00  0.00     0.056 A 
ATOM     18  C   UNL A   1      30.253  29.541  22.188  1.00  0.00     0.013 A 
BRANCH  17  19
ATOM     19  C   UNL A   1      27.816  29.412  22.803  1.00  0.00     0.416 C 
ATOM     20  F   UNL A   1      27.522  30.479  23.601  1.00  0.00    -0.166 F 
ATOM     21  F   UNL A   1      27.530  29.801  21.533  1.00  0.00    -0.166 F 
ATOM     22  F   UNL A   1      26.904  28.451  23.123  1.00  0.00    -0.166 F 
ENDBRANCH  17  19
ENDBRANCH  10  13
ENDBRANCH   5  10
ENDBRANCH   3   5
ENDBRANCH   2   3
ENDBRANCH   1   2
BRANCH   1  23
ATOM     23  C   UNL A   1      33.128  31.264  27.614  1.00  0.00     0.275 C 
BRANCH  23  24
ATOM     24  O   UNL A   1      34.522  30.904  27.591  1.00  0.00    -0.458 OA
BRANCH  24  25
ATOM     25  C   UNL A   1      35.193  31.121  28.745  1.00  0.00     0.338 C 
ATOM     26  O   UNL A   1      34.785  31.710  29.732  1.00  0.00    -0.246 OA
BRANCH  25  27
ATOM     27  C   UNL A   1      36.488  30.423  28.725  1.00  0.00     0.060 A 
ATOM     28  C   UNL A   1      37.099  30.155  29.949  1.00  0.00     0.016 A 
ATOM     29  C   UNL A   1      37.165  30.165  27.536  1.00  0.00     0.016 A 
ATOM     30  C   UNL A   1      38.395  29.665  30.014  1.00  0.00     0.010 A 
ATOM     31  C   UNL A   1      38.465  29.645  27.596  1.00  0.00     0.010 A 
ATOM     32  C   UNL A   1      39.096  29.412  28.836  1.00  0.00    -0.014 A 
BRANCH  32  33
ATOM     33  C   UNL A   1      40.518  29.003  28.893  1.00  0.00     0.031 A 
ATOM     34  C   UNL A   1      41.553  30.034  29.236  1.00  0.00     0.074 A 
ATOM     35  C   UNL A   1      40.884  27.727  28.666  1.00  0.00     0.049 A 
ATOM     36  N   UNL A   1      42.849  29.991  29.079  1.00  0.00    -0.248 NA
ATOM     37  C   UNL A   1      41.057  31.284  29.835  1.00  0.00     0.031 C 
ATOM     38  C   UNL A   1      39.968  26.605  28.453  1.00  0.00     0.029 A 
ATOM     39  N   UNL A   1      42.132  27.165  28.565  1.00  0.00    -0.354 N 
ATOM     40  C   UNL A   1      43.319  31.228  29.501  1.00  0.00     0.074 A 
ATOM     41  C   UNL A   1      42.172  31.994  29.940  1.00  0.00     0.031 C 
ATOM     42  C   UNL A   1      40.686  25.491  28.235  1.00  0.00     0.029 A 
ATOM     43  C   UNL A   1      42.103  25.838  28.204  1.00  0.00     0.049 A 
ATOM     44  H   UNL A   1      42.964  27.661  28.733  1.00  0.00     0.167 HD
ATOM     45  C   UNL A   1      44.594  31.683  29.499  1.00  0.00     0.037 A 
ATOM     46  C   UNL A   1      43.101  25.017  27.822  1.00  0.00     0.037 A 
ATOM     47  C   UNL A   1      45.721  30.890  29.090  1.00  0.00     0.049 A 
ATOM     48  C   UNL A   1      44.504  25.560  27.751  1.00  0.00     0.074 A 
ATOM     49  C   UNL A   1      47.052  31.257  29.008  1.00  0.00     0.029 A 
ATOM     50  N   UNL A   1      45.648  29.557  28.708  1.00  0.00    -0.354 N 
ATOM     51  N   UNL A   1      44.934  26.765  28.044  1.00  0.00    -0.248 NA
ATOM     52  C   UNL A   1      45.551  24.647  27.274  1.00  0.00     0.031 C 
ATOM     53  C   UNL A   1      47.780  30.154  28.550  1.00  0.00     0.029 A 
ATOM     54  C   UNL A   1      46.908  29.088  28.387  1.00  0.00     0.049 A 
ATOM     55  H   UNL A   1      44.821  29.025  28.672  1.00  0.00     0.167 HD
ATOM     56  C   UNL A   1      46.305  26.747  27.811  1.00  0.00     0.074 A 
ATOM     57  C   UNL A   1      46.632  25.412  27.351  1.00  0.00     0.031 C 
ATOM     58  C   UNL A   1      47.210  27.743  27.962  1.00  0.00     0.037 A 
BRANCH  45  59
ATOM     59  C   UNL A   1      44.823  33.115  29.889  1.00  0.00     0.058 A 
ATOM     60  C   UNL A   1      44.728  34.165  28.965  1.00  0.00     0.135 A 
ATOM     61  C   UNL A   1      45.132  33.439  31.221  1.00  0.00     0.135 A 
ATOM     62  F   UNL A   1      44.458  33.908  27.674  1.00  0.00    -0.206 F 
ATOM     63  C   UNL A   1      44.958  35.486  29.341  1.00  0.00     0.059 A 
ATOM     64  C   UNL A   1      45.344  34.753  31.624  1.00  0.00     0.059 A 
ATOM     65  F   UNL A   1      45.240  32.470  32.144  1.00  0.00    -0.206 F 
ATOM     66  C   UNL A   1      45.270  35.769  30.672  1.00  0.00     0.060 A 
BRANCH  66  67
ATOM     67  S   UNL A   1      45.579  37.483  31.146  1.00  0.00     0.124 S 
ATOM     68  O   UNL A   1      44.232  38.043  31.104  1.00  0.00    -0.237 OA
ATOM     69  O   UNL A   1      46.164  37.342  32.475  1.00  0.00    -0.237 OA
ATOM     70  O   UNL A   1      46.491  37.963  30.112  1.00  0.00    -0.744 OA
ENDBRANCH  66  67
ENDBRANCH  45  59
BRANCH  46  71
ATOM     71  C   UNL A   1      42.797  23.621  27.409  1.00  0.00     0.058 A 
ATOM     72  C   UNL A   1      42.639  23.280  26.058  1.00  0.00     0.135 A 
ATOM     73  C   UNL A   1      42.671  22.594  28.360  1.00  0.00     0.135 A 
ATOM     74  F   UNL A   1      42.734  24.226  25.113  1.00  0.00    -0.206 F 
ATOM     75  C   UNL A   1      42.361  21.973  25.664  1.00  0.00     0.059 A 
ATOM     76  C   UNL A   1      42.419  21.278  27.990  1.00  0.00     0.059 A 
ATOM     77  F   UNL A   1      42.819  22.865  29.667  1.00  0.00    -0.206 F 
ATOM     78  C   UNL A   1      42.256  20.979  26.638  1.00  0.00     0.060 A 
BRANCH  78  79
ATOM     79  S   UNL A   1      41.944  19.277  26.118  1.00  0.00     0.124 S 
ATOM     80  O   UNL A   1      42.871  19.137  25.000  1.00  0.00    -0.237 OA
ATOM     81  O   UNL A   1      42.277  18.520  27.321  1.00  0.00    -0.237 OA
ATOM     82  O   UNL A   1      40.527  19.288  25.767  1.00  0.00    -0.744 OA
ENDBRANCH  78  79
ENDBRANCH  46  71
BRANCH  58  83
ATOM     83  C   UNL A   1      48.651  27.426  27.689  1.00  0.00     0.058 A 
ATOM     84  C   UNL A   1      49.480  26.868  28.673  1.00  0.00     0.135 A 
ATOM     85  C   UNL A   1      49.171  27.577  26.393  1.00  0.00     0.135 A 
ATOM     86  F   UNL A   1      49.029  26.712  29.927  1.00  0.00    -0.206 F 
ATOM     87  C   UNL A   1      50.778  26.465  28.379  1.00  0.00     0.059 A 
ATOM     88  C   UNL A   1      50.459  27.163  26.074  1.00  0.00     0.059 A 
ATOM     89  F   UNL A   1      48.410  28.100  25.417  1.00  0.00    -0.206 F 
ATOM     90  C   UNL A   1      51.255  26.607  27.073  1.00  0.00     0.060 A 
BRANCH  90  91
ATOM     91  S   UNL A   1      52.908  25.995  26.682  1.00  0.00     0.124 S 
ATOM     92  O   UNL A   1      52.610  24.683  26.118  1.00  0.00    -0.237 OA
ATOM     93  O   UNL A   1      53.398  26.994  25.738  1.00  0.00    -0.237 OA
ATOM     94  O   UNL A   1      53.580  25.983  27.978  1.00  0.00    -0.744 OA
ENDBRANCH  90  91
ENDBRANCH  58  83
ENDBRANCH  32  33
ENDBRANCH  25  27
ENDBRANCH  24  25
ENDBRANCH  23  24
ENDBRANCH   1  23
TORSDOF 21
ENDMDL
MODEL 2
REMARK VINA RESULT:     -10.5      2.700      4.061
REMARK SMILES CCCC[C@@H](C(=O)OCCOC(=O)c1ccc(-c2c3nc(c(-c4c(F)cc(S(=O)(=O)[O-])cc4F)c4ccc([nH]4)c(-c4c(F)cc(S(=O)(=O)[O-])cc4F)c4nc(c(-c5c(F)cc(S(=O)(=O)[O-])cc5F)c5ccc2[nH]5)C=C4)C=C3)cc1)[C@@H](O)c1cccc(C(F)(F)F)c1
REMARK SMILES IDX 9 1 8 2 6 3 7 4 5 5 4 6 3 7 2 8 1 9 80 10 81 11 82 13 83 14
REMARK SMILES IDX 91 15 84 16 86 17 85 18 87 19 88 20 89 21 90 22 10 23 11 24
REMARK SMILES IDX 12 25 13 26 14 27 15 28 79 29 16 30 78 31 17 32 18 33 19 34
REMARK SMILES IDX 72 35 20 36 77 37 71 38 73 39 21 40 76 41 70 42 69 43 22 45
REMARK SMILES IDX 56 46 35 47 55 48 36 49 39 50 54 51 74 52 37 53 38 54 53 56
REMARK SMILES IDX 75 57 40 58 23 59 24 60 33 61 25 62 26 63 32 64 34 65 27 66
REMARK SMILES IDX 28 67 29 68 30 69 31 70 57 71 58 72 67 73 59 74 60 75 66 76
REMARK SMILES IDX 68 77 61 78 62 79 63 80 64 81 65 82 41 83 42 84 51 85 43 86
REMARK SMILES IDX 44 87 50 88 52 89 45 90 46 91 47 92 48 93 49 94
REMARK H PARENT 81 12 73 44 39 55
REMARK Flexibility Score: inf
ROOT
ATOM      1  C   UNL A   1      32.440  27.687  25.512  1.00  0.00     0.274 C 
ENDROOT
BRANCH   1   2
ATOM      2  O   UNL A   1      32.274  26.713  26.563  1.00  0.00    -0.462 OA
BRANCH   2   3
ATOM      3  C   UNL A   1      31.360  25.732  26.327  1.00  0.00     0.312 C 
ATOM      4  O   UNL A   1      30.213  25.798  26.743  1.00  0.00    -0.252 OA
BRANCH   3   5
ATOM      5  C   UNL A   1      31.965  24.533  25.590  1.00  0.00     0.132 C 
BRANCH   5   6
ATOM      6  C   UNL A   1      30.914  23.891  24.634  1.00  0.00     0.018 C 
BRANCH   6   7
ATOM      7  C   UNL A   1      31.226  23.910  23.130  1.00  0.00     0.001 C 
BRANCH   7   8
ATOM      8  C   UNL A   1      32.524  23.219  22.710  1.00  0.00    -0.003 C 
ATOM      9  C   UNL A   1      32.349  21.741  22.398  1.00  0.00     0.004 C 
ENDBRANCH   7   8
ENDBRANCH   6   7
ENDBRANCH   5   6
BRANCH   5  10
ATOM     10  C   UNL A   1      32.487  23.423  26.557  1.00  0.00     0.158 C 
BRANCH  10  11
ATOM     11  O   UNL A   1      31.344  22.789  27.161  1.00  0.00    -0.388 OA
ATOM     12  H   UNL A   1      30.933  22.186  26.522  1.00  0.00     0.211 HD
ENDBRANCH  10  11
BRANCH  10  13
ATOM     13  C   UNL A   1      33.354  22.266  26.080  1.00  0.00    -0.018 A 
ATOM     14  C   UNL A   1      32.906  20.947  25.946  1.00  0.00     0.006 A 
ATOM     15  C   UNL A   1      34.693  22.537  25.725  1.00  0.00     0.019 A 
ATOM     16  C   UNL A   1      33.718  19.963  25.375  1.00  0.00     0.001 A 
ATOM     17  C   UNL A   1      35.542  21.543  25.205  1.00  0.00     0.056 A 
ATOM     18  C   UNL A   1      35.026  20.259  25.000  1.00  0.00     0.013 A 
BRANCH  17  19
ATOM     19  C   UNL A   1      36.992  21.825  24.891  1.00  0.00     0.416 C 
ATOM     20  F   UNL A   1      37.188  23.120  24.508  1.00  0.00    -0.166 F 
ATOM     21  F   UNL A   1      37.811  21.618  25.955  1.00  0.00    -0.166 F 
ATOM     22  F   UNL A   1      37.485  21.062  23.875  1.00  0.00    -0.166 F 
ENDBRANCH  17  19
ENDBRANCH  10  13
ENDBRANCH   5  10
ENDBRANCH   3   5
ENDBRANCH   2   3
ENDBRANCH   1   2
BRANCH   1  23
ATOM     23  C   UNL A   1      32.989  29.028  26.016  1.00  0.00     0.275 C 
BRANCH  23  24
ATOM     24  O   UNL A   1      33.926  28.868  27.097  1.00  0.00    -0.458 OA
BRANCH  24  25
ATOM     25  C   UNL A   1      34.310  30.014  27.702  1.00  0.00     0.338 C 
ATOM     26  O   UNL A   1      33.601  30.961  28.000  1.00  0.00    -0.246 OA
BRANCH  25  27
ATOM     27  C   UNL A   1      35.725  29.937  28.100  1.00  0.00     0.060 A 
ATOM     28  C   UNL A   1      36.687  30.078  27.101  1.00  0.00     0.016 A 
ATOM     29  C   UNL A   1      36.106  29.586  29.391  1.00  0.00     0.016 A 
ATOM     30  C   UNL A   1      38.030  29.841  27.357  1.00  0.00     0.010 A 
ATOM     31  C   UNL A   1      37.464  29.370  29.661  1.00  0.00     0.010 A 
ATOM     32  C   UNL A   1      38.432  29.476  28.641  1.00  0.00    -0.014 A 
BRANCH  32  33
ATOM     33  C   UNL A   1      39.842  29.104  28.898  1.00  0.00     0.031 A 
ATOM     34  C   UNL A   1      40.783  30.153  29.416  1.00  0.00     0.074 A 
ATOM     35  C   UNL A   1      40.277  27.846  28.697  1.00  0.00     0.049 A 
ATOM     36  N   UNL A   1      42.088  30.151  29.452  1.00  0.00    -0.248 NA
ATOM     37  C   UNL A   1      40.165  31.372  29.965  1.00  0.00     0.031 C 
ATOM     38  C   UNL A   1      39.439  26.705  28.324  1.00  0.00     0.029 A 
ATOM     39  N   UNL A   1      41.544  27.321  28.768  1.00  0.00    -0.354 N 
ATOM     40  C   UNL A   1      42.452  31.387  29.968  1.00  0.00     0.074 A 
ATOM     41  C   UNL A   1      41.229  32.108  30.251  1.00  0.00     0.031 C 
ATOM     42  C   UNL A   1      40.216  25.619  28.187  1.00  0.00     0.029 A 
ATOM     43  C   UNL A   1      41.610  26.005  28.375  1.00  0.00     0.049 A 
ATOM     44  H   UNL A   1      42.326  27.835  29.070  1.00  0.00     0.167 HD
ATOM     45  C   UNL A   1      43.698  31.877  30.167  1.00  0.00     0.037 A 
ATOM     46  C   UNL A   1      42.679  25.223  28.126  1.00  0.00     0.037 A 
ATOM     47  C   UNL A   1      44.898  31.127  29.909  1.00  0.00     0.049 A 
ATOM     48  C   UNL A   1      44.059  25.806  28.277  1.00  0.00     0.074 A 
ATOM     49  C   UNL A   1      46.214  31.533  30.035  1.00  0.00     0.029 A 
ATOM     50  N   UNL A   1      44.923  29.804  29.489  1.00  0.00    -0.354 N 
ATOM     51  N   UNL A   1      44.404  27.014  28.659  1.00  0.00    -0.248 NA
ATOM     52  C   UNL A   1      45.193  24.937  27.938  1.00  0.00     0.031 C 
ATOM     53  C   UNL A   1      47.035  30.464  29.664  1.00  0.00     0.029 A 
ATOM     54  C   UNL A   1      46.231  29.380  29.347  1.00  0.00     0.049 A 
ATOM     55  H   UNL A   1      44.128  29.250  29.318  1.00  0.00     0.167 HD
ATOM     56  C   UNL A   1      45.793  27.040  28.631  1.00  0.00     0.074 A 
ATOM     57  C   UNL A   1      46.227  25.728  28.194  1.00  0.00     0.031 C 
ATOM     58  C   UNL A   1      46.635  28.056  28.939  1.00  0.00     0.037 A 
BRANCH  45  59
ATOM     59  C   UNL A   1      43.821  33.303  30.621  1.00  0.00     0.058 A 
ATOM     60  C   UNL A   1      43.867  34.374  29.716  1.00  0.00     0.135 A 
ATOM     61  C   UNL A   1      43.885  33.600  31.992  1.00  0.00     0.135 A 
ATOM     62  F   UNL A   1      43.833  34.144  28.393  1.00  0.00    -0.206 F 
ATOM     63  C   UNL A   1      43.997  35.689  30.154  1.00  0.00     0.059 A 
ATOM     64  C   UNL A   1      43.992  34.907  32.454  1.00  0.00     0.059 A 
ATOM     65  F   UNL A   1      43.851  32.611  32.899  1.00  0.00    -0.206 F 
ATOM     66  C   UNL A   1      44.063  35.945  31.526  1.00  0.00     0.060 A 
BRANCH  66  67
ATOM     67  S   UNL A   1      44.245  37.652  32.083  1.00  0.00     0.124 S 
ATOM     68  O   UNL A   1      45.677  37.716  32.361  1.00  0.00    -0.237 OA
ATOM     69  O   UNL A   1      43.792  38.412  30.922  1.00  0.00    -0.237 OA
ATOM     70  O   UNL A   1      43.375  37.723  33.253  1.00  0.00    -0.744 OA
ENDBRANCH  66  67
ENDBRANCH  45  59
BRANCH  46  71
ATOM     71  C   UNL A   1      42.483  23.832  27.639  1.00  0.00     0.058 A 
ATOM     72  C   UNL A   1      42.309  23.556  26.275  1.00  0.00     0.135 A 
ATOM     73  C   UNL A   1      42.479  22.745  28.530  1.00  0.00     0.135 A 
ATOM     74  F   UNL A   1      42.289  24.560  25.386  1.00  0.00    -0.206 F 
ATOM     75  C   UNL A   1      42.132  22.255  25.812  1.00  0.00     0.059 A 
ATOM     76  C   UNL A   1      42.329  21.435  28.088  1.00  0.00     0.059 A 
ATOM     77  F   UNL A   1      42.647  22.952  29.846  1.00  0.00    -0.206 F 
ATOM     78  C   UNL A   1      42.147  21.201  26.726  1.00  0.00     0.060 A 
BRANCH  78  79
ATOM     79  S   UNL A   1      41.966  19.510  26.114  1.00  0.00     0.124 S 
ATOM     80  O   UNL A   1      42.907  19.500  25.000  1.00  0.00    -0.237 OA
ATOM     81  O   UNL A   1      42.347  18.717  27.279  1.00  0.00    -0.237 OA
ATOM     82  O   UNL A   1      40.554  19.435  25.750  1.00  0.00    -0.744 OA
ENDBRANCH  78  79
ENDBRANCH  46  71
BRANCH  58  83
ATOM     83  C   UNL A   1      48.110  27.786  28.875  1.00  0.00     0.058 A 
ATOM     84  C   UNL A   1      48.844  27.990  27.699  1.00  0.00     0.135 A 
ATOM     85  C   UNL A   1      48.809  27.430  30.040  1.00  0.00     0.135 A 
ATOM     86  F   UNL A   1      48.218  28.324  26.561  1.00  0.00    -0.206 F 
ATOM     87  C   UNL A   1      50.228  27.854  27.680  1.00  0.00     0.059 A 
ATOM     88  C   UNL A   1      50.193  27.307  30.048  1.00  0.00     0.059 A 
ATOM     89  F   UNL A   1      48.147  27.232  31.192  1.00  0.00    -0.206 F 
ATOM     90  C   UNL A   1      50.895  27.523  28.863  1.00  0.00     0.060 A 
BRANCH  90  91
ATOM     91  S   UNL A   1      52.699  27.440  28.848  1.00  0.00     0.124 S 
ATOM     92  O   UNL A   1      52.988  27.587  27.425  1.00  0.00    -0.237 OA
ATOM     93  O   UNL A   1      53.072  28.572  29.689  1.00  0.00    -0.237 OA
ATOM     94  O   UNL A   1      52.983  26.126  29.414  1.00  0.00    -0.744 OA
ENDBRANCH  90  91
ENDBRANCH  58  83
ENDBRANCH  32  33
ENDBRANCH  25  27
ENDBRANCH  24  25
ENDBRANCH  23  24
ENDBRANCH   1  23
TORSDOF 21
ENDMDL
MODEL 3
REMARK VINA RESULT:     -10.3      4.339      9.912
REMARK SMILES CCCC[C@@H](C(=O)OCCOC(=O)c1ccc(-c2c3nc(c(-c4c(F)cc(S(=O)(=O)[O-])cc4F)c4ccc([nH]4)c(-c4c(F)cc(S(=O)(=O)[O-])cc4F)c4nc(c(-c5c(F)cc(S(=O)(=O)[O-])cc5F)c5ccc2[nH]5)C=C4)C=C3)cc1)[C@@H](O)c1cccc(C(F)(F)F)c1
REMARK SMILES IDX 9 1 8 2 6 3 7 4 5 5 4 6 3 7 2 8 1 9 80 10 81 11 82 13 83 14
REMARK SMILES IDX 91 15 84 16 86 17 85 18 87 19 88 20 89 21 90 22 10 23 11 24
REMARK SMILES IDX 12 25 13 26 14 27 15 28 79 29 16 30 78 31 17 32 18 33 19 34
REMARK SMILES IDX 72 35 20 36 77 37 71 38 73 39 21 40 76 41 70 42 69 43 22 45
REMARK SMILES IDX 56 46 35 47 55 48 36 49 39 50 54 51 74 52 37 53 38 54 53 56
REMARK SMILES IDX 75 57 40 58 23 59 24 60 33 61 25 62 26 63 32 64 34 65 27 66
REMARK SMILES IDX 28 67 29 68 30 69 31 70 57 71 58 72 67 73 59 74 60 75 66 76
REMARK SMILES IDX 68 77 61 78 62 79 63 80 64 81 65 82 41 83 42 84 51 85 43 86
REMARK SMILES IDX 44 87 50 88 52 89 45 90 46 91 47 92 48 93 49 94
REMARK H PARENT 81 12 73 44 39 55
REMARK Flexibility Score: inf
ROOT
ATOM      1  C   UNL A   1      35.762  23.315  23.376  1.00  0.00     0.274 C 
ENDROOT
BRANCH   1   2
ATOM      2  O   UNL A   1      34.330  23.148  23.431  1.00  0.00    -0.462 OA
BRANCH   2   3
ATOM      3  C   UNL A   1      33.592  24.283  23.289  1.00  0.00     0.312 C 
ATOM      4  O   UNL A   1      34.005  25.254  22.672  1.00  0.00    -0.252 OA
BRANCH   3   5
ATOM      5  C   UNL A   1      32.271  24.225  24.062  1.00  0.00     0.132 C 
BRANCH   5   6
ATOM      6  C   UNL A   1      31.713  22.769  24.085  1.00  0.00     0.018 C 
BRANCH   6   7
ATOM      7  C   UNL A   1      31.621  22.071  25.450  1.00  0.00     0.001 C 
BRANCH   7   8
ATOM      8  C   UNL A   1      31.286  22.974  26.638  1.00  0.00    -0.003 C 
ATOM      9  C   UNL A   1      29.810  22.972  27.002  1.00  0.00     0.004 C 
ENDBRANCH   7   8
ENDBRANCH   6   7
ENDBRANCH   5   6
BRANCH   5  10
ATOM     10  C   UNL A   1      31.172  25.160  23.465  1.00  0.00     0.158 C 
BRANCH  10  11
ATOM     11  O   UNL A   1      29.888  24.584  23.770  1.00  0.00    -0.388 OA
ATOM     12  H   UNL A   1      29.252  25.292  23.955  1.00  0.00     0.211 HD
ENDBRANCH  10  11
BRANCH  10  13
ATOM     13  C   UNL A   1      31.036  26.622  23.866  1.00  0.00    -0.018 A 
ATOM     14  C   UNL A   1      31.672  27.200  24.970  1.00  0.00     0.006 A 
ATOM     15  C   UNL A   1      30.235  27.463  23.062  1.00  0.00     0.019 A 
ATOM     16  C   UNL A   1      31.609  28.578  25.199  1.00  0.00     0.001 A 
ATOM     17  C   UNL A   1      30.113  28.841  23.317  1.00  0.00     0.056 A 
ATOM     18  C   UNL A   1      30.840  29.395  24.376  1.00  0.00     0.013 A 
BRANCH  17  19
ATOM     19  C   UNL A   1      29.201  29.720  22.494  1.00  0.00     0.416 C 
ATOM     20  F   UNL A   1      29.821  30.190  21.373  1.00  0.00    -0.166 F 
ATOM     21  F   UNL A   1      28.088  29.070  22.066  1.00  0.00    -0.166 F 
ATOM     22  F   UNL A   1      28.766  30.825  23.163  1.00  0.00    -0.166 F 
ENDBRANCH  17  19
ENDBRANCH  10  13
ENDBRANCH   5  10
ENDBRANCH   3   5
ENDBRANCH   2   3
ENDBRANCH   1   2
BRANCH   1  23
ATOM     23  C   UNL A   1      36.474  22.818  24.640  1.00  0.00     0.275 C 
BRANCH  23  24
ATOM     24  O   UNL A   1      37.426  23.772  25.148  1.00  0.00    -0.458 OA
BRANCH  24  25
ATOM     25  C   UNL A   1      38.490  23.240  25.791  1.00  0.00     0.338 C 
ATOM     26  O   UNL A   1      38.943  22.115  25.656  1.00  0.00    -0.246 OA
BRANCH  25  27
ATOM     27  C   UNL A   1      39.154  24.261  26.617  1.00  0.00     0.060 A 
ATOM     28  C   UNL A   1      38.818  24.320  27.969  1.00  0.00     0.016 A 
ATOM     29  C   UNL A   1      39.975  25.236  26.058  1.00  0.00     0.016 A 
ATOM     30  C   UNL A   1      39.259  25.359  28.775  1.00  0.00     0.010 A 
ATOM     31  C   UNL A   1      40.444  26.274  26.875  1.00  0.00     0.010 A 
ATOM     32  C   UNL A   1      40.071  26.354  28.232  1.00  0.00    -0.014 A 
BRANCH  32  33
ATOM     33  C   UNL A   1      40.449  27.529  29.050  1.00  0.00     0.031 A 
ATOM     34  C   UNL A   1      41.729  27.484  29.833  1.00  0.00     0.074 A 
ATOM     35  C   UNL A   1      39.678  28.632  29.080  1.00  0.00     0.049 A 
ATOM     36  N   UNL A   1      42.128  28.248  30.813  1.00  0.00    -0.248 NA
ATOM     37  C   UNL A   1      42.687  26.430  29.459  1.00  0.00     0.031 C 
ATOM     38  C   UNL A   1      38.482  28.856  28.265  1.00  0.00     0.029 A 
ATOM     39  N   UNL A   1      39.783  29.771  29.839  1.00  0.00    -0.354 N 
ATOM     40  C   UNL A   1      43.353  27.733  31.216  1.00  0.00     0.074 A 
ATOM     41  C   UNL A   1      43.643  26.602  30.360  1.00  0.00     0.031 C 
ATOM     42  C   UNL A   1      37.958  30.053  28.578  1.00  0.00     0.029 A 
ATOM     43  C   UNL A   1      38.727  30.636  29.671  1.00  0.00     0.049 A 
ATOM     44  H   UNL A   1      40.539  29.951  30.442  1.00  0.00     0.167 HD
ATOM     45  C   UNL A   1      44.149  28.160  32.224  1.00  0.00     0.037 A 
ATOM     46  C   UNL A   1      38.382  31.736  30.371  1.00  0.00     0.037 A 
ATOM     47  C   UNL A   1      43.855  29.308  33.039  1.00  0.00     0.049 A 
ATOM     48  C   UNL A   1      39.236  32.154  31.538  1.00  0.00     0.074 A 
ATOM     49  C   UNL A   1      44.566  29.810  34.113  1.00  0.00     0.029 A 
ATOM     50  N   UNL A   1      42.763  30.144  32.853  1.00  0.00    -0.354 N 
ATOM     51  N   UNL A   1      40.337  31.600  31.991  1.00  0.00    -0.248 NA
ATOM     52  C   UNL A   1      38.791  33.323  32.308  1.00  0.00     0.031 C 
ATOM     53  C   UNL A   1      43.889  30.935  34.595  1.00  0.00     0.029 A 
ATOM     54  C   UNL A   1      42.779  31.157  33.795  1.00  0.00     0.049 A 
ATOM     55  H   UNL A   1      42.079  30.034  32.154  1.00  0.00     0.167 HD
ATOM     56  C   UNL A   1      40.730  32.369  33.081  1.00  0.00     0.074 A 
ATOM     57  C   UNL A   1      39.748  33.426  33.221  1.00  0.00     0.031 C 
ATOM     58  C   UNL A   1      41.804  32.215  33.892  1.00  0.00     0.037 A 
BRANCH  45  59
ATOM     59  C   UNL A   1      45.370  27.345  32.540  1.00  0.00     0.058 A 
ATOM     60  C   UNL A   1      45.313  26.189  33.331  1.00  0.00     0.135 A 
ATOM     61  C   UNL A   1      46.621  27.728  32.027  1.00  0.00     0.135 A 
ATOM     62  F   UNL A   1      44.146  25.792  33.865  1.00  0.00    -0.206 F 
ATOM     63  C   UNL A   1      46.458  25.454  33.626  1.00  0.00     0.059 A 
ATOM     64  C   UNL A   1      47.774  26.997  32.290  1.00  0.00     0.059 A 
ATOM     65  F   UNL A   1      46.731  28.830  31.269  1.00  0.00    -0.206 F 
ATOM     66  C   UNL A   1      47.686  25.869  33.104  1.00  0.00     0.060 A 
BRANCH  66  67
ATOM     67  S   UNL A   1      49.166  24.916  33.503  1.00  0.00     0.124 S 
ATOM     68  O   UNL A   1      48.591  23.757  34.180  1.00  0.00    -0.237 OA
ATOM     69  O   UNL A   1      49.740  24.660  32.187  1.00  0.00    -0.237 OA
ATOM     70  O   UNL A   1      49.934  25.821  34.353  1.00  0.00    -0.744 OA
ENDBRANCH  66  67
ENDBRANCH  45  59
BRANCH  46  71
ATOM     71  C   UNL A   1      37.136  32.472  30.029  1.00  0.00     0.058 A 
ATOM     72  C   UNL A   1      35.913  32.152  30.636  1.00  0.00     0.135 A 
ATOM     73  C   UNL A   1      37.146  33.522  29.095  1.00  0.00     0.135 A 
ATOM     74  F   UNL A   1      35.848  31.148  31.523  1.00  0.00    -0.206 F 
ATOM     75  C   UNL A   1      34.744  32.842  30.327  1.00  0.00     0.059 A 
ATOM     76  C   UNL A   1      35.997  34.242  28.788  1.00  0.00     0.059 A 
ATOM     77  F   UNL A   1      38.292  33.873  28.489  1.00  0.00    -0.206 F 
ATOM     78  C   UNL A   1      34.797  33.887  29.403  1.00  0.00     0.060 A 
BRANCH  78  79
ATOM     79  S   UNL A   1      33.286  34.811  29.042  1.00  0.00     0.124 S 
ATOM     80  O   UNL A   1      32.636  34.832  30.347  1.00  0.00    -0.237 OA
ATOM     81  O   UNL A   1      33.811  36.089  28.569  1.00  0.00    -0.237 OA
ATOM     82  O   UNL A   1      32.632  33.996  28.022  1.00  0.00    -0.744 OA
ENDBRANCH  78  79
ENDBRANCH  46  71
BRANCH  58  83
ATOM     83  C   UNL A   1      42.018  33.238  34.969  1.00  0.00     0.058 A 
ATOM     84  C   UNL A   1      42.764  34.403  34.740  1.00  0.00     0.135 A 
ATOM     85  C   UNL A   1      41.371  33.099  36.208  1.00  0.00     0.135 A 
ATOM     86  F   UNL A   1      43.405  34.575  33.574  1.00  0.00    -0.206 F 
ATOM     87  C   UNL A   1      42.857  35.402  35.702  1.00  0.00     0.059 A 
ATOM     88  C   UNL A   1      41.436  34.094  37.177  1.00  0.00     0.059 A 
ATOM     89  F   UNL A   1      40.640  32.003  36.469  1.00  0.00    -0.206 F 
ATOM     90  C   UNL A   1      42.181  35.242  36.915  1.00  0.00     0.060 A 
BRANCH  90  91
ATOM     91  S   UNL A   1      42.233  36.586  38.120  1.00  0.00     0.124 S 
ATOM     92  O   UNL A   1      43.125  37.536  37.463  1.00  0.00    -0.237 OA
ATOM     93  O   UNL A   1      40.832  36.987  38.205  1.00  0.00    -0.237 OA
ATOM     94  O   UNL A   1      42.769  35.946  39.318  1.00  0.00    -0.744 OA
ENDBRANCH  90  91
ENDBRANCH  58  83
ENDBRANCH  32  33
ENDBRANCH  25  27
ENDBRANCH  24  25
ENDBRANCH  23  24
ENDBRANCH   1  23
TORSDOF 21
ENDMDL
