MODEL 1
REMARK VINA RESULT:     -10.2      0.000      0.000
REMARK SMILES CC[NH2+][C@]1(C(=O)OCCOC(=O)c2ccc(-c3c4nc(c(-c5c(F)cc(S(=O)(=O)[O-])cc5F)c5ccc([nH]5)c(-c5c(F)cc(S(=O)(=O)[O-])cc5F)c5nc(c(-c6c(F)cc(S(=O)(=O)[O-])cc6F)c6ccc3[nH]6)C=C5)C=C4)cc2)CC[C@@H]([N@@H+](C)CC(C)(C)C)C1
REMARK SMILES IDX 8 1 7 2 5 3 6 4 4 5 79 6 89 7 80 8 81 9 3 10 2 13 1 14 82 15
REMARK SMILES IDX 83 16 84 18 85 19 86 20 87 21 88 22 9 23 10 24 11 25 12 26
REMARK SMILES IDX 13 27 14 28 78 29 15 30 77 31 16 32 17 33 18 34 71 35 19 36
REMARK SMILES IDX 76 37 70 38 72 39 20 40 75 41 69 42 68 43 21 45 55 46 34 47
REMARK SMILES IDX 54 48 35 49 38 50 53 51 73 52 36 53 37 54 52 56 74 57 39 58
REMARK SMILES IDX 22 59 23 60 32 61 24 62 25 63 31 64 33 65 26 66 27 67 28 68
REMARK SMILES IDX 29 69 30 70 56 71 57 72 66 73 58 74 59 75 65 76 67 77 60 78
REMARK SMILES IDX 61 79 62 80 63 81 64 82 40 83 41 84 50 85 42 86 43 87 49 88
REMARK SMILES IDX 51 89 44 90 45 91 46 92 47 93 48 94
REMARK H PARENT 3 11 3 12 82 17 72 44 38 55
REMARK Flexibility Score: inf
ROOT
ATOM      1  C   UNL A   1      33.022  30.409  27.238  1.00  0.00     0.274 C 
ENDROOT
BRANCH   1   2
ATOM      2  O   UNL A   1      33.360  29.392  26.271  1.00  0.00    -0.457 OA
BRANCH   2   3
ATOM      3  C   UNL A   1      32.370  28.505  25.971  1.00  0.00     0.368 C 
ATOM      4  O   UNL A   1      31.530  28.137  26.787  1.00  0.00    -0.245 OA
BRANCH   3   5
ATOM      5  C   UNL A   1      32.422  27.981  24.500  1.00  0.00     0.200 C 
ATOM      6  C   UNL A   1      33.835  27.526  24.108  1.00  0.00     0.087 C 
ATOM      7  C   UNL A   1      31.646  26.656  24.272  1.00  0.00     0.146 C 
ATOM      8  C   UNL A   1      33.628  26.729  22.832  1.00  0.00     0.072 C 
ATOM      9  C   UNL A   1      32.386  25.902  23.132  1.00  0.00     0.191 C 
BRANCH   5  10
ATOM     10  N   UNL A   1      31.887  29.047  23.587  1.00  0.00    -0.332 N 
ATOM     11  H   UNL A   1      32.385  29.915  23.778  1.00  0.00     0.347 HD
ATOM     12  H   UNL A   1      32.027  28.722  22.631  1.00  0.00     0.347 HD
BRANCH  10  13
ATOM     13  C   UNL A   1      30.441  29.291  23.756  1.00  0.00     0.257 C 
ATOM     14  C   UNL A   1      29.695  29.166  22.438  1.00  0.00     0.071 C 
ENDBRANCH  10  13
ENDBRANCH   5  10
BRANCH   9  15
ATOM     15  N   UNL A   1      32.643  24.480  23.387  1.00  0.00    -0.334 N 
ATOM     16  C   UNL A   1      33.057  23.760  22.193  1.00  0.00     0.332 C 
ATOM     17  H   UNL A   1      31.694  24.209  23.642  1.00  0.00     0.348 HD
BRANCH  15  18
ATOM     18  C   UNL A   1      33.190  23.985  24.660  1.00  0.00     0.268 C 
BRANCH  18  19
ATOM     19  C   UNL A   1      32.599  22.844  25.588  1.00  0.00     0.011 C 
ATOM     20  C   UNL A   1      31.081  22.652  25.451  1.00  0.00     0.017 C 
ATOM     21  C   UNL A   1      33.229  21.507  25.108  1.00  0.00     0.017 C 
ATOM     22  C   UNL A   1      32.927  22.991  27.079  1.00  0.00     0.017 C 
ENDBRANCH  18  19
ENDBRANCH  15  18
ENDBRANCH   9  15
ENDBRANCH   3   5
ENDBRANCH   2   3
ENDBRANCH   1   2
BRANCH   1  23
ATOM     23  C   UNL A   1      34.280  31.098  27.759  1.00  0.00     0.275 C 
BRANCH  23  24
ATOM     24  O   UNL A   1      35.142  30.113  28.346  1.00  0.00    -0.458 OA
BRANCH  24  25
ATOM     25  C   UNL A   1      36.073  30.587  29.208  1.00  0.00     0.338 C 
ATOM     26  O   UNL A   1      35.893  31.392  30.104  1.00  0.00    -0.246 OA
BRANCH  25  27
ATOM     27  C   UNL A   1      37.377  29.940  28.938  1.00  0.00     0.060 A 
ATOM     28  C   UNL A   1      38.155  29.463  29.992  1.00  0.00     0.016 A 
ATOM     29  C   UNL A   1      37.889  29.912  27.642  1.00  0.00     0.016 A 
ATOM     30  C   UNL A   1      39.479  29.083  29.775  1.00  0.00     0.010 A 
ATOM     31  C   UNL A   1      39.177  29.410  27.410  1.00  0.00     0.010 A 
ATOM     32  C   UNL A   1      40.009  29.030  28.479  1.00  0.00    -0.014 A 
BRANCH  32  33
ATOM     33  C   UNL A   1      41.430  28.625  28.259  1.00  0.00     0.031 A 
ATOM     34  C   UNL A   1      42.547  29.630  28.424  1.00  0.00     0.074 A 
ATOM     35  C   UNL A   1      41.742  27.349  27.943  1.00  0.00     0.049 A 
ATOM     36  N   UNL A   1      43.813  29.519  28.109  1.00  0.00    -0.248 NA
ATOM     37  C   UNL A   1      42.192  30.937  29.001  1.00  0.00     0.031 C 
ATOM     38  C   UNL A   1      40.784  26.252  27.778  1.00  0.00     0.029 A 
ATOM     39  N   UNL A   1      42.960  26.752  27.721  1.00  0.00    -0.354 N 
ATOM     40  C   UNL A   1      44.389  30.753  28.387  1.00  0.00     0.074 A 
ATOM     41  C   UNL A   1      43.335  31.602  28.899  1.00  0.00     0.031 C 
ATOM     42  C   UNL A   1      41.451  25.111  27.546  1.00  0.00     0.029 A 
ATOM     43  C   UNL A   1      42.875  25.405  27.452  1.00  0.00     0.049 A 
ATOM     44  H   UNL A   1      43.813  27.241  27.753  1.00  0.00     0.167 HD
ATOM     45  C   UNL A   1      45.676  31.146  28.229  1.00  0.00     0.037 A 
ATOM     46  C   UNL A   1      43.827  24.508  27.128  1.00  0.00     0.037 A 
ATOM     47  C   UNL A   1      46.744  30.284  27.789  1.00  0.00     0.049 A 
ATOM     48  C   UNL A   1      45.250  24.963  26.978  1.00  0.00     0.074 A 
ATOM     49  C   UNL A   1      48.078  30.597  27.588  1.00  0.00     0.029 A 
ATOM     50  N   UNL A   1      46.608  28.932  27.517  1.00  0.00    -0.354 N 
ATOM     51  N   UNL A   1      45.753  26.162  27.148  1.00  0.00    -0.248 NA
ATOM     52  C   UNL A   1      46.231  23.949  26.565  1.00  0.00     0.031 C 
ATOM     53  C   UNL A   1      48.747  29.436  27.182  1.00  0.00     0.029 A 
ATOM     54  C   UNL A   1      47.834  28.395  27.159  1.00  0.00     0.049 A 
ATOM     55  H   UNL A   1      45.765  28.427  27.571  1.00  0.00     0.167 HD
ATOM     56  C   UNL A   1      47.107  26.047  26.855  1.00  0.00     0.074 A 
ATOM     57  C   UNL A   1      47.351  24.657  26.532  1.00  0.00     0.031 C 
ATOM     58  C   UNL A   1      48.059  27.011  26.836  1.00  0.00     0.037 A 
BRANCH  45  59
ATOM     59  C   UNL A   1      46.010  32.583  28.517  1.00  0.00     0.058 A 
ATOM     60  C   UNL A   1      46.446  33.003  29.782  1.00  0.00     0.135 A 
ATOM     61  C   UNL A   1      45.946  33.542  27.493  1.00  0.00     0.135 A 
ATOM     62  F   UNL A   1      46.506  32.131  30.800  1.00  0.00    -0.206 F 
ATOM     63  C   UNL A   1      46.796  34.329  30.026  1.00  0.00     0.059 A 
ATOM     64  C   UNL A   1      46.311  34.868  27.708  1.00  0.00     0.059 A 
ATOM     65  F   UNL A   1      45.534  33.192  26.263  1.00  0.00    -0.206 F 
ATOM     66  C   UNL A   1      46.726  35.253  28.982  1.00  0.00     0.060 A 
BRANCH  66  67
ATOM     67  S   UNL A   1      47.206  36.964  29.304  1.00  0.00     0.124 S 
ATOM     68  O   UNL A   1      46.001  37.685  28.904  1.00  0.00    -0.237 OA
ATOM     69  O   UNL A   1      47.487  36.948  30.737  1.00  0.00    -0.237 OA
ATOM     70  O   UNL A   1      48.369  37.158  28.444  1.00  0.00    -0.744 OA
ENDBRANCH  66  67
ENDBRANCH  45  59
BRANCH  46  71
ATOM     71  C   UNL A   1      43.460  23.090  26.870  1.00  0.00     0.058 A 
ATOM     72  C   UNL A   1      43.156  22.220  27.927  1.00  0.00     0.135 A 
ATOM     73  C   UNL A   1      43.417  22.576  25.565  1.00  0.00     0.135 A 
ATOM     74  F   UNL A   1      43.196  22.662  29.193  1.00  0.00    -0.206 F 
ATOM     75  C   UNL A   1      42.838  20.884  27.702  1.00  0.00     0.059 A 
ATOM     76  C   UNL A   1      43.076  21.252  25.313  1.00  0.00     0.059 A 
ATOM     77  F   UNL A   1      43.689  23.372  24.520  1.00  0.00    -0.206 F 
ATOM     78  C   UNL A   1      42.803  20.410  26.390  1.00  0.00     0.060 A 
BRANCH  78  79
ATOM     79  S   UNL A   1      42.347  18.687  26.089  1.00  0.00     0.124 S 
ATOM     80  O   UNL A   1      42.578  18.092  27.400  1.00  0.00    -0.237 OA
ATOM     81  O   UNL A   1      40.951  18.799  25.675  1.00  0.00    -0.237 OA
ATOM     82  O   UNL A   1      43.273  18.282  25.036  1.00  0.00    -0.744 OA
ENDBRANCH  78  79
ENDBRANCH  46  71
BRANCH  58  83
ATOM     83  C   UNL A   1      49.449  26.582  26.466  1.00  0.00     0.058 A 
ATOM     84  C   UNL A   1      49.916  26.687  25.147  1.00  0.00     0.135 A 
ATOM     85  C   UNL A   1      50.317  26.055  27.433  1.00  0.00     0.135 A 
ATOM     86  F   UNL A   1      49.119  27.179  24.185  1.00  0.00    -0.206 F 
ATOM     87  C   UNL A   1      51.189  26.252  24.792  1.00  0.00     0.059 A 
ATOM     88  C   UNL A   1      51.601  25.631  27.104  1.00  0.00     0.059 A 
ATOM     89  F   UNL A   1      49.918  25.941  28.710  1.00  0.00    -0.206 F 
ATOM     90  C   UNL A   1      52.020  25.716  25.776  1.00  0.00     0.060 A 
BRANCH  90  91
ATOM     91  S   UNL A   1      53.668  25.144  25.309  1.00  0.00     0.124 S 
ATOM     92  O   UNL A   1      53.790  25.677  23.957  1.00  0.00    -0.237 OA
ATOM     93  O   UNL A   1      54.519  25.769  26.317  1.00  0.00    -0.237 OA
ATOM     94  O   UNL A   1      53.559  23.691  25.406  1.00  0.00    -0.744 OA
ENDBRANCH  90  91
ENDBRANCH  58  83
ENDBRANCH  32  33
ENDBRANCH  25  27
ENDBRANCH  24  25
ENDBRANCH  23  24
ENDBRANCH   1  23
TORSDOF 19
ENDMDL
MODEL 2
REMARK VINA RESULT:     -10.1      6.841     12.227
REMARK SMILES CC[NH2+][C@]1(C(=O)OCCOC(=O)c2ccc(-c3c4nc(c(-c5c(F)cc(S(=O)(=O)[O-])cc5F)c5ccc([nH]5)c(-c5c(F)cc(S(=O)(=O)[O-])cc5F)c5nc(c(-c6c(F)cc(S(=O)(=O)[O-])cc6F)c6ccc3[nH]6)C=C5)C=C4)cc2)CC[C@@H]([N@@H+](C)CC(C)(C)C)C1
REMARK SMILES IDX 8 1 7 2 5 3 6 4 4 5 79 6 89 7 80 8 81 9 3 10 2 13 1 14 82 15
REMARK SMILES IDX 83 16 84 18 85 19 86 20 87 21 88 22 9 23 10 24 11 25 12 26
REMARK SMILES IDX 13 27 14 28 78 29 15 30 77 31 16 32 17 33 18 34 71 35 19 36
REMARK SMILES IDX 76 37 70 38 72 39 20 40 75 41 69 42 68 43 21 45 55 46 34 47
REMARK SMILES IDX 54 48 35 49 38 50 53 51 73 52 36 53 37 54 52 56 74 57 39 58
REMARK SMILES IDX 22 59 23 60 32 61 24 62 25 63 31 64 33 65 26 66 27 67 28 68
REMARK SMILES IDX 29 69 30 70 56 71 57 72 66 73 58 74 59 75 65 76 67 77 60 78
REMARK SMILES IDX 61 79 62 80 63 81 64 82 40 83 41 84 50 85 42 86 43 87 49 88
REMARK SMILES IDX 51 89 44 90 45 91 46 92 47 93 48 94
REMARK H PARENT 3 11 3 12 82 17 72 44 38 55
REMARK Flexibility Score: inf
ROOT
ATOM      1  C   UNL A   1      37.476  22.728  25.620  1.00  0.00     0.274 C 
ENDROOT
BRANCH   1   2
ATOM      2  O   UNL A   1      36.048  22.743  25.833  1.00  0.00    -0.457 OA
BRANCH   2   3
ATOM      3  C   UNL A   1      35.408  21.554  25.654  1.00  0.00     0.368 C 
ATOM      4  O   UNL A   1      35.966  20.551  25.218  1.00  0.00    -0.245 OA
BRANCH   3   5
ATOM      5  C   UNL A   1      33.892  21.595  26.027  1.00  0.00     0.200 C 
ATOM      6  C   UNL A   1      33.603  22.636  27.119  1.00  0.00     0.087 C 
ATOM      7  C   UNL A   1      32.976  22.136  24.897  1.00  0.00     0.146 C 
ATOM      8  C   UNL A   1      32.093  22.798  27.086  1.00  0.00     0.072 C 
ATOM      9  C   UNL A   1      31.775  22.832  25.599  1.00  0.00     0.191 C 
BRANCH   5  10
ATOM     10  N   UNL A   1      33.453  20.214  26.419  1.00  0.00    -0.332 N 
ATOM     11  H   UNL A   1      34.280  19.666  26.654  1.00  0.00     0.347 HD
ATOM     12  H   UNL A   1      32.816  20.313  27.210  1.00  0.00     0.347 HD
BRANCH  10  13
ATOM     13  C   UNL A   1      32.715  19.508  25.353  1.00  0.00     0.257 C 
ATOM     14  C   UNL A   1      32.549  18.031  25.670  1.00  0.00     0.071 C 
ENDBRANCH  10  13
ENDBRANCH   5  10
BRANCH   9  15
ATOM     15  N   UNL A   1      31.428  24.158  25.076  1.00  0.00    -0.334 N 
ATOM     16  C   UNL A   1      30.646  24.094  23.852  1.00  0.00     0.332 C 
ATOM     17  H   UNL A   1      32.374  24.479  24.866  1.00  0.00     0.348 HD
BRANCH  15  18
ATOM     18  C   UNL A   1      31.167  25.315  25.947  1.00  0.00     0.268 C 
BRANCH  18  19
ATOM     19  C   UNL A   1      31.770  26.776  25.822  1.00  0.00     0.011 C 
ATOM     20  C   UNL A   1      31.564  27.646  27.071  1.00  0.00     0.017 C 
ATOM     21  C   UNL A   1      33.308  26.614  25.680  1.00  0.00     0.017 C 
ATOM     22  C   UNL A   1      31.284  27.572  24.603  1.00  0.00     0.017 C 
ENDBRANCH  18  19
ENDBRANCH  15  18
ENDBRANCH   9  15
ENDBRANCH   3   5
ENDBRANCH   2   3
ENDBRANCH   1   2
BRANCH   1  23
ATOM     23  C   UNL A   1      38.102  24.050  26.056  1.00  0.00     0.275 C 
BRANCH  23  24
ATOM     24  O   UNL A   1      39.310  23.777  26.781  1.00  0.00    -0.458 OA
BRANCH  24  25
ATOM     25  C   UNL A   1      40.325  24.649  26.578  1.00  0.00     0.338 C 
ATOM     26  O   UNL A   1      41.031  24.727  25.588  1.00  0.00    -0.246 OA
BRANCH  25  27
ATOM     27  C   UNL A   1      40.441  25.560  27.740  1.00  0.00     0.060 A 
ATOM     28  C   UNL A   1      39.455  25.569  28.725  1.00  0.00     0.016 A 
ATOM     29  C   UNL A   1      41.473  26.495  27.794  1.00  0.00     0.016 A 
ATOM     30  C   UNL A   1      39.424  26.583  29.681  1.00  0.00     0.010 A 
ATOM     31  C   UNL A   1      41.509  27.435  28.834  1.00  0.00     0.010 A 
ATOM     32  C   UNL A   1      40.460  27.523  29.767  1.00  0.00    -0.014 A 
BRANCH  32  33
ATOM     33  C   UNL A   1      40.415  28.607  30.794  1.00  0.00     0.031 A 
ATOM     34  C   UNL A   1      41.417  28.630  31.926  1.00  0.00     0.074 A 
ATOM     35  C   UNL A   1      39.503  29.600  30.709  1.00  0.00     0.049 A 
ATOM     36  N   UNL A   1      41.433  29.378  33.001  1.00  0.00    -0.248 NA
ATOM     37  C   UNL A   1      42.538  27.679  31.849  1.00  0.00     0.031 C 
ATOM     38  C   UNL A   1      38.488  29.739  29.661  1.00  0.00     0.029 A 
ATOM     39  N   UNL A   1      39.292  30.696  31.512  1.00  0.00    -0.354 N 
ATOM     40  C   UNL A   1      42.518  28.945  33.755  1.00  0.00     0.074 A 
ATOM     41  C   UNL A   1      43.141  27.870  33.014  1.00  0.00     0.031 C 
ATOM     42  C   UNL A   1      37.810  30.881  29.849  1.00  0.00     0.029 A 
ATOM     43  C   UNL A   1      38.273  31.512  31.078  1.00  0.00     0.049 A 
ATOM     44  H   UNL A   1      39.822  30.881  32.321  1.00  0.00     0.167 HD
ATOM     45  C   UNL A   1      42.956  29.400  34.954  1.00  0.00     0.037 A 
ATOM     46  C   UNL A   1      37.740  32.623  31.622  1.00  0.00     0.037 A 
ATOM     47  C   UNL A   1      42.384  30.518  35.661  1.00  0.00     0.049 A 
ATOM     48  C   UNL A   1      38.256  33.119  32.942  1.00  0.00     0.074 A 
ATOM     49  C   UNL A   1      42.754  31.043  36.889  1.00  0.00     0.029 A 
ATOM     50  N   UNL A   1      41.346  31.306  35.187  1.00  0.00    -0.354 N 
ATOM     51  N   UNL A   1      39.218  32.630  33.686  1.00  0.00    -0.248 NA
ATOM     52  C   UNL A   1      37.593  34.302  33.511  1.00  0.00     0.031 C 
ATOM     53  C   UNL A   1      41.931  32.142  37.163  1.00  0.00     0.029 A 
ATOM     54  C   UNL A   1      41.068  32.317  36.093  1.00  0.00     0.049 A 
ATOM     55  H   UNL A   1      40.876  31.167  34.334  1.00  0.00     0.167 HD
ATOM     56  C   UNL A   1      39.271  33.441  34.814  1.00  0.00     0.074 A 
ATOM     57  C   UNL A   1      38.269  34.472  34.638  1.00  0.00     0.031 C 
ATOM     58  C   UNL A   1      40.066  33.332  35.906  1.00  0.00     0.037 A 
BRANCH  45  59
ATOM     59  C   UNL A   1      44.106  28.678  35.599  1.00  0.00     0.058 A 
ATOM     60  C   UNL A   1      45.438  29.057  35.374  1.00  0.00     0.135 A 
ATOM     61  C   UNL A   1      43.865  27.628  36.500  1.00  0.00     0.135 A 
ATOM     62  F   UNL A   1      45.723  30.040  34.507  1.00  0.00    -0.206 F 
ATOM     63  C   UNL A   1      46.493  28.410  36.011  1.00  0.00     0.059 A 
ATOM     64  C   UNL A   1      44.904  26.982  37.165  1.00  0.00     0.059 A 
ATOM     65  F   UNL A   1      42.608  27.227  36.750  1.00  0.00    -0.206 F 
ATOM     66  C   UNL A   1      46.216  27.375  36.906  1.00  0.00     0.060 A 
BRANCH  66  67
ATOM     67  S   UNL A   1      47.592  26.560  37.746  1.00  0.00     0.124 S 
ATOM     68  O   UNL A   1      48.610  27.604  37.717  1.00  0.00    -0.237 OA
ATOM     69  O   UNL A   1      47.027  26.262  39.059  1.00  0.00    -0.237 OA
ATOM     70  O   UNL A   1      47.860  25.397  36.906  1.00  0.00    -0.744 OA
ENDBRANCH  66  67
ENDBRANCH  45  59
BRANCH  46  71
ATOM     71  C   UNL A   1      36.616  33.322  30.943  1.00  0.00     0.058 A 
ATOM     72  C   UNL A   1      35.294  33.156  31.382  1.00  0.00     0.135 A 
ATOM     73  C   UNL A   1      36.840  34.158  29.839  1.00  0.00     0.135 A 
ATOM     74  F   UNL A   1      35.029  32.357  32.426  1.00  0.00    -0.206 F 
ATOM     75  C   UNL A   1      34.230  33.782  30.740  1.00  0.00     0.059 A 
ATOM     76  C   UNL A   1      35.797  34.815  29.197  1.00  0.00     0.059 A 
ATOM     77  F   UNL A   1      38.088  34.357  29.389  1.00  0.00    -0.206 F 
ATOM     78  C   UNL A   1      34.493  34.608  29.646  1.00  0.00     0.060 A 
BRANCH  78  79
ATOM     79  S   UNL A   1      33.119  35.458  28.836  1.00  0.00     0.124 S 
ATOM     80  O   UNL A   1      32.466  34.357  28.140  1.00  0.00    -0.237 OA
ATOM     81  O   UNL A   1      32.388  36.023  29.967  1.00  0.00    -0.237 OA
ATOM     82  O   UNL A   1      33.794  36.436  27.988  1.00  0.00    -0.744 OA
ENDBRANCH  78  79
ENDBRANCH  46  71
BRANCH  58  83
ATOM     83  C   UNL A   1      39.883  34.362  36.982  1.00  0.00     0.058 A 
ATOM     84  C   UNL A   1      40.607  35.564  36.970  1.00  0.00     0.135 A 
ATOM     85  C   UNL A   1      38.983  34.144  38.036  1.00  0.00     0.135 A 
ATOM     86  F   UNL A   1      41.485  35.814  35.986  1.00  0.00    -0.206 F 
ATOM     87  C   UNL A   1      40.471  36.502  37.988  1.00  0.00     0.059 A 
ATOM     88  C   UNL A   1      38.817  35.077  39.054  1.00  0.00     0.059 A 
ATOM     89  F   UNL A   1      38.261  33.013  38.087  1.00  0.00    -0.206 F 
ATOM     90  C   UNL A   1      39.580  36.245  39.031  1.00  0.00     0.060 A 
BRANCH  90  91
ATOM     91  S   UNL A   1      39.413  37.462  40.355  1.00  0.00     0.124 S 
ATOM     92  O   UNL A   1      38.573  38.471  39.719  1.00  0.00    -0.237 OA
ATOM     93  O   UNL A   1      38.781  36.688  41.419  1.00  0.00    -0.237 OA
ATOM     94  O   UNL A   1      40.792  37.864  40.618  1.00  0.00    -0.744 OA
ENDBRANCH  90  91
ENDBRANCH  58  83
ENDBRANCH  32  33
ENDBRANCH  25  27
ENDBRANCH  24  25
ENDBRANCH  23  24
ENDBRANCH   1  23
TORSDOF 19
ENDMDL
MODEL 3
REMARK VINA RESULT:     -10.1      2.520      3.812
REMARK SMILES CC[NH2+][C@]1(C(=O)OCCOC(=O)c2ccc(-c3c4nc(c(-c5c(F)cc(S(=O)(=O)[O-])cc5F)c5ccc([nH]5)c(-c5c(F)cc(S(=O)(=O)[O-])cc5F)c5nc(c(-c6c(F)cc(S(=O)(=O)[O-])cc6F)c6ccc3[nH]6)C=C5)C=C4)cc2)CC[C@@H]([N@@H+](C)CC(C)(C)C)C1
REMARK SMILES IDX 8 1 7 2 5 3 6 4 4 5 79 6 89 7 80 8 81 9 3 10 2 13 1 14 82 15
REMARK SMILES IDX 83 16 84 18 85 19 86 20 87 21 88 22 9 23 10 24 11 25 12 26
REMARK SMILES IDX 13 27 14 28 78 29 15 30 77 31 16 32 17 33 18 34 71 35 19 36
REMARK SMILES IDX 76 37 70 38 72 39 20 40 75 41 69 42 68 43 21 45 55 46 34 47
REMARK SMILES IDX 54 48 35 49 38 50 53 51 73 52 36 53 37 54 52 56 74 57 39 58
REMARK SMILES IDX 22 59 23 60 32 61 24 62 25 63 31 64 33 65 26 66 27 67 28 68
REMARK SMILES IDX 29 69 30 70 56 71 57 72 66 73 58 74 59 75 65 76 67 77 60 78
REMARK SMILES IDX 61 79 62 80 63 81 64 82 40 83 41 84 50 85 42 86 43 87 49 88
REMARK SMILES IDX 51 89 44 90 45 91 46 92 47 93 48 94
REMARK H PARENT 3 11 3 12 82 17 72 44 38 55
REMARK Flexibility Score: inf
ROOT
ATOM      1  C   UNL A   1      33.585  27.454  25.568  1.00  0.00     0.274 C 
ENDROOT
BRANCH   1   2
ATOM      2  O   UNL A   1      32.981  26.144  25.496  1.00  0.00    -0.457 OA
BRANCH   2   3
ATOM      3  C   UNL A   1      33.846  25.095  25.412  1.00  0.00     0.368 C 
ATOM      4  O   UNL A   1      35.060  25.213  25.558  1.00  0.00    -0.245 OA
BRANCH   3   5
ATOM      5  C   UNL A   1      33.152  23.735  25.086  1.00  0.00     0.200 C 
ATOM      6  C   UNL A   1      33.374  23.319  23.625  1.00  0.00     0.087 C 
ATOM      7  C   UNL A   1      33.782  22.513  25.807  1.00  0.00     0.146 C 
ATOM      8  C   UNL A   1      32.970  21.855  23.590  1.00  0.00     0.072 C 
ATOM      9  C   UNL A   1      33.577  21.292  24.866  1.00  0.00     0.191 C 
BRANCH   5  10
ATOM     10  N   UNL A   1      31.696  23.837  25.439  1.00  0.00    -0.332 N 
ATOM     11  H   UNL A   1      31.403  24.807  25.326  1.00  0.00     0.347 HD
ATOM     12  H   UNL A   1      31.190  23.205  24.819  1.00  0.00     0.347 HD
BRANCH  10  13
ATOM     13  C   UNL A   1      31.397  23.419  26.823  1.00  0.00     0.257 C 
ATOM     14  C   UNL A   1      29.998  22.838  26.942  1.00  0.00     0.071 C 
ENDBRANCH  10  13
ENDBRANCH   5  10
BRANCH   9  15
ATOM     15  N   UNL A   1      34.763  20.453  24.663  1.00  0.00    -0.334 N 
ATOM     16  C   UNL A   1      35.965  21.028  25.246  1.00  0.00     0.332 C 
ATOM     17  H   UNL A   1      34.808  20.516  23.646  1.00  0.00     0.348 HD
BRANCH  15  18
ATOM     18  C   UNL A   1      34.704  18.983  24.628  1.00  0.00     0.268 C 
BRANCH  18  19
ATOM     19  C   UNL A   1      33.417  18.070  24.476  1.00  0.00     0.011 C 
ATOM     20  C   UNL A   1      32.494  18.480  23.317  1.00  0.00     0.017 C 
ATOM     21  C   UNL A   1      33.920  16.645  24.118  1.00  0.00     0.017 C 
ATOM     22  C   UNL A   1      32.562  17.945  25.743  1.00  0.00     0.017 C 
ENDBRANCH  18  19
ENDBRANCH  15  18
ENDBRANCH   9  15
ENDBRANCH   3   5
ENDBRANCH   2   3
ENDBRANCH   1   2
BRANCH   1  23
ATOM     23  C   UNL A   1      32.857  28.329  26.585  1.00  0.00     0.275 C 
BRANCH  23  24
ATOM     24  O   UNL A   1      33.725  28.566  27.702  1.00  0.00    -0.458 OA
BRANCH  24  25
ATOM     25  C   UNL A   1      34.230  29.819  27.798  1.00  0.00     0.338 C 
ATOM     26  O   UNL A   1      33.613  30.863  27.685  1.00  0.00    -0.246 OA
BRANCH  25  27
ATOM     27  C   UNL A   1      35.675  29.752  28.115  1.00  0.00     0.060 A 
ATOM     28  C   UNL A   1      36.622  30.054  27.138  1.00  0.00     0.016 A 
ATOM     29  C   UNL A   1      36.097  29.271  29.353  1.00  0.00     0.016 A 
ATOM     30  C   UNL A   1      37.968  29.757  27.345  1.00  0.00     0.010 A 
ATOM     31  C   UNL A   1      37.465  29.093  29.603  1.00  0.00     0.010 A 
ATOM     32  C   UNL A   1      38.418  29.290  28.587  1.00  0.00    -0.014 A 
BRANCH  32  33
ATOM     33  C   UNL A   1      39.863  28.972  28.798  1.00  0.00     0.031 A 
ATOM     34  C   UNL A   1      40.787  29.991  29.424  1.00  0.00     0.074 A 
ATOM     35  C   UNL A   1      40.357  27.760  28.465  1.00  0.00     0.049 A 
ATOM     36  N   UNL A   1      42.093  29.970  29.527  1.00  0.00    -0.248 NA
ATOM     37  C   UNL A   1      40.166  31.198  29.993  1.00  0.00     0.031 C 
ATOM     38  C   UNL A   1      39.590  26.657  27.880  1.00  0.00     0.029 A 
ATOM     39  N   UNL A   1      41.625  27.244  28.587  1.00  0.00    -0.354 N 
ATOM     40  C   UNL A   1      42.452  31.181  30.109  1.00  0.00     0.074 A 
ATOM     41  C   UNL A   1      41.227  31.915  30.340  1.00  0.00     0.031 C 
ATOM     42  C   UNL A   1      40.383  25.582  27.755  1.00  0.00     0.029 A 
ATOM     43  C   UNL A   1      41.736  25.940  28.160  1.00  0.00     0.049 A 
ATOM     44  H   UNL A   1      42.384  27.758  28.946  1.00  0.00     0.167 HD
ATOM     45  C   UNL A   1      43.688  31.640  30.421  1.00  0.00     0.037 A 
ATOM     46  C   UNL A   1      42.808  25.130  28.068  1.00  0.00     0.037 A 
ATOM     47  C   UNL A   1      44.904  30.884  30.261  1.00  0.00     0.049 A 
ATOM     48  C   UNL A   1      44.165  25.656  28.438  1.00  0.00     0.074 A 
ATOM     49  C   UNL A   1      46.205  31.272  30.539  1.00  0.00     0.029 A 
ATOM     50  N   UNL A   1      44.967  29.573  29.815  1.00  0.00    -0.354 N 
ATOM     51  N   UNL A   1      44.493  26.842  28.891  1.00  0.00    -0.248 NA
ATOM     52  C   UNL A   1      45.303  24.742  28.259  1.00  0.00     0.031 C 
ATOM     53  C   UNL A   1      47.056  30.199  30.250  1.00  0.00     0.029 A 
ATOM     54  C   UNL A   1      46.282  29.135  29.818  1.00  0.00     0.049 A 
ATOM     55  H   UNL A   1      44.193  29.033  29.537  1.00  0.00     0.167 HD
ATOM     56  C   UNL A   1      45.875  26.818  29.042  1.00  0.00     0.074 A 
ATOM     57  C   UNL A   1      46.316  25.491  28.668  1.00  0.00     0.031 C 
ATOM     58  C   UNL A   1      46.705  27.812  29.439  1.00  0.00     0.037 A 
BRANCH  45  59
ATOM     59  C   UNL A   1      43.800  33.040  30.956  1.00  0.00     0.058 A 
ATOM     60  C   UNL A   1      43.851  34.156  30.108  1.00  0.00     0.135 A 
ATOM     61  C   UNL A   1      43.799  33.269  32.342  1.00  0.00     0.135 A 
ATOM     62  F   UNL A   1      43.875  33.991  28.776  1.00  0.00    -0.206 F 
ATOM     63  C   UNL A   1      43.909  35.451  30.615  1.00  0.00     0.059 A 
ATOM     64  C   UNL A   1      43.835  34.556  32.871  1.00  0.00     0.059 A 
ATOM     65  F   UNL A   1      43.753  32.235  33.198  1.00  0.00    -0.206 F 
ATOM     66  C   UNL A   1      43.899  35.641  31.998  1.00  0.00     0.060 A 
BRANCH  66  67
ATOM     67  S   UNL A   1      43.951  37.327  32.644  1.00  0.00     0.124 S 
ATOM     68  O   UNL A   1      45.286  37.374  33.231  1.00  0.00    -0.237 OA
ATOM     69  O   UNL A   1      43.760  38.131  31.440  1.00  0.00    -0.237 OA
ATOM     70  O   UNL A   1      42.844  37.359  33.595  1.00  0.00    -0.744 OA
ENDBRANCH  66  67
ENDBRANCH  45  59
BRANCH  46  71
ATOM     71  C   UNL A   1      42.654  23.743  27.553  1.00  0.00     0.058 A 
ATOM     72  C   UNL A   1      42.422  22.671  28.427  1.00  0.00     0.135 A 
ATOM     73  C   UNL A   1      42.747  23.462  26.182  1.00  0.00     0.135 A 
ATOM     74  F   UNL A   1      42.338  22.888  29.748  1.00  0.00    -0.206 F 
ATOM     75  C   UNL A   1      42.303  21.365  27.961  1.00  0.00     0.059 A 
ATOM     76  C   UNL A   1      42.606  22.170  25.690  1.00  0.00     0.059 A 
ATOM     77  F   UNL A   1      42.957  24.456  25.304  1.00  0.00    -0.206 F 
ATOM     78  C   UNL A   1      42.399  21.125  26.590  1.00  0.00     0.060 A 
BRANCH  78  79
ATOM     79  S   UNL A   1      42.201  19.437  25.976  1.00  0.00     0.124 S 
ATOM     80  O   UNL A   1      42.654  18.657  27.121  1.00  0.00    -0.237 OA
ATOM     81  O   UNL A   1      40.772  19.374  25.685  1.00  0.00    -0.237 OA
ATOM     82  O   UNL A   1      43.071  19.410  24.805  1.00  0.00    -0.744 OA
ENDBRANCH  78  79
ENDBRANCH  46  71
BRANCH  58  83
ATOM     83  C   UNL A   1      48.170  27.489  29.495  1.00  0.00     0.058 A 
ATOM     84  C   UNL A   1      48.756  26.964  30.657  1.00  0.00     0.135 A 
ATOM     85  C   UNL A   1      48.994  27.710  28.382  1.00  0.00     0.135 A 
ATOM     86  F   UNL A   1      48.008  26.742  31.749  1.00  0.00    -0.206 F 
ATOM     87  C   UNL A   1      50.120  26.703  30.726  1.00  0.00     0.059 A 
ATOM     88  C   UNL A   1      50.358  27.437  28.422  1.00  0.00     0.059 A 
ATOM     89  F   UNL A   1      48.479  28.203  27.244  1.00  0.00    -0.206 F 
ATOM     90  C   UNL A   1      50.915  26.952  29.606  1.00  0.00     0.060 A 
BRANCH  90  91
ATOM     91  S   UNL A   1      52.687  26.619  29.702  1.00  0.00     0.124 S 
ATOM     92  O   UNL A   1      52.764  25.789  30.900  1.00  0.00    -0.237 OA
ATOM     93  O   UNL A   1      52.951  25.936  28.439  1.00  0.00    -0.237 OA
ATOM     94  O   UNL A   1      53.273  27.951  29.820  1.00  0.00    -0.744 OA
ENDBRANCH  90  91
ENDBRANCH  58  83
ENDBRANCH  32  33
ENDBRANCH  25  27
ENDBRANCH  24  25
ENDBRANCH  23  24
ENDBRANCH   1  23
TORSDOF 19
ENDMDL
