MODEL 1
REMARK VINA RESULT:     -10.5      0.000      0.000
REMARK SMILES CC1(C)[C@H](C#N)C(SCC(=O)OCCOC(=O)c2ccc(-c3c4nc(c(-c5c(F)cc(S(=O)(=O)[O-])cc5F)c5ccc([nH]5)c(-c5c(F)cc(S(=O)(=O)[O-])cc5F)c5nc(c(-c6c(F)cc(S(=O)(=O)[O-])cc6F)c6ccc3[nH]6)C=C5)C=C4)cc2)=NC(=O)[C@@H]1C#N
REMARK SMILES IDX 13 1 12 2 10 3 11 4 9 5 8 6 7 7 1 8 2 9 3 10 4 11 87 12
REMARK SMILES IDX 85 13 84 14 86 15 5 16 6 17 88 18 89 19 14 20 15 21 16 22
REMARK SMILES IDX 17 23 18 24 19 25 83 26 20 27 82 28 21 29 22 30 23 31 76 32
REMARK SMILES IDX 24 33 81 34 75 35 77 36 25 37 80 38 74 39 73 40 26 42 60 43
REMARK SMILES IDX 39 44 59 45 40 46 43 47 58 48 78 49 41 50 42 51 57 53 79 54
REMARK SMILES IDX 44 55 27 56 28 57 37 58 29 59 30 60 36 61 38 62 31 63 32 64
REMARK SMILES IDX 33 65 34 66 35 67 61 68 62 69 71 70 63 71 64 72 70 73 72 74
REMARK SMILES IDX 65 75 66 76 67 77 68 78 69 79 45 80 46 81 55 82 47 83 48 84
REMARK SMILES IDX 54 85 56 86 49 87 50 88 51 89 52 90 53 91
REMARK H PARENT 77 41 43 52
REMARK Flexibility Score: inf
ROOT
ATOM      1  C   UNL A   1      33.087  30.341  27.196  1.00  0.00     0.274 C 
ENDROOT
BRANCH   1   2
ATOM      2  O   UNL A   1      33.001  28.951  26.835  1.00  0.00    -0.461 OA
BRANCH   2   3
ATOM      3  C   UNL A   1      33.078  28.666  25.506  1.00  0.00     0.316 C 
ATOM      4  O   UNL A   1      32.826  29.469  24.615  1.00  0.00    -0.251 OA
BRANCH   3   5
ATOM      5  C   UNL A   1      33.474  27.235  25.205  1.00  0.00     0.198 C 
BRANCH   5   6
ATOM      6  S   UNL A   1      32.259  26.317  24.264  1.00  0.00    -0.097 SA
BRANCH   6   7
ATOM      7  C   UNL A   1      32.767  24.629  24.280  1.00  0.00     0.095 C 
ATOM      8  C   UNL A   1      35.735  23.462  26.065  1.00  0.00     0.015 C 
ATOM      9  C   UNL A   1      34.295  23.002  25.712  1.00  0.00     0.012 C 
ATOM     10  C   UNL A   1      33.907  22.096  26.955  1.00  0.00     0.015 C 
ATOM     11  C   UNL A   1      33.388  24.282  25.576  1.00  0.00     0.156 C 
ATOM     12  C   UNL A   1      34.268  22.208  24.378  1.00  0.00     0.191 C 
ATOM     13  C   UNL A   1      33.001  22.458  23.543  1.00  0.00     0.264 C 
ATOM     14  N   UNL A   1      32.532  23.760  23.369  1.00  0.00    -0.209 NA
ATOM     15  O   UNL A   1      32.472  21.531  22.943  1.00  0.00    -0.271 OA
BRANCH  11  16
ATOM     16  C   UNL A   1      32.205  23.995  26.487  1.00  0.00     0.073 C 
ATOM     17  N   UNL A   1      31.225  23.757  27.243  1.00  0.00    -0.198 NA
ENDBRANCH  11  16
BRANCH  12  18
ATOM     18  C   UNL A   1      34.422  20.750  24.598  1.00  0.00     0.076 C 
ATOM     19  N   UNL A   1      34.474  19.616  24.827  1.00  0.00    -0.197 NA
ENDBRANCH  12  18
ENDBRANCH   6   7
ENDBRANCH   5   6
ENDBRANCH   3   5
ENDBRANCH   2   3
ENDBRANCH   1   2
BRANCH   1  20
ATOM     20  C   UNL A   1      34.548  30.780  27.230  1.00  0.00     0.275 C 
BRANCH  20  21
ATOM     21  O   UNL A   1      35.329  29.809  27.955  1.00  0.00    -0.458 OA
BRANCH  21  22
ATOM     22  C   UNL A   1      36.053  30.321  28.976  1.00  0.00     0.338 C 
ATOM     23  O   UNL A   1      35.649  31.123  29.809  1.00  0.00    -0.246 OA
BRANCH  22  24
ATOM     24  C   UNL A   1      37.437  29.798  28.986  1.00  0.00     0.060 A 
ATOM     25  C   UNL A   1      38.146  29.636  30.181  1.00  0.00     0.016 A 
ATOM     26  C   UNL A   1      38.110  29.718  27.769  1.00  0.00     0.016 A 
ATOM     27  C   UNL A   1      39.536  29.500  30.169  1.00  0.00     0.010 A 
ATOM     28  C   UNL A   1      39.489  29.486  27.754  1.00  0.00     0.010 A 
ATOM     29  C   UNL A   1      40.219  29.395  28.952  1.00  0.00    -0.014 A 
BRANCH  29  30
ATOM     30  C   UNL A   1      41.652  29.006  28.911  1.00  0.00     0.031 A 
ATOM     31  C   UNL A   1      42.760  30.021  28.947  1.00  0.00     0.074 A 
ATOM     32  C   UNL A   1      41.924  27.702  28.707  1.00  0.00     0.049 A 
ATOM     33  N   UNL A   1      44.033  29.856  28.682  1.00  0.00    -0.248 NA
ATOM     34  C   UNL A   1      42.407  31.395  29.330  1.00  0.00     0.031 C 
ATOM     35  C   UNL A   1      40.924  26.629  28.677  1.00  0.00     0.029 A 
ATOM     36  N   UNL A   1      43.105  27.061  28.434  1.00  0.00    -0.354 N 
ATOM     37  C   UNL A   1      44.625  31.107  28.832  1.00  0.00     0.074 A 
ATOM     38  C   UNL A   1      43.573  32.021  29.225  1.00  0.00     0.031 C 
ATOM     39  C   UNL A   1      41.525  25.474  28.364  1.00  0.00     0.029 A 
ATOM     40  C   UNL A   1      42.932  25.738  28.098  1.00  0.00     0.049 A 
ATOM     41  H   UNL A   1      43.984  27.500  28.474  1.00  0.00     0.167 HD
ATOM     42  C   UNL A   1      45.922  31.450  28.639  1.00  0.00     0.037 A 
ATOM     43  C   UNL A   1      43.788  24.847  27.563  1.00  0.00     0.037 A 
ATOM     44  C   UNL A   1      46.950  30.516  28.242  1.00  0.00     0.049 A 
ATOM     45  C   UNL A   1      45.199  25.276  27.288  1.00  0.00     0.074 A 
ATOM     46  C   UNL A   1      48.305  30.750  28.077  1.00  0.00     0.029 A 
ATOM     47  N   UNL A   1      46.737  29.182  27.922  1.00  0.00    -0.354 N 
ATOM     48  N   UNL A   1      45.759  26.445  27.489  1.00  0.00    -0.248 NA
ATOM     49  C   UNL A   1      46.098  24.268  26.713  1.00  0.00     0.031 C 
ATOM     50  C   UNL A   1      48.894  29.584  27.578  1.00  0.00     0.029 A 
ATOM     51  C   UNL A   1      47.925  28.598  27.510  1.00  0.00     0.049 A 
ATOM     52  H   UNL A   1      45.870  28.719  27.980  1.00  0.00     0.167 HD
ATOM     53  C   UNL A   1      47.083  26.303  27.092  1.00  0.00     0.074 A 
ATOM     54  C   UNL A   1      47.244  24.930  26.659  1.00  0.00     0.031 C 
ATOM     55  C   UNL A   1      48.075  27.227  27.086  1.00  0.00     0.037 A 
BRANCH  42  56
ATOM     56  C   UNL A   1      46.328  32.894  28.797  1.00  0.00     0.058 A 
ATOM     57  C   UNL A   1      46.829  33.406  30.004  1.00  0.00     0.135 A 
ATOM     58  C   UNL A   1      46.332  33.748  27.679  1.00  0.00     0.135 A 
ATOM     59  F   UNL A   1      46.848  32.641  31.107  1.00  0.00    -0.206 F 
ATOM     60  C   UNL A   1      47.319  34.708  30.096  1.00  0.00     0.059 A 
ATOM     61  C   UNL A   1      46.842  35.043  27.742  1.00  0.00     0.059 A 
ATOM     62  F   UNL A   1      45.870  33.313  26.496  1.00  0.00    -0.206 F 
ATOM     63  C   UNL A   1      47.332  35.516  28.957  1.00  0.00     0.060 A 
BRANCH  63  64
ATOM     64  S   UNL A   1      48.029  37.179  29.079  1.00  0.00     0.124 S 
ATOM     65  O   UNL A   1      48.387  37.455  27.692  1.00  0.00    -0.237 OA
ATOM     66  O   UNL A   1      46.907  37.948  29.607  1.00  0.00    -0.237 OA
ATOM     67  O   UNL A   1      49.155  37.013  29.994  1.00  0.00    -0.744 OA
ENDBRANCH  63  64
ENDBRANCH  42  56
BRANCH  43  68
ATOM     68  C   UNL A   1      43.314  23.484  27.207  1.00  0.00     0.058 A 
ATOM     69  C   UNL A   1      43.140  22.502  28.190  1.00  0.00     0.135 A 
ATOM     70  C   UNL A   1      43.031  23.134  25.876  1.00  0.00     0.135 A 
ATOM     71  F   UNL A   1      43.396  22.787  29.477  1.00  0.00    -0.206 F 
ATOM     72  C   UNL A   1      42.745  21.210  27.866  1.00  0.00     0.059 A 
ATOM     73  C   UNL A   1      42.596  21.860  25.530  1.00  0.00     0.059 A 
ATOM     74  F   UNL A   1      43.157  24.043  24.896  1.00  0.00    -0.206 F 
ATOM     75  C   UNL A   1      42.478  20.898  26.531  1.00  0.00     0.060 A 
BRANCH  75  76
ATOM     76  S   UNL A   1      41.964  19.217  26.124  1.00  0.00     0.124 S 
ATOM     77  O   UNL A   1      42.293  18.505  27.353  1.00  0.00    -0.237 OA
ATOM     78  O   UNL A   1      40.541  19.391  25.848  1.00  0.00    -0.237 OA
ATOM     79  O   UNL A   1      42.784  18.885  24.963  1.00  0.00    -0.744 OA
ENDBRANCH  75  76
ENDBRANCH  43  68
BRANCH  55  80
ATOM     80  C   UNL A   1      49.436  26.774  26.631  1.00  0.00     0.058 A 
ATOM     81  C   UNL A   1      50.362  26.202  27.518  1.00  0.00     0.135 A 
ATOM     82  C   UNL A   1      49.801  26.869  25.277  1.00  0.00     0.135 A 
ATOM     83  F   UNL A   1      50.073  26.100  28.826  1.00  0.00    -0.206 F 
ATOM     84  C   UNL A   1      51.608  25.761  27.084  1.00  0.00     0.059 A 
ATOM     85  C   UNL A   1      51.026  26.400  24.815  1.00  0.00     0.059 A 
ATOM     86  F   UNL A   1      48.953  27.406  24.385  1.00  0.00    -0.206 F 
ATOM     87  C   UNL A   1      51.928  25.856  25.728  1.00  0.00     0.060 A 
BRANCH  87  88
ATOM     88  S   UNL A   1      53.526  25.231  25.173  1.00  0.00     0.124 S 
ATOM     89  O   UNL A   1      53.384  23.798  25.413  1.00  0.00    -0.237 OA
ATOM     90  O   UNL A   1      53.550  25.640  23.772  1.00  0.00    -0.237 OA
ATOM     91  O   UNL A   1      54.481  25.918  26.038  1.00  0.00    -0.744 OA
ENDBRANCH  87  88
ENDBRANCH  55  80
ENDBRANCH  29  30
ENDBRANCH  22  24
ENDBRANCH  21  22
ENDBRANCH  20  21
ENDBRANCH   1  20
TORSDOF 18
ENDMDL
MODEL 2
REMARK VINA RESULT:     -10.4      1.829      2.480
REMARK SMILES CC1(C)[C@H](C#N)C(SCC(=O)OCCOC(=O)c2ccc(-c3c4nc(c(-c5c(F)cc(S(=O)(=O)[O-])cc5F)c5ccc([nH]5)c(-c5c(F)cc(S(=O)(=O)[O-])cc5F)c5nc(c(-c6c(F)cc(S(=O)(=O)[O-])cc6F)c6ccc3[nH]6)C=C5)C=C4)cc2)=NC(=O)[C@@H]1C#N
REMARK SMILES IDX 13 1 12 2 10 3 11 4 9 5 8 6 7 7 1 8 2 9 3 10 4 11 87 12
REMARK SMILES IDX 85 13 84 14 86 15 5 16 6 17 88 18 89 19 14 20 15 21 16 22
REMARK SMILES IDX 17 23 18 24 19 25 83 26 20 27 82 28 21 29 22 30 23 31 76 32
REMARK SMILES IDX 24 33 81 34 75 35 77 36 25 37 80 38 74 39 73 40 26 42 60 43
REMARK SMILES IDX 39 44 59 45 40 46 43 47 58 48 78 49 41 50 42 51 57 53 79 54
REMARK SMILES IDX 44 55 27 56 28 57 37 58 29 59 30 60 36 61 38 62 31 63 32 64
REMARK SMILES IDX 33 65 34 66 35 67 61 68 62 69 71 70 63 71 64 72 70 73 72 74
REMARK SMILES IDX 65 75 66 76 67 77 68 78 69 79 45 80 46 81 55 82 47 83 48 84
REMARK SMILES IDX 54 85 56 86 49 87 50 88 51 89 52 90 53 91
REMARK H PARENT 77 41 43 52
REMARK Flexibility Score: inf
ROOT
ATOM      1  C   UNL A   1      32.992  29.573  25.356  1.00  0.00     0.274 C 
ENDROOT
BRANCH   1   2
ATOM      2  O   UNL A   1      33.870  28.492  24.993  1.00  0.00    -0.461 OA
BRANCH   2   3
ATOM      3  C   UNL A   1      33.613  27.877  23.806  1.00  0.00     0.316 C 
ATOM      4  O   UNL A   1      34.014  28.282  22.720  1.00  0.00    -0.251 OA
BRANCH   3   5
ATOM      5  C   UNL A   1      32.743  26.643  23.928  1.00  0.00     0.198 C 
BRANCH   5   6
ATOM      6  S   UNL A   1      32.867  25.808  25.507  1.00  0.00    -0.097 SA
BRANCH   6   7
ATOM      7  C   UNL A   1      33.995  24.471  25.294  1.00  0.00     0.095 C 
ATOM      8  C   UNL A   1      33.993  21.508  27.433  1.00  0.00     0.015 C 
ATOM      9  C   UNL A   1      34.229  21.913  25.953  1.00  0.00     0.012 C 
ATOM     10  C   UNL A   1      33.750  20.624  25.161  1.00  0.00     0.015 C 
ATOM     11  C   UNL A   1      33.354  23.186  25.645  1.00  0.00     0.156 C 
ATOM     12  C   UNL A   1      35.724  22.240  25.690  1.00  0.00     0.191 C 
ATOM     13  C   UNL A   1      35.932  23.382  24.682  1.00  0.00     0.264 C 
ATOM     14  N   UNL A   1      35.168  24.545  24.785  1.00  0.00    -0.209 NA
ATOM     15  O   UNL A   1      36.840  23.317  23.863  1.00  0.00    -0.271 OA
BRANCH  11  16
ATOM     16  C   UNL A   1      32.578  22.806  24.394  1.00  0.00     0.073 C 
ATOM     17  N   UNL A   1      31.934  22.492  23.358  1.00  0.00    -0.198 NA
ENDBRANCH  11  16
BRANCH  12  18
ATOM     18  C   UNL A   1      36.479  21.049  25.234  1.00  0.00     0.076 C 
ATOM     19  N   UNL A   1      37.144  20.158  24.907  1.00  0.00    -0.197 NA
ENDBRANCH  12  18
ENDBRANCH   6   7
ENDBRANCH   5   6
ENDBRANCH   3   5
ENDBRANCH   2   3
ENDBRANCH   1   2
BRANCH   1  20
ATOM     20  C   UNL A   1      32.701  29.526  26.853  1.00  0.00     0.275 C 
BRANCH  20  21
ATOM     21  O   UNL A   1      33.884  29.108  27.563  1.00  0.00    -0.458 OA
BRANCH  21  22
ATOM     22  C   UNL A   1      34.638  30.122  28.044  1.00  0.00     0.338 C 
ATOM     23  O   UNL A   1      34.258  31.272  28.228  1.00  0.00    -0.246 OA
BRANCH  22  24
ATOM     24  C   UNL A   1      36.023  29.689  28.333  1.00  0.00     0.060 A 
ATOM     25  C   UNL A   1      36.432  29.380  29.635  1.00  0.00     0.016 A 
ATOM     26  C   UNL A   1      36.976  29.845  27.330  1.00  0.00     0.016 A 
ATOM     27  C   UNL A   1      37.790  29.332  29.960  1.00  0.00     0.010 A 
ATOM     28  C   UNL A   1      38.333  29.702  27.636  1.00  0.00     0.010 A 
ATOM     29  C   UNL A   1      38.755  29.464  28.955  1.00  0.00    -0.014 A 
BRANCH  29  30
ATOM     30  C   UNL A   1      40.186  29.174  29.228  1.00  0.00     0.031 A 
ATOM     31  C   UNL A   1      41.174  30.255  29.566  1.00  0.00     0.074 A 
ATOM     32  C   UNL A   1      40.599  27.906  29.031  1.00  0.00     0.049 A 
ATOM     33  N   UNL A   1      42.482  30.192  29.595  1.00  0.00    -0.248 NA
ATOM     34  C   UNL A   1      40.636  31.575  29.921  1.00  0.00     0.031 C 
ATOM     35  C   UNL A   1      39.720  26.774  28.720  1.00  0.00     0.029 A 
ATOM     36  N   UNL A   1      41.858  27.363  29.008  1.00  0.00    -0.354 N 
ATOM     37  C   UNL A   1      42.924  31.467  29.936  1.00  0.00     0.074 A 
ATOM     38  C   UNL A   1      41.743  32.283  30.118  1.00  0.00     0.031 C 
ATOM     39  C   UNL A   1      40.465  25.684  28.501  1.00  0.00     0.029 A 
ATOM     40  C   UNL A   1      41.870  26.056  28.579  1.00  0.00     0.049 A 
ATOM     41  H   UNL A   1      42.668  27.856  29.270  1.00  0.00     0.167 HD
ATOM     42  C   UNL A   1      44.201  31.907  30.063  1.00  0.00     0.037 A 
ATOM     43  C   UNL A   1      42.892  25.260  28.215  1.00  0.00     0.037 A 
ATOM     44  C   UNL A   1      45.362  31.069  29.871  1.00  0.00     0.049 A 
ATOM     45  C   UNL A   1      44.291  25.797  28.293  1.00  0.00     0.074 A 
ATOM     46  C   UNL A   1      46.697  31.402  30.034  1.00  0.00     0.029 A 
ATOM     47  N   UNL A   1      45.333  29.747  29.449  1.00  0.00    -0.354 N 
ATOM     48  N   UNL A   1      44.698  26.985  28.672  1.00  0.00    -0.248 NA
ATOM     49  C   UNL A   1      45.374  24.889  27.894  1.00  0.00     0.031 C 
ATOM     50  C   UNL A   1      47.473  30.312  29.631  1.00  0.00     0.029 A 
ATOM     51  C   UNL A   1      46.626  29.270  29.295  1.00  0.00     0.049 A 
ATOM     52  H   UNL A   1      44.515  29.225  29.283  1.00  0.00     0.167 HD
ATOM     53  C   UNL A   1      46.083  26.956  28.586  1.00  0.00     0.074 A 
ATOM     54  C   UNL A   1      46.446  25.627  28.137  1.00  0.00     0.031 C 
ATOM     55  C   UNL A   1      46.976  27.942  28.852  1.00  0.00     0.037 A 
BRANCH  42  56
ATOM     56  C   UNL A   1      44.445  33.361  30.379  1.00  0.00     0.058 A 
ATOM     57  C   UNL A   1      44.643  33.822  31.690  1.00  0.00     0.135 A 
ATOM     58  C   UNL A   1      44.609  34.288  29.334  1.00  0.00     0.135 A 
ATOM     59  F   UNL A   1      44.497  32.987  32.730  1.00  0.00    -0.206 F 
ATOM     60  C   UNL A   1      44.995  35.146  31.951  1.00  0.00     0.059 A 
ATOM     61  C   UNL A   1      44.987  35.607  29.570  1.00  0.00     0.059 A 
ATOM     62  F   UNL A   1      44.439  33.903  28.058  1.00  0.00    -0.206 F 
ATOM     63  C   UNL A   1      45.176  36.029  30.883  1.00  0.00     0.060 A 
BRANCH  63  64
ATOM     64  S   UNL A   1      45.693  37.724  31.237  1.00  0.00     0.124 S 
ATOM     65  O   UNL A   1      44.444  38.328  31.690  1.00  0.00    -0.237 OA
ATOM     66  O   UNL A   1      46.711  37.531  32.266  1.00  0.00    -0.237 OA
ATOM     67  O   UNL A   1      46.192  38.206  29.952  1.00  0.00    -0.744 OA
ENDBRANCH  63  64
ENDBRANCH  42  56
BRANCH  43  68
ATOM     68  C   UNL A   1      42.621  23.893  27.695  1.00  0.00     0.058 A 
ATOM     69  C   UNL A   1      42.579  22.790  28.557  1.00  0.00     0.135 A 
ATOM     70  C   UNL A   1      42.403  23.663  26.326  1.00  0.00     0.135 A 
ATOM     71  F   UNL A   1      42.779  22.958  29.873  1.00  0.00    -0.206 F 
ATOM     72  C   UNL A   1      42.375  21.501  28.079  1.00  0.00     0.059 A 
ATOM     73  C   UNL A   1      42.157  22.389  25.828  1.00  0.00     0.059 A 
ATOM     74  F   UNL A   1      42.407  24.688  25.459  1.00  0.00    -0.206 F 
ATOM     75  C   UNL A   1      42.167  21.311  26.711  1.00  0.00     0.060 A 
BRANCH  75  76
ATOM     76  S   UNL A   1      41.901  19.633  26.104  1.00  0.00     0.124 S 
ATOM     77  O   UNL A   1      42.286  18.838  27.263  1.00  0.00    -0.237 OA
ATOM     78  O   UNL A   1      40.476  19.646  25.782  1.00  0.00    -0.237 OA
ATOM     79  O   UNL A   1      42.794  19.545  24.953  1.00  0.00    -0.744 OA
ENDBRANCH  75  76
ENDBRANCH  43  68
BRANCH  55  80
ATOM     80  C   UNL A   1      48.436  27.610  28.703  1.00  0.00     0.058 A 
ATOM     81  C   UNL A   1      49.135  27.864  27.512  1.00  0.00     0.135 A 
ATOM     82  C   UNL A   1      49.157  27.075  29.783  1.00  0.00     0.135 A 
ATOM     83  F   UNL A   1      48.493  28.361  26.442  1.00  0.00    -0.206 F 
ATOM     84  C   UNL A   1      50.492  27.580  27.392  1.00  0.00     0.059 A 
ATOM     85  C   UNL A   1      50.521  26.817  29.696  1.00  0.00     0.059 A 
ATOM     86  F   UNL A   1      48.538  26.814  30.946  1.00  0.00    -0.206 F 
ATOM     87  C   UNL A   1      51.179  27.064  28.493  1.00  0.00     0.060 A 
BRANCH  87  88
ATOM     88  S   UNL A   1      52.948  26.750  28.336  1.00  0.00     0.124 S 
ATOM     89  O   UNL A   1      53.299  26.345  29.693  1.00  0.00    -0.237 OA
ATOM     90  O   UNL A   1      52.987  25.694  27.329  1.00  0.00    -0.237 OA
ATOM     91  O   UNL A   1      53.487  28.038  27.908  1.00  0.00    -0.744 OA
ENDBRANCH  87  88
ENDBRANCH  55  80
ENDBRANCH  29  30
ENDBRANCH  22  24
ENDBRANCH  21  22
ENDBRANCH  20  21
ENDBRANCH   1  20
TORSDOF 18
ENDMDL
MODEL 3
REMARK VINA RESULT:     -10.3      6.629     11.944
REMARK SMILES CC1(C)[C@H](C#N)C(SCC(=O)OCCOC(=O)c2ccc(-c3c4nc(c(-c5c(F)cc(S(=O)(=O)[O-])cc5F)c5ccc([nH]5)c(-c5c(F)cc(S(=O)(=O)[O-])cc5F)c5nc(c(-c6c(F)cc(S(=O)(=O)[O-])cc6F)c6ccc3[nH]6)C=C5)C=C4)cc2)=NC(=O)[C@@H]1C#N
REMARK SMILES IDX 13 1 12 2 10 3 11 4 9 5 8 6 7 7 1 8 2 9 3 10 4 11 87 12
REMARK SMILES IDX 85 13 84 14 86 15 5 16 6 17 88 18 89 19 14 20 15 21 16 22
REMARK SMILES IDX 17 23 18 24 19 25 83 26 20 27 82 28 21 29 22 30 23 31 76 32
REMARK SMILES IDX 24 33 81 34 75 35 77 36 25 37 80 38 74 39 73 40 26 42 60 43
REMARK SMILES IDX 39 44 59 45 40 46 43 47 58 48 78 49 41 50 42 51 57 53 79 54
REMARK SMILES IDX 44 55 27 56 28 57 37 58 29 59 30 60 36 61 38 62 31 63 32 64
REMARK SMILES IDX 33 65 34 66 35 67 61 68 62 69 71 70 63 71 64 72 70 73 72 74
REMARK SMILES IDX 65 75 66 76 67 77 68 78 69 79 45 80 46 81 55 82 47 83 48 84
REMARK SMILES IDX 54 85 56 86 49 87 50 88 51 89 52 90 53 91
REMARK H PARENT 77 41 43 52
REMARK Flexibility Score: inf
ROOT
ATOM      1  C   UNL A   1      36.582  23.787  26.123  1.00  0.00     0.274 C 
ENDROOT
BRANCH   1   2
ATOM      2  O   UNL A   1      35.861  23.529  24.904  1.00  0.00    -0.461 OA
BRANCH   2   3
ATOM      3  C   UNL A   1      34.561  23.151  25.040  1.00  0.00     0.316 C 
ATOM      4  O   UNL A   1      34.194  22.164  25.668  1.00  0.00    -0.251 OA
BRANCH   3   5
ATOM      5  C   UNL A   1      33.580  24.045  24.310  1.00  0.00     0.198 C 
BRANCH   5   6
ATOM      6  S   UNL A   1      32.004  24.239  25.137  1.00  0.00    -0.097 SA
BRANCH   6   7
ATOM      7  C   UNL A   1      31.872  25.936  25.597  1.00  0.00     0.095 C 
ATOM      8  C   UNL A   1      33.134  28.664  23.519  1.00  0.00     0.015 C 
ATOM      9  C   UNL A   1      31.955  28.336  24.473  1.00  0.00     0.012 C 
ATOM     10  C   UNL A   1      30.771  29.205  23.872  1.00  0.00     0.015 C 
ATOM     11  C   UNL A   1      31.680  26.787  24.404  1.00  0.00     0.156 C 
ATOM     12  C   UNL A   1      32.287  28.735  25.937  1.00  0.00     0.191 C 
ATOM     13  C   UNL A   1      31.702  27.770  26.982  1.00  0.00     0.264 C 
ATOM     14  N   UNL A   1      31.814  26.393  26.792  1.00  0.00    -0.209 NA
ATOM     15  O   UNL A   1      31.240  28.209  28.027  1.00  0.00    -0.271 OA
BRANCH  11  16
ATOM     16  C   UNL A   1      30.190  26.689  24.116  1.00  0.00     0.073 C 
ATOM     17  N   UNL A   1      28.956  26.609  23.877  1.00  0.00    -0.198 NA
ENDBRANCH  11  16
BRANCH  12  18
ATOM     18  C   UNL A   1      31.843  30.114  26.250  1.00  0.00     0.076 C 
ATOM     19  N   UNL A   1      31.500  31.170  26.582  1.00  0.00    -0.197 NA
ENDBRANCH  12  18
ENDBRANCH   6   7
ENDBRANCH   5   6
ENDBRANCH   3   5
ENDBRANCH   2   3
ENDBRANCH   1   2
BRANCH   1  20
ATOM     20  C   UNL A   1      38.029  23.325  25.978  1.00  0.00     0.275 C 
BRANCH  20  21
ATOM     21  O   UNL A   1      38.914  24.454  26.118  1.00  0.00    -0.458 OA
BRANCH  21  22
ATOM     22  C   UNL A   1      40.033  24.204  26.835  1.00  0.00     0.338 C 
ATOM     23  O   UNL A   1      40.806  23.271  26.655  1.00  0.00    -0.246 OA
BRANCH  22  24
ATOM     24  C   UNL A   1      40.237  25.207  27.904  1.00  0.00     0.060 A 
ATOM     25  C   UNL A   1      39.214  25.534  28.800  1.00  0.00     0.016 A 
ATOM     26  C   UNL A   1      41.377  26.005  27.837  1.00  0.00     0.016 A 
ATOM     27  C   UNL A   1      39.278  26.710  29.552  1.00  0.00     0.010 A 
ATOM     28  C   UNL A   1      41.483  27.131  28.660  1.00  0.00     0.010 A 
ATOM     29  C   UNL A   1      40.429  27.507  29.509  1.00  0.00    -0.014 A 
BRANCH  29  30
ATOM     30  C   UNL A   1      40.623  28.619  30.474  1.00  0.00     0.031 A 
ATOM     31  C   UNL A   1      41.572  28.517  31.636  1.00  0.00     0.074 A 
ATOM     32  C   UNL A   1      39.811  29.687  30.345  1.00  0.00     0.049 A 
ATOM     33  N   UNL A   1      41.673  29.295  32.684  1.00  0.00    -0.248 NA
ATOM     34  C   UNL A   1      42.534  27.406  31.627  1.00  0.00     0.031 C 
ATOM     35  C   UNL A   1      38.867  29.897  29.242  1.00  0.00     0.029 A 
ATOM     36  N   UNL A   1      39.607  30.767  31.166  1.00  0.00    -0.354 N 
ATOM     37  C   UNL A   1      42.682  28.753  33.474  1.00  0.00     0.074 A 
ATOM     38  C   UNL A   1      43.173  27.583  32.778  1.00  0.00     0.031 C 
ATOM     39  C   UNL A   1      38.161  31.011  29.473  1.00  0.00     0.029 A 
ATOM     40  C   UNL A   1      38.546  31.548  30.770  1.00  0.00     0.049 A 
ATOM     41  H   UNL A   1      40.161  30.962  31.955  1.00  0.00     0.167 HD
ATOM     42  C   UNL A   1      43.134  29.189  34.676  1.00  0.00     0.037 A 
ATOM     43  C   UNL A   1      37.899  32.541  31.408  1.00  0.00     0.037 A 
ATOM     44  C   UNL A   1      42.621  30.360  35.350  1.00  0.00     0.049 A 
ATOM     45  C   UNL A   1      38.372  32.954  32.771  1.00  0.00     0.074 A 
ATOM     46  C   UNL A   1      43.050  30.921  36.542  1.00  0.00     0.029 A 
ATOM     47  N   UNL A   1      41.553  31.131  34.911  1.00  0.00    -0.354 N 
ATOM     48  N   UNL A   1      39.364  32.470  33.480  1.00  0.00    -0.248 NA
ATOM     49  C   UNL A   1      37.641  34.047  33.423  1.00  0.00     0.031 C 
ATOM     50  C   UNL A   1      42.191  31.976  36.864  1.00  0.00     0.029 A 
ATOM     51  C   UNL A   1      41.278  32.128  35.835  1.00  0.00     0.049 A 
ATOM     52  H   UNL A   1      41.064  30.991  34.069  1.00  0.00     0.167 HD
ATOM     53  C   UNL A   1      39.393  33.220  34.649  1.00  0.00     0.074 A 
ATOM     54  C   UNL A   1      38.333  34.201  34.542  1.00  0.00     0.031 C 
ATOM     55  C   UNL A   1      40.222  33.105  35.716  1.00  0.00     0.037 A 
BRANCH  42  56
ATOM     56  C   UNL A   1      44.201  28.397  35.388  1.00  0.00     0.058 A 
ATOM     57  C   UNL A   1      43.896  27.366  36.290  1.00  0.00     0.135 A 
ATOM     58  C   UNL A   1      45.555  28.593  35.061  1.00  0.00     0.135 A 
ATOM     59  F   UNL A   1      42.622  27.132  36.644  1.00  0.00    -0.206 F 
ATOM     60  C   UNL A   1      44.892  26.559  36.839  1.00  0.00     0.059 A 
ATOM     61  C   UNL A   1      46.563  27.781  35.576  1.00  0.00     0.059 A 
ATOM     62  F   UNL A   1      45.908  29.560  34.199  1.00  0.00    -0.206 F 
ATOM     63  C   UNL A   1      46.222  26.768  36.468  1.00  0.00     0.060 A 
BRANCH  63  64
ATOM     64  S   UNL A   1      47.493  25.672  37.141  1.00  0.00     0.124 S 
ATOM     65  O   UNL A   1      48.714  26.411  36.837  1.00  0.00    -0.237 OA
ATOM     66  O   UNL A   1      47.130  25.606  38.553  1.00  0.00    -0.237 OA
ATOM     67  O   UNL A   1      47.309  24.432  36.392  1.00  0.00    -0.744 OA
ENDBRANCH  63  64
ENDBRANCH  42  56
BRANCH  43  68
ATOM     68  C   UNL A   1      36.706  33.170  30.784  1.00  0.00     0.058 A 
ATOM     69  C   UNL A   1      36.840  34.075  29.723  1.00  0.00     0.135 A 
ATOM     70  C   UNL A   1      35.407  32.885  31.240  1.00  0.00     0.135 A 
ATOM     71  F   UNL A   1      38.060  34.379  29.251  1.00  0.00    -0.206 F 
ATOM     72  C   UNL A   1      35.737  34.708  29.163  1.00  0.00     0.059 A 
ATOM     73  C   UNL A   1      34.285  33.475  30.670  1.00  0.00     0.059 A 
ATOM     74  F   UNL A   1      35.219  32.007  32.238  1.00  0.00    -0.206 F 
ATOM     75  C   UNL A   1      34.463  34.403  29.646  1.00  0.00     0.060 A 
BRANCH  75  76
ATOM     76  S   UNL A   1      33.040  35.230  28.908  1.00  0.00     0.124 S 
ATOM     77  O   UNL A   1      32.191  35.447  30.073  1.00  0.00    -0.237 OA
ATOM     78  O   UNL A   1      33.647  36.426  28.329  1.00  0.00    -0.237 OA
ATOM     79  O   UNL A   1      32.547  34.256  27.940  1.00  0.00    -0.744 OA
ENDBRANCH  75  76
ENDBRANCH  43  68
BRANCH  55  80
ATOM     80  C   UNL A   1      40.042  34.090  36.839  1.00  0.00     0.058 A 
ATOM     81  C   UNL A   1      40.641  35.360  36.814  1.00  0.00     0.135 A 
ATOM     82  C   UNL A   1      39.219  33.777  37.933  1.00  0.00     0.135 A 
ATOM     83  F   UNL A   1      41.451  35.706  35.800  1.00  0.00    -0.206 F 
ATOM     84  C   UNL A   1      40.447  36.275  37.843  1.00  0.00     0.059 A 
ATOM     85  C   UNL A   1      38.981  34.691  38.954  1.00  0.00     0.059 A 
ATOM     86  F   UNL A   1      38.619  32.578  38.007  1.00  0.00    -0.206 F 
ATOM     87  C   UNL A   1      39.608  35.935  38.906  1.00  0.00     0.060 A 
BRANCH  87  88
ATOM     88  S   UNL A   1      39.326  37.154  40.206  1.00  0.00     0.124 S 
ATOM     89  O   UNL A   1      40.690  37.469  40.618  1.00  0.00    -0.237 OA
ATOM     90  O   UNL A   1      38.619  38.212  39.491  1.00  0.00    -0.237 OA
ATOM     91  O   UNL A   1      38.527  36.427  41.188  1.00  0.00    -0.744 OA
ENDBRANCH  87  88
ENDBRANCH  55  80
ENDBRANCH  29  30
ENDBRANCH  22  24
ENDBRANCH  21  22
ENDBRANCH  20  21
ENDBRANCH   1  20
TORSDOF 18
ENDMDL
