MODEL 1
REMARK VINA RESULT:     -10.5      0.000      0.000
REMARK SMILES CCC(C)(C)[C@H]1CC[C@H](C(=O)OCCOC(=O)c2ccc(-c3c4nc(c(-c5c(F)cc(S(=O)(=O)[O-])cc5F)c5ccc([nH]5)c(-c5c(F)cc(S(=O)(=O)[O-])cc5F)c5nc(c(-c6c(F)cc(S(=O)(=O)[O-])cc6F)c6ccc3[nH]6)C=C5)C=C4)cc2)[C@H](SC[C@@H](C)CO)C1
REMARK SMILES IDX 13 1 12 2 10 3 11 4 9 5 6 6 7 7 91 8 8 9 84 10 3 11 4 12
REMARK SMILES IDX 5 13 2 14 1 15 85 16 86 17 87 18 88 19 89 20 90 21 14 23
REMARK SMILES IDX 15 24 16 25 17 26 18 27 19 28 83 29 20 30 82 31 21 32 22 33
REMARK SMILES IDX 23 34 76 35 24 36 81 37 75 38 77 39 25 40 80 41 74 42 73 43
REMARK SMILES IDX 26 45 60 46 39 47 59 48 40 49 43 50 58 51 78 52 41 53 42 54
REMARK SMILES IDX 57 56 79 57 44 58 27 59 28 60 37 61 29 62 30 63 36 64 38 65
REMARK SMILES IDX 31 66 32 67 33 68 34 69 35 70 61 71 62 72 71 73 63 74 64 75
REMARK SMILES IDX 70 76 72 77 65 78 66 79 67 80 68 81 69 82 45 83 46 84 55 85
REMARK SMILES IDX 47 86 48 87 54 88 56 89 49 90 50 91 51 92 52 93 53 94
REMARK H PARENT 90 22 77 44 43 55
REMARK Flexibility Score: inf
ROOT
ATOM      1  C   UNL A   1      32.355  27.359  26.992  1.00  0.00     0.274 C 
ENDROOT
BRANCH   1   2
ATOM      2  O   UNL A   1      30.935  27.090  26.952  1.00  0.00    -0.462 OA
BRANCH   2   3
ATOM      3  C   UNL A   1      30.576  25.944  26.321  1.00  0.00     0.310 C 
ATOM      4  O   UNL A   1      29.458  25.444  26.399  1.00  0.00    -0.252 OA
BRANCH   3   5
ATOM      5  C   UNL A   1      31.689  25.295  25.527  1.00  0.00     0.112 C 
ATOM      6  C   UNL A   1      31.238  22.706  23.949  1.00  0.00    -0.004 C 
ATOM      7  C   UNL A   1      31.275  22.738  25.492  1.00  0.00     0.005 C 
ATOM      8  C   UNL A   1      30.710  24.080  23.487  1.00  0.00     0.019 C 
ATOM      9  C   UNL A   1      32.062  23.905  26.084  1.00  0.00     0.017 C 
ATOM     10  C   UNL A   1      31.531  25.268  23.999  1.00  0.00     0.061 C 
BRANCH   6  11
ATOM     11  C   UNL A   1      32.488  22.046  23.184  1.00  0.00    -0.033 C 
ATOM     12  C   UNL A   1      31.910  21.128  22.072  1.00  0.00     0.011 C 
ATOM     13  C   UNL A   1      33.300  21.100  24.112  1.00  0.00     0.011 C 
BRANCH  11  14
ATOM     14  C   UNL A   1      33.552  22.985  22.525  1.00  0.00     0.003 C 
ATOM     15  C   UNL A   1      34.914  23.149  23.193  1.00  0.00     0.004 C 
ENDBRANCH  11  14
ENDBRANCH   6  11
BRANCH  10  16
ATOM     16  S   UNL A   1      31.266  26.804  22.994  1.00  0.00    -0.157 SA
BRANCH  16  17
ATOM     17  C   UNL A   1      29.648  27.492  23.469  1.00  0.00     0.075 C 
BRANCH  17  18
ATOM     18  C   UNL A   1      29.018  28.555  22.553  1.00  0.00     0.021 C 
ATOM     19  C   UNL A   1      27.588  28.926  22.924  1.00  0.00     0.011 C 
BRANCH  18  20
ATOM     20  C   UNL A   1      29.873  29.835  22.587  1.00  0.00     0.160 C 
BRANCH  20  21
ATOM     21  O   UNL A   1      30.562  30.039  21.363  1.00  0.00    -0.396 OA
ATOM     22  H   UNL A   1      30.969  30.919  21.365  1.00  0.00     0.210 HD
ENDBRANCH  20  21
ENDBRANCH  18  20
ENDBRANCH  17  18
ENDBRANCH  16  17
ENDBRANCH  10  16
ENDBRANCH   3   5
ENDBRANCH   2   3
ENDBRANCH   1   2
BRANCH   1  23
ATOM     23  C   UNL A   1      32.702  28.850  27.081  1.00  0.00     0.275 C 
BRANCH  23  24
ATOM     24  O   UNL A   1      34.122  29.074  27.088  1.00  0.00    -0.458 OA
BRANCH  24  25
ATOM     25  C   UNL A   1      34.523  30.161  27.791  1.00  0.00     0.338 C 
ATOM     26  O   UNL A   1      33.820  31.084  28.167  1.00  0.00    -0.246 OA
BRANCH  25  27
ATOM     27  C   UNL A   1      35.925  29.994  28.214  1.00  0.00     0.060 A 
ATOM     28  C   UNL A   1      36.916  30.118  27.234  1.00  0.00     0.016 A 
ATOM     29  C   UNL A   1      36.264  29.668  29.527  1.00  0.00     0.016 A 
ATOM     30  C   UNL A   1      38.254  29.929  27.555  1.00  0.00     0.010 A 
ATOM     31  C   UNL A   1      37.608  29.448  29.845  1.00  0.00     0.010 A 
ATOM     32  C   UNL A   1      38.603  29.564  28.858  1.00  0.00    -0.014 A 
BRANCH  32  33
ATOM     33  C   UNL A   1      39.997  29.164  29.142  1.00  0.00     0.031 A 
ATOM     34  C   UNL A   1      40.919  30.176  29.756  1.00  0.00     0.074 A 
ATOM     35  C   UNL A   1      40.413  27.911  28.891  1.00  0.00     0.049 A 
ATOM     36  N   UNL A   1      42.204  30.102  29.974  1.00  0.00    -0.248 NA
ATOM     37  C   UNL A   1      40.305  31.446  30.181  1.00  0.00     0.031 C 
ATOM     38  C   UNL A   1      39.572  26.829  28.378  1.00  0.00     0.029 A 
ATOM     39  N   UNL A   1      41.652  27.339  29.028  1.00  0.00    -0.354 N 
ATOM     40  C   UNL A   1      42.559  31.321  30.538  1.00  0.00     0.074 A 
ATOM     41  C   UNL A   1      41.357  32.119  30.623  1.00  0.00     0.031 C 
ATOM     42  C   UNL A   1      40.327  25.728  28.221  1.00  0.00     0.029 A 
ATOM     43  C   UNL A   1      41.709  26.042  28.578  1.00  0.00     0.049 A 
ATOM     44  H   UNL A   1      42.426  27.813  29.410  1.00  0.00     0.167 HD
ATOM     45  C   UNL A   1      43.784  31.733  30.942  1.00  0.00     0.037 A 
ATOM     46  C   UNL A   1      42.767  25.221  28.433  1.00  0.00     0.037 A 
ATOM     47  C   UNL A   1      44.968  30.920  30.852  1.00  0.00     0.049 A 
ATOM     48  C   UNL A   1      44.132  25.725  28.823  1.00  0.00     0.074 A 
ATOM     49  C   UNL A   1      46.264  31.239  31.209  1.00  0.00     0.029 A 
ATOM     50  N   UNL A   1      44.992  29.618  30.368  1.00  0.00    -0.354 N 
ATOM     51  N   UNL A   1      44.470  26.894  29.315  1.00  0.00    -0.248 NA
ATOM     52  C   UNL A   1      45.261  24.804  28.632  1.00  0.00     0.031 C 
ATOM     53  C   UNL A   1      47.080  30.142  30.907  1.00  0.00     0.029 A 
ATOM     54  C   UNL A   1      46.285  29.124  30.405  1.00  0.00     0.049 A 
ATOM     55  H   UNL A   1      44.207  29.119  30.046  1.00  0.00     0.167 HD
ATOM     56  C   UNL A   1      45.846  26.843  29.512  1.00  0.00     0.074 A 
ATOM     57  C   UNL A   1      46.275  25.523  29.095  1.00  0.00     0.031 C 
ATOM     58  C   UNL A   1      46.680  27.800  29.990  1.00  0.00     0.037 A 
BRANCH  45  59
ATOM     59  C   UNL A   1      43.903  33.135  31.470  1.00  0.00     0.058 A 
ATOM     60  C   UNL A   1      44.099  34.235  30.621  1.00  0.00     0.135 A 
ATOM     61  C   UNL A   1      43.817  33.381  32.850  1.00  0.00     0.135 A 
ATOM     62  F   UNL A   1      44.214  34.054  29.295  1.00  0.00    -0.206 F 
ATOM     63  C   UNL A   1      44.235  35.526  31.122  1.00  0.00     0.059 A 
ATOM     64  C   UNL A   1      43.925  34.667  33.372  1.00  0.00     0.059 A 
ATOM     65  F   UNL A   1      43.637  32.365  33.708  1.00  0.00    -0.206 F 
ATOM     66  C   UNL A   1      44.149  35.732  32.500  1.00  0.00     0.060 A 
BRANCH  66  67
ATOM     67  S   UNL A   1      44.334  37.410  33.139  1.00  0.00     0.124 S 
ATOM     68  O   UNL A   1      45.408  37.234  34.113  1.00  0.00    -0.237 OA
ATOM     69  O   UNL A   1      44.686  38.164  31.941  1.00  0.00    -0.237 OA
ATOM     70  O   UNL A   1      43.022  37.708  33.701  1.00  0.00    -0.744 OA
ENDBRANCH  66  67
ENDBRANCH  45  59
BRANCH  46  71
ATOM     71  C   UNL A   1      42.583  23.862  27.857  1.00  0.00     0.058 A 
ATOM     72  C   UNL A   1      42.463  23.667  26.473  1.00  0.00     0.135 A 
ATOM     73  C   UNL A   1      42.533  22.726  28.681  1.00  0.00     0.135 A 
ATOM     74  F   UNL A   1      42.491  24.722  25.644  1.00  0.00    -0.206 F 
ATOM     75  C   UNL A   1      42.290  22.399  25.927  1.00  0.00     0.059 A 
ATOM     76  C   UNL A   1      42.387  21.446  28.158  1.00  0.00     0.059 A 
ATOM     77  F   UNL A   1      42.651  22.855  30.012  1.00  0.00    -0.206 F 
ATOM     78  C   UNL A   1      42.256  21.293  26.779  1.00  0.00     0.060 A 
BRANCH  78  79
ATOM     79  S   UNL A   1      42.083  19.645  26.058  1.00  0.00     0.124 S 
ATOM     80  O   UNL A   1      43.023  19.711  24.945  1.00  0.00    -0.237 OA
ATOM     81  O   UNL A   1      42.469  18.780  27.170  1.00  0.00    -0.237 OA
ATOM     82  O   UNL A   1      40.671  19.587  25.691  1.00  0.00    -0.744 OA
ENDBRANCH  78  79
ENDBRANCH  46  71
BRANCH  58  83
ATOM     83  C   UNL A   1      48.133  27.441  30.122  1.00  0.00     0.058 A 
ATOM     84  C   UNL A   1      49.051  27.695  29.092  1.00  0.00     0.135 A 
ATOM     85  C   UNL A   1      48.620  26.890  31.318  1.00  0.00     0.135 A 
ATOM     86  F   UNL A   1      48.633  28.215  27.927  1.00  0.00    -0.206 F 
ATOM     87  C   UNL A   1      50.402  27.396  29.237  1.00  0.00     0.059 A 
ATOM     88  C   UNL A   1      49.970  26.607  31.493  1.00  0.00     0.059 A 
ATOM     89  F   UNL A   1      47.783  26.639  32.338  1.00  0.00    -0.206 F 
ATOM     90  C   UNL A   1      50.852  26.853  30.442  1.00  0.00     0.060 A 
BRANCH  90  91
ATOM     91  S   UNL A   1      52.613  26.504  30.631  1.00  0.00     0.124 S 
ATOM     92  O   UNL A   1      53.007  26.229  29.254  1.00  0.00    -0.237 OA
ATOM     93  O   UNL A   1      53.120  27.749  31.200  1.00  0.00    -0.237 OA
ATOM     94  O   UNL A   1      52.635  25.356  31.534  1.00  0.00    -0.744 OA
ENDBRANCH  90  91
ENDBRANCH  58  83
ENDBRANCH  32  33
ENDBRANCH  25  27
ENDBRANCH  24  25
ENDBRANCH  23  24
ENDBRANCH   1  23
TORSDOF 21
ENDMDL
MODEL 2
REMARK VINA RESULT:     -10.2      2.424      3.290
REMARK SMILES CCC(C)(C)[C@H]1CC[C@H](C(=O)OCCOC(=O)c2ccc(-c3c4nc(c(-c5c(F)cc(S(=O)(=O)[O-])cc5F)c5ccc([nH]5)c(-c5c(F)cc(S(=O)(=O)[O-])cc5F)c5nc(c(-c6c(F)cc(S(=O)(=O)[O-])cc6F)c6ccc3[nH]6)C=C5)C=C4)cc2)[C@H](SC[C@@H](C)CO)C1
REMARK SMILES IDX 13 1 12 2 10 3 11 4 9 5 6 6 7 7 91 8 8 9 84 10 3 11 4 12
REMARK SMILES IDX 5 13 2 14 1 15 85 16 86 17 87 18 88 19 89 20 90 21 14 23
REMARK SMILES IDX 15 24 16 25 17 26 18 27 19 28 83 29 20 30 82 31 21 32 22 33
REMARK SMILES IDX 23 34 76 35 24 36 81 37 75 38 77 39 25 40 80 41 74 42 73 43
REMARK SMILES IDX 26 45 60 46 39 47 59 48 40 49 43 50 58 51 78 52 41 53 42 54
REMARK SMILES IDX 57 56 79 57 44 58 27 59 28 60 37 61 29 62 30 63 36 64 38 65
REMARK SMILES IDX 31 66 32 67 33 68 34 69 35 70 61 71 62 72 71 73 63 74 64 75
REMARK SMILES IDX 70 76 72 77 65 78 66 79 67 80 68 81 69 82 45 83 46 84 55 85
REMARK SMILES IDX 47 86 48 87 54 88 56 89 49 90 50 91 51 92 52 93 53 94
REMARK H PARENT 90 22 77 44 43 55
REMARK Flexibility Score: inf
ROOT
ATOM      1  C   UNL A   1      33.012  31.048  27.310  1.00  0.00     0.274 C 
ENDROOT
BRANCH   1   2
ATOM      2  O   UNL A   1      32.940  29.841  26.517  1.00  0.00    -0.462 OA
BRANCH   2   3
ATOM      3  C   UNL A   1      32.063  29.875  25.482  1.00  0.00     0.310 C 
ATOM      4  O   UNL A   1      31.078  30.604  25.446  1.00  0.00    -0.252 OA
BRANCH   3   5
ATOM      5  C   UNL A   1      32.377  28.898  24.368  1.00  0.00     0.112 C 
ATOM      6  C   UNL A   1      33.010  25.955  24.943  1.00  0.00    -0.004 C 
ATOM      7  C   UNL A   1      33.987  27.096  25.299  1.00  0.00     0.005 C 
ATOM      8  C   UNL A   1      31.587  26.545  25.026  1.00  0.00     0.019 C 
ATOM      9  C   UNL A   1      33.819  28.360  24.460  1.00  0.00     0.017 C 
ATOM     10  C   UNL A   1      31.365  27.766  24.129  1.00  0.00     0.061 C 
BRANCH   6  11
ATOM     11  C   UNL A   1      33.395  24.997  23.710  1.00  0.00    -0.033 C 
ATOM     12  C   UNL A   1      32.252  23.953  23.569  1.00  0.00     0.011 C 
ATOM     13  C   UNL A   1      34.675  24.166  24.001  1.00  0.00     0.011 C 
BRANCH  11  14
ATOM     14  C   UNL A   1      33.634  25.638  22.302  1.00  0.00     0.003 C 
ATOM     15  C   UNL A   1      32.480  25.693  21.306  1.00  0.00     0.004 C 
ENDBRANCH  11  14
ENDBRANCH   6  11
BRANCH  10  16
ATOM     16  S   UNL A   1      29.570  28.086  23.789  1.00  0.00    -0.157 SA
BRANCH  16  17
ATOM     17  C   UNL A   1      29.481  29.422  22.552  1.00  0.00     0.075 C 
BRANCH  17  18
ATOM     18  C   UNL A   1      28.186  30.246  22.473  1.00  0.00     0.021 C 
ATOM     19  C   UNL A   1      28.105  31.375  23.493  1.00  0.00     0.011 C 
BRANCH  18  20
ATOM     20  C   UNL A   1      28.050  30.856  21.066  1.00  0.00     0.160 C 
BRANCH  20  21
ATOM     21  O   UNL A   1      29.066  31.812  20.807  1.00  0.00    -0.396 OA
ATOM     22  H   UNL A   1      28.734  32.700  21.011  1.00  0.00     0.210 HD
ENDBRANCH  20  21
ENDBRANCH  18  20
ENDBRANCH  17  18
ENDBRANCH  16  17
ENDBRANCH  10  16
ENDBRANCH   3   5
ENDBRANCH   2   3
ENDBRANCH   1   2
BRANCH   1  23
ATOM     23  C   UNL A   1      34.443  31.486  27.645  1.00  0.00     0.275 C 
BRANCH  23  24
ATOM     24  O   UNL A   1      35.212  30.419  28.225  1.00  0.00    -0.458 OA
BRANCH  24  25
ATOM     25  C   UNL A   1      36.097  30.807  29.175  1.00  0.00     0.338 C 
ATOM     26  O   UNL A   1      35.852  31.473  30.167  1.00  0.00    -0.246 OA
BRANCH  25  27
ATOM     27  C   UNL A   1      37.394  30.146  28.951  1.00  0.00     0.060 A 
ATOM     28  C   UNL A   1      38.196  29.897  30.071  1.00  0.00     0.016 A 
ATOM     29  C   UNL A   1      37.847  29.825  27.671  1.00  0.00     0.016 A 
ATOM     30  C   UNL A   1      39.450  29.317  29.927  1.00  0.00     0.010 A 
ATOM     31  C   UNL A   1      39.121  29.269  27.522  1.00  0.00     0.010 A 
ATOM     32  C   UNL A   1      39.930  29.027  28.648  1.00  0.00    -0.014 A 
BRANCH  32  33
ATOM     33  C   UNL A   1      41.337  28.606  28.487  1.00  0.00     0.031 A 
ATOM     34  C   UNL A   1      42.412  29.644  28.622  1.00  0.00     0.074 A 
ATOM     35  C   UNL A   1      41.644  27.316  28.265  1.00  0.00     0.049 A 
ATOM     36  N   UNL A   1      43.694  29.544  28.397  1.00  0.00    -0.248 NA
ATOM     37  C   UNL A   1      41.979  30.978  29.073  1.00  0.00     0.031 C 
ATOM     38  C   UNL A   1      40.680  26.217  28.205  1.00  0.00     0.029 A 
ATOM     39  N   UNL A   1      42.855  26.715  28.040  1.00  0.00    -0.354 N 
ATOM     40  C   UNL A   1      44.220  30.804  28.654  1.00  0.00     0.074 A 
ATOM     41  C   UNL A   1      43.117  31.655  29.044  1.00  0.00     0.031 C 
ATOM     42  C   UNL A   1      41.337  25.076  27.936  1.00  0.00     0.029 A 
ATOM     43  C   UNL A   1      42.757  25.373  27.759  1.00  0.00     0.049 A 
ATOM     44  H   UNL A   1      43.713  27.197  28.075  1.00  0.00     0.167 HD
ATOM     45  C   UNL A   1      45.508  31.210  28.563  1.00  0.00     0.037 A 
ATOM     46  C   UNL A   1      43.703  24.499  27.365  1.00  0.00     0.037 A 
ATOM     47  C   UNL A   1      46.590  30.345  28.175  1.00  0.00     0.049 A 
ATOM     48  C   UNL A   1      45.118  24.989  27.202  1.00  0.00     0.074 A 
ATOM     49  C   UNL A   1      47.930  30.650  28.028  1.00  0.00     0.029 A 
ATOM     50  N   UNL A   1      46.449  28.996  27.875  1.00  0.00    -0.354 N 
ATOM     51  N   UNL A   1      45.602  26.192  27.404  1.00  0.00    -0.248 NA
ATOM     52  C   UNL A   1      46.115  24.008  26.752  1.00  0.00     0.031 C 
ATOM     53  C   UNL A   1      48.595  29.494  27.602  1.00  0.00     0.029 A 
ATOM     54  C   UNL A   1      47.677  28.458  27.529  1.00  0.00     0.049 A 
ATOM     55  H   UNL A   1      45.602  28.496  27.903  1.00  0.00     0.167 HD
ATOM     56  C   UNL A   1      46.962  26.109  27.124  1.00  0.00     0.074 A 
ATOM     57  C   UNL A   1      47.225  24.734  26.752  1.00  0.00     0.031 C 
ATOM     58  C   UNL A   1      47.908  27.081  27.170  1.00  0.00     0.037 A 
BRANCH  45  59
ATOM     59  C   UNL A   1      45.798  32.658  28.844  1.00  0.00     0.058 A 
ATOM     60  C   UNL A   1      45.683  33.645  27.853  1.00  0.00     0.135 A 
ATOM     61  C   UNL A   1      46.197  33.064  30.128  1.00  0.00     0.135 A 
ATOM     62  F   UNL A   1      45.329  33.309  26.601  1.00  0.00    -0.206 F 
ATOM     63  C   UNL A   1      45.980  34.978  28.116  1.00  0.00     0.059 A 
ATOM     64  C   UNL A   1      46.475  34.396  30.421  1.00  0.00     0.059 A 
ATOM     65  F   UNL A   1      46.330  32.160  31.111  1.00  0.00    -0.206 F 
ATOM     66  C   UNL A   1      46.378  35.344  29.404  1.00  0.00     0.060 A 
BRANCH  66  67
ATOM     67  S   UNL A   1      46.769  37.076  29.731  1.00  0.00     0.124 S 
ATOM     68  O   UNL A   1      48.031  37.230  29.014  1.00  0.00    -0.237 OA
ATOM     69  O   UNL A   1      45.624  37.770  29.151  1.00  0.00    -0.237 OA
ATOM     70  O   UNL A   1      46.864  37.135  31.185  1.00  0.00    -0.744 OA
ENDBRANCH  66  67
ENDBRANCH  45  59
BRANCH  46  71
ATOM     71  C   UNL A   1      43.335  23.091  27.056  1.00  0.00     0.058 A 
ATOM     72  C   UNL A   1      43.189  22.649  25.733  1.00  0.00     0.135 A 
ATOM     73  C   UNL A   1      43.131  22.154  28.082  1.00  0.00     0.135 A 
ATOM     74  F   UNL A   1      43.360  23.509  24.717  1.00  0.00    -0.206 F 
ATOM     75  C   UNL A   1      42.844  21.334  25.437  1.00  0.00     0.059 A 
ATOM     76  C   UNL A   1      42.811  20.828  27.811  1.00  0.00     0.059 A 
ATOM     77  F   UNL A   1      43.266  22.522  29.366  1.00  0.00    -0.206 F 
ATOM     78  C   UNL A   1      42.660  20.429  26.484  1.00  0.00     0.060 A 
BRANCH  78  79
ATOM     79  S   UNL A   1      42.263  18.711  26.090  1.00  0.00     0.124 S 
ATOM     80  O   UNL A   1      42.546  18.046  27.356  1.00  0.00    -0.237 OA
ATOM     81  O   UNL A   1      40.854  18.798  25.715  1.00  0.00    -0.237 OA
ATOM     82  O   UNL A   1      43.175  18.399  24.994  1.00  0.00    -0.744 OA
ENDBRANCH  78  79
ENDBRANCH  46  71
BRANCH  58  83
ATOM     83  C   UNL A   1      49.319  26.681  26.843  1.00  0.00     0.058 A 
ATOM     84  C   UNL A   1      50.188  26.176  27.822  1.00  0.00     0.135 A 
ATOM     85  C   UNL A   1      49.786  26.750  25.521  1.00  0.00     0.135 A 
ATOM     86  F   UNL A   1      49.789  26.096  29.102  1.00  0.00    -0.206 F 
ATOM     87  C   UNL A   1      51.479  25.771  27.505  1.00  0.00     0.059 A 
ATOM     88  C   UNL A   1      51.066  26.327  25.177  1.00  0.00     0.059 A 
ATOM     89  F   UNL A   1      48.990  27.215  24.544  1.00  0.00    -0.206 F 
ATOM     90  C   UNL A   1      51.910  25.849  26.179  1.00  0.00     0.060 A 
BRANCH  90  91
ATOM     91  S   UNL A   1      53.576  25.286  25.774  1.00  0.00     0.124 S 
ATOM     92  O   UNL A   1      53.930  26.181  24.677  1.00  0.00    -0.237 OA
ATOM     93  O   UNL A   1      54.293  25.503  27.026  1.00  0.00    -0.237 OA
ATOM     94  O   UNL A   1      53.380  23.887  25.405  1.00  0.00    -0.744 OA
ENDBRANCH  90  91
ENDBRANCH  58  83
ENDBRANCH  32  33
ENDBRANCH  25  27
ENDBRANCH  24  25
ENDBRANCH  23  24
ENDBRANCH   1  23
TORSDOF 21
ENDMDL
MODEL 3
REMARK VINA RESULT:     -10.0      2.871      3.567
REMARK SMILES CCC(C)(C)[C@H]1CC[C@H](C(=O)OCCOC(=O)c2ccc(-c3c4nc(c(-c5c(F)cc(S(=O)(=O)[O-])cc5F)c5ccc([nH]5)c(-c5c(F)cc(S(=O)(=O)[O-])cc5F)c5nc(c(-c6c(F)cc(S(=O)(=O)[O-])cc6F)c6ccc3[nH]6)C=C5)C=C4)cc2)[C@H](SC[C@@H](C)CO)C1
REMARK SMILES IDX 13 1 12 2 10 3 11 4 9 5 6 6 7 7 91 8 8 9 84 10 3 11 4 12
REMARK SMILES IDX 5 13 2 14 1 15 85 16 86 17 87 18 88 19 89 20 90 21 14 23
REMARK SMILES IDX 15 24 16 25 17 26 18 27 19 28 83 29 20 30 82 31 21 32 22 33
REMARK SMILES IDX 23 34 76 35 24 36 81 37 75 38 77 39 25 40 80 41 74 42 73 43
REMARK SMILES IDX 26 45 60 46 39 47 59 48 40 49 43 50 58 51 78 52 41 53 42 54
REMARK SMILES IDX 57 56 79 57 44 58 27 59 28 60 37 61 29 62 30 63 36 64 38 65
REMARK SMILES IDX 31 66 32 67 33 68 34 69 35 70 61 71 62 72 71 73 63 74 64 75
REMARK SMILES IDX 70 76 72 77 65 78 66 79 67 80 68 81 69 82 45 83 46 84 55 85
REMARK SMILES IDX 47 86 48 87 54 88 56 89 49 90 50 91 51 92 52 93 53 94
REMARK H PARENT 90 22 77 44 43 55
REMARK Flexibility Score: inf
ROOT
ATOM      1  C   UNL A   1      31.749  29.929  25.734  1.00  0.00     0.274 C 
ENDROOT
BRANCH   1   2
ATOM      2  O   UNL A   1      32.664  28.945  25.203  1.00  0.00    -0.462 OA
BRANCH   2   3
ATOM      3  C   UNL A   1      32.341  27.651  25.454  1.00  0.00     0.310 C 
ATOM      4  O   UNL A   1      31.556  27.302  26.330  1.00  0.00    -0.252 OA
BRANCH   3   5
ATOM      5  C   UNL A   1      33.063  26.647  24.582  1.00  0.00     0.112 C 
ATOM      6  C   UNL A   1      32.511  23.640  24.797  1.00  0.00    -0.004 C 
ATOM      7  C   UNL A   1      33.260  24.424  25.896  1.00  0.00     0.005 C 
ATOM      8  C   UNL A   1      31.538  24.632  24.127  1.00  0.00     0.019 C 
ATOM      9  C   UNL A   1      33.951  25.695  25.409  1.00  0.00     0.017 C 
ATOM     10  C   UNL A   1      32.216  25.880  23.555  1.00  0.00     0.061 C 
BRANCH   6  11
ATOM     11  C   UNL A   1      33.366  22.634  23.880  1.00  0.00    -0.033 C 
ATOM     12  C   UNL A   1      33.242  23.136  22.415  1.00  0.00     0.011 C 
ATOM     13  C   UNL A   1      32.762  21.202  23.874  1.00  0.00     0.011 C 
BRANCH  11  14
ATOM     14  C   UNL A   1      34.887  22.436  24.192  1.00  0.00     0.003 C 
ATOM     15  C   UNL A   1      35.922  22.995  23.220  1.00  0.00     0.004 C 
ENDBRANCH  11  14
ENDBRANCH   6  11
BRANCH  10  16
ATOM     16  S   UNL A   1      31.177  26.735  22.278  1.00  0.00    -0.157 SA
BRANCH  16  17
ATOM     17  C   UNL A   1      29.813  27.566  23.155  1.00  0.00     0.075 C 
BRANCH  17  18
ATOM     18  C   UNL A   1      29.042  28.668  22.410  1.00  0.00     0.021 C 
ATOM     19  C   UNL A   1      27.660  28.954  22.984  1.00  0.00     0.011 C 
BRANCH  18  20
ATOM     20  C   UNL A   1      29.856  29.974  22.438  1.00  0.00     0.160 C 
BRANCH  20  21
ATOM     21  O   UNL A   1      30.715  30.083  21.313  1.00  0.00    -0.396 OA
ATOM     22  H   UNL A   1      30.519  30.904  20.836  1.00  0.00     0.210 HD
ENDBRANCH  20  21
ENDBRANCH  18  20
ENDBRANCH  17  18
ENDBRANCH  16  17
ENDBRANCH  10  16
ENDBRANCH   3   5
ENDBRANCH   2   3
ENDBRANCH   1   2
BRANCH   1  23
ATOM     23  C   UNL A   1      32.331  30.759  26.885  1.00  0.00     0.275 C 
BRANCH  23  24
ATOM     24  O   UNL A   1      33.752  30.583  27.012  1.00  0.00    -0.458 OA
BRANCH  24  25
ATOM     25  C   UNL A   1      34.381  31.536  27.742  1.00  0.00     0.338 C 
ATOM     26  O   UNL A   1      33.909  32.597  28.113  1.00  0.00    -0.246 OA
BRANCH  25  27
ATOM     27  C   UNL A   1      35.688  31.033  28.202  1.00  0.00     0.060 A 
ATOM     28  C   UNL A   1      35.741  29.720  28.685  1.00  0.00     0.016 A 
ATOM     29  C   UNL A   1      36.825  31.839  28.215  1.00  0.00     0.016 A 
ATOM     30  C   UNL A   1      36.931  29.197  29.175  1.00  0.00     0.010 A 
ATOM     31  C   UNL A   1      38.016  31.324  28.736  1.00  0.00     0.010 A 
ATOM     32  C   UNL A   1      38.068  30.007  29.230  1.00  0.00    -0.014 A 
BRANCH  32  33
ATOM     33  C   UNL A   1      39.267  29.515  29.939  1.00  0.00     0.031 A 
ATOM     34  C   UNL A   1      39.670  30.194  31.215  1.00  0.00     0.074 A 
ATOM     35  C   UNL A   1      39.955  28.460  29.469  1.00  0.00     0.049 A 
ATOM     36  N   UNL A   1      40.744  30.029  31.939  1.00  0.00    -0.248 NA
ATOM     37  C   UNL A   1      38.730  31.197  31.747  1.00  0.00     0.031 C 
ATOM     38  C   UNL A   1      39.595  27.677  28.287  1.00  0.00     0.029 A 
ATOM     39  N   UNL A   1      41.105  27.871  29.927  1.00  0.00    -0.354 N 
ATOM     40  C   UNL A   1      40.624  30.922  32.997  1.00  0.00     0.074 A 
ATOM     41  C   UNL A   1      39.377  31.631  32.818  1.00  0.00     0.031 C 
ATOM     42  C   UNL A   1      40.522  26.722  28.099  1.00  0.00     0.029 A 
ATOM     43  C   UNL A   1      41.560  26.858  29.119  1.00  0.00     0.049 A 
ATOM     44  H   UNL A   1      41.561  28.148  30.755  1.00  0.00     0.167 HD
ATOM     45  C   UNL A   1      41.485  31.130  34.020  1.00  0.00     0.037 A 
ATOM     46  C   UNL A   1      42.706  26.152  29.176  1.00  0.00     0.037 A 
ATOM     47  C   UNL A   1      42.720  30.409  34.181  1.00  0.00     0.049 A 
ATOM     48  C   UNL A   1      43.684  26.449  30.284  1.00  0.00     0.074 A 
ATOM     49  C   UNL A   1      43.681  30.550  35.164  1.00  0.00     0.029 A 
ATOM     50  N   UNL A   1      43.161  29.405  33.329  1.00  0.00    -0.354 N 
ATOM     51  N   UNL A   1      43.586  27.324  31.256  1.00  0.00    -0.248 NA
ATOM     52  C   UNL A   1      44.929  25.669  30.299  1.00  0.00     0.031 C 
ATOM     53  C   UNL A   1      44.721  29.655  34.886  1.00  0.00     0.029 A 
ATOM     54  C   UNL A   1      44.387  28.926  33.756  1.00  0.00     0.049 A 
ATOM     55  H   UNL A   1      42.674  29.081  32.537  1.00  0.00     0.167 HD
ATOM     56  C   UNL A   1      44.747  27.189  32.011  1.00  0.00     0.074 A 
ATOM     57  C   UNL A   1      45.525  26.138  31.387  1.00  0.00     0.031 C 
ATOM     58  C   UNL A   1      45.135  27.871  33.117  1.00  0.00     0.037 A 
BRANCH  45  59
ATOM     59  C   UNL A   1      41.137  32.207  35.009  1.00  0.00     0.058 A 
ATOM     60  C   UNL A   1      40.234  31.988  36.059  1.00  0.00     0.135 A 
ATOM     61  C   UNL A   1      41.720  33.480  34.902  1.00  0.00     0.135 A 
ATOM     62  F   UNL A   1      39.628  30.797  36.193  1.00  0.00    -0.206 F 
ATOM     63  C   UNL A   1      39.898  33.000  36.953  1.00  0.00     0.059 A 
ATOM     64  C   UNL A   1      41.418  34.501  35.799  1.00  0.00     0.059 A 
ATOM     65  F   UNL A   1      42.586  33.747  33.911  1.00  0.00    -0.206 F 
ATOM     66  C   UNL A   1      40.494  34.255  36.813  1.00  0.00     0.060 A 
BRANCH  66  67
ATOM     67  S   UNL A   1      40.043  35.563  37.973  1.00  0.00     0.124 S 
ATOM     68  O   UNL A   1      39.701  36.653  37.065  1.00  0.00    -0.237 OA
ATOM     69  O   UNL A   1      38.925  34.968  38.697  1.00  0.00    -0.237 OA
ATOM     70  O   UNL A   1      41.259  35.758  38.756  1.00  0.00    -0.744 OA
ENDBRANCH  66  67
ENDBRANCH  45  59
BRANCH  46  71
ATOM     71  C   UNL A   1      43.008  25.134  28.134  1.00  0.00     0.058 A 
ATOM     72  C   UNL A   1      43.639  25.485  26.932  1.00  0.00     0.135 A 
ATOM     73  C   UNL A   1      42.679  23.782  28.326  1.00  0.00     0.135 A 
ATOM     74  F   UNL A   1      43.961  26.766  26.695  1.00  0.00    -0.206 F 
ATOM     75  C   UNL A   1      43.924  24.539  25.953  1.00  0.00     0.059 A 
ATOM     76  C   UNL A   1      42.976  22.812  27.374  1.00  0.00     0.059 A 
ATOM     77  F   UNL A   1      42.081  23.389  29.462  1.00  0.00    -0.206 F 
ATOM     78  C   UNL A   1      43.591  23.202  26.185  1.00  0.00     0.060 A 
BRANCH  78  79
ATOM     79  S   UNL A   1      44.010  21.971  24.931  1.00  0.00     0.124 S 
ATOM     80  O   UNL A   1      45.417  21.723  25.223  1.00  0.00    -0.237 OA
ATOM     81  O   UNL A   1      43.090  20.883  25.247  1.00  0.00    -0.237 OA
ATOM     82  O   UNL A   1      43.738  22.665  23.676  1.00  0.00    -0.744 OA
ENDBRANCH  78  79
ENDBRANCH  46  71
BRANCH  58  83
ATOM     83  C   UNL A   1      46.443  27.477  33.743  1.00  0.00     0.058 A 
ATOM     84  C   UNL A   1      47.646  28.111  33.398  1.00  0.00     0.135 A 
ATOM     85  C   UNL A   1      46.481  26.492  34.743  1.00  0.00     0.135 A 
ATOM     86  F   UNL A   1      47.662  29.054  32.442  1.00  0.00    -0.206 F 
ATOM     87  C   UNL A   1      48.847  27.768  34.009  1.00  0.00     0.059 A 
ATOM     88  C   UNL A   1      47.666  26.151  35.385  1.00  0.00     0.059 A 
ATOM     89  F   UNL A   1      45.354  25.864  35.118  1.00  0.00    -0.206 F 
ATOM     90  C   UNL A   1      48.847  26.787  35.004  1.00  0.00     0.060 A 
BRANCH  90  91
ATOM     91  S   UNL A   1      50.405  26.377  35.816  1.00  0.00     0.124 S 
ATOM     92  O   UNL A   1      49.938  25.744  37.044  1.00  0.00    -0.237 OA
ATOM     93  O   UNL A   1      51.040  25.489  34.847  1.00  0.00    -0.237 OA
ATOM     94  O   UNL A   1      51.051  27.676  35.984  1.00  0.00    -0.744 OA
ENDBRANCH  90  91
ENDBRANCH  58  83
ENDBRANCH  32  33
ENDBRANCH  25  27
ENDBRANCH  24  25
ENDBRANCH  23  24
ENDBRANCH   1  23
TORSDOF 21
ENDMDL
