MODEL 1
REMARK VINA RESULT:     -12.2      0.000      0.000
REMARK SMILES O=C(COc1ccc(Br)cc1/C=C1\C(=O)Nc2ccc(Br)cc21)OCCOC(=O)c1ccc(-c2c3nc(c(-c4c(F)cc(S(=O)(=O)[O-])cc4F)c4ccc([nH]4)c(-c4c(F)cc(S(=O)(=O)[O-])cc4F)c4nc(c(-c5c(F)cc(S(=O)(=O)[O-])cc5F)c5ccc2[nH]5)C=C4)C=C3)cc1
REMARK SMILES IDX 25 1 24 2 2 3 1 4 3 5 4 6 5 7 6 8 11 9 7 10 10 11 8 12 9 13
REMARK SMILES IDX 12 14 13 15 14 16 23 17 15 18 16 19 17 20 22 21 18 23 20 24
REMARK SMILES IDX 19 25 21 26 26 27 27 28 28 29 29 30 30 31 31 32 95 33 32 34
REMARK SMILES IDX 94 35 33 36 34 37 35 38 88 39 36 40 93 41 87 42 89 43 37 44
REMARK SMILES IDX 92 45 86 46 85 47 38 49 72 50 51 51 71 52 52 53 55 54 70 55
REMARK SMILES IDX 90 56 53 57 54 58 69 60 91 61 56 62 39 63 40 64 49 65 41 66
REMARK SMILES IDX 42 67 48 68 50 69 43 70 44 71 45 72 46 73 47 74 73 75 74 76
REMARK SMILES IDX 83 77 75 78 76 79 82 80 84 81 77 82 78 83 79 84 80 85 81 86
REMARK SMILES IDX 57 87 58 88 67 89 59 90 60 91 66 92 68 93 61 94 62 95 63 96
REMARK SMILES IDX 64 97 65 98
REMARK H PARENT 16 22 89 48 55 59
REMARK Flexibility Score: inf
ROOT
ATOM      1  C   UNL A   1      41.213  21.732  26.100  1.00  0.00     0.274 C 
ENDROOT
BRANCH   1   2
ATOM      2  O   UNL A   1      40.208  22.360  26.920  1.00  0.00    -0.460 OA
BRANCH   2   3
ATOM      3  C   UNL A   1      39.037  22.813  26.405  1.00  0.00     0.344 C 
ATOM      4  O   UNL A   1      38.783  24.016  26.415  1.00  0.00    -0.248 OA
BRANCH   3   5
ATOM      5  C   UNL A   1      38.110  21.799  25.732  1.00  0.00     0.352 C 
BRANCH   5   6
ATOM      6  O   UNL A   1      37.005  22.368  25.012  1.00  0.00    -0.481 OA
BRANCH   6   7
ATOM      7  C   UNL A   1      35.940  21.489  25.045  1.00  0.00     0.127 A 
ATOM      8  C   UNL A   1      36.232  20.117  24.959  1.00  0.00     0.048 A 
ATOM      9  C   UNL A   1      34.611  21.962  25.077  1.00  0.00     0.018 A 
ATOM     10  C   UNL A   1      35.218  19.195  24.732  1.00  0.00     0.019 A 
ATOM     11  C   UNL A   1      33.625  21.009  24.771  1.00  0.00     0.027 A 
ATOM     12  C   UNL A   1      33.920  19.652  24.604  1.00  0.00     0.018 A 
ATOM     13  Br  UNL A   1      32.534  18.433  24.190  1.00  0.00    -0.051 Br
BRANCH   9  14
ATOM     14  C   UNL A   1      34.310  23.408  25.308  1.00  0.00     0.026 C 
ATOM     15  C   UNL A   1      33.484  23.994  26.200  1.00  0.00     0.050 C 
ATOM     16  C   UNL A   1      32.575  23.312  27.187  1.00  0.00     0.256 C 
ATOM     17  C   UNL A   1      32.884  25.315  25.969  1.00  0.00     0.012 A 
ATOM     18  O   UNL A   1      32.887  22.482  28.007  1.00  0.00    -0.269 OA
ATOM     19  N   UNL A   1      31.354  23.935  26.979  1.00  0.00    -0.321 N 
ATOM     20  C   UNL A   1      31.532  25.126  26.275  1.00  0.00     0.049 A 
ATOM     21  C   UNL A   1      33.353  26.574  25.642  1.00  0.00     0.026 A 
ATOM     22  H   UNL A   1      30.486  23.587  27.285  1.00  0.00     0.170 HD
ATOM     23  C   UNL A   1      30.586  26.091  26.027  1.00  0.00     0.028 A 
ATOM     24  C   UNL A   1      32.405  27.597  25.497  1.00  0.00     0.018 A 
ATOM     25  C   UNL A   1      31.028  27.343  25.608  1.00  0.00     0.018 A 
ATOM     26  Br  UNL A   1      32.979  29.381  25.228  1.00  0.00    -0.051 Br
ENDBRANCH   9  14
ENDBRANCH   6   7
ENDBRANCH   5   6
ENDBRANCH   3   5
ENDBRANCH   2   3
ENDBRANCH   1   2
BRANCH   1  27
ATOM     27  C   UNL A   1      42.328  22.730  25.781  1.00  0.00     0.275 C 
BRANCH  27  28
ATOM     28  O   UNL A   1      42.296  23.795  26.748  1.00  0.00    -0.458 OA
BRANCH  28  29
ATOM     29  C   UNL A   1      42.212  25.058  26.251  1.00  0.00     0.338 C 
ATOM     30  O   UNL A   1      42.240  25.385  25.078  1.00  0.00    -0.246 OA
BRANCH  29  31
ATOM     31  C   UNL A   1      41.889  25.969  27.374  1.00  0.00     0.060 A 
ATOM     32  C   UNL A   1      40.876  25.659  28.286  1.00  0.00     0.016 A 
ATOM     33  C   UNL A   1      42.587  27.176  27.485  1.00  0.00     0.016 A 
ATOM     34  C   UNL A   1      40.563  26.559  29.309  1.00  0.00     0.010 A 
ATOM     35  C   UNL A   1      42.273  28.077  28.506  1.00  0.00     0.010 A 
ATOM     36  C   UNL A   1      41.263  27.772  29.431  1.00  0.00    -0.014 A 
BRANCH  36  37
ATOM     37  C   UNL A   1      41.025  28.649  30.603  1.00  0.00     0.031 A 
ATOM     38  C   UNL A   1      41.855  28.556  31.849  1.00  0.00     0.074 A 
ATOM     39  C   UNL A   1      40.032  29.557  30.529  1.00  0.00     0.049 A 
ATOM     40  N   UNL A   1      41.778  29.282  32.936  1.00  0.00    -0.248 NA
ATOM     41  C   UNL A   1      42.905  27.528  31.885  1.00  0.00     0.031 C 
ATOM     42  C   UNL A   1      39.144  29.739  29.380  1.00  0.00     0.029 A 
ATOM     43  N   UNL A   1      39.609  30.498  31.432  1.00  0.00    -0.354 N 
ATOM     44  C   UNL A   1      42.767  28.809  33.786  1.00  0.00     0.074 A 
ATOM     45  C   UNL A   1      43.431  27.722  33.090  1.00  0.00     0.031 C 
ATOM     46  C   UNL A   1      38.289  30.739  29.642  1.00  0.00     0.029 A 
ATOM     47  C   UNL A   1      38.556  31.257  30.982  1.00  0.00     0.049 A 
ATOM     48  H   UNL A   1      40.021  30.619  32.319  1.00  0.00     0.167 HD
ATOM     49  C   UNL A   1      43.098  29.254  35.021  1.00  0.00     0.037 A 
ATOM     50  C   UNL A   1      37.880  32.260  31.576  1.00  0.00     0.037 A 
ATOM     51  C   UNL A   1      42.472  30.350  35.708  1.00  0.00     0.049 A 
ATOM     52  C   UNL A   1      38.276  32.721  32.947  1.00  0.00     0.074 A 
ATOM     53  C   UNL A   1      42.797  30.878  36.946  1.00  0.00     0.029 A 
ATOM     54  N   UNL A   1      41.409  31.087  35.223  1.00  0.00    -0.354 N 
ATOM     55  N   UNL A   1      39.251  32.292  33.710  1.00  0.00    -0.248 NA
ATOM     56  C   UNL A   1      37.484  33.810  33.538  1.00  0.00     0.031 C 
ATOM     57  C   UNL A   1      41.924  31.935  37.213  1.00  0.00     0.029 A 
ATOM     58  C   UNL A   1      41.061  32.063  36.139  1.00  0.00     0.049 A 
ATOM     59  H   UNL A   1      40.966  30.940  34.356  1.00  0.00     0.167 HD
ATOM     60  C   UNL A   1      39.197  33.066  34.863  1.00  0.00     0.074 A 
ATOM     61  C   UNL A   1      38.107  34.002  34.694  1.00  0.00     0.031 C 
ATOM     62  C   UNL A   1      39.984  33.001  35.964  1.00  0.00     0.037 A 
BRANCH  49  63
ATOM     63  C   UNL A   1      44.243  28.593  35.717  1.00  0.00     0.058 A 
ATOM     64  C   UNL A   1      45.544  29.069  35.515  1.00  0.00     0.135 A 
ATOM     65  C   UNL A   1      44.047  27.550  36.632  1.00  0.00     0.135 A 
ATOM     66  F   UNL A   1      45.778  30.062  34.643  1.00  0.00    -0.206 F 
ATOM     67  C   UNL A   1      46.627  28.499  36.166  1.00  0.00     0.059 A 
ATOM     68  C   UNL A   1      45.124  26.933  37.260  1.00  0.00     0.059 A 
ATOM     69  F   UNL A   1      42.811  27.098  36.889  1.00  0.00    -0.206 F 
ATOM     70  C   UNL A   1      46.411  27.392  36.980  1.00  0.00     0.060 A 
BRANCH  70  71
ATOM     71  S   UNL A   1      47.838  26.427  37.504  1.00  0.00     0.124 S 
ATOM     72  O   UNL A   1      47.150  25.285  38.104  1.00  0.00    -0.237 OA
ATOM     73  O   UNL A   1      48.527  26.148  36.249  1.00  0.00    -0.237 OA
ATOM     74  O   UNL A   1      48.528  27.321  38.424  1.00  0.00    -0.744 OA
ENDBRANCH  70  71
ENDBRANCH  49  63
BRANCH  50  75
ATOM     75  C   UNL A   1      36.769  32.916  30.847  1.00  0.00     0.058 A 
ATOM     76  C   UNL A   1      35.436  32.614  31.157  1.00  0.00     0.135 A 
ATOM     77  C   UNL A   1      37.017  33.879  29.858  1.00  0.00     0.135 A 
ATOM     78  F   UNL A   1      35.157  31.692  32.092  1.00  0.00    -0.206 F 
ATOM     79  C   UNL A   1      34.382  33.247  30.510  1.00  0.00     0.059 A 
ATOM     80  C   UNL A   1      35.979  34.539  29.211  1.00  0.00     0.059 A 
ATOM     81  F   UNL A   1      38.279  34.205  29.539  1.00  0.00    -0.206 F 
ATOM     82  C   UNL A   1      34.664  34.213  29.543  1.00  0.00     0.060 A 
BRANCH  82  83
ATOM     83  S   UNL A   1      33.285  35.079  28.764  1.00  0.00     0.124 S 
ATOM     84  O   UNL A   1      32.518  35.514  29.925  1.00  0.00    -0.237 OA
ATOM     85  O   UNL A   1      33.970  36.132  28.020  1.00  0.00    -0.237 OA
ATOM     86  O   UNL A   1      32.661  34.047  27.943  1.00  0.00    -0.744 OA
ENDBRANCH  82  83
ENDBRANCH  50  75
BRANCH  62  87
ATOM     87  C   UNL A   1      39.709  33.965  37.079  1.00  0.00     0.058 A 
ATOM     88  C   UNL A   1      38.971  33.578  38.207  1.00  0.00     0.135 A 
ATOM     89  C   UNL A   1      40.247  35.261  37.055  1.00  0.00     0.135 A 
ATOM     90  F   UNL A   1      38.439  32.347  38.277  1.00  0.00    -0.206 F 
ATOM     91  C   UNL A   1      38.758  34.451  39.268  1.00  0.00     0.059 A 
ATOM     92  C   UNL A   1      40.064  36.144  38.114  1.00  0.00     0.059 A 
ATOM     93  F   UNL A   1      40.977  35.671  36.005  1.00  0.00    -0.206 F 
ATOM     94  C   UNL A   1      39.309  35.733  39.212  1.00  0.00     0.060 A 
BRANCH  94  95
ATOM     95  S   UNL A   1      39.050  36.846  40.609  1.00  0.00     0.124 S 
ATOM     96  O   UNL A   1      38.253  36.012  41.503  1.00  0.00    -0.237 OA
ATOM     97  O   UNL A   1      40.415  37.121  41.047  1.00  0.00    -0.237 OA
ATOM     98  O   UNL A   1      38.348  37.980  40.015  1.00  0.00    -0.744 OA
ENDBRANCH  94  95
ENDBRANCH  62  87
ENDBRANCH  36  37
ENDBRANCH  29  31
ENDBRANCH  28  29
ENDBRANCH  27  28
ENDBRANCH   1  27
TORSDOF 17
ENDMDL
MODEL 2
REMARK VINA RESULT:     -12.2      0.406      8.077
REMARK SMILES O=C(COc1ccc(Br)cc1/C=C1\C(=O)Nc2ccc(Br)cc21)OCCOC(=O)c1ccc(-c2c3nc(c(-c4c(F)cc(S(=O)(=O)[O-])cc4F)c4ccc([nH]4)c(-c4c(F)cc(S(=O)(=O)[O-])cc4F)c4nc(c(-c5c(F)cc(S(=O)(=O)[O-])cc5F)c5ccc2[nH]5)C=C4)C=C3)cc1
REMARK SMILES IDX 25 1 24 2 2 3 1 4 3 5 4 6 5 7 6 8 11 9 7 10 10 11 8 12 9 13
REMARK SMILES IDX 12 14 13 15 14 16 23 17 15 18 16 19 17 20 22 21 18 23 20 24
REMARK SMILES IDX 19 25 21 26 26 27 27 28 28 29 29 30 30 31 31 32 95 33 32 34
REMARK SMILES IDX 94 35 33 36 34 37 35 38 88 39 36 40 93 41 87 42 89 43 37 44
REMARK SMILES IDX 92 45 86 46 85 47 38 49 72 50 51 51 71 52 52 53 55 54 70 55
REMARK SMILES IDX 90 56 53 57 54 58 69 60 91 61 56 62 39 63 40 64 49 65 41 66
REMARK SMILES IDX 42 67 48 68 50 69 43 70 44 71 45 72 46 73 47 74 73 75 74 76
REMARK SMILES IDX 83 77 75 78 76 79 82 80 84 81 77 82 78 83 79 84 80 85 81 86
REMARK SMILES IDX 57 87 58 88 67 89 59 90 60 91 66 92 68 93 61 94 62 95 63 96
REMARK SMILES IDX 64 97 65 98
REMARK H PARENT 16 22 89 48 55 59
REMARK Flexibility Score: inf
ROOT
ATOM      1  C   UNL A   1      41.156  21.859  26.178  1.00  0.00     0.274 C 
ENDROOT
BRANCH   1   2
ATOM      2  O   UNL A   1      40.153  22.531  26.965  1.00  0.00    -0.460 OA
BRANCH   2   3
ATOM      3  C   UNL A   1      38.969  22.932  26.436  1.00  0.00     0.344 C 
ATOM      4  O   UNL A   1      38.637  24.114  26.493  1.00  0.00    -0.248 OA
BRANCH   3   5
ATOM      5  C   UNL A   1      38.130  21.894  25.687  1.00  0.00     0.352 C 
BRANCH   5   6
ATOM      6  O   UNL A   1      37.005  22.425  24.968  1.00  0.00    -0.481 OA
BRANCH   6   7
ATOM      7  C   UNL A   1      35.954  21.531  25.044  1.00  0.00     0.127 A 
ATOM      8  C   UNL A   1      36.263  20.162  24.960  1.00  0.00     0.048 A 
ATOM      9  C   UNL A   1      34.621  21.985  25.119  1.00  0.00     0.018 A 
ATOM     10  C   UNL A   1      35.256  19.225  24.775  1.00  0.00     0.019 A 
ATOM     11  C   UNL A   1      33.639  21.016  24.854  1.00  0.00     0.027 A 
ATOM     12  C   UNL A   1      33.947  19.662  24.688  1.00  0.00     0.018 A 
ATOM     13  Br  UNL A   1      32.565  18.420  24.332  1.00  0.00    -0.051 Br
BRANCH   9  14
ATOM     14  C   UNL A   1      34.308  23.429  25.347  1.00  0.00     0.026 C 
ATOM     15  C   UNL A   1      33.456  24.008  26.221  1.00  0.00     0.050 C 
ATOM     16  C   UNL A   1      32.526  23.318  27.181  1.00  0.00     0.256 C 
ATOM     17  C   UNL A   1      32.857  25.327  25.980  1.00  0.00     0.012 A 
ATOM     18  O   UNL A   1      32.821  22.485  28.006  1.00  0.00    -0.269 OA
ATOM     19  N   UNL A   1      31.308  23.936  26.945  1.00  0.00    -0.321 N 
ATOM     20  C   UNL A   1      31.498  25.130  26.250  1.00  0.00     0.049 A 
ATOM     21  C   UNL A   1      33.327  26.589  25.670  1.00  0.00     0.026 A 
ATOM     22  H   UNL A   1      30.434  23.582  27.228  1.00  0.00     0.170 HD
ATOM     23  C   UNL A   1      30.554  26.092  25.982  1.00  0.00     0.028 A 
ATOM     24  C   UNL A   1      32.378  27.608  25.505  1.00  0.00     0.018 A 
ATOM     25  C   UNL A   1      31.001  27.347  25.580  1.00  0.00     0.018 A 
ATOM     26  Br  UNL A   1      32.951  29.396  25.258  1.00  0.00    -0.051 Br
ENDBRANCH   9  14
ENDBRANCH   6   7
ENDBRANCH   5   6
ENDBRANCH   3   5
ENDBRANCH   2   3
ENDBRANCH   1   2
BRANCH   1  27
ATOM     27  C   UNL A   1      42.257  22.844  25.782  1.00  0.00     0.275 C 
BRANCH  27  28
ATOM     28  O   UNL A   1      42.308  23.907  26.752  1.00  0.00    -0.458 OA
BRANCH  28  29
ATOM     29  C   UNL A   1      42.155  25.169  26.270  1.00  0.00     0.338 C 
ATOM     30  O   UNL A   1      42.030  25.496  25.104  1.00  0.00    -0.246 OA
BRANCH  29  31
ATOM     31  C   UNL A   1      41.972  26.077  27.426  1.00  0.00     0.060 A 
ATOM     32  C   UNL A   1      42.822  27.169  27.629  1.00  0.00     0.016 A 
ATOM     33  C   UNL A   1      40.954  25.800  28.345  1.00  0.00     0.016 A 
ATOM     34  C   UNL A   1      42.651  27.981  28.754  1.00  0.00     0.010 A 
ATOM     35  C   UNL A   1      40.785  26.612  29.471  1.00  0.00     0.010 A 
ATOM     36  C   UNL A   1      41.629  27.714  29.680  1.00  0.00    -0.014 A 
BRANCH  36  37
ATOM     37  C   UNL A   1      41.365  28.665  30.787  1.00  0.00     0.031 A 
ATOM     38  C   UNL A   1      40.257  29.675  30.721  1.00  0.00     0.074 A 
ATOM     39  C   UNL A   1      42.149  28.604  31.881  1.00  0.00     0.049 A 
ATOM     40  N   UNL A   1      39.894  30.545  31.630  1.00  0.00    -0.248 NA
ATOM     41  C   UNL A   1      39.452  29.715  29.492  1.00  0.00     0.031 C 
ATOM     42  C   UNL A   1      43.268  27.679  32.062  1.00  0.00     0.029 A 
ATOM     43  N   UNL A   1      42.122  29.329  33.044  1.00  0.00    -0.354 N 
ATOM     44  C   UNL A   1      38.817  31.236  31.092  1.00  0.00     0.074 A 
ATOM     45  C   UNL A   1      38.588  30.686  29.768  1.00  0.00     0.031 C 
ATOM     46  C   UNL A   1      43.812  27.882  33.271  1.00  0.00     0.029 A 
ATOM     47  C   UNL A   1      43.094  28.963  33.943  1.00  0.00     0.049 A 
ATOM     48  H   UNL A   1      41.467  30.044  33.220  1.00  0.00     0.167 HD
ATOM     49  C   UNL A   1      38.081  32.221  31.659  1.00  0.00     0.037 A 
ATOM     50  C   UNL A   1      43.378  29.438  35.171  1.00  0.00     0.037 A 
ATOM     51  C   UNL A   1      38.275  32.750  32.980  1.00  0.00     0.049 A 
ATOM     52  C   UNL A   1      42.540  30.533  35.763  1.00  0.00     0.074 A 
ATOM     53  C   UNL A   1      37.528  33.719  33.629  1.00  0.00     0.029 A 
ATOM     54  N   UNL A   1      39.271  32.358  33.854  1.00  0.00    -0.354 N 
ATOM     55  N   UNL A   1      41.493  31.134  35.254  1.00  0.00    -0.248 NA
ATOM     56  C   UNL A   1      42.918  31.011  37.101  1.00  0.00     0.031 C 
ATOM     57  C   UNL A   1      38.077  33.917  34.898  1.00  0.00     0.029 A 
ATOM     58  C   UNL A   1      39.162  33.070  35.036  1.00  0.00     0.049 A 
ATOM     59  H   UNL A   1      39.954  31.675  33.665  1.00  0.00     0.167 HD
ATOM     60  C   UNL A   1      41.080  32.050  36.214  1.00  0.00     0.074 A 
ATOM     61  C   UNL A   1      41.977  31.915  37.341  1.00  0.00     0.031 C 
ATOM     62  C   UNL A   1      40.048  32.926  36.160  1.00  0.00     0.037 A 
BRANCH  49  63
ATOM     63  C   UNL A   1      36.936  32.774  30.876  1.00  0.00     0.058 A 
ATOM     64  C   UNL A   1      37.167  33.775  29.925  1.00  0.00     0.135 A 
ATOM     65  C   UNL A   1      35.636  32.269  31.012  1.00  0.00     0.135 A 
ATOM     66  F   UNL A   1      38.395  34.293  29.766  1.00  0.00    -0.206 F 
ATOM     67  C   UNL A   1      36.133  34.292  29.160  1.00  0.00     0.059 A 
ATOM     68  C   UNL A   1      34.577  32.806  30.289  1.00  0.00     0.059 A 
ATOM     69  F   UNL A   1      35.382  31.277  31.879  1.00  0.00    -0.206 F 
ATOM     70  C   UNL A   1      34.836  33.848  29.399  1.00  0.00     0.060 A 
BRANCH  70  71
ATOM     71  S   UNL A   1      33.469  34.785  28.696  1.00  0.00     0.124 S 
ATOM     72  O   UNL A   1      33.014  33.829  27.688  1.00  0.00    -0.237 OA
ATOM     73  O   UNL A   1      32.572  34.964  29.832  1.00  0.00    -0.237 OA
ATOM     74  O   UNL A   1      34.113  35.993  28.197  1.00  0.00    -0.744 OA
ENDBRANCH  70  71
ENDBRANCH  49  63
BRANCH  50  75
ATOM     75  C   UNL A   1      44.502  28.847  35.935  1.00  0.00     0.058 A 
ATOM     76  C   UNL A   1      45.802  29.352  35.798  1.00  0.00     0.135 A 
ATOM     77  C   UNL A   1      44.292  27.796  36.839  1.00  0.00     0.135 A 
ATOM     78  F   UNL A   1      46.046  30.352  34.937  1.00  0.00    -0.206 F 
ATOM     79  C   UNL A   1      46.860  28.835  36.534  1.00  0.00     0.059 A 
ATOM     80  C   UNL A   1      45.331  27.275  37.600  1.00  0.00     0.059 A 
ATOM     81  F   UNL A   1      43.061  27.290  37.009  1.00  0.00    -0.206 F 
ATOM     82  C   UNL A   1      46.613  27.800  37.438  1.00  0.00     0.060 A 
BRANCH  82  83
ATOM     83  S   UNL A   1      47.984  27.187  38.440  1.00  0.00     0.124 S 
ATOM     84  O   UNL A   1      47.521  27.495  39.788  1.00  0.00    -0.237 OA
ATOM     85  O   UNL A   1      48.012  25.773  38.082  1.00  0.00    -0.237 OA
ATOM     86  O   UNL A   1      49.122  27.969  37.968  1.00  0.00    -0.744 OA
ENDBRANCH  82  83
ENDBRANCH  50  75
BRANCH  62  87
ATOM     87  C   UNL A   1      39.818  33.812  37.348  1.00  0.00     0.058 A 
ATOM     88  C   UNL A   1      40.405  35.082  37.431  1.00  0.00     0.135 A 
ATOM     89  C   UNL A   1      38.947  33.419  38.377  1.00  0.00     0.135 A 
ATOM     90  F   UNL A   1      41.243  35.503  36.469  1.00  0.00    -0.206 F 
ATOM     91  C   UNL A   1      40.153  35.928  38.504  1.00  0.00     0.059 A 
ATOM     92  C   UNL A   1      38.665  34.257  39.450  1.00  0.00     0.059 A 
ATOM     93  F   UNL A   1      38.346  32.219  38.333  1.00  0.00    -0.206 F 
ATOM     94  C   UNL A   1      39.282  35.507  39.510  1.00  0.00     0.060 A 
BRANCH  94  95
ATOM     95  S   UNL A   1      38.940  36.628  40.882  1.00  0.00     0.124 S 
ATOM     96  O   UNL A   1      37.977  35.854  41.658  1.00  0.00    -0.237 OA
ATOM     97  O   UNL A   1      40.258  36.791  41.488  1.00  0.00    -0.237 OA
ATOM     98  O   UNL A   1      38.407  37.818  40.225  1.00  0.00    -0.744 OA
ENDBRANCH  94  95
ENDBRANCH  62  87
ENDBRANCH  36  37
ENDBRANCH  29  31
ENDBRANCH  28  29
ENDBRANCH  27  28
ENDBRANCH   1  27
TORSDOF 17
ENDMDL
MODEL 3
REMARK VINA RESULT:     -12.1      6.793     12.143
REMARK SMILES O=C(COc1ccc(Br)cc1/C=C1\C(=O)Nc2ccc(Br)cc21)OCCOC(=O)c1ccc(-c2c3nc(c(-c4c(F)cc(S(=O)(=O)[O-])cc4F)c4ccc([nH]4)c(-c4c(F)cc(S(=O)(=O)[O-])cc4F)c4nc(c(-c5c(F)cc(S(=O)(=O)[O-])cc5F)c5ccc2[nH]5)C=C4)C=C3)cc1
REMARK SMILES IDX 25 1 24 2 2 3 1 4 3 5 4 6 5 7 6 8 11 9 7 10 10 11 8 12 9 13
REMARK SMILES IDX 12 14 13 15 14 16 23 17 15 18 16 19 17 20 22 21 18 23 20 24
REMARK SMILES IDX 19 25 21 26 26 27 27 28 28 29 29 30 30 31 31 32 95 33 32 34
REMARK SMILES IDX 94 35 33 36 34 37 35 38 88 39 36 40 93 41 87 42 89 43 37 44
REMARK SMILES IDX 92 45 86 46 85 47 38 49 72 50 51 51 71 52 52 53 55 54 70 55
REMARK SMILES IDX 90 56 53 57 54 58 69 60 91 61 56 62 39 63 40 64 49 65 41 66
REMARK SMILES IDX 42 67 48 68 50 69 43 70 44 71 45 72 46 73 47 74 73 75 74 76
REMARK SMILES IDX 83 77 75 78 76 79 82 80 84 81 77 82 78 83 79 84 80 85 81 86
REMARK SMILES IDX 57 87 58 88 67 89 59 90 60 91 66 92 68 93 61 94 62 95 63 96
REMARK SMILES IDX 64 97 65 98
REMARK H PARENT 16 22 89 48 55 59
REMARK Flexibility Score: inf
ROOT
ATOM      1  C   UNL A   1      33.571  30.026  26.939  1.00  0.00     0.274 C 
ENDROOT
BRANCH   1   2
ATOM      2  O   UNL A   1      33.581  28.610  27.211  1.00  0.00    -0.460 OA
BRANCH   2   3
ATOM      3  C   UNL A   1      33.508  27.685  26.220  1.00  0.00     0.344 C 
ATOM      4  O   UNL A   1      33.404  26.492  26.498  1.00  0.00    -0.248 OA
BRANCH   3   5
ATOM      5  C   UNL A   1      33.454  28.185  24.775  1.00  0.00     0.352 C 
BRANCH   5   6
ATOM      6  O   UNL A   1      32.992  27.221  23.815  1.00  0.00    -0.481 OA
BRANCH   6   7
ATOM      7  C   UNL A   1      31.693  27.525  23.455  1.00  0.00     0.127 A 
ATOM      8  C   UNL A   1      31.415  28.857  23.105  1.00  0.00     0.048 A 
ATOM      9  C   UNL A   1      30.676  26.550  23.522  1.00  0.00     0.018 A 
ATOM     10  C   UNL A   1      30.102  29.292  22.980  1.00  0.00     0.019 A 
ATOM     11  C   UNL A   1      29.363  27.044  23.463  1.00  0.00     0.027 A 
ATOM     12  C   UNL A   1      29.078  28.387  23.195  1.00  0.00     0.018 A 
ATOM     13  Br  UNL A   1      27.281  28.974  23.135  1.00  0.00    -0.051 Br
BRANCH   9  14
ATOM     14  C   UNL A   1      31.000  25.110  23.759  1.00  0.00     0.026 C 
ATOM     15  C   UNL A   1      30.881  24.362  24.877  1.00  0.00     0.050 C 
ATOM     16  C   UNL A   1      30.431  24.822  26.238  1.00  0.00     0.256 C 
ATOM     17  C   UNL A   1      31.709  23.175  25.123  1.00  0.00     0.012 A 
ATOM     18  O   UNL A   1      29.406  25.403  26.506  1.00  0.00    -0.269 OA
ATOM     19  N   UNL A   1      31.418  24.336  27.081  1.00  0.00    -0.321 N 
ATOM     20  C   UNL A   1      32.165  23.351  26.434  1.00  0.00     0.049 A 
ATOM     21  C   UNL A   1      32.010  22.015  24.434  1.00  0.00     0.026 A 
ATOM     22  H   UNL A   1      31.570  24.641  28.004  1.00  0.00     0.170 HD
ATOM     23  C   UNL A   1      33.114  22.530  26.994  1.00  0.00     0.028 A 
ATOM     24  C   UNL A   1      32.891  21.111  25.045  1.00  0.00     0.018 A 
ATOM     25  C   UNL A   1      33.501  21.401  26.277  1.00  0.00     0.018 A 
ATOM     26  Br  UNL A   1      33.211  19.424  24.248  1.00  0.00    -0.051 Br
ENDBRANCH   9  14
ENDBRANCH   6   7
ENDBRANCH   5   6
ENDBRANCH   3   5
ENDBRANCH   2   3
ENDBRANCH   1   2
BRANCH   1  27
ATOM     27  C   UNL A   1      34.762  30.699  27.624  1.00  0.00     0.275 C 
BRANCH  27  28
ATOM     28  O   UNL A   1      35.555  29.694  28.283  1.00  0.00    -0.458 OA
BRANCH  28  29
ATOM     29  C   UNL A   1      36.311  30.115  29.332  1.00  0.00     0.338 C 
ATOM     30  O   UNL A   1      35.907  30.523  30.406  1.00  0.00    -0.246 OA
BRANCH  29  31
ATOM     31  C   UNL A   1      37.728  29.814  29.021  1.00  0.00     0.060 A 
ATOM     32  C   UNL A   1      38.681  29.696  30.037  1.00  0.00     0.016 A 
ATOM     33  C   UNL A   1      38.111  29.691  27.681  1.00  0.00     0.016 A 
ATOM     34  C   UNL A   1      40.018  29.456  29.709  1.00  0.00     0.010 A 
ATOM     35  C   UNL A   1      39.449  29.453  27.354  1.00  0.00     0.010 A 
ATOM     36  C   UNL A   1      40.412  29.326  28.366  1.00  0.00    -0.014 A 
BRANCH  36  37
ATOM     37  C   UNL A   1      41.802  28.926  28.037  1.00  0.00     0.031 A 
ATOM     38  C   UNL A   1      42.933  29.912  28.025  1.00  0.00     0.074 A 
ATOM     39  C   UNL A   1      42.041  27.632  27.747  1.00  0.00     0.049 A 
ATOM     40  N   UNL A   1      44.202  29.693  27.788  1.00  0.00    -0.248 NA
ATOM     41  C   UNL A   1      42.609  31.315  28.321  1.00  0.00     0.031 C 
ATOM     42  C   UNL A   1      41.027  26.578  27.710  1.00  0.00     0.029 A 
ATOM     43  N   UNL A   1      43.209  26.985  27.436  1.00  0.00    -0.354 N 
ATOM     44  C   UNL A   1      44.833  30.923  27.907  1.00  0.00     0.074 A 
ATOM     45  C   UNL A   1      43.803  31.891  28.233  1.00  0.00     0.031 C 
ATOM     46  C   UNL A   1      41.618  25.412  27.408  1.00  0.00     0.029 A 
ATOM     47  C   UNL A   1      43.049  25.639  27.211  1.00  0.00     0.049 A 
ATOM     48  H   UNL A   1      44.081  27.441  27.381  1.00  0.00     0.167 HD
ATOM     49  C   UNL A   1      46.150  31.209  27.775  1.00  0.00     0.037 A 
ATOM     50  C   UNL A   1      43.948  24.690  26.886  1.00  0.00     0.037 A 
ATOM     51  C   UNL A   1      47.185  30.255  27.486  1.00  0.00     0.049 A 
ATOM     52  C   UNL A   1      45.398  25.048  26.746  1.00  0.00     0.074 A 
ATOM     53  C   UNL A   1      48.548  30.479  27.387  1.00  0.00     0.029 A 
ATOM     54  N   UNL A   1      46.982  28.907  27.260  1.00  0.00    -0.354 N 
ATOM     55  N   UNL A   1      45.978  26.211  26.916  1.00  0.00    -0.248 NA
ATOM     56  C   UNL A   1      46.319  23.964  26.375  1.00  0.00     0.031 C 
ATOM     57  C   UNL A   1      49.171  29.263  27.095  1.00  0.00     0.029 A 
ATOM     58  C   UNL A   1      48.194  28.286  27.016  1.00  0.00     0.049 A 
ATOM     59  H   UNL A   1      46.106  28.457  27.272  1.00  0.00     0.167 HD
ATOM     60  C   UNL A   1      47.332  25.994  26.688  1.00  0.00     0.074 A 
ATOM     61  C   UNL A   1      47.489  24.588  26.383  1.00  0.00     0.031 C 
ATOM     62  C   UNL A   1      48.350  26.886  26.724  1.00  0.00     0.037 A 
BRANCH  49  63
ATOM     63  C   UNL A   1      46.583  32.621  27.998  1.00  0.00     0.058 A 
ATOM     64  C   UNL A   1      46.450  33.557  26.965  1.00  0.00     0.135 A 
ATOM     65  C   UNL A   1      47.055  33.060  29.242  1.00  0.00     0.135 A 
ATOM     66  F   UNL A   1      46.008  33.179  25.756  1.00  0.00    -0.206 F 
ATOM     67  C   UNL A   1      46.814  34.882  27.146  1.00  0.00     0.059 A 
ATOM     68  C   UNL A   1      47.471  34.374  29.430  1.00  0.00     0.059 A 
ATOM     69  F   UNL A   1      47.152  32.204  30.270  1.00  0.00    -0.206 F 
ATOM     70  C   UNL A   1      47.385  35.261  28.357  1.00  0.00     0.060 A 
BRANCH  70  71
ATOM     71  S   UNL A   1      48.205  36.860  28.451  1.00  0.00     0.124 S 
ATOM     72  O   UNL A   1      48.300  37.168  27.026  1.00  0.00    -0.237 OA
ATOM     73  O   UNL A   1      47.257  37.675  29.201  1.00  0.00    -0.237 OA
ATOM     74  O   UNL A   1      49.457  36.554  29.131  1.00  0.00    -0.744 OA
ENDBRANCH  70  71
ENDBRANCH  49  63
BRANCH  50  75
ATOM     75  C   UNL A   1      43.491  23.292  26.702  1.00  0.00     0.058 A 
ATOM     76  C   UNL A   1      43.435  22.723  25.423  1.00  0.00     0.135 A 
ATOM     77  C   UNL A   1      43.140  22.492  27.799  1.00  0.00     0.135 A 
ATOM     78  F   UNL A   1      43.755  23.458  24.347  1.00  0.00    -0.206 F 
ATOM     79  C   UNL A   1      43.046  21.403  25.235  1.00  0.00     0.059 A 
ATOM     80  C   UNL A   1      42.766  21.163  27.638  1.00  0.00     0.059 A 
ATOM     81  F   UNL A   1      43.191  22.994  29.042  1.00  0.00    -0.206 F 
ATOM     82  C   UNL A   1      42.720  20.629  26.350  1.00  0.00     0.060 A 
BRANCH  82  83
ATOM     83  S   UNL A   1      42.286  18.894  26.097  1.00  0.00     0.124 S 
ATOM     84  O   UNL A   1      42.582  18.325  27.406  1.00  0.00    -0.237 OA
ATOM     85  O   UNL A   1      40.873  18.984  25.745  1.00  0.00    -0.237 OA
ATOM     86  O   UNL A   1      43.170  18.482  25.012  1.00  0.00    -0.744 OA
ENDBRANCH  82  83
ENDBRANCH  50  75
BRANCH  62  87
ATOM     87  C   UNL A   1      49.733  26.384  26.435  1.00  0.00     0.058 A 
ATOM     88  C   UNL A   1      50.244  26.377  25.129  1.00  0.00     0.135 A 
ATOM     89  C   UNL A   1      50.580  25.973  27.477  1.00  0.00     0.135 A 
ATOM     90  F   UNL A   1      49.473  26.763  24.100  1.00  0.00    -0.206 F 
ATOM     91  C   UNL A   1      51.544  25.962  24.862  1.00  0.00     0.059 A 
ATOM     92  C   UNL A   1      51.889  25.574  27.235  1.00  0.00     0.059 A 
ATOM     93  F   UNL A   1      50.142  25.980  28.746  1.00  0.00    -0.206 F 
ATOM     94  C   UNL A   1      52.359  25.561  25.922  1.00  0.00     0.060 A 
BRANCH  94  95
ATOM     95  S   UNL A   1      54.053  25.053  25.564  1.00  0.00     0.124 S 
ATOM     96  O   UNL A   1      54.467  26.072  24.604  1.00  0.00    -0.237 OA
ATOM     97  O   UNL A   1      54.686  25.125  26.878  1.00  0.00    -0.237 OA
ATOM     98  O   UNL A   1      53.897  23.706  25.024  1.00  0.00    -0.744 OA
ENDBRANCH  94  95
ENDBRANCH  62  87
ENDBRANCH  36  37
ENDBRANCH  29  31
ENDBRANCH  28  29
ENDBRANCH  27  28
ENDBRANCH   1  27
TORSDOF 17
ENDMDL
