MODEL 1
REMARK VINA RESULT:     -11.4      0.000      0.000
REMARK SMILES C[C@@H](C(=O)OCCOC(=O)c1ccc(-c2c3nc(c(-c4c(F)cc(S(=O)(=O)[O-])cc4F)c4ccc([nH]4)c(-c4c(F)cc(S(=O)(=O)[O-])cc4F)c4nc(c(-c5c(F)cc(S(=O)(=O)[O-])cc5F)c5ccc2[nH]5)C=C4)C=C3)cc1)c1ccc(C[C@H]2CCC[C@@H]2O)cc1Br
REMARK SMILES IDX 6 1 5 2 3 3 4 4 2 5 1 6 77 7 78 8 89 9 79 10 88 11 90 12
REMARK SMILES IDX 80 13 81 14 82 15 83 16 86 17 84 18 85 19 87 20 7 22 8 23
REMARK SMILES IDX 9 24 10 25 11 26 12 27 76 28 13 29 75 30 14 31 15 32 16 33
REMARK SMILES IDX 69 34 17 35 74 36 68 37 70 38 18 39 73 40 67 41 66 42 19 44
REMARK SMILES IDX 53 45 32 46 52 47 33 48 36 49 51 50 71 51 34 52 35 53 50 55
REMARK SMILES IDX 72 56 37 57 20 58 21 59 30 60 22 61 23 62 29 63 31 64 24 65
REMARK SMILES IDX 25 66 26 67 27 68 28 69 54 70 55 71 64 72 56 73 57 74 63 75
REMARK SMILES IDX 65 76 58 77 59 78 60 79 61 80 62 81 38 82 39 83 48 84 40 85
REMARK SMILES IDX 41 86 47 87 49 88 42 89 43 90 44 91 45 92 46 93
REMARK H PARENT 87 21 70 43 36 54
REMARK Flexibility Score: inf
ROOT
ATOM      1  C   UNL A   1      35.448  22.951  25.038  1.00  0.00     0.274 C 
ENDROOT
BRANCH   1   2
ATOM      2  O   UNL A   1      34.910  24.009  25.857  1.00  0.00    -0.462 OA
BRANCH   2   3
ATOM      3  C   UNL A   1      34.130  24.930  25.222  1.00  0.00     0.313 C 
ATOM      4  O   UNL A   1      34.398  25.408  24.124  1.00  0.00    -0.252 OA
BRANCH   3   5
ATOM      5  C   UNL A   1      32.941  25.353  26.101  1.00  0.00     0.127 C 
ATOM      6  C   UNL A   1      32.109  24.146  26.548  1.00  0.00     0.025 C 
BRANCH   5   7
ATOM      7  C   UNL A   1      32.112  26.433  25.407  1.00  0.00    -0.020 A 
ATOM      8  C   UNL A   1      31.080  26.075  24.520  1.00  0.00     0.006 A 
ATOM      9  C   UNL A   1      32.434  27.800  25.515  1.00  0.00     0.022 A 
ATOM     10  C   UNL A   1      30.470  27.027  23.699  1.00  0.00     0.004 A 
ATOM     11  C   UNL A   1      31.816  28.748  24.696  1.00  0.00     0.019 A 
ATOM     12  Br  UNL A   1      33.784  28.461  26.680  1.00  0.00    -0.050 Br
ATOM     13  C   UNL A   1      30.905  28.357  23.715  1.00  0.00    -0.047 A 
BRANCH  13  14
ATOM     14  C   UNL A   1      30.568  29.314  22.587  1.00  0.00     0.041 C 
BRANCH  14  15
ATOM     15  C   UNL A   1      29.176  29.978  22.726  1.00  0.00     0.022 C 
ATOM     16  C   UNL A   1      28.993  31.013  23.852  1.00  0.00     0.007 C 
ATOM     17  C   UNL A   1      28.779  30.714  21.450  1.00  0.00     0.117 C 
ATOM     18  C   UNL A   1      28.024  32.045  23.293  1.00  0.00     0.003 C 
ATOM     19  C   UNL A   1      28.455  32.151  21.847  1.00  0.00     0.032 C 
BRANCH  17  20
ATOM     20  O   UNL A   1      27.664  30.070  20.878  1.00  0.00    -0.393 OA
ATOM     21  H   UNL A   1      27.773  30.030  19.914  1.00  0.00     0.210 HD
ENDBRANCH  17  20
ENDBRANCH  14  15
ENDBRANCH  13  14
ENDBRANCH   5   7
ENDBRANCH   3   5
ENDBRANCH   2   3
ENDBRANCH   1   2
BRANCH   1  22
ATOM     22  C   UNL A   1      36.961  23.089  24.863  1.00  0.00     0.275 C 
BRANCH  22  23
ATOM     23  O   UNL A   1      37.519  23.994  25.839  1.00  0.00    -0.458 OA
BRANCH  23  24
ATOM     24  C   UNL A   1      38.721  23.649  26.363  1.00  0.00     0.338 C 
ATOM     25  O   UNL A   1      39.322  22.602  26.193  1.00  0.00    -0.246 OA
BRANCH  24  26
ATOM     26  C   UNL A   1      39.290  24.790  27.113  1.00  0.00     0.060 A 
ATOM     27  C   UNL A   1      38.908  24.933  28.438  1.00  0.00     0.016 A 
ATOM     28  C   UNL A   1      40.080  25.781  26.512  1.00  0.00     0.016 A 
ATOM     29  C   UNL A   1      39.333  26.052  29.156  1.00  0.00     0.010 A 
ATOM     30  C   UNL A   1      40.552  26.881  27.271  1.00  0.00     0.010 A 
ATOM     31  C   UNL A   1      40.206  27.016  28.621  1.00  0.00    -0.014 A 
BRANCH  31  32
ATOM     32  C   UNL A   1      40.605  28.152  29.528  1.00  0.00     0.031 A 
ATOM     33  C   UNL A   1      39.580  29.213  29.834  1.00  0.00     0.074 A 
ATOM     34  C   UNL A   1      41.721  28.111  30.298  1.00  0.00     0.049 A 
ATOM     35  N   UNL A   1      39.589  30.142  30.757  1.00  0.00    -0.248 NA
ATOM     36  C   UNL A   1      38.370  29.212  28.995  1.00  0.00     0.031 C 
ATOM     37  C   UNL A   1      42.736  27.068  30.244  1.00  0.00     0.029 A 
ATOM     38  N   UNL A   1      42.087  28.865  31.408  1.00  0.00    -0.354 N 
ATOM     39  C   UNL A   1      38.435  30.884  30.558  1.00  0.00     0.074 A 
ATOM     40  C   UNL A   1      37.694  30.233  29.498  1.00  0.00     0.031 C 
ATOM     41  C   UNL A   1      43.462  27.104  31.377  1.00  0.00     0.029 A 
ATOM     42  C   UNL A   1      43.040  28.238  32.201  1.00  0.00     0.049 A 
ATOM     43  H   UNL A   1      41.711  29.752  31.611  1.00  0.00     0.167 HD
ATOM     44  C   UNL A   1      38.065  32.049  31.143  1.00  0.00     0.037 A 
ATOM     45  C   UNL A   1      43.486  28.514  33.454  1.00  0.00     0.037 A 
ATOM     46  C   UNL A   1      38.811  32.732  32.165  1.00  0.00     0.049 A 
ATOM     47  C   UNL A   1      43.050  29.804  34.117  1.00  0.00     0.074 A 
ATOM     48  C   UNL A   1      38.615  34.006  32.670  1.00  0.00     0.029 A 
ATOM     49  N   UNL A   1      39.891  32.197  32.844  1.00  0.00    -0.354 N 
ATOM     50  N   UNL A   1      42.061  30.608  33.809  1.00  0.00    -0.248 NA
ATOM     51  C   UNL A   1      43.861  30.273  35.257  1.00  0.00     0.031 C 
ATOM     52  C   UNL A   1      39.602  34.257  33.632  1.00  0.00     0.029 A 
ATOM     53  C   UNL A   1      40.379  33.118  33.758  1.00  0.00     0.049 A 
ATOM     54  H   UNL A   1      40.260  31.296  32.699  1.00  0.00     0.167 HD
ATOM     55  C   UNL A   1      42.183  31.704  34.661  1.00  0.00     0.074 A 
ATOM     56  C   UNL A   1      43.271  31.420  35.568  1.00  0.00     0.031 C 
ATOM     57  C   UNL A   1      41.485  32.866  34.647  1.00  0.00     0.037 A 
BRANCH  44  58
ATOM     58  C   UNL A   1      36.883  32.743  30.539  1.00  0.00     0.058 A 
ATOM     59  C   UNL A   1      36.974  33.533  29.386  1.00  0.00     0.135 A 
ATOM     60  C   UNL A   1      35.635  32.636  31.175  1.00  0.00     0.135 A 
ATOM     61  F   UNL A   1      38.153  33.692  28.766  1.00  0.00    -0.206 F 
ATOM     62  C   UNL A   1      35.866  34.218  28.897  1.00  0.00     0.059 A 
ATOM     63  C   UNL A   1      34.513  33.294  30.692  1.00  0.00     0.059 A 
ATOM     64  F   UNL A   1      35.505  31.901  32.291  1.00  0.00    -0.206 F 
ATOM     65  C   UNL A   1      34.644  34.098  29.563  1.00  0.00     0.060 A 
BRANCH  65  66
ATOM     66  S   UNL A   1      33.226  35.029  28.948  1.00  0.00     0.124 S 
ATOM     67  O   UNL A   1      32.478  35.265  30.179  1.00  0.00    -0.237 OA
ATOM     68  O   UNL A   1      33.857  36.203  28.354  1.00  0.00    -0.237 OA
ATOM     69  O   UNL A   1      32.600  34.111  28.002  1.00  0.00    -0.744 OA
ENDBRANCH  65  66
ENDBRANCH  44  58
BRANCH  45  70
ATOM     70  C   UNL A   1      44.453  27.623  34.186  1.00  0.00     0.058 A 
ATOM     71  C   UNL A   1      45.846  27.748  34.000  1.00  0.00     0.135 A 
ATOM     72  C   UNL A   1      44.021  26.569  35.004  1.00  0.00     0.135 A 
ATOM     73  F   UNL A   1      46.335  28.704  33.194  1.00  0.00    -0.206 F 
ATOM     74  C   UNL A   1      46.757  26.864  34.583  1.00  0.00     0.059 A 
ATOM     75  C   UNL A   1      44.912  25.703  35.634  1.00  0.00     0.059 A 
ATOM     76  F   UNL A   1      42.710  26.355  35.193  1.00  0.00    -0.206 F 
ATOM     77  C   UNL A   1      46.279  25.844  35.405  1.00  0.00     0.060 A 
BRANCH  77  78
ATOM     78  S   UNL A   1      47.442  24.716  36.207  1.00  0.00     0.124 S 
ATOM     79  O   UNL A   1      46.732  23.446  36.120  1.00  0.00    -0.237 OA
ATOM     80  O   UNL A   1      48.634  24.836  35.373  1.00  0.00    -0.237 OA
ATOM     81  O   UNL A   1      47.571  25.278  37.549  1.00  0.00    -0.744 OA
ENDBRANCH  77  78
ENDBRANCH  45  70
BRANCH  57  82
ATOM     82  C   UNL A   1      41.921  33.969  35.577  1.00  0.00     0.058 A 
ATOM     83  C   UNL A   1      41.399  34.064  36.879  1.00  0.00     0.135 A 
ATOM     84  C   UNL A   1      42.914  34.890  35.208  1.00  0.00     0.135 A 
ATOM     85  F   UNL A   1      40.451  33.206  37.290  1.00  0.00    -0.206 F 
ATOM     86  C   UNL A   1      41.830  35.041  37.773  1.00  0.00     0.059 A 
ATOM     87  C   UNL A   1      43.375  35.864  36.093  1.00  0.00     0.059 A 
ATOM     88  F   UNL A   1      43.460  34.840  33.982  1.00  0.00    -0.206 F 
ATOM     89  C   UNL A   1      42.821  35.937  37.370  1.00  0.00     0.060 A 
BRANCH  89  90
ATOM     90  S   UNL A   1      43.398  37.176  38.553  1.00  0.00     0.124 S 
ATOM     91  O   UNL A   1      44.482  36.464  39.221  1.00  0.00    -0.237 OA
ATOM     92  O   UNL A   1      43.805  38.276  37.683  1.00  0.00    -0.237 OA
ATOM     93  O   UNL A   1      42.220  37.438  39.373  1.00  0.00    -0.744 OA
ENDBRANCH  89  90
ENDBRANCH  57  82
ENDBRANCH  31  32
ENDBRANCH  24  26
ENDBRANCH  23  24
ENDBRANCH  22  23
ENDBRANCH   1  22
TORSDOF 18
ENDMDL
MODEL 2
REMARK VINA RESULT:     -11.3      5.164     10.712
REMARK SMILES C[C@@H](C(=O)OCCOC(=O)c1ccc(-c2c3nc(c(-c4c(F)cc(S(=O)(=O)[O-])cc4F)c4ccc([nH]4)c(-c4c(F)cc(S(=O)(=O)[O-])cc4F)c4nc(c(-c5c(F)cc(S(=O)(=O)[O-])cc5F)c5ccc2[nH]5)C=C4)C=C3)cc1)c1ccc(C[C@H]2CCC[C@@H]2O)cc1Br
REMARK SMILES IDX 6 1 5 2 3 3 4 4 2 5 1 6 77 7 78 8 89 9 79 10 88 11 90 12
REMARK SMILES IDX 80 13 81 14 82 15 83 16 86 17 84 18 85 19 87 20 7 22 8 23
REMARK SMILES IDX 9 24 10 25 11 26 12 27 76 28 13 29 75 30 14 31 15 32 16 33
REMARK SMILES IDX 69 34 17 35 74 36 68 37 70 38 18 39 73 40 67 41 66 42 19 44
REMARK SMILES IDX 53 45 32 46 52 47 33 48 36 49 51 50 71 51 34 52 35 53 50 55
REMARK SMILES IDX 72 56 37 57 20 58 21 59 30 60 22 61 23 62 29 63 31 64 24 65
REMARK SMILES IDX 25 66 26 67 27 68 28 69 54 70 55 71 64 72 56 73 57 74 63 75
REMARK SMILES IDX 65 76 58 77 59 78 60 79 61 80 62 81 38 82 39 83 48 84 40 85
REMARK SMILES IDX 41 86 47 87 49 88 42 89 43 90 44 91 45 92 46 93
REMARK H PARENT 87 21 70 43 36 54
REMARK Flexibility Score: inf
ROOT
ATOM      1  C   UNL A   1      32.471  27.763  25.925  1.00  0.00     0.274 C 
ENDROOT
BRANCH   1   2
ATOM      2  O   UNL A   1      32.460  27.215  24.592  1.00  0.00    -0.462 OA
BRANCH   2   3
ATOM      3  C   UNL A   1      32.344  25.859  24.497  1.00  0.00     0.313 C 
ATOM      4  O   UNL A   1      31.640  25.182  25.238  1.00  0.00    -0.252 OA
BRANCH   3   5
ATOM      5  C   UNL A   1      33.280  25.297  23.413  1.00  0.00     0.127 C 
ATOM      6  C   UNL A   1      32.835  25.714  22.007  1.00  0.00     0.025 C 
BRANCH   5   7
ATOM      7  C   UNL A   1      33.443  23.785  23.570  1.00  0.00    -0.020 A 
ATOM      8  C   UNL A   1      32.551  22.906  22.930  1.00  0.00     0.006 A 
ATOM      9  C   UNL A   1      34.384  23.228  24.457  1.00  0.00     0.022 A 
ATOM     10  C   UNL A   1      32.530  21.543  23.242  1.00  0.00     0.004 A 
ATOM     11  C   UNL A   1      34.362  21.864  24.762  1.00  0.00     0.019 A 
ATOM     12  Br  UNL A   1      35.676  24.267  25.389  1.00  0.00    -0.050 Br
ATOM     13  C   UNL A   1      33.374  21.033  24.235  1.00  0.00    -0.047 A 
BRANCH  13  14
ATOM     14  C   UNL A   1      33.113  19.685  24.880  1.00  0.00     0.041 C 
BRANCH  14  15
ATOM     15  C   UNL A   1      33.649  18.486  24.061  1.00  0.00     0.022 C 
ATOM     16  C   UNL A   1      34.869  17.733  24.624  1.00  0.00     0.007 C 
ATOM     17  C   UNL A   1      32.579  17.413  23.875  1.00  0.00     0.117 C 
ATOM     18  C   UNL A   1      34.660  16.278  24.227  1.00  0.00     0.003 C 
ATOM     19  C   UNL A   1      33.166  16.104  24.395  1.00  0.00     0.032 C 
BRANCH  17  20
ATOM     20  O   UNL A   1      32.249  17.328  22.508  1.00  0.00    -0.393 OA
ATOM     21  H   UNL A   1      31.688  16.551  22.359  1.00  0.00     0.210 HD
ENDBRANCH  17  20
ENDBRANCH  14  15
ENDBRANCH  13  14
ENDBRANCH   5   7
ENDBRANCH   3   5
ENDBRANCH   2   3
ENDBRANCH   1   2
BRANCH   1  22
ATOM     22  C   UNL A   1      33.620  28.755  26.117  1.00  0.00     0.275 C 
BRANCH  22  23
ATOM     23  O   UNL A   1      34.039  28.808  27.497  1.00  0.00    -0.458 OA
BRANCH  23  24
ATOM     24  C   UNL A   1      34.573  29.980  27.920  1.00  0.00     0.338 C 
ATOM     25  O   UNL A   1      33.994  31.044  28.055  1.00  0.00    -0.246 OA
BRANCH  24  26
ATOM     26  C   UNL A   1      35.983  29.776  28.317  1.00  0.00     0.060 A 
ATOM     27  C   UNL A   1      36.944  29.869  27.320  1.00  0.00     0.016 A 
ATOM     28  C   UNL A   1      36.364  29.374  29.606  1.00  0.00     0.016 A 
ATOM     29  C   UNL A   1      38.275  29.580  27.624  1.00  0.00     0.010 A 
ATOM     30  C   UNL A   1      37.728  29.141  29.911  1.00  0.00     0.010 A 
ATOM     31  C   UNL A   1      38.713  29.271  28.924  1.00  0.00    -0.014 A 
BRANCH  31  32
ATOM     32  C   UNL A   1      40.187  29.016  29.104  1.00  0.00     0.031 A 
ATOM     33  C   UNL A   1      40.769  27.756  28.517  1.00  0.00     0.074 A 
ATOM     34  C   UNL A   1      41.050  29.983  29.505  1.00  0.00     0.049 A 
ATOM     35  N   UNL A   1      42.021  27.426  28.323  1.00  0.00    -0.248 NA
ATOM     36  C   UNL A   1      39.803  26.739  28.069  1.00  0.00     0.031 C 
ATOM     37  C   UNL A   1      40.664  31.315  29.951  1.00  0.00     0.029 A 
ATOM     38  N   UNL A   1      42.436  30.057  29.418  1.00  0.00    -0.354 N 
ATOM     39  C   UNL A   1      41.997  26.138  27.812  1.00  0.00     0.074 A 
ATOM     40  C   UNL A   1      40.605  25.785  27.622  1.00  0.00     0.031 C 
ATOM     41  C   UNL A   1      41.734  32.128  29.880  1.00  0.00     0.029 A 
ATOM     42  C   UNL A   1      42.916  31.359  29.484  1.00  0.00     0.049 A 
ATOM     43  H   UNL A   1      43.017  29.269  29.320  1.00  0.00     0.167 HD
ATOM     44  C   UNL A   1      43.033  25.290  27.600  1.00  0.00     0.037 A 
ATOM     45  C   UNL A   1      44.142  31.877  29.215  1.00  0.00     0.037 A 
ATOM     46  C   UNL A   1      44.418  25.608  27.825  1.00  0.00     0.049 A 
ATOM     47  C   UNL A   1      45.294  30.930  28.952  1.00  0.00     0.074 A 
ATOM     48  C   UNL A   1      45.509  24.756  27.826  1.00  0.00     0.029 A 
ATOM     49  N   UNL A   1      44.904  26.877  28.083  1.00  0.00    -0.354 N 
ATOM     50  N   UNL A   1      45.272  29.655  28.648  1.00  0.00    -0.248 NA
ATOM     51  C   UNL A   1      46.655  31.483  29.088  1.00  0.00     0.031 C 
ATOM     52  C   UNL A   1      46.655  25.507  28.121  1.00  0.00     0.029 A 
ATOM     53  C   UNL A   1      46.279  26.832  28.253  1.00  0.00     0.049 A 
ATOM     54  H   UNL A   1      44.355  27.693  28.137  1.00  0.00     0.167 HD
ATOM     55  C   UNL A   1      46.604  29.244  28.635  1.00  0.00     0.074 A 
ATOM     56  C   UNL A   1      47.414  30.420  28.856  1.00  0.00     0.031 C 
ATOM     57  C   UNL A   1      47.100  27.988  28.508  1.00  0.00     0.037 A 
BRANCH  44  58
ATOM     58  C   UNL A   1      42.671  23.873  27.277  1.00  0.00     0.058 A 
ATOM     59  C   UNL A   1      42.319  22.938  28.259  1.00  0.00     0.135 A 
ATOM     60  C   UNL A   1      42.724  23.446  25.940  1.00  0.00     0.135 A 
ATOM     61  F   UNL A   1      42.290  23.293  29.552  1.00  0.00    -0.206 F 
ATOM     62  C   UNL A   1      42.058  21.613  27.925  1.00  0.00     0.059 A 
ATOM     63  C   UNL A   1      42.447  22.134  25.583  1.00  0.00     0.059 A 
ATOM     64  F   UNL A   1      43.070  24.306  24.969  1.00  0.00    -0.206 F 
ATOM     65  C   UNL A   1      42.133  21.221  26.585  1.00  0.00     0.060 A 
BRANCH  65  66
ATOM     66  S   UNL A   1      41.839  19.490  26.170  1.00  0.00     0.124 S 
ATOM     67  O   UNL A   1      42.274  18.821  27.392  1.00  0.00    -0.237 OA
ATOM     68  O   UNL A   1      40.403  19.471  25.913  1.00  0.00    -0.237 OA
ATOM     69  O   UNL A   1      42.686  19.272  25.001  1.00  0.00    -0.744 OA
ENDBRANCH  65  66
ENDBRANCH  44  58
BRANCH  45  70
ATOM     70  C   UNL A   1      44.421  33.356  29.237  1.00  0.00     0.058 A 
ATOM     71  C   UNL A   1      44.730  34.024  30.440  1.00  0.00     0.135 A 
ATOM     72  C   UNL A   1      44.292  34.154  28.091  1.00  0.00     0.135 A 
ATOM     73  F   UNL A   1      44.825  33.334  31.588  1.00  0.00    -0.206 F 
ATOM     74  C   UNL A   1      44.886  35.411  30.503  1.00  0.00     0.059 A 
ATOM     75  C   UNL A   1      44.489  35.534  28.119  1.00  0.00     0.059 A 
ATOM     76  F   UNL A   1      43.954  33.600  26.917  1.00  0.00    -0.206 F 
ATOM     77  C   UNL A   1      44.768  36.158  29.333  1.00  0.00     0.060 A 
BRANCH  77  78
ATOM     78  S   UNL A   1      45.010  37.950  29.381  1.00  0.00     0.124 S 
ATOM     79  O   UNL A   1      46.371  38.051  29.894  1.00  0.00    -0.237 OA
ATOM     80  O   UNL A   1      44.826  38.337  27.985  1.00  0.00    -0.237 OA
ATOM     81  O   UNL A   1      43.958  38.398  30.289  1.00  0.00    -0.744 OA
ENDBRANCH  77  78
ENDBRANCH  45  70
BRANCH  57  82
ATOM     82  C   UNL A   1      48.582  27.787  28.692  1.00  0.00     0.058 A 
ATOM     83  C   UNL A   1      49.124  27.532  29.964  1.00  0.00     0.135 A 
ATOM     84  C   UNL A   1      49.462  27.772  27.598  1.00  0.00     0.135 A 
ATOM     85  F   UNL A   1      48.330  27.529  31.047  1.00  0.00    -0.206 F 
ATOM     86  C   UNL A   1      50.482  27.288  30.147  1.00  0.00     0.059 A 
ATOM     87  C   UNL A   1      50.822  27.509  27.755  1.00  0.00     0.059 A 
ATOM     88  F   UNL A   1      49.000  27.994  26.357  1.00  0.00    -0.206 F 
ATOM     89  C   UNL A   1      51.325  27.278  29.036  1.00  0.00     0.060 A 
BRANCH  89  90
ATOM     90  S   UNL A   1      53.079  26.922  29.283  1.00  0.00     0.124 S 
ATOM     91  O   UNL A   1      53.638  28.263  29.414  1.00  0.00    -0.237 OA
ATOM     92  O   UNL A   1      53.069  26.119  30.502  1.00  0.00    -0.237 OA
ATOM     93  O   UNL A   1      53.454  26.201  28.070  1.00  0.00    -0.744 OA
ENDBRANCH  89  90
ENDBRANCH  57  82
ENDBRANCH  31  32
ENDBRANCH  24  26
ENDBRANCH  23  24
ENDBRANCH  22  23
ENDBRANCH   1  22
TORSDOF 18
ENDMDL
MODEL 3
REMARK VINA RESULT:     -11.2      5.289     10.600
REMARK SMILES C[C@@H](C(=O)OCCOC(=O)c1ccc(-c2c3nc(c(-c4c(F)cc(S(=O)(=O)[O-])cc4F)c4ccc([nH]4)c(-c4c(F)cc(S(=O)(=O)[O-])cc4F)c4nc(c(-c5c(F)cc(S(=O)(=O)[O-])cc5F)c5ccc2[nH]5)C=C4)C=C3)cc1)c1ccc(C[C@H]2CCC[C@@H]2O)cc1Br
REMARK SMILES IDX 6 1 5 2 3 3 4 4 2 5 1 6 77 7 78 8 89 9 79 10 88 11 90 12
REMARK SMILES IDX 80 13 81 14 82 15 83 16 86 17 84 18 85 19 87 20 7 22 8 23
REMARK SMILES IDX 9 24 10 25 11 26 12 27 76 28 13 29 75 30 14 31 15 32 16 33
REMARK SMILES IDX 69 34 17 35 74 36 68 37 70 38 18 39 73 40 67 41 66 42 19 44
REMARK SMILES IDX 53 45 32 46 52 47 33 48 36 49 51 50 71 51 34 52 35 53 50 55
REMARK SMILES IDX 72 56 37 57 20 58 21 59 30 60 22 61 23 62 29 63 31 64 24 65
REMARK SMILES IDX 25 66 26 67 27 68 28 69 54 70 55 71 64 72 56 73 57 74 63 75
REMARK SMILES IDX 65 76 58 77 59 78 60 79 61 80 62 81 38 82 39 83 48 84 40 85
REMARK SMILES IDX 41 86 47 87 49 88 42 89 43 90 44 91 45 92 46 93
REMARK H PARENT 87 21 70 43 36 54
REMARK Flexibility Score: inf
ROOT
ATOM      1  C   UNL A   1      33.585  27.918  25.545  1.00  0.00     0.274 C 
ENDROOT
BRANCH   1   2
ATOM      2  O   UNL A   1      32.447  27.897  24.661  1.00  0.00    -0.462 OA
BRANCH   2   3
ATOM      3  C   UNL A   1      31.401  27.107  25.040  1.00  0.00     0.313 C 
ATOM      4  O   UNL A   1      31.087  26.907  26.208  1.00  0.00    -0.252 OA
BRANCH   3   5
ATOM      5  C   UNL A   1      30.743  26.435  23.823  1.00  0.00     0.127 C 
ATOM      6  C   UNL A   1      29.215  26.544  23.872  1.00  0.00     0.025 C 
BRANCH   5   7
ATOM      7  C   UNL A   1      31.241  25.000  23.663  1.00  0.00    -0.020 A 
ATOM      8  C   UNL A   1      30.911  24.023  24.621  1.00  0.00     0.006 A 
ATOM      9  C   UNL A   1      32.149  24.637  22.649  1.00  0.00     0.022 A 
ATOM     10  C   UNL A   1      31.540  22.775  24.628  1.00  0.00     0.004 A 
ATOM     11  C   UNL A   1      32.771  23.386  22.657  1.00  0.00     0.019 A 
ATOM     12  Br  UNL A   1      32.687  25.823  21.262  1.00  0.00    -0.050 Br
ATOM     13  C   UNL A   1      32.547  22.487  23.699  1.00  0.00    -0.047 A 
BRANCH  13  14
ATOM     14  C   UNL A   1      33.516  21.339  23.914  1.00  0.00     0.041 C 
BRANCH  14  15
ATOM     15  C   UNL A   1      34.862  21.767  24.548  1.00  0.00     0.022 C 
ATOM     16  C   UNL A   1      35.681  22.845  23.812  1.00  0.00     0.007 C 
ATOM     17  C   UNL A   1      34.665  22.320  25.956  1.00  0.00     0.117 C 
ATOM     18  C   UNL A   1      36.362  23.649  24.911  1.00  0.00     0.003 C 
ATOM     19  C   UNL A   1      35.296  23.709  25.982  1.00  0.00     0.032 C 
BRANCH  17  20
ATOM     20  O   UNL A   1      35.283  21.452  26.879  1.00  0.00    -0.393 OA
ATOM     21  H   UNL A   1      35.924  21.949  27.411  1.00  0.00     0.210 HD
ENDBRANCH  17  20
ENDBRANCH  14  15
ENDBRANCH  13  14
ENDBRANCH   5   7
ENDBRANCH   3   5
ENDBRANCH   2   3
ENDBRANCH   1   2
BRANCH   1  22
ATOM     22  C   UNL A   1      33.637  29.208  26.366  1.00  0.00     0.275 C 
BRANCH  22  23
ATOM     23  O   UNL A   1      34.421  29.031  27.565  1.00  0.00    -0.458 OA
BRANCH  23  24
ATOM     24  C   UNL A   1      34.981  30.149  28.088  1.00  0.00     0.338 C 
ATOM     25  O   UNL A   1      34.420  31.201  28.343  1.00  0.00    -0.246 OA
BRANCH  24  26
ATOM     26  C   UNL A   1      36.397  29.891  28.429  1.00  0.00     0.060 A 
ATOM     27  C   UNL A   1      37.335  30.073  27.424  1.00  0.00     0.016 A 
ATOM     28  C   UNL A   1      36.801  29.358  29.662  1.00  0.00     0.016 A 
ATOM     29  C   UNL A   1      38.669  29.740  27.665  1.00  0.00     0.010 A 
ATOM     30  C   UNL A   1      38.169  29.081  29.910  1.00  0.00     0.010 A 
ATOM     31  C   UNL A   1      39.133  29.298  28.918  1.00  0.00    -0.014 A 
BRANCH  31  32
ATOM     32  C   UNL A   1      40.607  29.010  29.036  1.00  0.00     0.031 A 
ATOM     33  C   UNL A   1      41.133  27.731  28.438  1.00  0.00     0.074 A 
ATOM     34  C   UNL A   1      41.509  29.960  29.388  1.00  0.00     0.049 A 
ATOM     35  N   UNL A   1      42.368  27.369  28.194  1.00  0.00    -0.248 NA
ATOM     36  C   UNL A   1      40.125  26.733  28.045  1.00  0.00     0.031 C 
ATOM     37  C   UNL A   1      41.174  31.306  29.834  1.00  0.00     0.029 A 
ATOM     38  N   UNL A   1      42.891  30.001  29.239  1.00  0.00    -0.354 N 
ATOM     39  C   UNL A   1      42.291  26.077  27.698  1.00  0.00     0.074 A 
ATOM     40  C   UNL A   1      40.885  25.755  27.574  1.00  0.00     0.031 C 
ATOM     41  C   UNL A   1      42.258  32.093  29.707  1.00  0.00     0.029 A 
ATOM     42  C   UNL A   1      43.403  31.292  29.268  1.00  0.00     0.049 A 
ATOM     43  H   UNL A   1      43.449  29.199  29.125  1.00  0.00     0.167 HD
ATOM     44  C   UNL A   1      43.297  25.203  27.451  1.00  0.00     0.037 A 
ATOM     45  C   UNL A   1      44.628  31.778  28.941  1.00  0.00     0.037 A 
ATOM     46  C   UNL A   1      44.697  25.490  27.612  1.00  0.00     0.049 A 
ATOM     47  C   UNL A   1      45.745  30.801  28.638  1.00  0.00     0.074 A 
ATOM     48  C   UNL A   1      45.768  24.613  27.575  1.00  0.00     0.029 A 
ATOM     49  N   UNL A   1      45.224  26.750  27.833  1.00  0.00    -0.354 N 
ATOM     50  N   UNL A   1      45.681  29.524  28.350  1.00  0.00    -0.248 NA
ATOM     51  C   UNL A   1      47.123  31.324  28.708  1.00  0.00     0.031 C 
ATOM     52  C   UNL A   1      46.943  25.339  27.811  1.00  0.00     0.029 A 
ATOM     53  C   UNL A   1      46.603  26.675  27.944  1.00  0.00     0.049 A 
ATOM     54  H   UNL A   1      44.697  27.579  27.902  1.00  0.00     0.167 HD
ATOM     55  C   UNL A   1      47.001  29.082  28.284  1.00  0.00     0.074 A 
ATOM     56  C   UNL A   1      47.847  30.241  28.456  1.00  0.00     0.031 C 
ATOM     57  C   UNL A   1      47.462  27.813  28.150  1.00  0.00     0.037 A 
BRANCH  44  58
ATOM     58  C   UNL A   1      42.889  23.791  27.161  1.00  0.00     0.058 A 
ATOM     59  C   UNL A   1      42.577  22.870  28.169  1.00  0.00     0.135 A 
ATOM     60  C   UNL A   1      42.854  23.355  25.826  1.00  0.00     0.135 A 
ATOM     61  F   UNL A   1      42.632  23.233  29.459  1.00  0.00    -0.206 F 
ATOM     62  C   UNL A   1      42.270  21.548  27.861  1.00  0.00     0.059 A 
ATOM     63  C   UNL A   1      42.530  22.047  25.496  1.00  0.00     0.059 A 
ATOM     64  F   UNL A   1      43.159  24.202  24.830  1.00  0.00    -0.206 F 
ATOM     65  C   UNL A   1      42.258  21.146  26.522  1.00  0.00     0.060 A 
BRANCH  65  66
ATOM     66  S   UNL A   1      41.906  19.419  26.138  1.00  0.00     0.124 S 
ATOM     67  O   UNL A   1      42.783  19.192  24.993  1.00  0.00    -0.237 OA
ATOM     68  O   UNL A   1      42.285  18.741  27.373  1.00  0.00    -0.237 OA
ATOM     69  O   UNL A   1      40.477  19.421  25.841  1.00  0.00    -0.744 OA
ENDBRANCH  65  66
ENDBRANCH  44  58
BRANCH  45  70
ATOM     70  C   UNL A   1      44.942  33.250  28.933  1.00  0.00     0.058 A 
ATOM     71  C   UNL A   1      45.370  33.912  30.103  1.00  0.00     0.135 A 
ATOM     72  C   UNL A   1      44.732  34.050  27.800  1.00  0.00     0.135 A 
ATOM     73  F   UNL A   1      45.548  33.222  31.241  1.00  0.00    -0.206 F 
ATOM     74  C   UNL A   1      45.563  35.295  30.148  1.00  0.00     0.059 A 
ATOM     75  C   UNL A   1      44.962  35.424  27.806  1.00  0.00     0.059 A 
ATOM     76  F   UNL A   1      44.281  33.502  26.661  1.00  0.00    -0.206 F 
ATOM     77  C   UNL A   1      45.360  36.044  28.989  1.00  0.00     0.060 A 
BRANCH  77  78
ATOM     78  S   UNL A   1      45.647  37.830  29.011  1.00  0.00     0.124 S 
ATOM     79  O   UNL A   1      44.575  38.292  29.883  1.00  0.00    -0.237 OA
ATOM     80  O   UNL A   1      46.998  37.931  29.555  1.00  0.00    -0.237 OA
ATOM     81  O   UNL A   1      45.521  38.198  27.603  1.00  0.00    -0.744 OA
ENDBRANCH  77  78
ENDBRANCH  45  70
BRANCH  57  82
ATOM     82  C   UNL A   1      48.945  27.579  28.271  1.00  0.00     0.058 A 
ATOM     83  C   UNL A   1      49.521  27.214  29.500  1.00  0.00     0.135 A 
ATOM     84  C   UNL A   1      49.792  27.643  27.152  1.00  0.00     0.135 A 
ATOM     85  F   UNL A   1      48.759  27.131  30.603  1.00  0.00    -0.206 F 
ATOM     86  C   UNL A   1      50.880  26.938  29.621  1.00  0.00     0.059 A 
ATOM     87  C   UNL A   1      51.152  27.352  27.246  1.00  0.00     0.059 A 
ATOM     88  F   UNL A   1      49.297  27.973  25.949  1.00  0.00    -0.206 F 
ATOM     89  C   UNL A   1      51.689  27.009  28.487  1.00  0.00     0.060 A 
BRANCH  89  90
ATOM     90  S   UNL A   1      53.444  26.612  28.650  1.00  0.00     0.124 S 
ATOM     91  O   UNL A   1      54.063  27.919  28.454  1.00  0.00    -0.237 OA
ATOM     92  O   UNL A   1      53.521  26.072  30.004  1.00  0.00    -0.237 OA
ATOM     93  O   UNL A   1      53.674  25.643  27.583  1.00  0.00    -0.744 OA
ENDBRANCH  89  90
ENDBRANCH  57  82
ENDBRANCH  31  32
ENDBRANCH  24  26
ENDBRANCH  23  24
ENDBRANCH  22  23
ENDBRANCH   1  22
TORSDOF 18
ENDMDL
