MODEL 1
REMARK VINA RESULT:     -12.3      0.000      0.000
REMARK SMILES Cc1cc(F)ccc1OC1(C(=O)OCCOC(=O)c2ccc(-c3c4nc(c(-c5c(F)cc(S(=O)(=O)[O-])cc5F)c5ccc([nH]5)c(-c5c(F)cc(S(=O)(=O)[O-])cc5F)c5nc(c(-c6c(F)cc(S(=O)(=O)[O-])cc6F)c6ccc3[nH]6)C=C5)C=C4)cc2)CCN(C(=O)[C@H]2CCOC2)CC1
REMARK SMILES IDX 15 1 14 2 13 3 11 4 12 5 10 6 85 7 96 8 86 9 95 10 87 11
REMARK SMILES IDX 88 12 89 13 9 14 8 15 1 16 2 17 3 18 4 19 7 20 5 21 6 22
REMARK SMILES IDX 90 23 91 24 94 25 92 26 93 27 16 28 17 29 18 30 19 31 20 32
REMARK SMILES IDX 84 33 21 34 83 35 22 36 23 37 24 38 77 39 25 40 82 41 76 42
REMARK SMILES IDX 78 43 26 44 81 45 75 46 74 47 27 49 61 50 40 51 60 52 41 53
REMARK SMILES IDX 44 54 59 55 79 56 42 57 43 58 58 60 80 61 45 62 28 63 29 64
REMARK SMILES IDX 38 65 30 66 31 67 37 68 39 69 32 70 33 71 34 72 35 73 36 74
REMARK SMILES IDX 62 75 63 76 72 77 64 78 65 79 71 80 73 81 66 82 67 83 68 84
REMARK SMILES IDX 69 85 70 86 46 87 47 88 56 89 48 90 49 91 55 92 57 93 50 94
REMARK SMILES IDX 51 95 52 96 53 97 54 98
REMARK H PARENT 78 48 44 59
REMARK Flexibility Score: inf
ROOT
ATOM      1  C   UNL A   1      33.932  29.750  27.314  1.00  0.00     0.275 C 
ENDROOT
BRANCH   1   2
ATOM      2  C   UNL A   1      33.534  28.871  26.130  1.00  0.00     0.274 C 
BRANCH   2   3
ATOM      3  O   UNL A   1      33.556  27.478  26.509  1.00  0.00    -0.459 OA
BRANCH   3   4
ATOM      4  C   UNL A   1      32.415  26.762  26.276  1.00  0.00     0.350 C 
ATOM      5  O   UNL A   1      31.379  26.921  26.911  1.00  0.00    -0.247 OA
BRANCH   4   6
ATOM      6  C   UNL A   1      32.622  25.658  25.194  1.00  0.00     0.209 C 
ATOM      7  C   UNL A   1      34.077  25.189  25.193  1.00  0.00     0.082 C 
ATOM      8  C   UNL A   1      31.596  24.602  25.617  1.00  0.00     0.082 C 
ATOM      9  C   UNL A   1      34.242  23.794  25.801  1.00  0.00     0.124 C 
ATOM     10  C   UNL A   1      31.905  23.255  25.022  1.00  0.00     0.124 C 
ATOM     11  N   UNL A   1      33.243  22.794  25.392  1.00  0.00    -0.342 N 
ATOM     12  C   UNL A   1      33.585  21.448  25.517  1.00  0.00     0.228 C 
ATOM     13  O   UNL A   1      34.673  21.105  25.983  1.00  0.00    -0.274 OA
BRANCH   6  14
ATOM     14  O   UNL A   1      32.149  26.269  23.989  1.00  0.00    -0.475 OA
BRANCH  14  15
ATOM     15  C   UNL A   1      31.238  27.179  23.584  1.00  0.00     0.124 A 
ATOM     16  C   UNL A   1      28.853  26.328  24.252  1.00  0.00     0.048 C 
ATOM     17  C   UNL A   1      29.838  27.252  23.605  1.00  0.00    -0.006 A 
ATOM     18  C   UNL A   1      29.205  28.333  22.933  1.00  0.00     0.046 A 
ATOM     19  C   UNL A   1      29.927  29.349  22.328  1.00  0.00     0.123 A 
ATOM     20  C   UNL A   1      31.935  28.272  23.015  1.00  0.00     0.050 A 
ATOM     21  F   UNL A   1      29.280  30.349  21.716  1.00  0.00    -0.207 F 
ATOM     22  C   UNL A   1      31.300  29.343  22.383  1.00  0.00     0.043 A 
ENDBRANCH  14  15
ENDBRANCH   6  14
BRANCH  12  23
ATOM     23  C   UNL A   1      32.575  20.409  25.049  1.00  0.00     0.107 C 
ATOM     24  C   UNL A   1      32.760  20.018  23.599  1.00  0.00     0.044 C 
ATOM     25  C   UNL A   1      32.741  19.072  25.747  1.00  0.00     0.173 C 
ATOM     26  C   UNL A   1      32.154  18.630  23.540  1.00  0.00     0.161 C 
ATOM     27  O   UNL A   1      32.186  18.084  24.865  1.00  0.00    -0.381 OA
ENDBRANCH  12  23
ENDBRANCH   4   6
ENDBRANCH   3   4
ENDBRANCH   2   3
ENDBRANCH   1   2
BRANCH   1  28
ATOM     28  O   UNL A   1      35.158  29.257  27.881  1.00  0.00    -0.458 OA
BRANCH  28  29
ATOM     29  C   UNL A   1      35.802  30.073  28.743  1.00  0.00     0.338 C 
ATOM     30  O   UNL A   1      35.302  30.877  29.519  1.00  0.00    -0.246 OA
BRANCH  29  31
ATOM     31  C   UNL A   1      37.247  29.830  28.635  1.00  0.00     0.060 A 
ATOM     32  C   UNL A   1      37.855  29.929  27.387  1.00  0.00     0.016 A 
ATOM     33  C   UNL A   1      37.992  29.430  29.746  1.00  0.00     0.016 A 
ATOM     34  C   UNL A   1      39.194  29.590  27.238  1.00  0.00     0.010 A 
ATOM     35  C   UNL A   1      39.357  29.144  29.598  1.00  0.00     0.010 A 
ATOM     36  C   UNL A   1      39.968  29.194  28.333  1.00  0.00    -0.014 A 
BRANCH  36  37
ATOM     37  C   UNL A   1      41.372  28.754  28.102  1.00  0.00     0.031 A 
ATOM     38  C   UNL A   1      42.506  29.715  28.341  1.00  0.00     0.074 A 
ATOM     39  C   UNL A   1      41.651  27.474  27.780  1.00  0.00     0.049 A 
ATOM     40  N   UNL A   1      43.780  29.573  28.079  1.00  0.00    -0.248 NA
ATOM     41  C   UNL A   1      42.160  31.008  28.952  1.00  0.00     0.031 C 
ATOM     42  C   UNL A   1      40.665  26.406  27.612  1.00  0.00     0.029 A 
ATOM     43  N   UNL A   1      42.855  26.843  27.575  1.00  0.00    -0.354 N 
ATOM     44  C   UNL A   1      44.375  30.782  28.419  1.00  0.00     0.074 A 
ATOM     45  C   UNL A   1      43.324  31.640  28.926  1.00  0.00     0.031 C 
ATOM     46  C   UNL A   1      41.303  25.244  27.404  1.00  0.00     0.029 A 
ATOM     47  C   UNL A   1      42.737  25.496  27.326  1.00  0.00     0.049 A 
ATOM     48  H   UNL A   1      43.719  27.312  27.605  1.00  0.00     0.167 HD
ATOM     49  C   UNL A   1      45.675  31.147  28.308  1.00  0.00     0.037 A 
ATOM     50  C   UNL A   1      43.673  24.571  27.034  1.00  0.00     0.037 A 
ATOM     51  C   UNL A   1      46.728  30.269  27.872  1.00  0.00     0.049 A 
ATOM     52  C   UNL A   1      45.107  24.999  26.891  1.00  0.00     0.074 A 
ATOM     53  C   UNL A   1      48.074  30.547  27.710  1.00  0.00     0.029 A 
ATOM     54  N   UNL A   1      46.557  28.929  27.554  1.00  0.00    -0.354 N 
ATOM     55  N   UNL A   1      45.637  26.181  27.095  1.00  0.00    -0.248 NA
ATOM     56  C   UNL A   1      46.062  23.978  26.438  1.00  0.00     0.031 C 
ATOM     57  C   UNL A   1      48.713  29.381  27.268  1.00  0.00     0.029 A 
ATOM     58  C   UNL A   1      47.770  28.370  27.186  1.00  0.00     0.049 A 
ATOM     59  H   UNL A   1      45.700  28.447  27.584  1.00  0.00     0.167 HD
ATOM     60  C   UNL A   1      46.986  26.050  26.785  1.00  0.00     0.074 A 
ATOM     61  C   UNL A   1      47.196  24.667  26.407  1.00  0.00     0.031 C 
ATOM     62  C   UNL A   1      47.959  26.994  26.801  1.00  0.00     0.037 A 
BRANCH  49  63
ATOM     63  C   UNL A   1      46.006  32.583  28.596  1.00  0.00     0.058 A 
ATOM     64  C   UNL A   1      46.415  33.021  29.865  1.00  0.00     0.135 A 
ATOM     65  C   UNL A   1      45.887  33.544  27.578  1.00  0.00     0.135 A 
ATOM     66  F   UNL A   1      46.526  32.147  30.878  1.00  0.00    -0.206 F 
ATOM     67  C   UNL A   1      46.653  34.368  30.126  1.00  0.00     0.059 A 
ATOM     68  C   UNL A   1      46.141  34.891  27.809  1.00  0.00     0.059 A 
ATOM     69  F   UNL A   1      45.498  33.177  26.347  1.00  0.00    -0.206 F 
ATOM     70  C   UNL A   1      46.501  35.297  29.094  1.00  0.00     0.060 A 
BRANCH  70  71
ATOM     71  S   UNL A   1      46.767  37.047  29.446  1.00  0.00     0.124 S 
ATOM     72  O   UNL A   1      47.737  37.405  28.417  1.00  0.00    -0.237 OA
ATOM     73  O   UNL A   1      45.431  37.611  29.280  1.00  0.00    -0.237 OA
ATOM     74  O   UNL A   1      47.274  37.044  30.815  1.00  0.00    -0.744 OA
ENDBRANCH  70  71
ENDBRANCH  49  63
BRANCH  50  75
ATOM     75  C   UNL A   1      43.272  23.156  26.820  1.00  0.00     0.058 A 
ATOM     76  C   UNL A   1      43.202  22.616  25.527  1.00  0.00     0.135 A 
ATOM     77  C   UNL A   1      42.997  22.304  27.901  1.00  0.00     0.135 A 
ATOM     78  F   UNL A   1      43.439  23.395  24.461  1.00  0.00    -0.206 F 
ATOM     79  C   UNL A   1      42.888  21.277  25.314  1.00  0.00     0.059 A 
ATOM     80  C   UNL A   1      42.704  20.957  27.714  1.00  0.00     0.059 A 
ATOM     81  F   UNL A   1      43.055  22.773  29.158  1.00  0.00    -0.206 F 
ATOM     82  C   UNL A   1      42.652  20.453  26.415  1.00  0.00     0.060 A 
BRANCH  82  83
ATOM     83  S   UNL A   1      42.348  18.693  26.142  1.00  0.00     0.124 S 
ATOM     84  O   UNL A   1      42.652  18.135  27.453  1.00  0.00    -0.237 OA
ATOM     85  O   UNL A   1      40.942  18.677  25.751  1.00  0.00    -0.237 OA
ATOM     86  O   UNL A   1      43.288  18.356  25.077  1.00  0.00    -0.744 OA
ENDBRANCH  82  83
ENDBRANCH  50  75
BRANCH  62  87
ATOM     87  C   UNL A   1      49.338  26.562  26.394  1.00  0.00     0.058 A 
ATOM     88  C   UNL A   1      50.166  25.848  27.274  1.00  0.00     0.135 A 
ATOM     89  C   UNL A   1      49.819  26.826  25.103  1.00  0.00     0.135 A 
ATOM     90  F   UNL A   1      49.753  25.577  28.522  1.00  0.00    -0.206 F 
ATOM     91  C   UNL A   1      51.436  25.426  26.892  1.00  0.00     0.059 A 
ATOM     92  C   UNL A   1      51.078  26.399  24.694  1.00  0.00     0.059 A 
ATOM     93  F   UNL A   1      49.061  27.499  24.224  1.00  0.00    -0.206 F 
ATOM     94  C   UNL A   1      51.884  25.708  25.600  1.00  0.00     0.060 A 
BRANCH  94  95
ATOM     95  S   UNL A   1      53.522  25.134  25.103  1.00  0.00     0.124 S 
ATOM     96  O   UNL A   1      53.428  23.704  25.375  1.00  0.00    -0.237 OA
ATOM     97  O   UNL A   1      53.575  25.508  23.693  1.00  0.00    -0.237 OA
ATOM     98  O   UNL A   1      54.421  25.882  25.976  1.00  0.00    -0.744 OA
ENDBRANCH  94  95
ENDBRANCH  62  87
ENDBRANCH  36  37
ENDBRANCH  29  31
ENDBRANCH  28  29
ENDBRANCH   1  28
TORSDOF 17
ENDMDL
MODEL 2
REMARK VINA RESULT:     -12.2      1.088      1.530
REMARK SMILES Cc1cc(F)ccc1OC1(C(=O)OCCOC(=O)c2ccc(-c3c4nc(c(-c5c(F)cc(S(=O)(=O)[O-])cc5F)c5ccc([nH]5)c(-c5c(F)cc(S(=O)(=O)[O-])cc5F)c5nc(c(-c6c(F)cc(S(=O)(=O)[O-])cc6F)c6ccc3[nH]6)C=C5)C=C4)cc2)CCN(C(=O)[C@H]2CCOC2)CC1
REMARK SMILES IDX 15 1 14 2 13 3 11 4 12 5 10 6 85 7 96 8 86 9 95 10 87 11
REMARK SMILES IDX 88 12 89 13 9 14 8 15 1 16 2 17 3 18 4 19 7 20 5 21 6 22
REMARK SMILES IDX 90 23 91 24 94 25 92 26 93 27 16 28 17 29 18 30 19 31 20 32
REMARK SMILES IDX 84 33 21 34 83 35 22 36 23 37 24 38 77 39 25 40 82 41 76 42
REMARK SMILES IDX 78 43 26 44 81 45 75 46 74 47 27 49 61 50 40 51 60 52 41 53
REMARK SMILES IDX 44 54 59 55 79 56 42 57 43 58 58 60 80 61 45 62 28 63 29 64
REMARK SMILES IDX 38 65 30 66 31 67 37 68 39 69 32 70 33 71 34 72 35 73 36 74
REMARK SMILES IDX 62 75 63 76 72 77 64 78 65 79 71 80 73 81 66 82 67 83 68 84
REMARK SMILES IDX 69 85 70 86 46 87 47 88 56 89 48 90 49 91 55 92 57 93 50 94
REMARK SMILES IDX 51 95 52 96 53 97 54 98
REMARK H PARENT 78 48 44 59
REMARK Flexibility Score: inf
ROOT
ATOM      1  C   UNL A   1      33.821  29.636  27.611  1.00  0.00     0.275 C 
ENDROOT
BRANCH   1   2
ATOM      2  C   UNL A   1      33.647  29.853  26.109  1.00  0.00     0.274 C 
BRANCH   2   3
ATOM      3  O   UNL A   1      34.032  28.666  25.383  1.00  0.00    -0.459 OA
BRANCH   3   4
ATOM      4  C   UNL A   1      33.660  28.604  24.069  1.00  0.00     0.350 C 
ATOM      5  O   UNL A   1      34.045  29.402  23.221  1.00  0.00    -0.247 OA
BRANCH   4   6
ATOM      6  C   UNL A   1      32.613  27.479  23.805  1.00  0.00     0.209 C 
ATOM      7  C   UNL A   1      32.585  27.126  22.317  1.00  0.00     0.082 C 
ATOM      8  C   UNL A   1      33.106  26.362  24.731  1.00  0.00     0.082 C 
ATOM      9  C   UNL A   1      33.239  25.774  22.025  1.00  0.00     0.124 C 
ATOM     10  C   UNL A   1      32.553  25.021  24.332  1.00  0.00     0.124 C 
ATOM     11  N   UNL A   1      32.899  24.683  22.951  1.00  0.00    -0.342 N 
ATOM     12  C   UNL A   1      33.063  23.373  22.499  1.00  0.00     0.228 C 
ATOM     13  O   UNL A   1      33.507  23.136  21.375  1.00  0.00    -0.274 OA
BRANCH   6  14
ATOM     14  O   UNL A   1      31.401  28.003  24.358  1.00  0.00    -0.475 OA
BRANCH  14  15
ATOM     15  C   UNL A   1      30.202  28.471  23.953  1.00  0.00     0.124 A 
ATOM     16  C   UNL A   1      28.541  26.456  23.752  1.00  0.00     0.048 C 
ATOM     17  C   UNL A   1      28.973  27.884  23.622  1.00  0.00    -0.006 A 
ATOM     18  C   UNL A   1      27.951  28.711  23.079  1.00  0.00     0.046 A 
ATOM     19  C   UNL A   1      28.107  30.081  22.940  1.00  0.00     0.123 A 
ATOM     20  C   UNL A   1      30.294  29.881  23.859  1.00  0.00     0.050 A 
ATOM     21  F   UNL A   1      27.110  30.814  22.430  1.00  0.00    -0.207 F 
ATOM     22  C   UNL A   1      29.271  30.685  23.351  1.00  0.00     0.043 A 
ENDBRANCH  14  15
ENDBRANCH   6  14
BRANCH  12  23
ATOM     23  C   UNL A   1      32.665  22.241  23.435  1.00  0.00     0.107 C 
ATOM     24  C   UNL A   1      32.186  21.008  22.699  1.00  0.00     0.044 C 
ATOM     25  C   UNL A   1      33.839  21.687  24.220  1.00  0.00     0.173 C 
ATOM     26  C   UNL A   1      32.458  19.893  23.689  1.00  0.00     0.161 C 
ATOM     27  O   UNL A   1      33.488  20.342  24.578  1.00  0.00    -0.381 OA
ENDBRANCH  12  23
ENDBRANCH   4   6
ENDBRANCH   3   4
ENDBRANCH   2   3
ENDBRANCH   1   2
BRANCH   1  28
ATOM     28  O   UNL A   1      35.193  29.308  27.889  1.00  0.00    -0.458 OA
BRANCH  28  29
ATOM     29  C   UNL A   1      35.831  30.077  28.797  1.00  0.00     0.338 C 
ATOM     30  O   UNL A   1      35.327  30.842  29.609  1.00  0.00    -0.246 OA
BRANCH  29  31
ATOM     31  C   UNL A   1      37.277  29.834  28.690  1.00  0.00     0.060 A 
ATOM     32  C   UNL A   1      37.881  29.914  27.439  1.00  0.00     0.016 A 
ATOM     33  C   UNL A   1      38.025  29.454  29.805  1.00  0.00     0.016 A 
ATOM     34  C   UNL A   1      39.221  29.575  27.292  1.00  0.00     0.010 A 
ATOM     35  C   UNL A   1      39.390  29.168  29.659  1.00  0.00     0.010 A 
ATOM     36  C   UNL A   1      39.998  29.198  28.392  1.00  0.00    -0.014 A 
BRANCH  36  37
ATOM     37  C   UNL A   1      41.402  28.757  28.166  1.00  0.00     0.031 A 
ATOM     38  C   UNL A   1      42.538  29.712  28.421  1.00  0.00     0.074 A 
ATOM     39  C   UNL A   1      41.680  27.479  27.832  1.00  0.00     0.049 A 
ATOM     40  N   UNL A   1      43.813  29.570  28.165  1.00  0.00    -0.248 NA
ATOM     41  C   UNL A   1      42.191  31.000  29.042  1.00  0.00     0.031 C 
ATOM     42  C   UNL A   1      40.692  26.416  27.648  1.00  0.00     0.029 A 
ATOM     43  N   UNL A   1      42.883  26.847  27.629  1.00  0.00    -0.354 N 
ATOM     44  C   UNL A   1      44.408  30.774  28.521  1.00  0.00     0.074 A 
ATOM     45  C   UNL A   1      43.356  31.629  29.030  1.00  0.00     0.031 C 
ATOM     46  C   UNL A   1      41.328  25.254  27.432  1.00  0.00     0.029 A 
ATOM     47  C   UNL A   1      42.764  25.503  27.365  1.00  0.00     0.049 A 
ATOM     48  H   UNL A   1      43.749  27.314  27.668  1.00  0.00     0.167 HD
ATOM     49  C   UNL A   1      45.710  31.137  28.421  1.00  0.00     0.037 A 
ATOM     50  C   UNL A   1      43.699  24.579  27.069  1.00  0.00     0.037 A 
ATOM     51  C   UNL A   1      46.763  30.260  27.983  1.00  0.00     0.049 A 
ATOM     52  C   UNL A   1      45.135  25.005  26.940  1.00  0.00     0.074 A 
ATOM     53  C   UNL A   1      48.110  30.536  27.832  1.00  0.00     0.029 A 
ATOM     54  N   UNL A   1      46.591  28.924  27.651  1.00  0.00    -0.354 N 
ATOM     55  N   UNL A   1      45.667  26.183  27.158  1.00  0.00    -0.248 NA
ATOM     56  C   UNL A   1      46.089  23.986  26.483  1.00  0.00     0.031 C 
ATOM     57  C   UNL A   1      48.750  29.373  27.383  1.00  0.00     0.029 A 
ATOM     58  C   UNL A   1      47.804  28.365  27.284  1.00  0.00     0.049 A 
ATOM     59  H   UNL A   1      45.732  28.443  27.671  1.00  0.00     0.167 HD
ATOM     60  C   UNL A   1      47.017  26.051  26.856  1.00  0.00     0.074 A 
ATOM     61  C   UNL A   1      47.225  24.672  26.465  1.00  0.00     0.031 C 
ATOM     62  C   UNL A   1      47.993  26.992  26.887  1.00  0.00     0.037 A 
BRANCH  49  63
ATOM     63  C   UNL A   1      46.043  32.569  28.726  1.00  0.00     0.058 A 
ATOM     64  C   UNL A   1      46.381  33.004  30.016  1.00  0.00     0.135 A 
ATOM     65  C   UNL A   1      45.999  33.528  27.700  1.00  0.00     0.135 A 
ATOM     66  F   UNL A   1      46.417  32.133  31.036  1.00  0.00    -0.206 F 
ATOM     67  C   UNL A   1      46.621  34.349  30.288  1.00  0.00     0.059 A 
ATOM     68  C   UNL A   1      46.258  34.872  27.943  1.00  0.00     0.059 A 
ATOM     69  F   UNL A   1      45.681  33.163  26.448  1.00  0.00    -0.206 F 
ATOM     70  C   UNL A   1      46.545  35.277  29.247  1.00  0.00     0.060 A 
BRANCH  70  71
ATOM     71  S   UNL A   1      46.814  37.024  29.610  1.00  0.00     0.124 S 
ATOM     72  O   UNL A   1      48.161  37.000  30.168  1.00  0.00    -0.237 OA
ATOM     73  O   UNL A   1      46.684  37.646  28.295  1.00  0.00    -0.237 OA
ATOM     74  O   UNL A   1      45.747  37.342  30.555  1.00  0.00    -0.744 OA
ENDBRANCH  70  71
ENDBRANCH  49  63
BRANCH  50  75
ATOM     75  C   UNL A   1      43.296  23.167  26.840  1.00  0.00     0.058 A 
ATOM     76  C   UNL A   1      43.283  22.624  25.546  1.00  0.00     0.135 A 
ATOM     77  C   UNL A   1      42.960  22.321  27.907  1.00  0.00     0.135 A 
ATOM     78  F   UNL A   1      43.579  23.399  24.491  1.00  0.00    -0.206 F 
ATOM     79  C   UNL A   1      42.968  21.288  25.320  1.00  0.00     0.059 A 
ATOM     80  C   UNL A   1      42.665  20.976  27.709  1.00  0.00     0.059 A 
ATOM     81  F   UNL A   1      42.962  22.791  29.164  1.00  0.00    -0.206 F 
ATOM     82  C   UNL A   1      42.671  20.469  26.410  1.00  0.00     0.060 A 
BRANCH  82  83
ATOM     83  S   UNL A   1      42.364  18.711  26.126  1.00  0.00     0.124 S 
ATOM     84  O   UNL A   1      42.656  18.145  27.437  1.00  0.00    -0.237 OA
ATOM     85  O   UNL A   1      40.961  18.701  25.723  1.00  0.00    -0.237 OA
ATOM     86  O   UNL A   1      43.312  18.376  25.066  1.00  0.00    -0.744 OA
ENDBRANCH  82  83
ENDBRANCH  50  75
BRANCH  62  87
ATOM     87  C   UNL A   1      49.372  26.561  26.484  1.00  0.00     0.058 A 
ATOM     88  C   UNL A   1      50.225  25.909  27.389  1.00  0.00     0.135 A 
ATOM     89  C   UNL A   1      49.832  26.762  25.174  1.00  0.00     0.135 A 
ATOM     90  F   UNL A   1      49.833  25.700  28.656  1.00  0.00    -0.206 F 
ATOM     91  C   UNL A   1      51.496  25.487  27.012  1.00  0.00     0.059 A 
ATOM     92  C   UNL A   1      51.092  26.333  24.770  1.00  0.00     0.059 A 
ATOM     93  F   UNL A   1      49.051  27.374  24.270  1.00  0.00    -0.206 F 
ATOM     94  C   UNL A   1      51.921  25.706  25.700  1.00  0.00     0.060 A 
BRANCH  94  95
ATOM     95  S   UNL A   1      53.562  25.131  25.212  1.00  0.00     0.124 S 
ATOM     96  O   UNL A   1      54.412  25.802  26.189  1.00  0.00    -0.237 OA
ATOM     97  O   UNL A   1      53.448  23.683  25.360  1.00  0.00    -0.237 OA
ATOM     98  O   UNL A   1      53.690  25.604  23.837  1.00  0.00    -0.744 OA
ENDBRANCH  94  95
ENDBRANCH  62  87
ENDBRANCH  36  37
ENDBRANCH  29  31
ENDBRANCH  28  29
ENDBRANCH   1  28
TORSDOF 17
ENDMDL
MODEL 3
REMARK VINA RESULT:     -12.2      2.243      3.084
REMARK SMILES Cc1cc(F)ccc1OC1(C(=O)OCCOC(=O)c2ccc(-c3c4nc(c(-c5c(F)cc(S(=O)(=O)[O-])cc5F)c5ccc([nH]5)c(-c5c(F)cc(S(=O)(=O)[O-])cc5F)c5nc(c(-c6c(F)cc(S(=O)(=O)[O-])cc6F)c6ccc3[nH]6)C=C5)C=C4)cc2)CCN(C(=O)[C@H]2CCOC2)CC1
REMARK SMILES IDX 15 1 14 2 13 3 11 4 12 5 10 6 85 7 96 8 86 9 95 10 87 11
REMARK SMILES IDX 88 12 89 13 9 14 8 15 1 16 2 17 3 18 4 19 7 20 5 21 6 22
REMARK SMILES IDX 90 23 91 24 94 25 92 26 93 27 16 28 17 29 18 30 19 31 20 32
REMARK SMILES IDX 84 33 21 34 83 35 22 36 23 37 24 38 77 39 25 40 82 41 76 42
REMARK SMILES IDX 78 43 26 44 81 45 75 46 74 47 27 49 61 50 40 51 60 52 41 53
REMARK SMILES IDX 44 54 59 55 79 56 42 57 43 58 58 60 80 61 45 62 28 63 29 64
REMARK SMILES IDX 38 65 30 66 31 67 37 68 39 69 32 70 33 71 34 72 35 73 36 74
REMARK SMILES IDX 62 75 63 76 72 77 64 78 65 79 71 80 73 81 66 82 67 83 68 84
REMARK SMILES IDX 69 85 70 86 46 87 47 88 56 89 48 90 49 91 55 92 57 93 50 94
REMARK SMILES IDX 51 95 52 96 53 97 54 98
REMARK H PARENT 78 48 44 59
REMARK Flexibility Score: inf
ROOT
ATOM      1  C   UNL A   1      32.647  28.067  27.524  1.00  0.00     0.275 C 
ENDROOT
BRANCH   1   2
ATOM      2  C   UNL A   1      32.005  27.210  26.433  1.00  0.00     0.274 C 
BRANCH   2   3
ATOM      3  O   UNL A   1      32.690  25.944  26.322  1.00  0.00    -0.459 OA
BRANCH   3   4
ATOM      4  C   UNL A   1      31.910  24.822  26.339  1.00  0.00     0.350 C 
ATOM      5  O   UNL A   1      31.142  24.550  27.255  1.00  0.00    -0.247 OA
BRANCH   4   6
ATOM      6  C   UNL A   1      32.191  23.889  25.121  1.00  0.00     0.209 C 
ATOM      7  C   UNL A   1      33.686  23.878  24.802  1.00  0.00     0.082 C 
ATOM      8  C   UNL A   1      31.616  22.553  25.605  1.00  0.00     0.082 C 
ATOM      9  C   UNL A   1      34.361  22.567  25.211  1.00  0.00     0.124 C 
ATOM     10  C   UNL A   1      32.164  21.394  24.818  1.00  0.00     0.124 C 
ATOM     11  N   UNL A   1      33.624  21.336  24.883  1.00  0.00    -0.342 N 
ATOM     12  C   UNL A   1      34.351  20.150  24.793  1.00  0.00     0.228 C 
ATOM     13  O   UNL A   1      35.563  20.124  25.010  1.00  0.00    -0.274 OA
BRANCH   6  14
ATOM     14  O   UNL A   1      31.324  24.393  24.098  1.00  0.00    -0.475 OA
BRANCH  14  15
ATOM     15  C   UNL A   1      30.993  25.563  23.513  1.00  0.00     0.124 A 
ATOM     16  C   UNL A   1      33.002  26.355  22.032  1.00  0.00     0.048 C 
ATOM     17  C   UNL A   1      31.659  26.475  22.682  1.00  0.00    -0.006 A 
ATOM     18  C   UNL A   1      31.019  27.707  22.378  1.00  0.00     0.046 A 
ATOM     19  C   UNL A   1      29.736  27.999  22.813  1.00  0.00     0.123 A 
ATOM     20  C   UNL A   1      29.660  25.872  23.878  1.00  0.00     0.050 A 
ATOM     21  F   UNL A   1      29.177  29.172  22.492  1.00  0.00    -0.207 F 
ATOM     22  C   UNL A   1      29.033  27.075  23.548  1.00  0.00     0.043 A 
ENDBRANCH  14  15
ENDBRANCH   6  14
BRANCH  12  23
ATOM     23  C   UNL A   1      33.602  18.882  24.405  1.00  0.00     0.107 C 
ATOM     24  C   UNL A   1      34.522  17.707  24.157  1.00  0.00     0.044 C 
ATOM     25  C   UNL A   1      32.727  18.351  25.524  1.00  0.00     0.173 C 
ATOM     26  C   UNL A   1      33.627  16.512  24.422  1.00  0.00     0.161 C 
ATOM     27  O   UNL A   1      32.563  16.946  25.278  1.00  0.00    -0.381 OA
ENDBRANCH  12  23
ENDBRANCH   4   6
ENDBRANCH   3   4
ENDBRANCH   2   3
ENDBRANCH   1   2
BRANCH   1  28
ATOM     28  O   UNL A   1      33.739  28.813  26.961  1.00  0.00    -0.458 OA
BRANCH  28  29
ATOM     29  C   UNL A   1      34.133  29.916  27.633  1.00  0.00     0.338 C 
ATOM     30  O   UNL A   1      33.446  30.878  27.950  1.00  0.00    -0.246 OA
BRANCH  29  31
ATOM     31  C   UNL A   1      35.557  29.780  27.972  1.00  0.00     0.060 A 
ATOM     32  C   UNL A   1      36.509  30.045  26.994  1.00  0.00     0.016 A 
ATOM     33  C   UNL A   1      35.954  29.319  29.228  1.00  0.00     0.016 A 
ATOM     34  C   UNL A   1      37.855  29.812  27.253  1.00  0.00     0.010 A 
ATOM     35  C   UNL A   1      37.318  29.140  29.501  1.00  0.00     0.010 A 
ATOM     36  C   UNL A   1      38.284  29.358  28.503  1.00  0.00    -0.014 A 
BRANCH  36  37
ATOM     37  C   UNL A   1      39.725  29.037  28.699  1.00  0.00     0.031 A 
ATOM     38  C   UNL A   1      40.624  30.024  29.394  1.00  0.00     0.074 A 
ATOM     39  C   UNL A   1      40.217  27.829  28.353  1.00  0.00     0.049 A 
ATOM     40  N   UNL A   1      41.923  29.994  29.548  1.00  0.00    -0.248 NA
ATOM     41  C   UNL A   1      39.976  31.203  29.990  1.00  0.00     0.031 C 
ATOM     42  C   UNL A   1      39.445  26.736  27.761  1.00  0.00     0.029 A 
ATOM     43  N   UNL A   1      41.479  27.303  28.487  1.00  0.00    -0.354 N 
ATOM     44  C   UNL A   1      42.257  31.182  30.188  1.00  0.00     0.074 A 
ATOM     45  C   UNL A   1      41.020  31.901  30.411  1.00  0.00     0.031 C 
ATOM     46  C   UNL A   1      40.227  25.651  27.652  1.00  0.00     0.029 A 
ATOM     47  C   UNL A   1      41.581  25.996  28.073  1.00  0.00     0.049 A 
ATOM     48  H   UNL A   1      42.239  27.816  28.846  1.00  0.00     0.167 HD
ATOM     49  C   UNL A   1      43.483  31.636  30.545  1.00  0.00     0.037 A 
ATOM     50  C   UNL A   1      42.648  25.176  28.007  1.00  0.00     0.037 A 
ATOM     51  C   UNL A   1      44.701  30.886  30.387  1.00  0.00     0.049 A 
ATOM     52  C   UNL A   1      44.003  25.703  28.385  1.00  0.00     0.074 A 
ATOM     53  C   UNL A   1      45.994  31.263  30.703  1.00  0.00     0.029 A 
ATOM     54  N   UNL A   1      44.773  29.592  29.893  1.00  0.00    -0.354 N 
ATOM     55  N   UNL A   1      44.322  26.878  28.873  1.00  0.00    -0.248 NA
ATOM     56  C   UNL A   1      45.148  24.809  28.164  1.00  0.00     0.031 C 
ATOM     57  C   UNL A   1      46.853  30.206  30.375  1.00  0.00     0.029 A 
ATOM     58  C   UNL A   1      46.089  29.159  29.884  1.00  0.00     0.049 A 
ATOM     59  H   UNL A   1      44.002  29.059  29.591  1.00  0.00     0.167 HD
ATOM     60  C   UNL A   1      45.705  26.869  29.008  1.00  0.00     0.074 A 
ATOM     61  C   UNL A   1      46.160  25.563  28.576  1.00  0.00     0.031 C 
ATOM     62  C   UNL A   1      46.525  27.859  29.440  1.00  0.00     0.037 A 
BRANCH  49  63
ATOM     63  C   UNL A   1      43.562  33.038  31.075  1.00  0.00     0.058 A 
ATOM     64  C   UNL A   1      43.742  34.150  30.239  1.00  0.00     0.135 A 
ATOM     65  C   UNL A   1      43.479  33.265  32.460  1.00  0.00     0.135 A 
ATOM     66  F   UNL A   1      43.847  33.986  28.911  1.00  0.00    -0.206 F 
ATOM     67  C   UNL A   1      43.879  35.434  30.759  1.00  0.00     0.059 A 
ATOM     68  C   UNL A   1      43.591  34.542  32.999  1.00  0.00     0.059 A 
ATOM     69  F   UNL A   1      43.308  32.236  33.304  1.00  0.00    -0.206 F 
ATOM     70  C   UNL A   1      43.815  35.618  32.141  1.00  0.00     0.060 A 
BRANCH  70  71
ATOM     71  S   UNL A   1      44.037  37.278  32.815  1.00  0.00     0.124 S 
ATOM     72  O   UNL A   1      43.024  37.303  33.864  1.00  0.00    -0.237 OA
ATOM     73  O   UNL A   1      45.423  37.251  33.274  1.00  0.00    -0.237 OA
ATOM     74  O   UNL A   1      43.779  38.146  31.670  1.00  0.00    -0.744 OA
ENDBRANCH  70  71
ENDBRANCH  49  63
BRANCH  50  75
ATOM     75  C   UNL A   1      42.477  23.779  27.527  1.00  0.00     0.058 A 
ATOM     76  C   UNL A   1      42.501  23.481  26.156  1.00  0.00     0.135 A 
ATOM     77  C   UNL A   1      42.332  22.711  28.426  1.00  0.00     0.135 A 
ATOM     78  F   UNL A   1      42.620  24.471  25.257  1.00  0.00    -0.206 F 
ATOM     79  C   UNL A   1      42.405  22.173  25.693  1.00  0.00     0.059 A 
ATOM     80  C   UNL A   1      42.258  21.393  27.988  1.00  0.00     0.059 A 
ATOM     81  F   UNL A   1      42.307  22.944  29.748  1.00  0.00    -0.206 F 
ATOM     82  C   UNL A   1      42.294  21.134  26.619  1.00  0.00     0.060 A 
BRANCH  82  83
ATOM     83  S   UNL A   1      42.274  19.429  26.021  1.00  0.00     0.124 S 
ATOM     84  O   UNL A   1      40.875  19.266  25.644  1.00  0.00    -0.237 OA
ATOM     85  O   UNL A   1      43.232  19.473  24.922  1.00  0.00    -0.237 OA
ATOM     86  O   UNL A   1      42.708  18.664  27.187  1.00  0.00    -0.744 OA
ENDBRANCH  82  83
ENDBRANCH  50  75
BRANCH  62  87
ATOM     87  C   UNL A   1      47.997  27.567  29.462  1.00  0.00     0.058 A 
ATOM     88  C   UNL A   1      48.822  27.902  28.376  1.00  0.00     0.135 A 
ATOM     89  C   UNL A   1      48.595  26.986  30.590  1.00  0.00     0.135 A 
ATOM     90  F   UNL A   1      48.295  28.453  27.272  1.00  0.00    -0.206 F 
ATOM     91  C   UNL A   1      50.191  27.653  28.403  1.00  0.00     0.059 A 
ATOM     92  C   UNL A   1      49.964  26.744  30.645  1.00  0.00     0.059 A 
ATOM     93  F   UNL A   1      47.849  26.655  31.656  1.00  0.00    -0.206 F 
ATOM     94  C   UNL A   1      50.752  27.072  29.542  1.00  0.00     0.060 A 
BRANCH  94  95
ATOM     95  S   UNL A   1      52.534  26.777  29.578  1.00  0.00     0.124 S 
ATOM     96  O   UNL A   1      52.673  25.968  30.785  1.00  0.00    -0.237 OA
ATOM     97  O   UNL A   1      52.765  26.078  28.317  1.00  0.00    -0.237 OA
ATOM     98  O   UNL A   1      53.096  28.121  29.653  1.00  0.00    -0.744 OA
ENDBRANCH  94  95
ENDBRANCH  62  87
ENDBRANCH  36  37
ENDBRANCH  29  31
ENDBRANCH  28  29
ENDBRANCH   1  28
TORSDOF 17
ENDMDL
