MODEL 1
REMARK VINA RESULT:     -10.6      0.000      0.000
REMARK SMILES CC(C)N1C[C@@H](C(=O)N[C@@H](C)CC(=O)OCCOC(=O)c2ccc(-c3c4nc(c(-c5c(F)cc(S(=O)(=O)[O-])cc5F)c5ccc([nH]5)c(-c5c(F)cc(S(=O)(=O)[O-])cc5F)c5nc(c(-c6c(F)cc(S(=O)(=O)[O-])cc6F)c6ccc3[nH]6)C=C5)C=C4)cc2)CC1=O
REMARK SMILES IDX 16 1 15 2 13 3 14 4 12 5 10 6 11 7 9 8 7 9 8 10 6 12 4 13
REMARK SMILES IDX 5 14 88 15 87 16 89 17 2 18 1 19 3 20 17 21 18 22 19 23
REMARK SMILES IDX 20 24 21 25 22 26 86 27 23 28 85 29 24 30 25 31 26 32 79 33
REMARK SMILES IDX 27 34 84 35 78 36 80 37 28 38 83 39 77 40 76 41 29 43 63 44
REMARK SMILES IDX 42 45 62 46 43 47 46 48 61 49 81 50 44 51 45 52 60 54 82 55
REMARK SMILES IDX 47 56 30 57 31 58 40 59 32 60 33 61 39 62 41 63 34 64 35 65
REMARK SMILES IDX 36 66 37 67 38 68 64 69 65 70 74 71 66 72 67 73 73 74 75 75
REMARK SMILES IDX 68 76 69 77 70 78 71 79 72 80 48 81 49 82 58 83 50 84 51 85
REMARK SMILES IDX 57 86 59 87 52 88 53 89 54 90 55 91 56 92
REMARK H PARENT 9 11 80 42 46 53
REMARK Flexibility Score: inf
ROOT
ATOM      1  C   UNL A   1      43.018  22.008  25.914  1.00  0.00     0.274 C 
ENDROOT
BRANCH   1   2
ATOM      2  O   UNL A   1      41.731  21.510  25.488  1.00  0.00    -0.462 OA
BRANCH   2   3
ATOM      3  C   UNL A   1      40.891  21.129  26.484  1.00  0.00     0.307 C 
ATOM      4  O   UNL A   1      40.761  19.972  26.873  1.00  0.00    -0.252 OA
BRANCH   3   5
ATOM      5  C   UNL A   1      40.032  22.248  27.019  1.00  0.00     0.147 C 
BRANCH   5   6
ATOM      6  C   UNL A   1      38.924  22.846  26.126  1.00  0.00     0.090 C 
ATOM      7  C   UNL A   1      38.526  24.184  26.773  1.00  0.00     0.031 C 
BRANCH   6   8
ATOM      8  N   UNL A   1      37.757  21.959  26.061  1.00  0.00    -0.353 N 
ATOM      9  C   UNL A   1      36.527  22.053  25.500  1.00  0.00     0.225 C 
ATOM     10  O   UNL A   1      35.813  21.047  25.621  1.00  0.00    -0.275 OA
ATOM     11  H   UNL A   1      37.899  21.105  26.529  1.00  0.00     0.163 HD
BRANCH   9  12
ATOM     12  C   UNL A   1      35.965  23.249  24.748  1.00  0.00     0.107 C 
ATOM     13  N   UNL A   1      34.014  24.573  24.546  1.00  0.00    -0.339 N 
ATOM     14  C   UNL A   1      34.980  24.104  25.521  1.00  0.00     0.133 C 
ATOM     15  C   UNL A   1      34.278  24.060  23.282  1.00  0.00     0.223 C 
ATOM     16  C   UNL A   1      35.310  22.976  23.411  1.00  0.00     0.115 C 
ATOM     17  O   UNL A   1      33.763  24.380  22.227  1.00  0.00    -0.275 OA
BRANCH  13  18
ATOM     18  C   UNL A   1      33.046  25.659  24.789  1.00  0.00     0.078 C 
ATOM     19  C   UNL A   1      31.929  25.239  25.756  1.00  0.00     0.031 C 
ATOM     20  C   UNL A   1      33.676  26.949  25.324  1.00  0.00     0.031 C 
ENDBRANCH  13  18
ENDBRANCH   9  12
ENDBRANCH   6   8
ENDBRANCH   5   6
ENDBRANCH   3   5
ENDBRANCH   2   3
ENDBRANCH   1   2
BRANCH   1  21
ATOM     21  C   UNL A   1      43.236  23.489  25.567  1.00  0.00     0.275 C 
BRANCH  21  22
ATOM     22  O   UNL A   1      42.888  24.409  26.624  1.00  0.00    -0.458 OA
BRANCH  22  23
ATOM     23  C   UNL A   1      42.035  25.378  26.240  1.00  0.00     0.338 C 
ATOM     24  O   UNL A   1      41.600  25.548  25.109  1.00  0.00    -0.246 OA
BRANCH  23  25
ATOM     25  C   UNL A   1      41.626  26.311  27.282  1.00  0.00     0.060 A 
ATOM     26  C   UNL A   1      42.384  27.482  27.398  1.00  0.00     0.016 A 
ATOM     27  C   UNL A   1      40.710  25.938  28.267  1.00  0.00     0.016 A 
ATOM     28  C   UNL A   1      42.248  28.281  28.521  1.00  0.00     0.010 A 
ATOM     29  C   UNL A   1      40.570  26.748  29.393  1.00  0.00     0.010 A 
ATOM     30  C   UNL A   1      41.348  27.911  29.527  1.00  0.00    -0.014 A 
BRANCH  30  31
ATOM     31  C   UNL A   1      41.160  28.818  30.672  1.00  0.00     0.031 A 
ATOM     32  C   UNL A   1      42.050  28.745  31.872  1.00  0.00     0.074 A 
ATOM     33  C   UNL A   1      40.186  29.738  30.571  1.00  0.00     0.049 A 
ATOM     34  N   UNL A   1      42.023  29.476  32.955  1.00  0.00    -0.248 NA
ATOM     35  C   UNL A   1      43.111  27.726  31.856  1.00  0.00     0.031 C 
ATOM     36  C   UNL A   1      39.294  29.889  29.418  1.00  0.00     0.029 A 
ATOM     37  N   UNL A   1      39.784  30.713  31.439  1.00  0.00    -0.354 N 
ATOM     38  C   UNL A   1      43.063  29.014  33.751  1.00  0.00     0.074 A 
ATOM     39  C   UNL A   1      43.693  27.925  33.033  1.00  0.00     0.031 C 
ATOM     40  C   UNL A   1      38.437  30.891  29.658  1.00  0.00     0.029 A 
ATOM     41  C   UNL A   1      38.709  31.433  30.984  1.00  0.00     0.049 A 
ATOM     42  H   UNL A   1      40.221  30.882  32.306  1.00  0.00     0.167 HD
ATOM     43  C   UNL A   1      43.448  29.468  34.968  1.00  0.00     0.037 A 
ATOM     44  C   UNL A   1      38.010  32.415  31.581  1.00  0.00     0.037 A 
ATOM     45  C   UNL A   1      42.792  30.545  35.668  1.00  0.00     0.049 A 
ATOM     46  C   UNL A   1      38.450  32.888  32.932  1.00  0.00     0.074 A 
ATOM     47  C   UNL A   1      43.082  31.071  36.915  1.00  0.00     0.029 A 
ATOM     48  N   UNL A   1      41.709  31.262  35.176  1.00  0.00    -0.354 N 
ATOM     49  N   UNL A   1      39.430  32.438  33.678  1.00  0.00    -0.248 NA
ATOM     50  C   UNL A   1      37.705  34.008  33.515  1.00  0.00     0.031 C 
ATOM     51  C   UNL A   1      42.161  32.091  37.185  1.00  0.00     0.029 A 
ATOM     52  C   UNL A   1      41.316  32.221  36.094  1.00  0.00     0.049 A 
ATOM     53  H   UNL A   1      41.283  31.111  34.301  1.00  0.00     0.167 HD
ATOM     54  C   UNL A   1      39.429  33.227  34.820  1.00  0.00     0.074 A 
ATOM     55  C   UNL A   1      38.357  34.191  34.656  1.00  0.00     0.031 C 
ATOM     56  C   UNL A   1      40.239  33.160  35.904  1.00  0.00     0.037 A 
BRANCH  43  57
ATOM     57  C   UNL A   1      44.617  28.792  35.626  1.00  0.00     0.058 A 
ATOM     58  C   UNL A   1      45.931  29.249  35.438  1.00  0.00     0.135 A 
ATOM     59  C   UNL A   1      44.421  27.703  36.490  1.00  0.00     0.135 A 
ATOM     60  F   UNL A   1      46.176  30.277  34.612  1.00  0.00    -0.206 F 
ATOM     61  C   UNL A   1      47.011  28.642  36.075  1.00  0.00     0.059 A 
ATOM     62  C   UNL A   1      45.484  27.091  37.149  1.00  0.00     0.059 A 
ATOM     63  F   UNL A   1      43.185  27.223  36.702  1.00  0.00    -0.206 F 
ATOM     64  C   UNL A   1      46.778  27.561  36.928  1.00  0.00     0.060 A 
BRANCH  64  65
ATOM     65  S   UNL A   1      48.180  26.792  37.767  1.00  0.00     0.124 S 
ATOM     66  O   UNL A   1      48.975  27.960  38.136  1.00  0.00    -0.237 OA
ATOM     67  O   UNL A   1      47.541  26.085  38.872  1.00  0.00    -0.237 OA
ATOM     68  O   UNL A   1      48.763  25.937  36.736  1.00  0.00    -0.744 OA
ENDBRANCH  64  65
ENDBRANCH  43  57
BRANCH  44  69
ATOM     69  C   UNL A   1      36.837  32.990  30.882  1.00  0.00     0.058 A 
ATOM     70  C   UNL A   1      35.532  32.705  31.300  1.00  0.00     0.135 A 
ATOM     71  C   UNL A   1      37.010  33.912  29.837  1.00  0.00     0.135 A 
ATOM     72  F   UNL A   1      35.322  31.833  32.299  1.00  0.00    -0.206 F 
ATOM     73  C   UNL A   1      34.432  33.318  30.710  1.00  0.00     0.059 A 
ATOM     74  C   UNL A   1      35.927  34.551  29.245  1.00  0.00     0.059 A 
ATOM     75  F   UNL A   1      38.245  34.234  29.422  1.00  0.00    -0.206 F 
ATOM     76  C   UNL A   1      34.641  34.245  29.686  1.00  0.00     0.060 A 
BRANCH  76  77
ATOM     77  S   UNL A   1      33.220  35.113  28.987  1.00  0.00     0.124 S 
ATOM     78  O   UNL A   1      32.424  35.377  30.180  1.00  0.00    -0.237 OA
ATOM     79  O   UNL A   1      33.840  36.279  28.363  1.00  0.00    -0.237 OA
ATOM     80  O   UNL A   1      32.662  34.138  28.055  1.00  0.00    -0.744 OA
ENDBRANCH  76  77
ENDBRANCH  44  69
BRANCH  56  81
ATOM     81  C   UNL A   1      39.990  34.171  36.983  1.00  0.00     0.058 A 
ATOM     82  C   UNL A   1      39.181  33.872  38.090  1.00  0.00     0.135 A 
ATOM     83  C   UNL A   1      40.563  35.449  36.907  1.00  0.00     0.135 A 
ATOM     84  F   UNL A   1      38.605  32.664  38.200  1.00  0.00    -0.206 F 
ATOM     85  C   UNL A   1      38.922  34.821  39.072  1.00  0.00     0.059 A 
ATOM     86  C   UNL A   1      40.331  36.407  37.887  1.00  0.00     0.059 A 
ATOM     87  F   UNL A   1      41.349  35.777  35.869  1.00  0.00    -0.206 F 
ATOM     88  C   UNL A   1      39.495  36.089  38.957  1.00  0.00     0.060 A 
BRANCH  88  89
ATOM     89  S   UNL A   1      39.151  37.320  40.232  1.00  0.00     0.124 S 
ATOM     90  O   UNL A   1      40.492  37.811  40.531  1.00  0.00    -0.237 OA
ATOM     91  O   UNL A   1      38.272  38.259  39.540  1.00  0.00    -0.237 OA
ATOM     92  O   UNL A   1      38.513  36.540  41.288  1.00  0.00    -0.744 OA
ENDBRANCH  88  89
ENDBRANCH  56  81
ENDBRANCH  30  31
ENDBRANCH  23  25
ENDBRANCH  22  23
ENDBRANCH  21  22
ENDBRANCH   1  21
TORSDOF 18
ENDMDL
MODEL 2
REMARK VINA RESULT:     -10.5      5.324      7.369
REMARK SMILES CC(C)N1C[C@@H](C(=O)N[C@@H](C)CC(=O)OCCOC(=O)c2ccc(-c3c4nc(c(-c5c(F)cc(S(=O)(=O)[O-])cc5F)c5ccc([nH]5)c(-c5c(F)cc(S(=O)(=O)[O-])cc5F)c5nc(c(-c6c(F)cc(S(=O)(=O)[O-])cc6F)c6ccc3[nH]6)C=C5)C=C4)cc2)CC1=O
REMARK SMILES IDX 16 1 15 2 13 3 14 4 12 5 10 6 11 7 9 8 7 9 8 10 6 12 4 13
REMARK SMILES IDX 5 14 88 15 87 16 89 17 2 18 1 19 3 20 17 21 18 22 19 23
REMARK SMILES IDX 20 24 21 25 22 26 86 27 23 28 85 29 24 30 25 31 26 32 79 33
REMARK SMILES IDX 27 34 84 35 78 36 80 37 28 38 83 39 77 40 76 41 29 43 63 44
REMARK SMILES IDX 42 45 62 46 43 47 46 48 61 49 81 50 44 51 45 52 60 54 82 55
REMARK SMILES IDX 47 56 30 57 31 58 40 59 32 60 33 61 39 62 41 63 34 64 35 65
REMARK SMILES IDX 36 66 37 67 38 68 64 69 65 70 74 71 66 72 67 73 73 74 75 75
REMARK SMILES IDX 68 76 69 77 70 78 71 79 72 80 48 81 49 82 58 83 50 84 51 85
REMARK SMILES IDX 57 86 59 87 52 88 53 89 54 90 55 91 56 92
REMARK H PARENT 9 11 80 42 46 53
REMARK Flexibility Score: inf
ROOT
ATOM      1  C   UNL A   1      41.263  19.715  26.782  1.00  0.00     0.274 C 
ENDROOT
BRANCH   1   2
ATOM      2  O   UNL A   1      41.772  18.847  25.745  1.00  0.00    -0.462 OA
BRANCH   2   3
ATOM      3  C   UNL A   1      43.046  18.413  25.916  1.00  0.00     0.307 C 
ATOM      4  O   UNL A   1      43.449  17.834  26.920  1.00  0.00    -0.252 OA
BRANCH   3   5
ATOM      5  C   UNL A   1      43.978  18.800  24.795  1.00  0.00     0.147 C 
BRANCH   5   6
ATOM      6  C   UNL A   1      44.728  20.148  24.863  1.00  0.00     0.090 C 
ATOM      7  C   UNL A   1      46.191  19.808  25.198  1.00  0.00     0.031 C 
BRANCH   6   8
ATOM      8  N   UNL A   1      44.168  21.017  25.904  1.00  0.00    -0.353 N 
ATOM      9  C   UNL A   1      44.334  22.319  26.240  1.00  0.00     0.225 C 
ATOM     10  O   UNL A   1      43.630  22.716  27.179  1.00  0.00    -0.275 OA
ATOM     11  H   UNL A   1      43.531  20.549  26.490  1.00  0.00     0.163 HD
BRANCH   9  12
ATOM     12  C   UNL A   1      45.276  23.310  25.576  1.00  0.00     0.107 C 
ATOM     13  N   UNL A   1      46.760  25.087  26.070  1.00  0.00    -0.339 N 
ATOM     14  C   UNL A   1      46.498  23.695  26.387  1.00  0.00     0.133 C 
ATOM     15  C   UNL A   1      45.808  25.597  25.196  1.00  0.00     0.223 C 
ATOM     16  C   UNL A   1      44.676  24.614  25.095  1.00  0.00     0.115 C 
ATOM     17  O   UNL A   1      45.829  26.666  24.615  1.00  0.00    -0.275 OA
BRANCH  13  18
ATOM     18  C   UNL A   1      48.011  25.794  26.403  1.00  0.00     0.078 C 
ATOM     19  C   UNL A   1      48.690  25.221  27.656  1.00  0.00     0.031 C 
ATOM     20  C   UNL A   1      49.041  25.809  25.270  1.00  0.00     0.031 C 
ENDBRANCH  13  18
ENDBRANCH   9  12
ENDBRANCH   6   8
ENDBRANCH   5   6
ENDBRANCH   3   5
ENDBRANCH   2   3
ENDBRANCH   1   2
BRANCH   1  21
ATOM     21  C   UNL A   1      40.664  21.020  26.236  1.00  0.00     0.275 C 
BRANCH  21  22
ATOM     22  O   UNL A   1      40.215  21.943  27.252  1.00  0.00    -0.458 OA
BRANCH  22  23
ATOM     23  C   UNL A   1      39.667  23.070  26.758  1.00  0.00     0.338 C 
ATOM     24  O   UNL A   1      38.657  23.137  26.070  1.00  0.00    -0.246 OA
BRANCH  23  25
ATOM     25  C   UNL A   1      40.374  24.306  27.065  1.00  0.00     0.060 A 
ATOM     26  C   UNL A   1      40.918  24.406  28.353  1.00  0.00     0.016 A 
ATOM     27  C   UNL A   1      40.284  25.419  26.228  1.00  0.00     0.016 A 
ATOM     28  C   UNL A   1      41.354  25.633  28.822  1.00  0.00     0.010 A 
ATOM     29  C   UNL A   1      40.731  26.652  26.700  1.00  0.00     0.010 A 
ATOM     30  C   UNL A   1      41.253  26.762  28.001  1.00  0.00    -0.014 A 
BRANCH  30  31
ATOM     31  C   UNL A   1      41.799  28.039  28.490  1.00  0.00     0.031 A 
ATOM     32  C   UNL A   1      43.269  28.315  28.461  1.00  0.00     0.074 A 
ATOM     33  C   UNL A   1      40.918  28.957  28.920  1.00  0.00     0.049 A 
ATOM     34  N   UNL A   1      43.907  29.389  28.844  1.00  0.00    -0.248 NA
ATOM     35  C   UNL A   1      44.138  27.253  27.931  1.00  0.00     0.031 C 
ATOM     36  C   UNL A   1      39.465  28.771  28.952  1.00  0.00     0.029 A 
ATOM     37  N   UNL A   1      41.108  30.219  29.407  1.00  0.00    -0.354 N 
ATOM     38  C   UNL A   1      45.251  29.142  28.598  1.00  0.00     0.074 A 
ATOM     39  C   UNL A   1      45.340  27.805  28.048  1.00  0.00     0.031 C 
ATOM     40  C   UNL A   1      38.894  29.877  29.448  1.00  0.00     0.029 A 
ATOM     41  C   UNL A   1      39.941  30.834  29.785  1.00  0.00     0.049 A 
ATOM     42  H   UNL A   1      41.993  30.645  29.480  1.00  0.00     0.167 HD
ATOM     43  C   UNL A   1      46.305  29.965  28.815  1.00  0.00     0.037 A 
ATOM     44  C   UNL A   1      39.743  32.035  30.357  1.00  0.00     0.037 A 
ATOM     45  C   UNL A   1      46.189  31.287  29.379  1.00  0.00     0.049 A 
ATOM     46  C   UNL A   1      40.927  32.920  30.597  1.00  0.00     0.074 A 
ATOM     47  C   UNL A   1      47.191  32.198  29.665  1.00  0.00     0.029 A 
ATOM     48  N   UNL A   1      44.991  31.887  29.745  1.00  0.00    -0.354 N 
ATOM     49  N   UNL A   1      42.194  32.671  30.367  1.00  0.00    -0.248 NA
ATOM     50  C   UNL A   1      40.658  34.248  31.155  1.00  0.00     0.031 C 
ATOM     51  C   UNL A   1      46.600  33.339  30.223  1.00  0.00     0.029 A 
ATOM     52  C   UNL A   1      45.227  33.151  30.258  1.00  0.00     0.049 A 
ATOM     53  H   UNL A   1      44.102  31.473  29.654  1.00  0.00     0.167 HD
ATOM     54  C   UNL A   1      42.879  33.818  30.744  1.00  0.00     0.074 A 
ATOM     55  C   UNL A   1      41.879  34.764  31.204  1.00  0.00     0.031 C 
ATOM     56  C   UNL A   1      44.211  34.066  30.715  1.00  0.00     0.037 A 
BRANCH  43  57
ATOM     57  C   UNL A   1      47.672  29.455  28.459  1.00  0.00     0.058 A 
ATOM     58  C   UNL A   1      48.190  29.588  27.161  1.00  0.00     0.135 A 
ATOM     59  C   UNL A   1      48.493  28.867  29.434  1.00  0.00     0.135 A 
ATOM     60  F   UNL A   1      47.442  30.129  26.187  1.00  0.00    -0.206 F 
ATOM     61  C   UNL A   1      49.471  29.144  26.839  1.00  0.00     0.059 A 
ATOM     62  C   UNL A   1      49.783  28.431  29.139  1.00  0.00     0.059 A 
ATOM     63  F   UNL A   1      48.045  28.713  30.690  1.00  0.00    -0.206 F 
ATOM     64  C   UNL A   1      50.260  28.565  27.835  1.00  0.00     0.060 A 
BRANCH  64  65
ATOM     65  S   UNL A   1      51.928  28.012  27.417  1.00  0.00     0.124 S 
ATOM     66  O   UNL A   1      51.978  28.294  25.985  1.00  0.00    -0.237 OA
ATOM     67  O   UNL A   1      52.765  28.859  28.260  1.00  0.00    -0.237 OA
ATOM     68  O   UNL A   1      51.914  26.596  27.777  1.00  0.00    -0.744 OA
ENDBRANCH  64  65
ENDBRANCH  43  57
BRANCH  44  69
ATOM     69  C   UNL A   1      38.365  32.437  30.725  1.00  0.00     0.058 A 
ATOM     70  C   UNL A   1      37.833  32.134  31.984  1.00  0.00     0.135 A 
ATOM     71  C   UNL A   1      37.591  33.216  29.850  1.00  0.00     0.135 A 
ATOM     72  F   UNL A   1      38.541  31.396  32.852  1.00  0.00    -0.206 F 
ATOM     73  C   UNL A   1      36.578  32.593  32.370  1.00  0.00     0.059 A 
ATOM     74  C   UNL A   1      36.341  33.702  30.220  1.00  0.00     0.059 A 
ATOM     75  F   UNL A   1      38.072  33.552  28.644  1.00  0.00    -0.206 F 
ATOM     76  C   UNL A   1      35.842  33.382  31.482  1.00  0.00     0.060 A 
BRANCH  76  77
ATOM     77  S   UNL A   1      34.256  34.058  32.019  1.00  0.00     0.124 S 
ATOM     78  O   UNL A   1      33.625  34.370  30.742  1.00  0.00    -0.237 OA
ATOM     79  O   UNL A   1      33.676  32.944  32.764  1.00  0.00    -0.237 OA
ATOM     80  O   UNL A   1      34.645  35.207  32.832  1.00  0.00    -0.744 OA
ENDBRANCH  76  77
ENDBRANCH  44  69
BRANCH  56  81
ATOM     81  C   UNL A   1      44.646  35.422  31.184  1.00  0.00     0.058 A 
ATOM     82  C   UNL A   1      44.959  35.661  32.531  1.00  0.00     0.135 A 
ATOM     83  C   UNL A   1      44.746  36.490  30.280  1.00  0.00     0.135 A 
ATOM     84  F   UNL A   1      44.868  34.670  33.432  1.00  0.00    -0.206 F 
ATOM     85  C   UNL A   1      45.328  36.926  32.972  1.00  0.00     0.059 A 
ATOM     86  C   UNL A   1      45.130  37.759  30.698  1.00  0.00     0.059 A 
ATOM     87  F   UNL A   1      44.462  36.305  28.981  1.00  0.00    -0.206 F 
ATOM     88  C   UNL A   1      45.402  37.971  32.049  1.00  0.00     0.060 A 
BRANCH  88  89
ATOM     89  S   UNL A   1      45.876  39.614  32.627  1.00  0.00     0.124 S 
ATOM     90  O   UNL A   1      46.668  40.101  31.503  1.00  0.00    -0.237 OA
ATOM     91  O   UNL A   1      44.585  40.268  32.824  1.00  0.00    -0.237 OA
ATOM     92  O   UNL A   1      46.620  39.336  33.852  1.00  0.00    -0.744 OA
ENDBRANCH  88  89
ENDBRANCH  56  81
ENDBRANCH  30  31
ENDBRANCH  23  25
ENDBRANCH  22  23
ENDBRANCH  21  22
ENDBRANCH   1  21
TORSDOF 18
ENDMDL
MODEL 3
REMARK VINA RESULT:     -10.4      2.782      4.804
REMARK SMILES CC(C)N1C[C@@H](C(=O)N[C@@H](C)CC(=O)OCCOC(=O)c2ccc(-c3c4nc(c(-c5c(F)cc(S(=O)(=O)[O-])cc5F)c5ccc([nH]5)c(-c5c(F)cc(S(=O)(=O)[O-])cc5F)c5nc(c(-c6c(F)cc(S(=O)(=O)[O-])cc6F)c6ccc3[nH]6)C=C5)C=C4)cc2)CC1=O
REMARK SMILES IDX 16 1 15 2 13 3 14 4 12 5 10 6 11 7 9 8 7 9 8 10 6 12 4 13
REMARK SMILES IDX 5 14 88 15 87 16 89 17 2 18 1 19 3 20 17 21 18 22 19 23
REMARK SMILES IDX 20 24 21 25 22 26 86 27 23 28 85 29 24 30 25 31 26 32 79 33
REMARK SMILES IDX 27 34 84 35 78 36 80 37 28 38 83 39 77 40 76 41 29 43 63 44
REMARK SMILES IDX 42 45 62 46 43 47 46 48 61 49 81 50 44 51 45 52 60 54 82 55
REMARK SMILES IDX 47 56 30 57 31 58 40 59 32 60 33 61 39 62 41 63 34 64 35 65
REMARK SMILES IDX 36 66 37 67 38 68 64 69 65 70 74 71 66 72 67 73 73 74 75 75
REMARK SMILES IDX 68 76 69 77 70 78 71 79 72 80 48 81 49 82 58 83 50 84 51 85
REMARK SMILES IDX 57 86 59 87 52 88 53 89 54 90 55 91 56 92
REMARK H PARENT 9 11 80 42 46 53
REMARK Flexibility Score: inf
ROOT
ATOM      1  C   UNL A   1      41.839  22.125  25.837  1.00  0.00     0.274 C 
ENDROOT
BRANCH   1   2
ATOM      2  O   UNL A   1      41.840  20.689  25.995  1.00  0.00    -0.462 OA
BRANCH   2   3
ATOM      3  C   UNL A   1      42.924  20.045  25.493  1.00  0.00     0.307 C 
ATOM      4  O   UNL A   1      42.909  18.893  25.071  1.00  0.00    -0.252 OA
BRANCH   3   5
ATOM      5  C   UNL A   1      44.204  20.838  25.591  1.00  0.00     0.147 C 
BRANCH   5   6
ATOM      6  C   UNL A   1      45.190  20.835  24.403  1.00  0.00     0.090 C 
ATOM      7  C   UNL A   1      46.427  20.050  24.873  1.00  0.00     0.031 C 
BRANCH   6   8
ATOM      8  N   UNL A   1      45.580  22.200  24.032  1.00  0.00    -0.353 N 
ATOM      9  C   UNL A   1      46.086  23.258  24.711  1.00  0.00     0.225 C 
ATOM     10  O   UNL A   1      46.338  24.256  24.022  1.00  0.00    -0.275 OA
ATOM     11  H   UNL A   1      45.442  22.390  23.076  1.00  0.00     0.163 HD
BRANCH   9  12
ATOM     12  C   UNL A   1      46.373  23.320  26.203  1.00  0.00     0.107 C 
ATOM     13  N   UNL A   1      45.554  24.248  28.220  1.00  0.00    -0.339 N 
ATOM     14  C   UNL A   1      45.155  23.416  27.100  1.00  0.00     0.133 C 
ATOM     15  C   UNL A   1      46.859  24.701  28.076  1.00  0.00     0.223 C 
ATOM     16  C   UNL A   1      47.318  24.403  26.678  1.00  0.00     0.115 C 
ATOM     17  O   UNL A   1      47.542  25.277  28.903  1.00  0.00    -0.275 OA
BRANCH  13  18
ATOM     18  C   UNL A   1      44.788  24.377  29.474  1.00  0.00     0.078 C 
ATOM     19  C   UNL A   1      44.245  25.799  29.683  1.00  0.00     0.031 C 
ATOM     20  C   UNL A   1      43.617  23.399  29.595  1.00  0.00     0.031 C 
ENDBRANCH  13  18
ENDBRANCH   9  12
ENDBRANCH   6   8
ENDBRANCH   5   6
ENDBRANCH   3   5
ENDBRANCH   2   3
ENDBRANCH   1   2
BRANCH   1  21
ATOM     21  C   UNL A   1      41.096  22.856  26.966  1.00  0.00     0.275 C 
BRANCH  21  22
ATOM     22  O   UNL A   1      40.275  23.959  26.525  1.00  0.00    -0.458 OA
BRANCH  22  23
ATOM     23  C   UNL A   1      40.939  25.126  26.430  1.00  0.00     0.338 C 
ATOM     24  O   UNL A   1      41.782  25.408  25.589  1.00  0.00    -0.246 OA
BRANCH  23  25
ATOM     25  C   UNL A   1      40.624  26.120  27.448  1.00  0.00     0.060 A 
ATOM     26  C   UNL A   1      41.504  27.205  27.549  1.00  0.00     0.016 A 
ATOM     27  C   UNL A   1      39.665  25.869  28.431  1.00  0.00     0.016 A 
ATOM     28  C   UNL A   1      41.445  28.038  28.654  1.00  0.00     0.010 A 
ATOM     29  C   UNL A   1      39.604  26.713  29.539  1.00  0.00     0.010 A 
ATOM     30  C   UNL A   1      40.501  27.789  29.657  1.00  0.00    -0.014 A 
BRANCH  30  31
ATOM     31  C   UNL A   1      40.403  28.735  30.781  1.00  0.00     0.031 A 
ATOM     32  C   UNL A   1      41.296  28.615  31.975  1.00  0.00     0.074 A 
ATOM     33  C   UNL A   1      39.510  29.732  30.666  1.00  0.00     0.049 A 
ATOM     34  N   UNL A   1      41.342  29.370  33.041  1.00  0.00    -0.248 NA
ATOM     35  C   UNL A   1      42.265  27.509  31.976  1.00  0.00     0.031 C 
ATOM     36  C   UNL A   1      38.622  29.931  29.517  1.00  0.00     0.029 A 
ATOM     37  N   UNL A   1      39.201  30.757  31.513  1.00  0.00    -0.354 N 
ATOM     38  C   UNL A   1      42.347  28.840  33.840  1.00  0.00     0.074 A 
ATOM     39  C   UNL A   1      42.874  27.685  33.143  1.00  0.00     0.031 C 
ATOM     40  C   UNL A   1      37.856  31.008  29.739  1.00  0.00     0.029 A 
ATOM     41  C   UNL A   1      38.186  31.556  31.049  1.00  0.00     0.049 A 
ATOM     42  H   UNL A   1      39.660  30.909  32.372  1.00  0.00     0.167 HD
ATOM     43  C   UNL A   1      42.781  29.288  35.042  1.00  0.00     0.037 A 
ATOM     44  C   UNL A   1      37.580  32.608  31.628  1.00  0.00     0.037 A 
ATOM     45  C   UNL A   1      42.226  30.433  35.721  1.00  0.00     0.049 A 
ATOM     46  C   UNL A   1      38.072  33.074  32.963  1.00  0.00     0.074 A 
ATOM     47  C   UNL A   1      42.572  30.962  36.952  1.00  0.00     0.029 A 
ATOM     48  N   UNL A   1      41.203  31.228  35.220  1.00  0.00    -0.354 N 
ATOM     49  N   UNL A   1      39.018  32.559  33.712  1.00  0.00    -0.248 NA
ATOM     50  C   UNL A   1      37.430  34.266  33.525  1.00  0.00     0.031 C 
ATOM     51  C   UNL A   1      41.744  32.063  37.205  1.00  0.00     0.029 A 
ATOM     52  C   UNL A   1      40.902  32.239  36.118  1.00  0.00     0.049 A 
ATOM     53  H   UNL A   1      40.757  31.094  34.353  1.00  0.00     0.167 HD
ATOM     54  C   UNL A   1      39.095  33.371  34.835  1.00  0.00     0.074 A 
ATOM     55  C   UNL A   1      38.107  34.419  34.656  1.00  0.00     0.031 C 
ATOM     56  C   UNL A   1      39.907  33.262  35.914  1.00  0.00     0.037 A 
BRANCH  43  57
ATOM     57  C   UNL A   1      43.895  28.531  35.707  1.00  0.00     0.058 A 
ATOM     58  C   UNL A   1      43.637  27.481  36.603  1.00  0.00     0.135 A 
ATOM     59  C   UNL A   1      45.235  28.826  35.414  1.00  0.00     0.135 A 
ATOM     60  F   UNL A   1      42.373  27.167  36.928  1.00  0.00    -0.206 F 
ATOM     61  C   UNL A   1      44.670  26.758  37.194  1.00  0.00     0.059 A 
ATOM     62  C   UNL A   1      46.284  28.107  35.982  1.00  0.00     0.059 A 
ATOM     63  F   UNL A   1      45.538  29.823  34.568  1.00  0.00    -0.206 F 
ATOM     64  C   UNL A   1      45.992  27.079  36.879  1.00  0.00     0.060 A 
BRANCH  64  65
ATOM     65  S   UNL A   1      47.327  26.124  37.633  1.00  0.00     0.124 S 
ATOM     66  O   UNL A   1      48.463  26.502  36.797  1.00  0.00    -0.237 OA
ATOM     67  O   UNL A   1      47.349  26.632  39.001  1.00  0.00    -0.237 OA
ATOM     68  O   UNL A   1      46.875  24.743  37.491  1.00  0.00    -0.744 OA
ENDBRANCH  64  65
ENDBRANCH  43  57
BRANCH  44  69
ATOM     69  C   UNL A   1      36.453  33.264  30.924  1.00  0.00     0.058 A 
ATOM     70  C   UNL A   1      35.145  33.182  31.416  1.00  0.00     0.135 A 
ATOM     71  C   UNL A   1      36.686  34.064  29.795  1.00  0.00     0.135 A 
ATOM     72  F   UNL A   1      34.879  32.432  32.496  1.00  0.00    -0.206 F 
ATOM     73  C   UNL A   1      34.101  33.876  30.815  1.00  0.00     0.059 A 
ATOM     74  C   UNL A   1      35.662  34.783  29.188  1.00  0.00     0.059 A 
ATOM     75  F   UNL A   1      37.929  34.192  29.306  1.00  0.00    -0.206 F 
ATOM     76  C   UNL A   1      34.370  34.679  29.704  1.00  0.00     0.060 A 
BRANCH  76  77
ATOM     77  S   UNL A   1      33.034  35.657  28.983  1.00  0.00     0.124 S 
ATOM     78  O   UNL A   1      33.777  36.711  28.304  1.00  0.00    -0.237 OA
ATOM     79  O   UNL A   1      32.367  34.687  28.118  1.00  0.00    -0.237 OA
ATOM     80  O   UNL A   1      32.262  36.074  30.151  1.00  0.00    -0.744 OA
ENDBRANCH  76  77
ENDBRANCH  44  69
BRANCH  56  81
ATOM     81  C   UNL A   1      39.756  34.315  36.970  1.00  0.00     0.058 A 
ATOM     82  C   UNL A   1      40.319  35.591  36.811  1.00  0.00     0.135 A 
ATOM     83  C   UNL A   1      39.047  34.045  38.150  1.00  0.00     0.135 A 
ATOM     84  F   UNL A   1      41.013  35.891  35.701  1.00  0.00    -0.206 F 
ATOM     85  C   UNL A   1      40.210  36.557  37.805  1.00  0.00     0.059 A 
ATOM     86  C   UNL A   1      38.912  35.003  39.149  1.00  0.00     0.059 A 
ATOM     87  F   UNL A   1      38.488  32.840  38.342  1.00  0.00    -0.206 F 
ATOM     88  C   UNL A   1      39.512  36.249  38.974  1.00  0.00     0.060 A 
BRANCH  88  89
ATOM     89  S   UNL A   1      39.377  37.504  40.266  1.00  0.00     0.124 S 
ATOM     90  O   UNL A   1      40.781  37.774  40.556  1.00  0.00    -0.237 OA
ATOM     91  O   UNL A   1      38.652  38.578  39.593  1.00  0.00    -0.237 OA
ATOM     92  O   UNL A   1      38.634  36.821  41.320  1.00  0.00    -0.744 OA
ENDBRANCH  88  89
ENDBRANCH  56  81
ENDBRANCH  30  31
ENDBRANCH  23  25
ENDBRANCH  22  23
ENDBRANCH  21  22
ENDBRANCH   1  21
TORSDOF 18
ENDMDL
