MODEL 1
REMARK VINA RESULT:     -12.6      0.000      0.000
REMARK SMILES Nc1ccc(C(=O)N2Cc3nc[nH]c3C[C@H]2C(=O)OCCOC(=O)c2ccc(-c3c4nc(c(-c5c(F)cc(S(=O)(=O)[O-])cc5F)c5ccc([nH]5)c(-c5c(F)cc(S(=O)(=O)[O-])cc5F)c5nc(c(-c6c(F)cc(S(=O)(=O)[O-])cc6F)c6ccc3[nH]6)C=C5)C=C4)cc2)cc1
REMARK SMILES IDX 20 1 19 2 17 3 18 4 16 5 8 6 9 7 10 8 15 9 11 10 14 11 12 12
REMARK SMILES IDX 13 13 6 15 7 16 5 17 2 18 3 19 92 20 4 21 91 22 1 23 21 26
REMARK SMILES IDX 22 27 23 28 24 29 25 30 26 31 90 32 27 33 89 34 28 35 29 36
REMARK SMILES IDX 30 37 83 38 31 39 88 40 82 41 84 42 32 43 87 44 81 45 80 46
REMARK SMILES IDX 33 48 67 49 46 50 66 51 47 52 50 53 65 54 85 55 48 56 49 57
REMARK SMILES IDX 64 59 86 60 51 61 34 62 35 63 44 64 36 65 37 66 43 67 45 68
REMARK SMILES IDX 38 69 39 70 40 71 41 72 42 73 68 74 69 75 78 76 70 77 71 78
REMARK SMILES IDX 77 79 79 80 72 81 73 82 74 83 75 84 76 85 52 86 53 87 62 88
REMARK SMILES IDX 54 89 55 90 61 91 63 92 56 93 57 94 58 95 59 96 60 97
REMARK H PARENT 13 14 1 24 1 25 84 47 50 58
REMARK Flexibility Score: inf
ROOT
ATOM      1  C   UNL A   1      31.845  28.916  27.347  1.00  0.00     0.274 C 
ENDROOT
BRANCH   1   2
ATOM      2  O   UNL A   1      32.753  27.910  26.854  1.00  0.00    -0.461 OA
BRANCH   2   3
ATOM      3  C   UNL A   1      32.198  26.867  26.171  1.00  0.00     0.329 C 
ATOM      4  O   UNL A   1      31.197  26.260  26.549  1.00  0.00    -0.250 OA
BRANCH   3   5
ATOM      5  C   UNL A   1      33.031  26.390  24.957  1.00  0.00     0.201 C 
ATOM      6  N   UNL A   1      32.448  25.399  24.002  1.00  0.00    -0.318 N 
ATOM      7  C   UNL A   1      31.322  25.798  23.136  1.00  0.00     0.179 C 
ATOM      8  C   UNL A   1      31.347  27.273  22.898  1.00  0.00     0.081 A 
ATOM      9  C   UNL A   1      33.467  27.690  24.221  1.00  0.00     0.093 C 
ATOM     10  N   UNL A   1      30.350  27.992  22.289  1.00  0.00    -0.240 NA
ATOM     11  C   UNL A   1      32.313  28.122  23.391  1.00  0.00     0.042 A 
ATOM     12  C   UNL A   1      30.710  29.252  22.421  1.00  0.00     0.197 A 
ATOM     13  N   UNL A   1      31.902  29.382  23.084  1.00  0.00    -0.348 N 
ATOM     14  H   UNL A   1      32.369  30.223  23.296  1.00  0.00     0.167 HD
BRANCH   6  15
ATOM     15  C   UNL A   1      33.295  24.400  23.528  1.00  0.00     0.254 C 
ATOM     16  O   UNL A   1      34.089  24.593  22.616  1.00  0.00    -0.269 OA
BRANCH  15  17
ATOM     17  C   UNL A   1      33.268  23.103  24.277  1.00  0.00     0.040 A 
ATOM     18  C   UNL A   1      33.070  20.583  25.538  1.00  0.00     0.031 A 
ATOM     19  C   UNL A   1      32.181  21.611  25.859  1.00  0.00     0.026 A 
ATOM     20  C   UNL A   1      34.099  20.853  24.639  1.00  0.00     0.026 A 
ATOM     21  C   UNL A   1      32.272  22.864  25.231  1.00  0.00     0.016 A 
ATOM     22  C   UNL A   1      34.198  22.098  24.014  1.00  0.00     0.016 A 
BRANCH  18  23
ATOM     23  N   UNL A   1      32.981  19.344  26.142  1.00  0.00    -0.399 N 
ATOM     24  H   UNL A   1      32.269  19.166  26.797  1.00  0.00     0.156 HD
ATOM     25  H   UNL A   1      33.631  18.639  25.917  1.00  0.00     0.156 HD
ENDBRANCH  18  23
ENDBRANCH  15  17
ENDBRANCH   6  15
ENDBRANCH   3   5
ENDBRANCH   2   3
ENDBRANCH   1   2
BRANCH   1  26
ATOM     26  C   UNL A   1      32.248  30.347  26.962  1.00  0.00     0.275 C 
BRANCH  26  27
ATOM     27  O   UNL A   1      33.656  30.564  26.766  1.00  0.00    -0.458 OA
BRANCH  27  28
ATOM     28  C   UNL A   1      34.189  31.378  27.680  1.00  0.00     0.338 C 
ATOM     29  O   UNL A   1      33.938  32.591  27.809  1.00  0.00    -0.246 OA
BRANCH  28  30
ATOM     30  C   UNL A   1      35.315  30.844  28.420  1.00  0.00     0.060 A 
ATOM     31  C   UNL A   1      36.196  31.800  28.928  1.00  0.00     0.016 A 
ATOM     32  C   UNL A   1      35.699  29.511  28.243  1.00  0.00     0.016 A 
ATOM     33  C   UNL A   1      37.518  31.461  29.080  1.00  0.00     0.010 A 
ATOM     34  C   UNL A   1      37.031  29.168  28.434  1.00  0.00     0.010 A 
ATOM     35  C   UNL A   1      37.952  30.162  28.773  1.00  0.00    -0.014 A 
BRANCH  35  36
ATOM     36  C   UNL A   1      39.358  29.864  29.063  1.00  0.00     0.031 A 
ATOM     37  C   UNL A   1      39.633  29.987  30.522  1.00  0.00     0.074 A 
ATOM     38  C   UNL A   1      40.263  29.448  28.148  1.00  0.00     0.049 A 
ATOM     39  N   UNL A   1      40.520  30.725  31.104  1.00  0.00    -0.248 NA
ATOM     40  C   UNL A   1      38.662  29.375  31.456  1.00  0.00     0.031 C 
ATOM     41  C   UNL A   1      39.992  29.171  26.734  1.00  0.00     0.029 A 
ATOM     42  N   UNL A   1      41.579  29.075  28.279  1.00  0.00    -0.354 N 
ATOM     43  C   UNL A   1      40.388  30.435  32.459  1.00  0.00     0.074 A 
ATOM     44  C   UNL A   1      39.113  29.802  32.634  1.00  0.00     0.031 C 
ATOM     45  C   UNL A   1      41.009  28.450  26.215  1.00  0.00     0.029 A 
ATOM     46  C   UNL A   1      42.049  28.292  27.217  1.00  0.00     0.049 A 
ATOM     47  H   UNL A   1      42.139  29.333  29.047  1.00  0.00     0.167 HD
ATOM     48  C   UNL A   1      41.496  30.368  33.241  1.00  0.00     0.037 A 
ATOM     49  C   UNL A   1      43.168  27.518  27.168  1.00  0.00     0.037 A 
ATOM     50  C   UNL A   1      42.569  31.143  32.684  1.00  0.00     0.049 A 
ATOM     51  C   UNL A   1      44.084  27.974  28.236  1.00  0.00     0.074 A 
ATOM     52  C   UNL A   1      42.865  32.482  32.547  1.00  0.00     0.029 A 
ATOM     53  N   UNL A   1      43.366  30.453  31.815  1.00  0.00    -0.354 N 
ATOM     54  N   UNL A   1      44.748  29.092  28.189  1.00  0.00    -0.248 NA
ATOM     55  C   UNL A   1      44.054  27.316  29.540  1.00  0.00     0.031 C 
ATOM     56  C   UNL A   1      43.800  32.578  31.478  1.00  0.00     0.029 A 
ATOM     57  C   UNL A   1      44.082  31.297  31.014  1.00  0.00     0.049 A 
ATOM     58  H   UNL A   1      43.417  29.470  31.772  1.00  0.00     0.167 HD
ATOM     59  C   UNL A   1      44.830  29.489  29.505  1.00  0.00     0.074 A 
ATOM     60  C   UNL A   1      44.557  28.297  30.292  1.00  0.00     0.031 C 
ATOM     61  C   UNL A   1      44.746  30.809  29.827  1.00  0.00     0.037 A 
BRANCH  48  62
ATOM     62  C   UNL A   1      41.766  29.187  34.155  1.00  0.00     0.058 A 
ATOM     63  C   UNL A   1      41.822  27.891  33.607  1.00  0.00     0.135 A 
ATOM     64  C   UNL A   1      41.674  29.243  35.567  1.00  0.00     0.135 A 
ATOM     65  F   UNL A   1      41.870  27.716  32.276  1.00  0.00    -0.206 F 
ATOM     66  C   UNL A   1      41.758  26.741  34.398  1.00  0.00     0.059 A 
ATOM     67  C   UNL A   1      41.666  28.115  36.376  1.00  0.00     0.059 A 
ATOM     68  F   UNL A   1      41.483  30.385  36.235  1.00  0.00    -0.206 F 
ATOM     69  C   UNL A   1      41.678  26.867  35.783  1.00  0.00     0.060 A 
BRANCH  69  70
ATOM     70  S   UNL A   1      41.554  25.397  36.813  1.00  0.00     0.124 S 
ATOM     71  O   UNL A   1      41.193  24.382  35.832  1.00  0.00    -0.237 OA
ATOM     72  O   UNL A   1      42.899  25.306  37.370  1.00  0.00    -0.237 OA
ATOM     73  O   UNL A   1      40.509  25.750  37.773  1.00  0.00    -0.744 OA
ENDBRANCH  69  70
ENDBRANCH  48  62
BRANCH  49  74
ATOM     74  C   UNL A   1      43.483  26.287  26.383  1.00  0.00     0.058 A 
ATOM     75  C   UNL A   1      44.579  26.255  25.493  1.00  0.00     0.135 A 
ATOM     76  C   UNL A   1      42.916  25.038  26.696  1.00  0.00     0.135 A 
ATOM     77  F   UNL A   1      45.188  27.393  25.125  1.00  0.00    -0.206 F 
ATOM     78  C   UNL A   1      45.131  25.061  25.018  1.00  0.00     0.059 A 
ATOM     79  C   UNL A   1      43.439  23.833  26.220  1.00  0.00     0.059 A 
ATOM     80  F   UNL A   1      41.892  24.936  27.554  1.00  0.00    -0.206 F 
ATOM     81  C   UNL A   1      44.572  23.850  25.415  1.00  0.00     0.060 A 
BRANCH  81  82
ATOM     82  S   UNL A   1      45.420  22.303  25.007  1.00  0.00     0.124 S 
ATOM     83  O   UNL A   1      45.980  21.914  26.296  1.00  0.00    -0.237 OA
ATOM     84  O   UNL A   1      44.329  21.474  24.508  1.00  0.00    -0.237 OA
ATOM     85  O   UNL A   1      46.396  22.712  24.000  1.00  0.00    -0.744 OA
ENDBRANCH  81  82
ENDBRANCH  49  74
BRANCH  61  86
ATOM     86  C   UNL A   1      45.293  31.795  28.846  1.00  0.00     0.058 A 
ATOM     87  C   UNL A   1      46.611  32.277  28.811  1.00  0.00     0.135 A 
ATOM     88  C   UNL A   1      44.410  32.243  27.851  1.00  0.00     0.135 A 
ATOM     89  F   UNL A   1      47.535  31.832  29.679  1.00  0.00    -0.206 F 
ATOM     90  C   UNL A   1      47.016  33.203  27.848  1.00  0.00     0.059 A 
ATOM     91  C   UNL A   1      44.800  33.133  26.863  1.00  0.00     0.059 A 
ATOM     92  F   UNL A   1      43.146  31.787  27.816  1.00  0.00    -0.206 F 
ATOM     93  C   UNL A   1      46.102  33.625  26.880  1.00  0.00     0.060 A 
BRANCH  93  94
ATOM     94  S   UNL A   1      46.630  34.787  25.605  1.00  0.00     0.124 S 
ATOM     95  O   UNL A   1      48.005  34.366  25.359  1.00  0.00    -0.237 OA
ATOM     96  O   UNL A   1      45.682  34.524  24.527  1.00  0.00    -0.237 OA
ATOM     97  O   UNL A   1      46.482  36.090  26.248  1.00  0.00    -0.744 OA
ENDBRANCH  93  94
ENDBRANCH  61  86
ENDBRANCH  35  36
ENDBRANCH  28  30
ENDBRANCH  27  28
ENDBRANCH  26  27
ENDBRANCH   1  26
TORSDOF 17
ENDMDL
MODEL 2
REMARK VINA RESULT:     -12.5      0.963      1.771
REMARK SMILES Nc1ccc(C(=O)N2Cc3nc[nH]c3C[C@H]2C(=O)OCCOC(=O)c2ccc(-c3c4nc(c(-c5c(F)cc(S(=O)(=O)[O-])cc5F)c5ccc([nH]5)c(-c5c(F)cc(S(=O)(=O)[O-])cc5F)c5nc(c(-c6c(F)cc(S(=O)(=O)[O-])cc6F)c6ccc3[nH]6)C=C5)C=C4)cc2)cc1
REMARK SMILES IDX 20 1 19 2 17 3 18 4 16 5 8 6 9 7 10 8 15 9 11 10 14 11 12 12
REMARK SMILES IDX 13 13 6 15 7 16 5 17 2 18 3 19 92 20 4 21 91 22 1 23 21 26
REMARK SMILES IDX 22 27 23 28 24 29 25 30 26 31 90 32 27 33 89 34 28 35 29 36
REMARK SMILES IDX 30 37 83 38 31 39 88 40 82 41 84 42 32 43 87 44 81 45 80 46
REMARK SMILES IDX 33 48 67 49 46 50 66 51 47 52 50 53 65 54 85 55 48 56 49 57
REMARK SMILES IDX 64 59 86 60 51 61 34 62 35 63 44 64 36 65 37 66 43 67 45 68
REMARK SMILES IDX 38 69 39 70 40 71 41 72 42 73 68 74 69 75 78 76 70 77 71 78
REMARK SMILES IDX 77 79 79 80 72 81 73 82 74 83 75 84 76 85 52 86 53 87 62 88
REMARK SMILES IDX 54 89 55 90 61 91 63 92 56 93 57 94 58 95 59 96 60 97
REMARK H PARENT 13 14 1 24 1 25 84 47 50 58
REMARK Flexibility Score: inf
ROOT
ATOM      1  C   UNL A   1      31.796  29.986  25.660  1.00  0.00     0.274 C 
ENDROOT
BRANCH   1   2
ATOM      2  O   UNL A   1      32.960  29.458  24.992  1.00  0.00    -0.461 OA
BRANCH   2   3
ATOM      3  C   UNL A   1      33.256  28.146  25.223  1.00  0.00     0.329 C 
ATOM      4  O   UNL A   1      33.417  27.672  26.347  1.00  0.00    -0.250 OA
BRANCH   3   5
ATOM      5  C   UNL A   1      33.543  27.327  23.943  1.00  0.00     0.201 C 
ATOM      6  N   UNL A   1      32.695  26.140  23.618  1.00  0.00    -0.318 N 
ATOM      7  C   UNL A   1      31.283  26.336  23.236  1.00  0.00     0.179 C 
ATOM      8  C   UNL A   1      31.091  27.690  22.633  1.00  0.00     0.081 A 
ATOM      9  C   UNL A   1      33.530  28.360  22.780  1.00  0.00     0.093 C 
ATOM     10  N   UNL A   1      29.879  28.258  22.336  1.00  0.00    -0.240 NA
ATOM     11  C   UNL A   1      32.106  28.600  22.433  1.00  0.00     0.042 A 
ATOM     12  C   UNL A   1      30.162  29.491  21.970  1.00  0.00     0.197 A 
ATOM     13  N   UNL A   1      31.508  29.746  22.009  1.00  0.00    -0.348 N 
ATOM     14  H   UNL A   1      31.954  30.593  21.777  1.00  0.00     0.167 HD
BRANCH   6  15
ATOM     15  C   UNL A   1      33.343  25.015  23.111  1.00  0.00     0.254 C 
ATOM     16  O   UNL A   1      33.865  25.006  22.003  1.00  0.00    -0.269 OA
BRANCH  15  17
ATOM     17  C   UNL A   1      33.472  23.852  24.045  1.00  0.00     0.040 A 
ATOM     18  C   UNL A   1      33.509  21.703  25.879  1.00  0.00     0.031 A 
ATOM     19  C   UNL A   1      33.912  22.981  26.272  1.00  0.00     0.026 A 
ATOM     20  C   UNL A   1      33.160  21.499  24.546  1.00  0.00     0.026 A 
ATOM     21  C   UNL A   1      33.890  24.054  25.365  1.00  0.00     0.016 A 
ATOM     22  C   UNL A   1      33.141  22.560  23.638  1.00  0.00     0.016 A 
BRANCH  18  23
ATOM     23  N   UNL A   1      33.517  20.646  26.766  1.00  0.00    -0.399 N 
ATOM     24  H   UNL A   1      33.248  20.787  27.702  1.00  0.00     0.156 HD
ATOM     25  H   UNL A   1      33.790  19.750  26.462  1.00  0.00     0.156 HD
ENDBRANCH  18  23
ENDBRANCH  15  17
ENDBRANCH   6  15
ENDBRANCH   3   5
ENDBRANCH   2   3
ENDBRANCH   1   2
BRANCH   1  26
ATOM     26  C   UNL A   1      32.131  30.971  26.790  1.00  0.00     0.275 C 
BRANCH  26  27
ATOM     27  O   UNL A   1      33.236  30.595  27.632  1.00  0.00    -0.458 OA
BRANCH  27  28
ATOM     28  C   UNL A   1      34.018  31.629  27.954  1.00  0.00     0.338 C 
ATOM     29  O   UNL A   1      33.634  32.795  28.160  1.00  0.00    -0.246 OA
BRANCH  28  30
ATOM     30  C   UNL A   1      35.444  31.405  27.822  1.00  0.00     0.060 A 
ATOM     31  C   UNL A   1      35.820  30.073  27.646  1.00  0.00     0.016 A 
ATOM     32  C   UNL A   1      36.348  32.371  28.277  1.00  0.00     0.016 A 
ATOM     33  C   UNL A   1      37.049  29.670  28.108  1.00  0.00     0.010 A 
ATOM     34  C   UNL A   1      37.602  31.961  28.707  1.00  0.00     0.010 A 
ATOM     35  C   UNL A   1      37.919  30.600  28.697  1.00  0.00    -0.014 A 
BRANCH  35  36
ATOM     36  C   UNL A   1      39.248  30.101  29.065  1.00  0.00     0.031 A 
ATOM     37  C   UNL A   1      39.462  30.206  30.536  1.00  0.00     0.074 A 
ATOM     38  C   UNL A   1      40.128  29.541  28.205  1.00  0.00     0.049 A 
ATOM     39  N   UNL A   1      40.416  30.815  31.158  1.00  0.00    -0.248 NA
ATOM     40  C   UNL A   1      38.362  29.761  31.421  1.00  0.00     0.031 C 
ATOM     41  C   UNL A   1      39.892  29.282  26.781  1.00  0.00     0.029 A 
ATOM     42  N   UNL A   1      41.364  28.978  28.410  1.00  0.00    -0.354 N 
ATOM     43  C   UNL A   1      40.172  30.570  32.507  1.00  0.00     0.074 A 
ATOM     44  C   UNL A   1      38.810  30.137  32.618  1.00  0.00     0.031 C 
ATOM     45  C   UNL A   1      40.816  28.410  26.324  1.00  0.00     0.029 A 
ATOM     46  C   UNL A   1      41.768  28.116  27.383  1.00  0.00     0.049 A 
ATOM     47  H   UNL A   1      41.915  29.163  29.205  1.00  0.00     0.167 HD
ATOM     48  C   UNL A   1      41.215  30.353  33.348  1.00  0.00     0.037 A 
ATOM     49  C   UNL A   1      42.759  27.184  27.401  1.00  0.00     0.037 A 
ATOM     50  C   UNL A   1      42.419  30.951  32.844  1.00  0.00     0.049 A 
ATOM     51  C   UNL A   1      43.675  27.517  28.513  1.00  0.00     0.074 A 
ATOM     52  C   UNL A   1      42.919  32.228  32.712  1.00  0.00     0.029 A 
ATOM     53  N   UNL A   1      43.149  30.135  32.025  1.00  0.00    -0.354 N 
ATOM     54  N   UNL A   1      44.501  28.523  28.492  1.00  0.00    -0.248 NA
ATOM     55  C   UNL A   1      43.479  26.893  29.820  1.00  0.00     0.031 C 
ATOM     56  C   UNL A   1      43.913  32.166  31.694  1.00  0.00     0.029 A 
ATOM     57  C   UNL A   1      44.024  30.849  31.257  1.00  0.00     0.049 A 
ATOM     58  H   UNL A   1      43.056  29.155  31.994  1.00  0.00     0.167 HD
ATOM     59  C   UNL A   1      44.572  28.925  29.807  1.00  0.00     0.074 A 
ATOM     60  C   UNL A   1      44.084  27.800  30.589  1.00  0.00     0.031 C 
ATOM     61  C   UNL A   1      44.669  30.248  30.113  1.00  0.00     0.037 A 
BRANCH  48  62
ATOM     62  C   UNL A   1      41.258  29.160  34.286  1.00  0.00     0.058 A 
ATOM     63  C   UNL A   1      41.540  29.367  35.650  1.00  0.00     0.135 A 
ATOM     64  C   UNL A   1      41.329  27.814  33.851  1.00  0.00     0.135 A 
ATOM     65  F   UNL A   1      41.542  30.607  36.164  1.00  0.00    -0.206 F 
ATOM     66  C   UNL A   1      41.898  28.322  36.507  1.00  0.00     0.059 A 
ATOM     67  C   UNL A   1      41.627  26.755  34.696  1.00  0.00     0.059 A 
ATOM     68  F   UNL A   1      41.217  27.462  32.566  1.00  0.00    -0.206 F 
ATOM     69  C   UNL A   1      41.939  27.019  36.016  1.00  0.00     0.060 A 
BRANCH  69  70
ATOM     70  S   UNL A   1      42.437  25.668  37.095  1.00  0.00     0.124 S 
ATOM     71  O   UNL A   1      43.047  26.390  38.205  1.00  0.00    -0.237 OA
ATOM     72  O   UNL A   1      41.160  25.020  37.374  1.00  0.00    -0.237 OA
ATOM     73  O   UNL A   1      43.355  24.896  36.261  1.00  0.00    -0.744 OA
ENDBRANCH  69  70
ENDBRANCH  48  62
BRANCH  49  74
ATOM     74  C   UNL A   1      42.928  25.907  26.645  1.00  0.00     0.058 A 
ATOM     75  C   UNL A   1      43.824  25.821  25.558  1.00  0.00     0.135 A 
ATOM     76  C   UNL A   1      42.451  24.679  27.140  1.00  0.00     0.135 A 
ATOM     77  F   UNL A   1      44.334  26.934  25.008  1.00  0.00    -0.206 F 
ATOM     78  C   UNL A   1      44.287  24.600  25.056  1.00  0.00     0.059 A 
ATOM     79  C   UNL A   1      42.885  23.448  26.643  1.00  0.00     0.059 A 
ATOM     80  F   UNL A   1      41.620  24.630  28.190  1.00  0.00    -0.206 F 
ATOM     81  C   UNL A   1      43.835  23.415  25.629  1.00  0.00     0.060 A 
BRANCH  81  82
ATOM     82  S   UNL A   1      44.604  21.847  25.155  1.00  0.00     0.124 S 
ATOM     83  O   UNL A   1      43.708  20.872  25.764  1.00  0.00    -0.237 OA
ATOM     84  O   UNL A   1      44.577  21.916  23.698  1.00  0.00    -0.237 OA
ATOM     85  O   UNL A   1      45.935  21.932  25.752  1.00  0.00    -0.744 OA
ENDBRANCH  81  82
ENDBRANCH  49  74
BRANCH  61  86
ATOM     86  C   UNL A   1      45.408  31.126  29.154  1.00  0.00     0.058 A 
ATOM     87  C   UNL A   1      44.840  31.844  28.090  1.00  0.00     0.135 A 
ATOM     88  C   UNL A   1      46.788  31.266  29.372  1.00  0.00     0.135 A 
ATOM     89  F   UNL A   1      43.515  31.825  27.870  1.00  0.00    -0.206 F 
ATOM     90  C   UNL A   1      45.627  32.635  27.252  1.00  0.00     0.059 A 
ATOM     91  C   UNL A   1      47.582  32.075  28.574  1.00  0.00     0.059 A 
ATOM     92  F   UNL A   1      47.377  30.629  30.398  1.00  0.00    -0.206 F 
ATOM     93  C   UNL A   1      46.998  32.742  27.502  1.00  0.00     0.060 A 
BRANCH  93  94
ATOM     94  S   UNL A   1      48.015  33.798  26.450  1.00  0.00     0.124 S 
ATOM     95  O   UNL A   1      49.130  32.917  26.120  1.00  0.00    -0.237 OA
ATOM     96  O   UNL A   1      47.108  34.115  25.352  1.00  0.00    -0.237 OA
ATOM     97  O   UNL A   1      48.346  34.925  27.317  1.00  0.00    -0.744 OA
ENDBRANCH  93  94
ENDBRANCH  61  86
ENDBRANCH  35  36
ENDBRANCH  28  30
ENDBRANCH  27  28
ENDBRANCH  26  27
ENDBRANCH   1  26
TORSDOF 17
ENDMDL
MODEL 3
REMARK VINA RESULT:     -12.3      2.815      9.365
REMARK SMILES Nc1ccc(C(=O)N2Cc3nc[nH]c3C[C@H]2C(=O)OCCOC(=O)c2ccc(-c3c4nc(c(-c5c(F)cc(S(=O)(=O)[O-])cc5F)c5ccc([nH]5)c(-c5c(F)cc(S(=O)(=O)[O-])cc5F)c5nc(c(-c6c(F)cc(S(=O)(=O)[O-])cc6F)c6ccc3[nH]6)C=C5)C=C4)cc2)cc1
REMARK SMILES IDX 20 1 19 2 17 3 18 4 16 5 8 6 9 7 10 8 15 9 11 10 14 11 12 12
REMARK SMILES IDX 13 13 6 15 7 16 5 17 2 18 3 19 92 20 4 21 91 22 1 23 21 26
REMARK SMILES IDX 22 27 23 28 24 29 25 30 26 31 90 32 27 33 89 34 28 35 29 36
REMARK SMILES IDX 30 37 83 38 31 39 88 40 82 41 84 42 32 43 87 44 81 45 80 46
REMARK SMILES IDX 33 48 67 49 46 50 66 51 47 52 50 53 65 54 85 55 48 56 49 57
REMARK SMILES IDX 64 59 86 60 51 61 34 62 35 63 44 64 36 65 37 66 43 67 45 68
REMARK SMILES IDX 38 69 39 70 40 71 41 72 42 73 68 74 69 75 78 76 70 77 71 78
REMARK SMILES IDX 77 79 79 80 72 81 73 82 74 83 75 84 76 85 52 86 53 87 62 88
REMARK SMILES IDX 54 89 55 90 61 91 63 92 56 93 57 94 58 95 59 96 60 97
REMARK H PARENT 13 14 1 24 1 25 84 47 50 58
REMARK Flexibility Score: inf
ROOT
ATOM      1  C   UNL A   1      36.844  22.494  23.789  1.00  0.00     0.274 C 
ENDROOT
BRANCH   1   2
ATOM      2  O   UNL A   1      36.109  23.513  24.497  1.00  0.00    -0.461 OA
BRANCH   2   3
ATOM      3  C   UNL A   1      34.768  23.581  24.255  1.00  0.00     0.329 C 
ATOM      4  O   UNL A   1      34.284  23.678  23.128  1.00  0.00    -0.250 OA
BRANCH   3   5
ATOM      5  C   UNL A   1      33.899  23.698  25.529  1.00  0.00     0.201 C 
ATOM      6  N   UNL A   1      32.411  23.766  25.407  1.00  0.00    -0.318 N 
ATOM      7  C   UNL A   1      31.664  22.581  24.946  1.00  0.00     0.179 C 
ATOM      8  C   UNL A   1      32.419  21.332  25.267  1.00  0.00     0.081 A 
ATOM      9  C   UNL A   1      34.334  22.510  26.435  1.00  0.00     0.093 C 
ATOM     10  N   UNL A   1      32.095  20.077  24.822  1.00  0.00    -0.240 NA
ATOM     11  C   UNL A   1      33.623  21.306  25.935  1.00  0.00     0.042 A 
ATOM     12  C   UNL A   1      33.092  19.310  25.211  1.00  0.00     0.197 A 
ATOM     13  N   UNL A   1      34.048  20.014  25.897  1.00  0.00    -0.348 N 
ATOM     14  H   UNL A   1      34.878  19.654  26.285  1.00  0.00     0.167 HD
BRANCH   6  15
ATOM     15  C   UNL A   1      31.745  24.654  26.250  1.00  0.00     0.254 C 
ATOM     16  O   UNL A   1      31.304  24.314  27.341  1.00  0.00    -0.269 OA
BRANCH  15  17
ATOM     17  C   UNL A   1      31.700  26.082  25.801  1.00  0.00     0.040 A 
ATOM     18  C   UNL A   1      31.400  28.777  25.008  1.00  0.00     0.031 A 
ATOM     19  C   UNL A   1      31.142  27.738  24.111  1.00  0.00     0.026 A 
ATOM     20  C   UNL A   1      31.879  28.454  26.276  1.00  0.00     0.026 A 
ATOM     21  C   UNL A   1      31.284  26.397  24.502  1.00  0.00     0.016 A 
ATOM     22  C   UNL A   1      32.028  27.122  26.669  1.00  0.00     0.016 A 
BRANCH  18  23
ATOM     23  N   UNL A   1      31.251  30.098  24.636  1.00  0.00    -0.399 N 
ATOM     24  H   UNL A   1      30.750  30.326  23.821  1.00  0.00     0.156 HD
ATOM     25  H   UNL A   1      31.646  30.812  25.187  1.00  0.00     0.156 HD
ENDBRANCH  18  23
ENDBRANCH  15  17
ENDBRANCH   6  15
ENDBRANCH   3   5
ENDBRANCH   2   3
ENDBRANCH   1   2
BRANCH   1  26
ATOM     26  C   UNL A   1      37.397  21.389  24.701  1.00  0.00     0.275 C 
BRANCH  26  27
ATOM     27  O   UNL A   1      37.805  21.815  26.013  1.00  0.00    -0.458 OA
BRANCH  27  28
ATOM     28  C   UNL A   1      39.130  21.800  26.175  1.00  0.00     0.338 C 
ATOM     29  O   UNL A   1      39.829  20.787  26.364  1.00  0.00    -0.246 OA
BRANCH  28  30
ATOM     30  C   UNL A   1      39.756  23.092  26.374  1.00  0.00     0.060 A 
ATOM     31  C   UNL A   1      40.941  23.068  27.110  1.00  0.00     0.016 A 
ATOM     32  C   UNL A   1      39.004  24.263  26.228  1.00  0.00     0.016 A 
ATOM     33  C   UNL A   1      41.273  24.171  27.858  1.00  0.00     0.010 A 
ATOM     34  C   UNL A   1      39.367  25.386  26.960  1.00  0.00     0.010 A 
ATOM     35  C   UNL A   1      40.454  25.311  27.834  1.00  0.00    -0.014 A 
BRANCH  35  36
ATOM     36  C   UNL A   1      40.941  26.474  28.582  1.00  0.00     0.031 A 
ATOM     37  C   UNL A   1      42.210  26.986  27.994  1.00  0.00     0.074 A 
ATOM     38  C   UNL A   1      40.287  27.060  29.610  1.00  0.00     0.049 A 
ATOM     39  N   UNL A   1      43.347  27.157  28.583  1.00  0.00    -0.248 NA
ATOM     40  C   UNL A   1      42.277  27.119  26.521  1.00  0.00     0.031 C 
ATOM     41  C   UNL A   1      38.965  26.678  30.118  1.00  0.00     0.029 A 
ATOM     42  N   UNL A   1      40.582  28.176  30.355  1.00  0.00    -0.354 N 
ATOM     43  C   UNL A   1      44.178  27.693  27.603  1.00  0.00     0.074 A 
ATOM     44  C   UNL A   1      43.559  27.431  26.335  1.00  0.00     0.031 C 
ATOM     45  C   UNL A   1      38.475  27.674  30.887  1.00  0.00     0.029 A 
ATOM     46  C   UNL A   1      39.473  28.723  31.013  1.00  0.00     0.049 A 
ATOM     47  H   UNL A   1      41.488  28.557  30.420  1.00  0.00     0.167 HD
ATOM     48  C   UNL A   1      45.080  28.650  27.938  1.00  0.00     0.037 A 
ATOM     49  C   UNL A   1      39.343  29.960  31.566  1.00  0.00     0.037 A 
ATOM     50  C   UNL A   1      45.425  28.570  29.329  1.00  0.00     0.049 A 
ATOM     51  C   UNL A   1      40.701  30.501  31.793  1.00  0.00     0.074 A 
ATOM     52  C   UNL A   1      46.170  27.728  30.125  1.00  0.00     0.029 A 
ATOM     53  N   UNL A   1      44.616  29.306  30.150  1.00  0.00    -0.354 N 
ATOM     54  N   UNL A   1      41.503  30.071  32.725  1.00  0.00    -0.248 NA
ATOM     55  C   UNL A   1      41.315  31.353  30.779  1.00  0.00     0.031 C 
ATOM     56  C   UNL A   1      45.696  27.910  31.456  1.00  0.00     0.029 A 
ATOM     57  C   UNL A   1      44.703  28.885  31.447  1.00  0.00     0.049 A 
ATOM     58  H   UNL A   1      44.043  30.046  29.844  1.00  0.00     0.167 HD
ATOM     59  C   UNL A   1      42.758  30.221  32.179  1.00  0.00     0.074 A 
ATOM     60  C   UNL A   1      42.601  31.164  31.082  1.00  0.00     0.031 C 
ATOM     61  C   UNL A   1      43.726  29.296  32.427  1.00  0.00     0.037 A 
BRANCH  48  62
ATOM     62  C   UNL A   1      45.193  29.954  27.169  1.00  0.00     0.058 A 
ATOM     63  C   UNL A   1      46.468  30.432  26.810  1.00  0.00     0.135 A 
ATOM     64  C   UNL A   1      44.137  30.889  27.037  1.00  0.00     0.135 A 
ATOM     65  F   UNL A   1      47.550  29.646  26.933  1.00  0.00    -0.206 F 
ATOM     66  C   UNL A   1      46.681  31.746  26.384  1.00  0.00     0.059 A 
ATOM     67  C   UNL A   1      44.317  32.180  26.562  1.00  0.00     0.059 A 
ATOM     68  F   UNL A   1      42.892  30.638  27.455  1.00  0.00    -0.206 F 
ATOM     69  C   UNL A   1      45.596  32.611  26.266  1.00  0.00     0.060 A 
BRANCH  69  70
ATOM     70  S   UNL A   1      45.858  34.318  25.758  1.00  0.00     0.124 S 
ATOM     71  O   UNL A   1      47.311  34.373  25.659  1.00  0.00    -0.237 OA
ATOM     72  O   UNL A   1      45.124  34.372  24.499  1.00  0.00    -0.237 OA
ATOM     73  O   UNL A   1      45.269  35.086  26.852  1.00  0.00    -0.744 OA
ENDBRANCH  69  70
ENDBRANCH  48  62
BRANCH  49  74
ATOM     74  C   UNL A   1      38.144  30.823  31.784  1.00  0.00     0.058 A 
ATOM     75  C   UNL A   1      37.558  30.940  33.064  1.00  0.00     0.135 A 
ATOM     76  C   UNL A   1      37.724  31.771  30.834  1.00  0.00     0.135 A 
ATOM     77  F   UNL A   1      37.885  30.081  34.042  1.00  0.00    -0.206 F 
ATOM     78  C   UNL A   1      36.686  31.981  33.403  1.00  0.00     0.059 A 
ATOM     79  C   UNL A   1      36.842  32.809  31.144  1.00  0.00     0.059 A 
ATOM     80  F   UNL A   1      38.233  31.782  29.593  1.00  0.00    -0.206 F 
ATOM     81  C   UNL A   1      36.360  32.932  32.441  1.00  0.00     0.060 A 
BRANCH  81  82
ATOM     82  S   UNL A   1      35.434  34.409  32.930  1.00  0.00     0.124 S 
ATOM     83  O   UNL A   1      34.570  33.890  33.984  1.00  0.00    -0.237 OA
ATOM     84  O   UNL A   1      36.496  35.312  33.362  1.00  0.00    -0.237 OA
ATOM     85  O   UNL A   1      34.752  34.800  31.699  1.00  0.00    -0.744 OA
ENDBRANCH  81  82
ENDBRANCH  49  74
BRANCH  61  86
ATOM     86  C   UNL A   1      43.704  28.615  33.758  1.00  0.00     0.058 A 
ATOM     87  C   UNL A   1      44.252  29.116  34.949  1.00  0.00     0.135 A 
ATOM     88  C   UNL A   1      43.038  27.380  33.817  1.00  0.00     0.135 A 
ATOM     89  F   UNL A   1      44.832  30.327  34.989  1.00  0.00    -0.206 F 
ATOM     90  C   UNL A   1      44.176  28.391  36.139  1.00  0.00     0.059 A 
ATOM     91  C   UNL A   1      42.918  26.661  34.996  1.00  0.00     0.059 A 
ATOM     92  F   UNL A   1      42.463  26.870  32.714  1.00  0.00    -0.206 F 
ATOM     93  C   UNL A   1      43.508  27.164  36.151  1.00  0.00     0.060 A 
BRANCH  93  94
ATOM     94  S   UNL A   1      43.367  26.243  37.695  1.00  0.00     0.124 S 
ATOM     95  O   UNL A   1      41.932  26.299  37.954  1.00  0.00    -0.237 OA
ATOM     96  O   UNL A   1      43.897  24.933  37.331  1.00  0.00    -0.237 OA
ATOM     97  O   UNL A   1      44.198  27.005  38.625  1.00  0.00    -0.744 OA
ENDBRANCH  93  94
ENDBRANCH  61  86
ENDBRANCH  35  36
ENDBRANCH  28  30
ENDBRANCH  27  28
ENDBRANCH  26  27
ENDBRANCH   1  26
TORSDOF 17
ENDMDL
