MODEL 1
REMARK VINA RESULT:     -10.4      0.000      0.000
REMARK SMILES CC[C@H](C(=O)OCCOC(=O)c1ccc(-c2c3nc(c(-c4c(F)cc(S(=O)(=O)[O-])cc4F)c4ccc([nH]4)c(-c4c(F)cc(S(=O)(=O)[O-])cc4F)c4nc(c(-c5c(F)cc(S(=O)(=O)[O-])cc5F)c5ccc2[nH]5)C=C4)C=C3)cc1)N1C(=O)/C(=C\c2cccs2)SC1=S
REMARK SMILES IDX 8 1 7 2 6 3 4 4 5 5 3 6 2 7 1 8 78 9 79 10 89 11 80 12 81 13
REMARK SMILES IDX 88 14 90 15 82 16 83 17 84 18 87 19 85 20 86 21 9 22 10 23
REMARK SMILES IDX 11 24 12 25 13 26 77 27 14 28 76 29 15 30 16 31 17 32 70 33
REMARK SMILES IDX 18 34 75 35 69 36 71 37 19 38 74 39 68 40 67 41 20 43 54 44
REMARK SMILES IDX 33 45 53 46 34 47 37 48 52 49 72 50 35 51 36 52 51 54 73 55
REMARK SMILES IDX 38 56 21 57 22 58 31 59 23 60 24 61 30 62 32 63 25 64 26 65
REMARK SMILES IDX 27 66 28 67 29 68 55 69 56 70 65 71 57 72 58 73 64 74 66 75
REMARK SMILES IDX 59 76 60 77 61 78 62 79 63 80 39 81 40 82 49 83 41 84 42 85
REMARK SMILES IDX 48 86 50 87 43 88 44 89 45 90 46 91 47 92
REMARK H PARENT 71 42 37 53
REMARK Flexibility Score: inf
ROOT
ATOM      1  C   UNL A   1      34.556  29.993  27.924  1.00  0.00     0.275 C 
ENDROOT
BRANCH   1   2
ATOM      2  C   UNL A   1      34.743  28.738  27.068  1.00  0.00     0.274 C 
BRANCH   2   3
ATOM      3  O   UNL A   1      34.403  28.966  25.688  1.00  0.00    -0.461 OA
BRANCH   3   4
ATOM      4  C   UNL A   1      33.107  28.741  25.346  1.00  0.00     0.329 C 
ATOM      5  O   UNL A   1      32.362  29.584  24.850  1.00  0.00    -0.250 OA
BRANCH   4   6
ATOM      6  C   UNL A   1      32.623  27.321  25.691  1.00  0.00     0.201 C 
BRANCH   6   7
ATOM      7  C   UNL A   1      31.328  27.186  26.499  1.00  0.00     0.034 C 
ATOM      8  C   UNL A   1      31.270  28.185  27.651  1.00  0.00     0.007 C 
ENDBRANCH   6   7
BRANCH   6   9
ATOM      9  N   UNL A   1      32.586  26.547  24.433  1.00  0.00    -0.278 N 
ATOM     10  C   UNL A   1      33.646  25.708  24.135  1.00  0.00     0.267 C 
ATOM     11  C   UNL A   1      31.628  26.673  23.449  1.00  0.00     0.149 C 
ATOM     12  O   UNL A   1      34.731  25.709  24.696  1.00  0.00    -0.268 OA
ATOM     13  C   UNL A   1      33.283  24.838  22.988  1.00  0.00     0.081 C 
ATOM     14  S   UNL A   1      32.002  25.584  22.111  1.00  0.00    -0.054 SA
ATOM     15  S   UNL A   1      30.309  27.692  23.419  1.00  0.00    -0.052 S 
ATOM     16  C   UNL A   1      33.744  23.609  22.728  1.00  0.00     0.040 C 
BRANCH  16  17
ATOM     17  C   UNL A   1      34.569  22.901  23.644  1.00  0.00     0.028 A 
ATOM     18  C   UNL A   1      34.180  22.100  24.706  1.00  0.00     0.020 A 
ATOM     19  S   UNL A   1      36.277  22.921  23.486  1.00  0.00    -0.144 S 
ATOM     20  C   UNL A   1      35.283  21.527  25.400  1.00  0.00     0.012 A 
ATOM     21  C   UNL A   1      36.484  21.907  24.849  1.00  0.00     0.065 A 
ENDBRANCH  16  17
ENDBRANCH   6   9
ENDBRANCH   4   6
ENDBRANCH   3   4
ENDBRANCH   2   3
ENDBRANCH   1   2
BRANCH   1  22
ATOM     22  O   UNL A   1      35.810  30.632  28.227  1.00  0.00    -0.458 OA
BRANCH  22  23
ATOM     23  C   UNL A   1      36.417  30.179  29.349  1.00  0.00     0.338 C 
ATOM     24  O   UNL A   1      35.883  29.884  30.405  1.00  0.00    -0.246 OA
BRANCH  23  25
ATOM     25  C   UNL A   1      37.841  29.923  29.089  1.00  0.00     0.060 A 
ATOM     26  C   UNL A   1      38.224  29.717  27.761  1.00  0.00     0.016 A 
ATOM     27  C   UNL A   1      38.771  29.808  30.124  1.00  0.00     0.016 A 
ATOM     28  C   UNL A   1      39.540  29.391  27.457  1.00  0.00     0.010 A 
ATOM     29  C   UNL A   1      40.094  29.472  29.819  1.00  0.00     0.010 A 
ATOM     30  C   UNL A   1      40.480  29.250  28.485  1.00  0.00    -0.014 A 
BRANCH  30  31
ATOM     31  C   UNL A   1      41.856  28.827  28.141  1.00  0.00     0.031 A 
ATOM     32  C   UNL A   1      42.974  29.827  28.159  1.00  0.00     0.074 A 
ATOM     33  C   UNL A   1      42.098  27.533  27.868  1.00  0.00     0.049 A 
ATOM     34  N   UNL A   1      44.247  29.645  27.920  1.00  0.00    -0.248 NA
ATOM     35  C   UNL A   1      42.614  31.214  28.486  1.00  0.00     0.031 C 
ATOM     36  C   UNL A   1      41.086  26.475  27.844  1.00  0.00     0.029 A 
ATOM     37  N   UNL A   1      43.268  26.887  27.567  1.00  0.00    -0.354 N 
ATOM     38  C   UNL A   1      44.841  30.893  28.059  1.00  0.00     0.074 A 
ATOM     39  C   UNL A   1      43.784  31.829  28.382  1.00  0.00     0.031 C 
ATOM     40  C   UNL A   1      41.683  25.309  27.547  1.00  0.00     0.029 A 
ATOM     41  C   UNL A   1      43.109  25.542  27.339  1.00  0.00     0.049 A 
ATOM     42  H   UNL A   1      44.140  27.343  27.521  1.00  0.00     0.167 HD
ATOM     43  C   UNL A   1      46.148  31.225  27.932  1.00  0.00     0.037 A 
ATOM     44  C   UNL A   1      44.012  24.606  26.991  1.00  0.00     0.037 A 
ATOM     45  C   UNL A   1      47.193  30.284  27.615  1.00  0.00     0.049 A 
ATOM     46  C   UNL A   1      45.456  25.000  26.851  1.00  0.00     0.074 A 
ATOM     47  C   UNL A   1      48.550  30.515  27.479  1.00  0.00     0.029 A 
ATOM     48  N   UNL A   1      46.995  28.930  27.381  1.00  0.00    -0.354 N 
ATOM     49  N   UNL A   1      46.007  26.180  27.001  1.00  0.00    -0.248 NA
ATOM     50  C   UNL A   1      46.403  23.931  26.506  1.00  0.00     0.031 C 
ATOM     51  C   UNL A   1      49.169  29.309  27.130  1.00  0.00     0.029 A 
ATOM     52  C   UNL A   1      48.203  28.316  27.088  1.00  0.00     0.049 A 
ATOM     53  H   UNL A   1      46.124  28.473  27.419  1.00  0.00     0.167 HD
ATOM     54  C   UNL A   1      47.368  25.997  26.783  1.00  0.00     0.074 A 
ATOM     55  C   UNL A   1      47.557  24.586  26.508  1.00  0.00     0.031 C 
ATOM     56  C   UNL A   1      48.369  26.912  26.808  1.00  0.00     0.037 A 
BRANCH  43  57
ATOM     57  C   UNL A   1      46.514  32.672  28.106  1.00  0.00     0.058 A 
ATOM     58  C   UNL A   1      46.965  33.179  29.336  1.00  0.00     0.135 A 
ATOM     59  C   UNL A   1      46.426  33.562  27.025  1.00  0.00     0.135 A 
ATOM     60  F   UNL A   1      47.050  32.374  30.407  1.00  0.00    -0.206 F 
ATOM     61  C   UNL A   1      47.289  34.522  29.494  1.00  0.00     0.059 A 
ATOM     62  C   UNL A   1      46.766  34.906  27.153  1.00  0.00     0.059 A 
ATOM     63  F   UNL A   1      45.998  33.131  25.828  1.00  0.00    -0.206 F 
ATOM     64  C   UNL A   1      47.180  35.380  28.398  1.00  0.00     0.060 A 
BRANCH  64  65
ATOM     65  S   UNL A   1      47.593  37.124  28.616  1.00  0.00     0.124 S 
ATOM     66  O   UNL A   1      47.510  37.262  30.068  1.00  0.00    -0.237 OA
ATOM     67  O   UNL A   1      48.935  37.205  28.048  1.00  0.00    -0.237 OA
ATOM     68  O   UNL A   1      46.554  37.816  27.860  1.00  0.00    -0.744 OA
ENDBRANCH  64  65
ENDBRANCH  43  57
BRANCH  44  69
ATOM     69  C   UNL A   1      43.568  23.207  26.762  1.00  0.00     0.058 A 
ATOM     70  C   UNL A   1      43.533  22.657  25.475  1.00  0.00     0.135 A 
ATOM     71  C   UNL A   1      43.207  22.382  27.839  1.00  0.00     0.135 A 
ATOM     72  F   UNL A   1      43.863  23.410  24.414  1.00  0.00    -0.206 F 
ATOM     73  C   UNL A   1      43.150  21.337  25.257  1.00  0.00     0.059 A 
ATOM     74  C   UNL A   1      42.842  21.054  27.650  1.00  0.00     0.059 A 
ATOM     75  F   UNL A   1      43.238  22.860  29.093  1.00  0.00    -0.206 F 
ATOM     76  C   UNL A   1      42.811  20.541  26.354  1.00  0.00     0.060 A 
BRANCH  76  77
ATOM     77  S   UNL A   1      42.388  18.808  26.074  1.00  0.00     0.124 S 
ATOM     78  O   UNL A   1      43.326  18.444  25.018  1.00  0.00    -0.237 OA
ATOM     79  O   UNL A   1      42.637  18.213  27.383  1.00  0.00    -0.237 OA
ATOM     80  O   UNL A   1      40.984  18.867  25.680  1.00  0.00    -0.744 OA
ENDBRANCH  76  77
ENDBRANCH  44  69
BRANCH  56  81
ATOM     81  C   UNL A   1      49.759  26.402  26.549  1.00  0.00     0.058 A 
ATOM     82  C   UNL A   1      50.601  25.998  27.597  1.00  0.00     0.135 A 
ATOM     83  C   UNL A   1      50.251  26.309  25.238  1.00  0.00     0.135 A 
ATOM     84  F   UNL A   1      50.179  26.072  28.869  1.00  0.00    -0.206 F 
ATOM     85  C   UNL A   1      51.899  25.559  27.356  1.00  0.00     0.059 A 
ATOM     86  C   UNL A   1      51.537  25.851  24.972  1.00  0.00     0.059 A 
ATOM     87  F   UNL A   1      49.480  26.670  24.199  1.00  0.00    -0.206 F 
ATOM     88  C   UNL A   1      52.360  25.496  26.041  1.00  0.00     0.060 A 
BRANCH  88  89
ATOM     89  S   UNL A   1      54.048  24.931  25.735  1.00  0.00     0.124 S 
ATOM     90  O   UNL A   1      54.695  25.247  27.003  1.00  0.00    -0.237 OA
ATOM     91  O   UNL A   1      53.861  23.511  25.455  1.00  0.00    -0.237 OA
ATOM     92  O   UNL A   1      54.472  25.737  24.594  1.00  0.00    -0.744 OA
ENDBRANCH  88  89
ENDBRANCH  56  81
ENDBRANCH  30  31
ENDBRANCH  23  25
ENDBRANCH  22  23
ENDBRANCH   1  22
TORSDOF 17
ENDMDL
MODEL 2
REMARK VINA RESULT:     -10.4      1.605      3.394
REMARK SMILES CC[C@H](C(=O)OCCOC(=O)c1ccc(-c2c3nc(c(-c4c(F)cc(S(=O)(=O)[O-])cc4F)c4ccc([nH]4)c(-c4c(F)cc(S(=O)(=O)[O-])cc4F)c4nc(c(-c5c(F)cc(S(=O)(=O)[O-])cc5F)c5ccc2[nH]5)C=C4)C=C3)cc1)N1C(=O)/C(=C\c2cccs2)SC1=S
REMARK SMILES IDX 8 1 7 2 6 3 4 4 5 5 3 6 2 7 1 8 78 9 79 10 89 11 80 12 81 13
REMARK SMILES IDX 88 14 90 15 82 16 83 17 84 18 87 19 85 20 86 21 9 22 10 23
REMARK SMILES IDX 11 24 12 25 13 26 77 27 14 28 76 29 15 30 16 31 17 32 70 33
REMARK SMILES IDX 18 34 75 35 69 36 71 37 19 38 74 39 68 40 67 41 20 43 54 44
REMARK SMILES IDX 33 45 53 46 34 47 37 48 52 49 72 50 35 51 36 52 51 54 73 55
REMARK SMILES IDX 38 56 21 57 22 58 31 59 23 60 24 61 30 62 32 63 25 64 26 65
REMARK SMILES IDX 27 66 28 67 29 68 55 69 56 70 65 71 57 72 58 73 64 74 66 75
REMARK SMILES IDX 59 76 60 77 61 78 62 79 63 80 39 81 40 82 49 83 41 84 42 85
REMARK SMILES IDX 48 86 50 87 43 88 44 89 45 90 46 91 47 92
REMARK H PARENT 71 42 37 53
REMARK Flexibility Score: inf
ROOT
ATOM      1  C   UNL A   1      34.648  30.584  28.366  1.00  0.00     0.275 C 
ENDROOT
BRANCH   1   2
ATOM      2  C   UNL A   1      34.680  29.903  26.996  1.00  0.00     0.274 C 
BRANCH   2   3
ATOM      3  O   UNL A   1      33.384  29.412  26.604  1.00  0.00    -0.461 OA
BRANCH   3   4
ATOM      4  C   UNL A   1      33.367  28.218  25.956  1.00  0.00     0.329 C 
ATOM      5  O   UNL A   1      33.601  27.135  26.488  1.00  0.00    -0.250 OA
BRANCH   4   6
ATOM      6  C   UNL A   1      33.077  28.346  24.449  1.00  0.00     0.201 C 
BRANCH   6   7
ATOM      7  C   UNL A   1      34.105  27.763  23.473  1.00  0.00     0.034 C 
ATOM      8  C   UNL A   1      33.972  28.371  22.079  1.00  0.00     0.007 C 
ENDBRANCH   6   7
BRANCH   6   9
ATOM      9  N   UNL A   1      31.716  27.820  24.213  1.00  0.00    -0.278 N 
ATOM     10  C   UNL A   1      30.655  28.708  24.187  1.00  0.00     0.267 C 
ATOM     11  C   UNL A   1      31.381  26.486  24.132  1.00  0.00     0.149 C 
ATOM     12  O   UNL A   1      30.690  29.868  24.570  1.00  0.00    -0.268 OA
ATOM     13  C   UNL A   1      29.444  28.020  23.673  1.00  0.00     0.081 C 
ATOM     14  S   UNL A   1      29.641  26.322  23.884  1.00  0.00    -0.054 SA
ATOM     15  S   UNL A   1      32.384  25.161  24.272  1.00  0.00    -0.052 S 
ATOM     16  C   UNL A   1      28.418  28.573  23.015  1.00  0.00     0.040 C 
BRANCH  16  17
ATOM     17  C   UNL A   1      28.436  29.928  22.586  1.00  0.00     0.028 A 
ATOM     18  C   UNL A   1      28.966  30.450  21.417  1.00  0.00     0.020 A 
ATOM     19  S   UNL A   1      27.693  31.157  23.524  1.00  0.00    -0.144 S 
ATOM     20  C   UNL A   1      28.783  31.858  21.308  1.00  0.00     0.012 A 
ATOM     21  C   UNL A   1      28.118  32.371  22.397  1.00  0.00     0.065 A 
ENDBRANCH  16  17
ENDBRANCH   6   9
ENDBRANCH   4   6
ENDBRANCH   3   4
ENDBRANCH   2   3
ENDBRANCH   1   2
BRANCH   1  22
ATOM     22  O   UNL A   1      35.961  30.985  28.800  1.00  0.00    -0.458 OA
BRANCH  22  23
ATOM     23  C   UNL A   1      36.518  30.179  29.735  1.00  0.00     0.338 C 
ATOM     24  O   UNL A   1      35.943  29.601  30.641  1.00  0.00    -0.246 OA
BRANCH  23  25
ATOM     25  C   UNL A   1      37.936  29.946  29.425  1.00  0.00     0.060 A 
ATOM     26  C   UNL A   1      38.282  29.786  28.081  1.00  0.00     0.016 A 
ATOM     27  C   UNL A   1      38.896  29.807  30.429  1.00  0.00     0.016 A 
ATOM     28  C   UNL A   1      39.592  29.483  27.729  1.00  0.00     0.010 A 
ATOM     29  C   UNL A   1      40.213  29.494  30.075  1.00  0.00     0.010 A 
ATOM     30  C   UNL A   1      40.562  29.319  28.725  1.00  0.00    -0.014 A 
BRANCH  30  31
ATOM     31  C   UNL A   1      41.931  28.922  28.328  1.00  0.00     0.031 A 
ATOM     32  C   UNL A   1      43.032  29.941  28.305  1.00  0.00     0.074 A 
ATOM     33  C   UNL A   1      42.185  27.632  28.042  1.00  0.00     0.049 A 
ATOM     34  N   UNL A   1      44.298  29.782  28.017  1.00  0.00    -0.248 NA
ATOM     35  C   UNL A   1      42.660  31.321  28.649  1.00  0.00     0.031 C 
ATOM     36  C   UNL A   1      41.192  26.556  28.054  1.00  0.00     0.029 A 
ATOM     37  N   UNL A   1      43.355  27.008  27.696  1.00  0.00    -0.354 N 
ATOM     38  C   UNL A   1      44.874  31.040  28.137  1.00  0.00     0.074 A 
ATOM     39  C   UNL A   1      43.814  31.957  28.502  1.00  0.00     0.031 C 
ATOM     40  C   UNL A   1      41.798  25.402  27.732  1.00  0.00     0.029 A 
ATOM     41  C   UNL A   1      43.211  25.660  27.470  1.00  0.00     0.049 A 
ATOM     42  H   UNL A   1      44.216  27.479  27.617  1.00  0.00     0.167 HD
ATOM     43  C   UNL A   1      46.170  31.395  27.961  1.00  0.00     0.037 A 
ATOM     44  C   UNL A   1      44.117  24.741  27.087  1.00  0.00     0.037 A 
ATOM     45  C   UNL A   1      47.218  30.474  27.603  1.00  0.00     0.049 A 
ATOM     46  C   UNL A   1      45.547  25.160  26.893  1.00  0.00     0.074 A 
ATOM     47  C   UNL A   1      48.565  30.729  27.415  1.00  0.00     0.029 A 
ATOM     48  N   UNL A   1      47.035  29.117  27.374  1.00  0.00    -0.354 N 
ATOM     49  N   UNL A   1      46.082  26.351  27.025  1.00  0.00    -0.248 NA
ATOM     50  C   UNL A   1      46.499  24.110  26.509  1.00  0.00     0.031 C 
ATOM     51  C   UNL A   1      49.191  29.534  27.040  1.00  0.00     0.029 A 
ATOM     52  C   UNL A   1      48.242  28.525  27.033  1.00  0.00     0.049 A 
ATOM     53  H   UNL A   1      46.175  28.644  27.444  1.00  0.00     0.167 HD
ATOM     54  C   UNL A   1      47.437  26.192  26.755  1.00  0.00     0.074 A 
ATOM     55  C   UNL A   1      47.641  24.785  26.470  1.00  0.00     0.031 C 
ATOM     56  C   UNL A   1      48.422  27.124  26.744  1.00  0.00     0.037 A 
BRANCH  43  57
ATOM     57  C   UNL A   1      46.516  32.848  28.125  1.00  0.00     0.058 A 
ATOM     58  C   UNL A   1      46.977  33.366  29.346  1.00  0.00     0.135 A 
ATOM     59  C   UNL A   1      46.399  33.733  27.042  1.00  0.00     0.135 A 
ATOM     60  F   UNL A   1      47.090  32.568  30.419  1.00  0.00    -0.206 F 
ATOM     61  C   UNL A   1      47.283  34.715  29.495  1.00  0.00     0.059 A 
ATOM     62  C   UNL A   1      46.720  35.083  27.160  1.00  0.00     0.059 A 
ATOM     63  F   UNL A   1      45.960  33.291  25.852  1.00  0.00    -0.206 F 
ATOM     64  C   UNL A   1      47.146  35.567  28.397  1.00  0.00     0.060 A 
BRANCH  64  65
ATOM     65  S   UNL A   1      47.536  37.318  28.603  1.00  0.00     0.124 S 
ATOM     66  O   UNL A   1      48.878  37.251  29.174  1.00  0.00    -0.237 OA
ATOM     67  O   UNL A   1      47.454  37.823  27.236  1.00  0.00    -0.237 OA
ATOM     68  O   UNL A   1      46.493  37.794  29.507  1.00  0.00    -0.744 OA
ENDBRANCH  64  65
ENDBRANCH  43  57
BRANCH  44  69
ATOM     69  C   UNL A   1      43.689  23.335  26.871  1.00  0.00     0.058 A 
ATOM     70  C   UNL A   1      43.366  22.500  27.949  1.00  0.00     0.135 A 
ATOM     71  C   UNL A   1      43.560  22.814  25.575  1.00  0.00     0.135 A 
ATOM     72  F   UNL A   1      43.482  22.953  29.207  1.00  0.00    -0.206 F 
ATOM     73  C   UNL A   1      42.932  21.193  27.752  1.00  0.00     0.059 A 
ATOM     74  C   UNL A   1      43.108  21.518  25.352  1.00  0.00     0.059 A 
ATOM     75  F   UNL A   1      43.844  23.580  24.510  1.00  0.00    -0.206 F 
ATOM     76  C   UNL A   1      42.802  20.712  26.447  1.00  0.00     0.060 A 
BRANCH  76  77
ATOM     77  S   UNL A   1      42.166  19.040  26.195  1.00  0.00     0.124 S 
ATOM     78  O   UNL A   1      42.359  18.451  27.515  1.00  0.00    -0.237 OA
ATOM     79  O   UNL A   1      40.783  19.291  25.802  1.00  0.00    -0.237 OA
ATOM     80  O   UNL A   1      43.023  18.515  25.137  1.00  0.00    -0.744 OA
ENDBRANCH  76  77
ENDBRANCH  44  69
BRANCH  56  81
ATOM     81  C   UNL A   1      49.810  26.640  26.431  1.00  0.00     0.058 A 
ATOM     82  C   UNL A   1      50.656  26.136  27.432  1.00  0.00     0.135 A 
ATOM     83  C   UNL A   1      50.296  26.672  25.115  1.00  0.00     0.135 A 
ATOM     84  F   UNL A   1      50.239  26.088  28.707  1.00  0.00    -0.206 F 
ATOM     85  C   UNL A   1      51.952  25.720  27.144  1.00  0.00     0.059 A 
ATOM     86  C   UNL A   1      51.580  26.240  24.801  1.00  0.00     0.059 A 
ATOM     87  F   UNL A   1      49.522  27.133  24.119  1.00  0.00    -0.206 F 
ATOM     88  C   UNL A   1      52.407  25.783  25.827  1.00  0.00     0.060 A 
BRANCH  88  89
ATOM     89  S   UNL A   1      54.093  25.248  25.461  1.00  0.00     0.124 S 
ATOM     90  O   UNL A   1      54.316  25.860  24.155  1.00  0.00    -0.237 OA
ATOM     91  O   UNL A   1      54.854  25.820  26.567  1.00  0.00    -0.237 OA
ATOM     92  O   UNL A   1      53.993  23.792  25.463  1.00  0.00    -0.744 OA
ENDBRANCH  88  89
ENDBRANCH  56  81
ENDBRANCH  30  31
ENDBRANCH  23  25
ENDBRANCH  22  23
ENDBRANCH   1  22
TORSDOF 17
ENDMDL
MODEL 3
REMARK VINA RESULT:     -10.4      2.405      8.693
REMARK SMILES CC[C@H](C(=O)OCCOC(=O)c1ccc(-c2c3nc(c(-c4c(F)cc(S(=O)(=O)[O-])cc4F)c4ccc([nH]4)c(-c4c(F)cc(S(=O)(=O)[O-])cc4F)c4nc(c(-c5c(F)cc(S(=O)(=O)[O-])cc5F)c5ccc2[nH]5)C=C4)C=C3)cc1)N1C(=O)/C(=C\c2cccs2)SC1=S
REMARK SMILES IDX 8 1 7 2 6 3 4 4 5 5 3 6 2 7 1 8 78 9 79 10 89 11 80 12 81 13
REMARK SMILES IDX 88 14 90 15 82 16 83 17 84 18 87 19 85 20 86 21 9 22 10 23
REMARK SMILES IDX 11 24 12 25 13 26 77 27 14 28 76 29 15 30 16 31 17 32 70 33
REMARK SMILES IDX 18 34 75 35 69 36 71 37 19 38 74 39 68 40 67 41 20 43 54 44
REMARK SMILES IDX 33 45 53 46 34 47 37 48 52 49 72 50 35 51 36 52 51 54 73 55
REMARK SMILES IDX 38 56 21 57 22 58 31 59 23 60 24 61 30 62 32 63 25 64 26 65
REMARK SMILES IDX 27 66 28 67 29 68 55 69 56 70 65 71 57 72 58 73 64 74 66 75
REMARK SMILES IDX 59 76 60 77 61 78 62 79 63 80 39 81 40 82 49 83 41 84 42 85
REMARK SMILES IDX 48 86 50 87 43 88 44 89 45 90 46 91 47 92
REMARK H PARENT 71 42 37 53
REMARK Flexibility Score: inf
ROOT
ATOM      1  C   UNL A   1      33.497  29.802  26.611  1.00  0.00     0.275 C 
ENDROOT
BRANCH   1   2
ATOM      2  C   UNL A   1      33.062  28.650  25.702  1.00  0.00     0.274 C 
BRANCH   2   3
ATOM      3  O   UNL A   1      33.147  27.374  26.365  1.00  0.00    -0.461 OA
BRANCH   3   4
ATOM      4  C   UNL A   1      31.965  26.754  26.624  1.00  0.00     0.329 C 
ATOM      5  O   UNL A   1      30.984  27.305  27.116  1.00  0.00    -0.250 OA
BRANCH   4   6
ATOM      6  C   UNL A   1      31.980  25.251  26.289  1.00  0.00     0.201 C 
BRANCH   6   7
ATOM      7  C   UNL A   1      30.675  24.467  26.470  1.00  0.00     0.034 C 
ATOM      8  C   UNL A   1      30.915  22.960  26.480  1.00  0.00     0.007 C 
ENDBRANCH   6   7
BRANCH   6   9
ATOM      9  N   UNL A   1      32.541  25.104  24.930  1.00  0.00    -0.278 N 
ATOM     10  C   UNL A   1      33.836  24.636  24.791  1.00  0.00     0.267 C 
ATOM     11  C   UNL A   1      31.924  25.510  23.766  1.00  0.00     0.149 C 
ATOM     12  O   UNL A   1      34.659  24.546  25.690  1.00  0.00    -0.268 OA
ATOM     13  C   UNL A   1      34.096  24.311  23.366  1.00  0.00     0.081 C 
ATOM     14  S   UNL A   1      32.974  25.176  22.387  1.00  0.00    -0.054 SA
ATOM     15  S   UNL A   1      30.438  26.245  23.590  1.00  0.00    -0.052 S 
ATOM     16  C   UNL A   1      34.948  23.395  22.888  1.00  0.00     0.040 C 
BRANCH  16  17
ATOM     17  C   UNL A   1      35.632  22.483  23.736  1.00  0.00     0.028 A 
ATOM     18  C   UNL A   1      36.981  22.451  24.051  1.00  0.00     0.020 A 
ATOM     19  S   UNL A   1      34.779  21.253  24.575  1.00  0.00    -0.144 S 
ATOM     20  C   UNL A   1      37.314  21.404  24.957  1.00  0.00     0.012 A 
ATOM     21  C   UNL A   1      36.208  20.666  25.309  1.00  0.00     0.065 A 
ENDBRANCH  16  17
ENDBRANCH   6   9
ENDBRANCH   4   6
ENDBRANCH   3   4
ENDBRANCH   2   3
ENDBRANCH   1   2
BRANCH   1  22
ATOM     22  O   UNL A   1      34.311  29.346  27.708  1.00  0.00    -0.458 OA
BRANCH  22  23
ATOM     23  C   UNL A   1      35.056  30.312  28.297  1.00  0.00     0.338 C 
ATOM     24  O   UNL A   1      34.650  31.340  28.810  1.00  0.00    -0.246 OA
BRANCH  23  25
ATOM     25  C   UNL A   1      36.459  29.884  28.392  1.00  0.00     0.060 A 
ATOM     26  C   UNL A   1      36.902  29.401  29.626  1.00  0.00     0.016 A 
ATOM     27  C   UNL A   1      37.346  30.026  27.322  1.00  0.00     0.016 A 
ATOM     28  C   UNL A   1      38.237  29.057  29.802  1.00  0.00     0.010 A 
ATOM     29  C   UNL A   1      38.691  29.687  27.502  1.00  0.00     0.010 A 
ATOM     30  C   UNL A   1      39.143  29.213  28.746  1.00  0.00    -0.014 A 
BRANCH  30  31
ATOM     31  C   UNL A   1      40.573  28.912  28.983  1.00  0.00     0.031 A 
ATOM     32  C   UNL A   1      41.129  27.570  28.610  1.00  0.00     0.074 A 
ATOM     33  C   UNL A   1      41.373  29.871  29.483  1.00  0.00     0.049 A 
ATOM     34  N   UNL A   1      42.356  27.129  28.709  1.00  0.00    -0.248 NA
ATOM     35  C   UNL A   1      40.180  26.594  28.054  1.00  0.00     0.031 C 
ATOM     36  C   UNL A   1      40.939  31.217  29.860  1.00  0.00     0.029 A 
ATOM     37  N   UNL A   1      42.717  29.862  29.751  1.00  0.00    -0.354 N 
ATOM     38  C   UNL A   1      42.328  25.822  28.237  1.00  0.00     0.074 A 
ATOM     39  C   UNL A   1      40.957  25.535  27.872  1.00  0.00     0.031 C 
ATOM     40  C   UNL A   1      42.000  31.907  30.310  1.00  0.00     0.029 A 
ATOM     41  C   UNL A   1      43.179  31.046  30.272  1.00  0.00     0.049 A 
ATOM     42  H   UNL A   1      43.295  29.083  29.586  1.00  0.00     0.167 HD
ATOM     43  C   UNL A   1      43.354  24.947  28.117  1.00  0.00     0.037 A 
ATOM     44  C   UNL A   1      44.414  31.393  30.682  1.00  0.00     0.037 A 
ATOM     45  C   UNL A   1      44.717  25.245  28.479  1.00  0.00     0.049 A 
ATOM     46  C   UNL A   1      45.535  30.402  30.543  1.00  0.00     0.074 A 
ATOM     47  C   UNL A   1      45.834  24.433  28.382  1.00  0.00     0.029 A 
ATOM     48  N   UNL A   1      45.149  26.452  29.012  1.00  0.00    -0.354 N 
ATOM     49  N   UNL A   1      45.499  29.175  30.080  1.00  0.00    -0.248 NA
ATOM     50  C   UNL A   1      46.868  30.845  30.973  1.00  0.00     0.031 C 
ATOM     51  C   UNL A   1      46.934  25.136  28.887  1.00  0.00     0.029 A 
ATOM     52  C   UNL A   1      46.511  26.401  29.261  1.00  0.00     0.049 A 
ATOM     53  H   UNL A   1      44.572  27.230  29.186  1.00  0.00     0.167 HD
ATOM     54  C   UNL A   1      46.804  28.703  30.148  1.00  0.00     0.074 A 
ATOM     55  C   UNL A   1      47.610  29.784  30.680  1.00  0.00     0.031 C 
ATOM     56  C   UNL A   1      47.293  27.486  29.801  1.00  0.00     0.037 A 
BRANCH  43  57
ATOM     57  C   UNL A   1      43.033  23.572  27.600  1.00  0.00     0.058 A 
ATOM     58  C   UNL A   1      42.608  22.541  28.452  1.00  0.00     0.135 A 
ATOM     59  C   UNL A   1      43.141  23.287  26.230  1.00  0.00     0.135 A 
ATOM     60  F   UNL A   1      42.506  22.756  29.774  1.00  0.00    -0.206 F 
ATOM     61  C   UNL A   1      42.326  21.268  27.969  1.00  0.00     0.059 A 
ATOM     62  C   UNL A   1      42.842  22.026  25.720  1.00  0.00     0.059 A 
ATOM     63  F   UNL A   1      43.546  24.235  25.371  1.00  0.00    -0.206 F 
ATOM     64  C   UNL A   1      42.452  21.018  26.601  1.00  0.00     0.060 A 
BRANCH  64  65
ATOM     65  S   UNL A   1      42.094  19.359  25.985  1.00  0.00     0.124 S 
ATOM     66  O   UNL A   1      40.665  19.458  25.699  1.00  0.00    -0.237 OA
ATOM     67  O   UNL A   1      42.967  19.259  24.819  1.00  0.00    -0.237 OA
ATOM     68  O   UNL A   1      42.450  18.496  27.107  1.00  0.00    -0.744 OA
ENDBRANCH  64  65
ENDBRANCH  43  57
BRANCH  44  69
ATOM     69  C   UNL A   1      44.645  32.745  31.252  1.00  0.00     0.058 A 
ATOM     70  C   UNL A   1      44.489  32.992  32.622  1.00  0.00     0.135 A 
ATOM     71  C   UNL A   1      45.065  33.807  30.436  1.00  0.00     0.135 A 
ATOM     72  F   UNL A   1      44.083  32.009  33.440  1.00  0.00    -0.206 F 
ATOM     73  C   UNL A   1      44.738  34.249  33.167  1.00  0.00     0.059 A 
ATOM     74  C   UNL A   1      45.340  35.065  30.961  1.00  0.00     0.059 A 
ATOM     75  F   UNL A   1      45.242  33.615  29.120  1.00  0.00    -0.206 F 
ATOM     76  C   UNL A   1      45.168  35.278  32.328  1.00  0.00     0.060 A 
BRANCH  76  77
ATOM     77  S   UNL A   1      45.561  36.885  33.052  1.00  0.00     0.124 S 
ATOM     78  O   UNL A   1      46.986  36.743  33.327  1.00  0.00    -0.237 OA
ATOM     79  O   UNL A   1      45.205  37.805  31.976  1.00  0.00    -0.237 OA
ATOM     80  O   UNL A   1      44.694  36.942  34.225  1.00  0.00    -0.744 OA
ENDBRANCH  76  77
ENDBRANCH  44  69
BRANCH  56  81
ATOM     81  C   UNL A   1      48.771  27.276  29.971  1.00  0.00     0.058 A 
ATOM     82  C   UNL A   1      49.308  26.749  31.157  1.00  0.00     0.135 A 
ATOM     83  C   UNL A   1      49.661  27.597  28.934  1.00  0.00     0.135 A 
ATOM     84  F   UNL A   1      48.500  26.429  32.180  1.00  0.00    -0.206 F 
ATOM     85  C   UNL A   1      50.680  26.587  31.323  1.00  0.00     0.059 A 
ATOM     86  C   UNL A   1      51.034  27.422  29.070  1.00  0.00     0.059 A 
ATOM     87  F   UNL A   1      49.197  28.092  27.775  1.00  0.00    -0.206 F 
ATOM     88  C   UNL A   1      51.535  26.934  30.277  1.00  0.00     0.060 A 
BRANCH  88  89
ATOM     89  S   UNL A   1      53.315  26.728  30.501  1.00  0.00     0.124 S 
ATOM     90  O   UNL A   1      53.732  26.320  29.164  1.00  0.00    -0.237 OA
ATOM     91  O   UNL A   1      53.737  28.062  30.917  1.00  0.00    -0.237 OA
ATOM     92  O   UNL A   1      53.409  25.699  31.531  1.00  0.00    -0.744 OA
ENDBRANCH  88  89
ENDBRANCH  56  81
ENDBRANCH  30  31
ENDBRANCH  23  25
ENDBRANCH  22  23
ENDBRANCH   1  22
TORSDOF 17
ENDMDL
