MODEL 1
REMARK VINA RESULT:     -10.5      0.000      0.000
REMARK SMILES Cc1ccccc1-n1c(S[C@@H](C)C(=O)OCCOC(=O)c2ccc(-c3c4nc(c(-c5c(F)cc(S(=O)(=O)[O-])cc5F)c5ccc([nH]5)c(-c5c(F)cc(S(=O)(=O)[O-])cc5F)c5nc(c(-c6c(F)cc(S(=O)(=O)[O-])cc6F)c6ccc3[nH]6)C=C5)C=C4)cc2)nc2sc3c(c2c1=O)C[C@@H](C(C)C)OC3
REMARK SMILES IDX 16 1 15 2 13 3 14 4 11 5 12 6 10 7 9 8 8 9 93 10 87 11 92 12
REMARK SMILES IDX 94 13 88 14 91 15 89 16 90 17 95 18 101 19 96 20 100 21 7 22
REMARK SMILES IDX 1 23 2 24 3 25 4 26 6 27 5 28 97 29 98 30 99 31 17 32 18 33
REMARK SMILES IDX 19 34 20 35 21 36 22 37 86 38 23 39 85 40 24 41 25 42 26 43
REMARK SMILES IDX 79 44 27 45 84 46 78 47 80 48 28 49 83 50 77 51 76 52 29 54
REMARK SMILES IDX 63 55 42 56 62 57 43 58 46 59 61 60 81 61 44 62 45 63 60 65
REMARK SMILES IDX 82 66 47 67 30 68 31 69 40 70 32 71 33 72 39 73 41 74 34 75
REMARK SMILES IDX 35 76 36 77 37 78 38 79 64 80 65 81 74 82 66 83 67 84 73 85
REMARK SMILES IDX 75 86 68 87 69 88 70 89 71 90 72 91 48 92 49 93 58 94 50 95
REMARK SMILES IDX 51 96 57 97 59 98 52 99 53 100 54 101 55 102 56 103
REMARK H PARENT 80 53 46 64
REMARK Flexibility Score: inf
ROOT
ATOM      1  C   UNL A   1      35.805  29.458  27.733  1.00  0.00     0.274 C 
ENDROOT
BRANCH   1   2
ATOM      2  O   UNL A   1      34.442  28.938  27.674  1.00  0.00    -0.461 OA
BRANCH   2   3
ATOM      3  C   UNL A   1      33.879  28.216  26.686  1.00  0.00     0.319 C 
ATOM      4  O   UNL A   1      34.394  27.226  26.187  1.00  0.00    -0.251 OA
BRANCH   3   5
ATOM      5  C   UNL A   1      32.475  28.660  26.283  1.00  0.00     0.161 C 
ATOM      6  C   UNL A   1      32.155  30.134  26.599  1.00  0.00     0.032 C 
BRANCH   5   7
ATOM      7  S   UNL A   1      31.026  27.776  26.846  1.00  0.00    -0.072 SA
BRANCH   7   8
ATOM      8  C   UNL A   1      30.966  26.233  26.065  1.00  0.00     0.177 A 
ATOM      9  N   UNL A   1      30.792  26.014  24.657  1.00  0.00    -0.255 N 
ATOM     10  C   UNL A   1      31.172  24.729  24.183  1.00  0.00     0.267 A 
ATOM     11  N   UNL A   1      31.274  25.345  26.966  1.00  0.00    -0.212 NA
ATOM     12  C   UNL A   1      31.771  23.820  25.188  1.00  0.00     0.081 A 
ATOM     13  O   UNL A   1      31.080  24.352  23.021  1.00  0.00    -0.268 OA
ATOM     14  C   UNL A   1      31.683  24.160  26.509  1.00  0.00     0.132 A 
ATOM     15  C   UNL A   1      32.600  22.653  25.051  1.00  0.00    -0.014 A 
ATOM     16  S   UNL A   1      32.373  23.015  27.573  1.00  0.00    -0.117 S 
ATOM     17  C   UNL A   1      33.021  22.142  26.271  1.00  0.00     0.037 A 
ATOM     18  C   UNL A   1      33.133  22.045  23.802  1.00  0.00     0.070 C 
ATOM     19  C   UNL A   1      34.031  21.049  26.463  1.00  0.00     0.207 C 
ATOM     20  C   UNL A   1      34.501  21.376  24.088  1.00  0.00     0.125 C 
ATOM     21  O   UNL A   1      34.352  20.445  25.192  1.00  0.00    -0.372 OA
BRANCH   9  22
ATOM     22  C   UNL A   1      30.060  26.987  23.659  1.00  0.00     0.054 A 
ATOM     23  C   UNL A   1      32.195  28.233  22.537  1.00  0.00     0.046 C 
ATOM     24  C   UNL A   1      30.876  28.496  23.246  1.00  0.00    -0.027 A 
ATOM     25  C   UNL A   1      29.936  30.054  23.042  1.00  0.00     0.005 A 
ATOM     26  C   UNL A   1      27.908  29.932  23.152  1.00  0.00     0.000 A 
ATOM     27  C   UNL A   1      28.278  26.902  23.646  1.00  0.00     0.027 A 
ATOM     28  C   UNL A   1      27.197  28.299  23.428  1.00  0.00     0.002 A 
ENDBRANCH   9  22
BRANCH  20  29
ATOM     29  C   UNL A   1      35.703  22.337  24.317  1.00  0.00     0.012 C 
ATOM     30  C   UNL A   1      37.013  21.538  24.348  1.00  0.00     0.010 C 
ATOM     31  C   UNL A   1      35.799  23.441  23.263  1.00  0.00     0.010 C 
ENDBRANCH  20  29
ENDBRANCH   7   8
ENDBRANCH   5   7
ENDBRANCH   3   5
ENDBRANCH   2   3
ENDBRANCH   1   2
BRANCH   1  32
ATOM     32  C   UNL A   1      36.467  29.682  29.099  1.00  0.00     0.275 C 
BRANCH  32  33
ATOM     33  O   UNL A   1      37.850  29.321  29.004  1.00  0.00    -0.458 OA
BRANCH  33  34
ATOM     34  C   UNL A   1      38.456  28.737  30.066  1.00  0.00     0.338 C 
ATOM     35  O   UNL A   1      37.993  27.909  30.822  1.00  0.00    -0.246 OA
BRANCH  34  36
ATOM     36  C   UNL A   1      39.782  29.403  30.180  1.00  0.00     0.060 A 
ATOM     37  C   UNL A   1      41.196  28.662  29.501  1.00  0.00     0.016 A 
ATOM     38  C   UNL A   1      39.984  30.516  31.554  1.00  0.00     0.016 A 
ATOM     39  C   UNL A   1      42.833  28.872  30.153  1.00  0.00     0.010 A 
ATOM     40  C   UNL A   1      41.833  30.794  32.353  1.00  0.00     0.010 A 
ATOM     41  C   UNL A   1      43.229  29.853  31.571  1.00  0.00    -0.014 A 
BRANCH  41  42
ATOM     42  C   UNL A   1      44.790  29.957  31.833  1.00  0.00     0.031 A 
ATOM     43  C   UNL A   1      44.887  29.384  33.216  1.00  0.00     0.074 A 
ATOM     44  C   UNL A   1      46.026  29.751  31.143  1.00  0.00     0.049 A 
ATOM     45  N   UNL A   1      44.732  28.112  33.205  1.00  0.00    -0.248 NA
ATOM     46  C   UNL A   1      44.680  29.877  34.571  1.00  0.00     0.031 C 
ATOM     47  C   UNL A   1      47.323  30.272  31.665  1.00  0.00     0.029 A 
ATOM     48  N   UNL A   1      46.564  29.053  29.981  1.00  0.00    -0.354 N 
ATOM     49  C   UNL A   1      44.857  27.563  34.433  1.00  0.00     0.074 A 
ATOM     50  C   UNL A   1      44.628  28.713  35.283  1.00  0.00     0.031 C 
ATOM     51  C   UNL A   1      48.395  29.653  31.102  1.00  0.00     0.029 A 
ATOM     52  C   UNL A   1      47.955  28.623  30.164  1.00  0.00     0.049 A 
ATOM     53  H   UNL A   1      46.047  28.887  29.160  1.00  0.00     0.167 HD
ATOM     54  C   UNL A   1      45.219  26.241  34.422  1.00  0.00     0.037 A 
ATOM     55  C   UNL A   1      48.729  27.509  29.791  1.00  0.00     0.037 A 
ATOM     56  C   UNL A   1      45.558  25.810  33.061  1.00  0.00     0.049 A 
ATOM     57  C   UNL A   1      47.997  26.396  29.082  1.00  0.00     0.074 A 
ATOM     58  C   UNL A   1      46.340  26.551  32.199  1.00  0.00     0.029 A 
ATOM     59  N   UNL A   1      45.039  24.799  32.239  1.00  0.00    -0.354 N 
ATOM     60  N   UNL A   1      47.392  25.480  29.763  1.00  0.00    -0.248 NA
ATOM     61  C   UNL A   1      47.909  26.093  27.655  1.00  0.00     0.031 C 
ATOM     62  C   UNL A   1      45.440  26.581  31.140  1.00  0.00     0.029 A 
ATOM     63  C   UNL A   1      45.210  25.253  30.930  1.00  0.00     0.049 A 
ATOM     64  H   UNL A   1      44.637  23.946  32.525  1.00  0.00     0.167 HD
ATOM     65  C   UNL A   1      46.400  24.946  28.981  1.00  0.00     0.074 A 
ATOM     66  C   UNL A   1      46.936  25.149  27.648  1.00  0.00     0.031 C 
ATOM     67  C   UNL A   1      45.180  24.689  29.586  1.00  0.00     0.037 A 
BRANCH  54  68
ATOM     68  C   UNL A   1      45.655  25.407  35.549  1.00  0.00     0.058 A 
ATOM     69  C   UNL A   1      44.821  24.323  35.900  1.00  0.00     0.135 A 
ATOM     70  C   UNL A   1      46.740  25.690  36.373  1.00  0.00     0.135 A 
ATOM     71  F   UNL A   1      43.813  23.928  35.106  1.00  0.00    -0.206 F 
ATOM     72  C   UNL A   1      44.975  23.623  37.074  1.00  0.00     0.059 A 
ATOM     73  C   UNL A   1      46.939  24.969  37.553  1.00  0.00     0.059 A 
ATOM     74  F   UNL A   1      47.592  26.683  36.071  1.00  0.00    -0.206 F 
ATOM     75  C   UNL A   1      46.028  23.966  37.907  1.00  0.00     0.060 A 
BRANCH  75  76
ATOM     76  S   UNL A   1      46.159  23.069  39.458  1.00  0.00     0.124 S 
ATOM     77  O   UNL A   1      45.223  23.799  40.307  1.00  0.00    -0.237 OA
ATOM     78  O   UNL A   1      45.758  21.721  39.072  1.00  0.00    -0.237 OA
ATOM     79  O   UNL A   1      47.567  23.219  39.812  1.00  0.00    -0.744 OA
ENDBRANCH  75  76
ENDBRANCH  54  68
BRANCH  55  80
ATOM     80  C   UNL A   1      49.986  26.955  30.563  1.00  0.00     0.058 A 
ATOM     81  C   UNL A   1      50.116  26.769  31.953  1.00  0.00     0.135 A 
ATOM     82  C   UNL A   1      51.208  26.733  29.863  1.00  0.00     0.135 A 
ATOM     83  F   UNL A   1      49.092  27.070  32.768  1.00  0.00    -0.206 F 
ATOM     84  C   UNL A   1      51.318  26.299  32.563  1.00  0.00     0.059 A 
ATOM     85  C   UNL A   1      52.408  26.295  30.438  1.00  0.00     0.059 A 
ATOM     86  F   UNL A   1      51.309  26.950  28.554  1.00  0.00    -0.206 F 
ATOM     87  C   UNL A   1      52.451  26.029  31.789  1.00  0.00     0.060 A 
BRANCH  87  88
ATOM     88  S   UNL A   1      53.924  25.237  32.499  1.00  0.00     0.124 S 
ATOM     89  O   UNL A   1      54.085  25.941  33.768  1.00  0.00    -0.237 OA
ATOM     90  O   UNL A   1      53.492  23.846  32.605  1.00  0.00    -0.237 OA
ATOM     91  O   UNL A   1      54.972  25.486  31.515  1.00  0.00    -0.744 OA
ENDBRANCH  87  88
ENDBRANCH  55  80
BRANCH  67  92
ATOM     92  C   UNL A   1      43.851  24.487  28.919  1.00  0.00     0.058 A 
ATOM     93  C   UNL A   1      43.110  23.298  28.905  1.00  0.00     0.135 A 
ATOM     94  C   UNL A   1      43.277  25.564  28.198  1.00  0.00     0.135 A 
ATOM     95  F   UNL A   1      43.539  22.192  29.519  1.00  0.00    -0.206 F 
ATOM     96  C   UNL A   1      41.877  23.195  28.257  1.00  0.00     0.059 A 
ATOM     97  C   UNL A   1      42.041  25.491  27.574  1.00  0.00     0.059 A 
ATOM     98  F   UNL A   1      43.901  26.741  28.050  1.00  0.00    -0.206 F 
ATOM     99  C   UNL A   1      41.338  24.306  27.620  1.00  0.00     0.060 A 
BRANCH  99 100
ATOM    100  S   UNL A   1      39.708  24.217  26.877  1.00  0.00     0.124 S 
ATOM    101  O   UNL A   1      39.818  25.158  25.768  1.00  0.00    -0.237 OA
ATOM    102  O   UNL A   1      39.638  22.807  26.512  1.00  0.00    -0.237 OA
ATOM    103  O   UNL A   1      38.817  24.634  27.958  1.00  0.00    -0.744 OA
ENDBRANCH  99 100
ENDBRANCH  67  92
ENDBRANCH  41  42
ENDBRANCH  34  36
ENDBRANCH  33  34
ENDBRANCH  32  33
ENDBRANCH   1  32
TORSDOF 18
ENDMDL
MODEL 2
REMARK VINA RESULT:     -10.4      5.772     14.616
REMARK SMILES Cc1ccccc1-n1c(S[C@@H](C)C(=O)OCCOC(=O)c2ccc(-c3c4nc(c(-c5c(F)cc(S(=O)(=O)[O-])cc5F)c5ccc([nH]5)c(-c5c(F)cc(S(=O)(=O)[O-])cc5F)c5nc(c(-c6c(F)cc(S(=O)(=O)[O-])cc6F)c6ccc3[nH]6)C=C5)C=C4)cc2)nc2sc3c(c2c1=O)C[C@@H](C(C)C)OC3
REMARK SMILES IDX 16 1 15 2 13 3 14 4 11 5 12 6 10 7 9 8 8 9 93 10 87 11 92 12
REMARK SMILES IDX 94 13 88 14 91 15 89 16 90 17 95 18 101 19 96 20 100 21 7 22
REMARK SMILES IDX 1 23 2 24 3 25 4 26 6 27 5 28 97 29 98 30 99 31 17 32 18 33
REMARK SMILES IDX 19 34 20 35 21 36 22 37 86 38 23 39 85 40 24 41 25 42 26 43
REMARK SMILES IDX 79 44 27 45 84 46 78 47 80 48 28 49 83 50 77 51 76 52 29 54
REMARK SMILES IDX 63 55 42 56 62 57 43 58 46 59 61 60 81 61 44 62 45 63 60 65
REMARK SMILES IDX 82 66 47 67 30 68 31 69 40 70 32 71 33 72 39 73 41 74 34 75
REMARK SMILES IDX 35 76 36 77 37 78 38 79 64 80 65 81 74 82 66 83 67 84 73 85
REMARK SMILES IDX 75 86 68 87 69 88 70 89 71 90 72 91 48 92 49 93 58 94 50 95
REMARK SMILES IDX 51 96 57 97 59 98 52 99 53 100 54 101 55 102 56 103
REMARK H PARENT 80 53 46 64
REMARK Flexibility Score: inf
ROOT
ATOM      1  C   UNL A   1      50.886  23.749  33.186  1.00  0.00     0.274 C 
ENDROOT
BRANCH   1   2
ATOM      2  O   UNL A   1      50.992  22.295  33.105  1.00  0.00    -0.461 OA
BRANCH   2   3
ATOM      3  C   UNL A   1      50.148  21.379  33.616  1.00  0.00     0.319 C 
ATOM      4  O   UNL A   1      49.773  20.385  33.012  1.00  0.00    -0.251 OA
BRANCH   3   5
ATOM      5  C   UNL A   1      49.752  21.609  35.072  1.00  0.00     0.161 C 
ATOM      6  C   UNL A   1      50.932  21.928  36.013  1.00  0.00     0.032 C 
BRANCH   5   7
ATOM      7  S   UNL A   1      48.798  20.398  35.978  1.00  0.00    -0.072 SA
BRANCH   7   8
ATOM      8  C   UNL A   1      47.344  21.140  36.554  1.00  0.00     0.177 A 
ATOM      9  N   UNL A   1      47.098  21.559  37.905  1.00  0.00    -0.255 N 
ATOM     10  C   UNL A   1      46.037  22.490  38.075  1.00  0.00     0.267 A 
ATOM     11  N   UNL A   1      46.611  21.390  35.508  1.00  0.00    -0.212 NA
ATOM     12  C   UNL A   1      45.386  22.964  36.832  1.00  0.00     0.081 A 
ATOM     13  O   UNL A   1      45.667  22.946  39.151  1.00  0.00    -0.268 OA
ATOM     14  C   UNL A   1      45.655  22.307  35.664  1.00  0.00     0.132 A 
ATOM     15  C   UNL A   1      44.590  24.129  36.550  1.00  0.00    -0.014 A 
ATOM     16  S   UNL A   1      44.814  22.919  34.308  1.00  0.00    -0.117 S 
ATOM     17  C   UNL A   1      44.245  24.238  35.210  1.00  0.00     0.037 A 
ATOM     18  C   UNL A   1      44.227  25.239  37.472  1.00  0.00     0.070 C 
ATOM     19  C   UNL A   1      43.579  25.419  34.569  1.00  0.00     0.207 C 
ATOM     20  C   UNL A   1      44.083  26.558  36.671  1.00  0.00     0.125 C 
ATOM     21  O   UNL A   1      43.145  26.350  35.582  1.00  0.00    -0.372 OA
BRANCH   9  22
ATOM     22  C   UNL A   1      47.761  20.945  39.193  1.00  0.00     0.054 A 
ATOM     23  C   UNL A   1      49.461  22.950  39.870  1.00  0.00     0.046 C 
ATOM     24  C   UNL A   1      49.403  21.458  39.587  1.00  0.00    -0.027 A 
ATOM     25  C   UNL A   1      50.627  20.274  40.261  1.00  0.00     0.005 A 
ATOM     26  C   UNL A   1      49.963  18.397  40.683  1.00  0.00     0.000 A 
ATOM     27  C   UNL A   1      47.192  19.323  39.672  1.00  0.00     0.027 A 
ATOM     28  C   UNL A   1      48.221  18.052  40.373  1.00  0.00     0.002 A 
ENDBRANCH   9  22
BRANCH  20  29
ATOM     29  C   UNL A   1      45.405  27.204  36.164  1.00  0.00     0.012 C 
ATOM     30  C   UNL A   1      45.262  28.731  36.134  1.00  0.00     0.010 C 
ATOM     31  C   UNL A   1      46.623  26.816  37.002  1.00  0.00     0.010 C 
ENDBRANCH  20  29
ENDBRANCH   7   8
ENDBRANCH   5   7
ENDBRANCH   3   5
ENDBRANCH   2   3
ENDBRANCH   1   2
BRANCH   1  32
ATOM     32  C   UNL A   1      49.716  24.458  32.492  1.00  0.00     0.275 C 
BRANCH  32  33
ATOM     33  O   UNL A   1      50.096  24.765  31.146  1.00  0.00    -0.458 OA
BRANCH  33  34
ATOM     34  C   UNL A   1      49.323  25.602  30.414  1.00  0.00     0.338 C 
ATOM     35  O   UNL A   1      49.447  25.891  29.241  1.00  0.00    -0.246 OA
BRANCH  34  36
ATOM     36  C   UNL A   1      48.347  26.183  31.373  1.00  0.00     0.060 A 
ATOM     37  C   UNL A   1      46.679  25.709  31.323  1.00  0.00     0.016 A 
ATOM     38  C   UNL A   1      48.752  27.788  32.029  1.00  0.00     0.016 A 
ATOM     39  C   UNL A   1      45.335  26.764  31.800  1.00  0.00     0.010 A 
ATOM     40  C   UNL A   1      47.257  29.049  32.587  1.00  0.00     0.010 A 
ATOM     41  C   UNL A   1      45.521  28.425  32.381  1.00  0.00    -0.014 A 
BRANCH  41  42
ATOM     42  C   UNL A   1      44.153  29.069  32.856  1.00  0.00     0.031 A 
ATOM     43  C   UNL A   1      44.350  30.498  32.442  1.00  0.00     0.074 A 
ATOM     44  C   UNL A   1      42.755  28.766  32.875  1.00  0.00     0.049 A 
ATOM     45  N   UNL A   1      44.247  30.634  31.172  1.00  0.00    -0.248 NA
ATOM     46  C   UNL A   1      45.029  31.664  32.992  1.00  0.00     0.031 C 
ATOM     47  C   UNL A   1      41.788  29.529  33.719  1.00  0.00     0.029 A 
ATOM     48  N   UNL A   1      41.781  27.902  32.218  1.00  0.00    -0.354 N 
ATOM     49  C   UNL A   1      44.378  31.917  30.775  1.00  0.00     0.074 A 
ATOM     50  C   UNL A   1      45.059  32.500  31.913  1.00  0.00     0.031 C 
ATOM     51  C   UNL A   1      40.502  29.364  33.311  1.00  0.00     0.029 A 
ATOM     52  C   UNL A   1      40.446  28.505  32.131  1.00  0.00     0.049 A 
ATOM     53  H   UNL A   1      41.997  27.008  31.869  1.00  0.00     0.167 HD
ATOM     54  C   UNL A   1      43.781  32.196  29.572  1.00  0.00     0.037 A 
ATOM     55  C   UNL A   1      39.398  28.516  31.193  1.00  0.00     0.037 A 
ATOM     56  C   UNL A   1      42.987  31.051  29.112  1.00  0.00     0.049 A 
ATOM     57  C   UNL A   1      39.666  27.811  29.886  1.00  0.00     0.074 A 
ATOM     58  C   UNL A   1      42.149  30.325  29.933  1.00  0.00     0.029 A 
ATOM     59  N   UNL A   1      43.044  30.278  27.943  1.00  0.00    -0.354 N 
ATOM     60  N   UNL A   1      40.254  28.435  28.920  1.00  0.00    -0.248 NA
ATOM     61  C   UNL A   1      39.280  26.471  29.448  1.00  0.00     0.031 C 
ATOM     62  C   UNL A   1      42.694  29.074  29.667  1.00  0.00     0.029 A 
ATOM     63  C   UNL A   1      42.593  29.009  28.308  1.00  0.00     0.049 A 
ATOM     64  H   UNL A   1      43.339  30.571  27.050  1.00  0.00     0.167 HD
ATOM     65  C   UNL A   1      40.856  27.507  28.109  1.00  0.00     0.074 A 
ATOM     66  C   UNL A   1      40.008  26.347  28.312  1.00  0.00     0.031 C 
ATOM     67  C   UNL A   1      42.126  27.802  27.637  1.00  0.00     0.037 A 
BRANCH  54  68
ATOM     68  C   UNL A   1      43.536  33.508  28.960  1.00  0.00     0.058 A 
ATOM     69  C   UNL A   1      44.617  34.101  28.271  1.00  0.00     0.135 A 
ATOM     70  C   UNL A   1      42.378  34.260  29.130  1.00  0.00     0.135 A 
ATOM     71  F   UNL A   1      45.730  33.408  27.984  1.00  0.00    -0.206 F 
ATOM     72  C   UNL A   1      44.604  35.418  27.873  1.00  0.00     0.059 A 
ATOM     73  C   UNL A   1      42.328  35.588  28.701  1.00  0.00     0.059 A 
ATOM     74  F   UNL A   1      41.303  33.738  29.742  1.00  0.00    -0.206 F 
ATOM     75  C   UNL A   1      43.460  36.162  28.109  1.00  0.00     0.060 A 
BRANCH  75  76
ATOM     76  S   UNL A   1      43.506  37.893  27.629  1.00  0.00     0.124 S 
ATOM     77  O   UNL A   1      43.432  38.566  28.922  1.00  0.00    -0.237 OA
ATOM     78  O   UNL A   1      44.782  37.986  26.929  1.00  0.00    -0.237 OA
ATOM     79  O   UNL A   1      42.324  38.036  26.784  1.00  0.00    -0.744 OA
ENDBRANCH  75  76
ENDBRANCH  54  68
BRANCH  55  80
ATOM     80  C   UNL A   1      38.334  29.664  31.006  1.00  0.00     0.058 A 
ATOM     81  C   UNL A   1      38.427  30.776  30.147  1.00  0.00     0.135 A 
ATOM     82  C   UNL A   1      37.201  29.728  31.867  1.00  0.00     0.135 A 
ATOM     83  F   UNL A   1      39.509  30.934  29.367  1.00  0.00    -0.206 F 
ATOM     84  C   UNL A   1      37.423  31.790  30.081  1.00  0.00     0.059 A 
ATOM     85  C   UNL A   1      36.214  30.722  31.841  1.00  0.00     0.059 A 
ATOM     86  F   UNL A   1      36.994  28.816  32.813  1.00  0.00    -0.206 F 
ATOM     87  C   UNL A   1      36.299  31.733  30.910  1.00  0.00     0.060 A 
BRANCH  87  88
ATOM     88  S   UNL A   1      34.908  32.886  30.710  1.00  0.00     0.124 S 
ATOM     89  O   UNL A   1      35.567  34.188  30.733  1.00  0.00    -0.237 OA
ATOM     90  O   UNL A   1      34.369  32.479  29.415  1.00  0.00    -0.237 OA
ATOM     91  O   UNL A   1      34.047  32.606  31.854  1.00  0.00    -0.744 OA
ENDBRANCH  87  88
ENDBRANCH  55  80
BRANCH  67  92
ATOM     92  C   UNL A   1      43.142  26.845  27.083  1.00  0.00     0.058 A 
ATOM     93  C   UNL A   1      43.868  25.901  27.820  1.00  0.00     0.135 A 
ATOM     94  C   UNL A   1      43.446  26.896  25.700  1.00  0.00     0.135 A 
ATOM     95  F   UNL A   1      43.706  25.758  29.138  1.00  0.00    -0.206 F 
ATOM     96  C   UNL A   1      44.799  25.046  27.225  1.00  0.00     0.059 A 
ATOM     97  C   UNL A   1      44.344  26.037  25.085  1.00  0.00     0.059 A 
ATOM     98  F   UNL A   1      42.895  27.800  24.878  1.00  0.00    -0.206 F 
ATOM     99  C   UNL A   1      45.007  25.103  25.852  1.00  0.00     0.060 A 
BRANCH  99 100
ATOM    100  S   UNL A   1      46.119  23.939  25.060  1.00  0.00     0.124 S 
ATOM    101  O   UNL A   1      45.281  23.373  24.008  1.00  0.00    -0.237 OA
ATOM    102  O   UNL A   1      47.189  24.825  24.615  1.00  0.00    -0.237 OA
ATOM    103  O   UNL A   1      46.470  23.016  26.137  1.00  0.00    -0.744 OA
ENDBRANCH  99 100
ENDBRANCH  67  92
ENDBRANCH  41  42
ENDBRANCH  34  36
ENDBRANCH  33  34
ENDBRANCH  32  33
ENDBRANCH   1  32
TORSDOF 18
ENDMDL
MODEL 3
REMARK VINA RESULT:     -10.4      3.990      7.419
REMARK SMILES Cc1ccccc1-n1c(S[C@@H](C)C(=O)OCCOC(=O)c2ccc(-c3c4nc(c(-c5c(F)cc(S(=O)(=O)[O-])cc5F)c5ccc([nH]5)c(-c5c(F)cc(S(=O)(=O)[O-])cc5F)c5nc(c(-c6c(F)cc(S(=O)(=O)[O-])cc6F)c6ccc3[nH]6)C=C5)C=C4)cc2)nc2sc3c(c2c1=O)C[C@@H](C(C)C)OC3
REMARK SMILES IDX 16 1 15 2 13 3 14 4 11 5 12 6 10 7 9 8 8 9 93 10 87 11 92 12
REMARK SMILES IDX 94 13 88 14 91 15 89 16 90 17 95 18 101 19 96 20 100 21 7 22
REMARK SMILES IDX 1 23 2 24 3 25 4 26 6 27 5 28 97 29 98 30 99 31 17 32 18 33
REMARK SMILES IDX 19 34 20 35 21 36 22 37 86 38 23 39 85 40 24 41 25 42 26 43
REMARK SMILES IDX 79 44 27 45 84 46 78 47 80 48 28 49 83 50 77 51 76 52 29 54
REMARK SMILES IDX 63 55 42 56 62 57 43 58 46 59 61 60 81 61 44 62 45 63 60 65
REMARK SMILES IDX 82 66 47 67 30 68 31 69 40 70 32 71 33 72 39 73 41 74 34 75
REMARK SMILES IDX 35 76 36 77 37 78 38 79 64 80 65 81 74 82 66 83 67 84 73 85
REMARK SMILES IDX 75 86 68 87 69 88 70 89 71 90 72 91 48 92 49 93 58 94 50 95
REMARK SMILES IDX 51 96 57 97 59 98 52 99 53 100 54 101 55 102 56 103
REMARK H PARENT 80 53 46 64
REMARK Flexibility Score: inf
ROOT
ATOM      1  C   UNL A   1      33.324  31.735  27.552  1.00  0.00     0.274 C 
ENDROOT
BRANCH   1   2
ATOM      2  O   UNL A   1      33.698  30.375  27.175  1.00  0.00    -0.461 OA
BRANCH   2   3
ATOM      3  C   UNL A   1      33.142  29.604  26.221  1.00  0.00     0.319 C 
ATOM      4  O   UNL A   1      32.965  29.969  25.068  1.00  0.00    -0.251 OA
BRANCH   3   5
ATOM      5  C   UNL A   1      32.829  28.173  26.650  1.00  0.00     0.161 C 
ATOM      6  C   UNL A   1      33.581  27.088  25.853  1.00  0.00     0.032 C 
BRANCH   5   7
ATOM      7  S   UNL A   1      31.147  27.569  26.713  1.00  0.00    -0.072 SA
BRANCH   7   8
ATOM      8  C   UNL A   1      31.084  25.995  25.996  1.00  0.00     0.177 A 
ATOM      9  N   UNL A   1      30.922  25.720  24.597  1.00  0.00    -0.255 N 
ATOM     10  C   UNL A   1      31.297  24.413  24.180  1.00  0.00     0.267 A 
ATOM     11  N   UNL A   1      31.378  25.144  26.936  1.00  0.00    -0.212 NA
ATOM     12  C   UNL A   1      31.881  23.543  25.228  1.00  0.00     0.081 A 
ATOM     13  O   UNL A   1      31.213  23.988  23.034  1.00  0.00    -0.268 OA
ATOM     14  C   UNL A   1      31.783  23.938  26.532  1.00  0.00     0.132 A 
ATOM     15  C   UNL A   1      32.704  22.366  25.148  1.00  0.00    -0.014 A 
ATOM     16  S   UNL A   1      32.455  22.834  27.650  1.00  0.00    -0.117 S 
ATOM     17  C   UNL A   1      33.110  21.903  26.392  1.00  0.00     0.037 A 
ATOM     18  C   UNL A   1      33.244  21.703  23.930  1.00  0.00     0.070 C 
ATOM     19  C   UNL A   1      34.110  20.813  26.639  1.00  0.00     0.207 C 
ATOM     20  C   UNL A   1      34.605  21.037  24.257  1.00  0.00     0.125 C 
ATOM     21  O   UNL A   1      34.438  20.155  25.397  1.00  0.00    -0.372 OA
BRANCH   9  22
ATOM     22  C   UNL A   1      30.206  26.655  23.552  1.00  0.00     0.054 A 
ATOM     23  C   UNL A   1      32.342  27.493  22.102  1.00  0.00     0.046 C 
ATOM     24  C   UNL A   1      31.139  27.995  22.884  1.00  0.00    -0.027 A 
ATOM     25  C   UNL A   1      30.362  29.623  22.570  1.00  0.00     0.005 A 
ATOM     26  C   UNL A   1      28.355  29.764  22.870  1.00  0.00     0.000 A 
ATOM     27  C   UNL A   1      28.433  26.788  23.705  1.00  0.00     0.027 A 
ATOM     28  C   UNL A   1      27.498  28.273  23.409  1.00  0.00     0.002 A 
ENDBRANCH   9  22
BRANCH  20  29
ATOM     29  C   UNL A   1      35.811  22.000  24.457  1.00  0.00     0.012 C 
ATOM     30  C   UNL A   1      37.094  21.190  24.685  1.00  0.00     0.010 C 
ATOM     31  C   UNL A   1      36.012  22.963  23.286  1.00  0.00     0.010 C 
ENDBRANCH  20  29
ENDBRANCH   7   8
ENDBRANCH   5   7
ENDBRANCH   3   5
ENDBRANCH   2   3
ENDBRANCH   1   2
BRANCH   1  32
ATOM     32  C   UNL A   1      34.238  32.534  28.490  1.00  0.00     0.275 C 
BRANCH  32  33
ATOM     33  O   UNL A   1      34.817  31.637  29.445  1.00  0.00    -0.458 OA
BRANCH  33  34
ATOM     34  C   UNL A   1      36.046  31.905  29.946  1.00  0.00     0.338 C 
ATOM     35  O   UNL A   1      36.441  32.948  30.424  1.00  0.00    -0.246 OA
BRANCH  34  36
ATOM     36  C   UNL A   1      36.852  30.681  29.693  1.00  0.00     0.060 A 
ATOM     37  C   UNL A   1      37.968  30.103  30.888  1.00  0.00     0.016 A 
ATOM     38  C   UNL A   1      37.159  30.284  27.985  1.00  0.00     0.016 A 
ATOM     39  C   UNL A   1      39.456  29.215  30.507  1.00  0.00     0.010 A 
ATOM     40  C   UNL A   1      38.851  29.275  27.480  1.00  0.00     0.010 A 
ATOM     41  C   UNL A   1      39.991  28.811  28.869  1.00  0.00    -0.014 A 
BRANCH  41  42
ATOM     42  C   UNL A   1      41.288  27.899  28.851  1.00  0.00     0.031 A 
ATOM     43  C   UNL A   1      42.118  28.603  27.819  1.00  0.00     0.074 A 
ATOM     44  C   UNL A   1      42.145  27.207  29.764  1.00  0.00     0.049 A 
ATOM     45  N   UNL A   1      42.605  29.696  28.278  1.00  0.00    -0.248 NA
ATOM     46  C   UNL A   1      42.181  28.629  26.364  1.00  0.00     0.031 C 
ATOM     47  C   UNL A   1      43.118  26.171  29.308  1.00  0.00     0.029 A 
ATOM     48  N   UNL A   1      42.516  27.197  31.174  1.00  0.00    -0.354 N 
ATOM     49  C   UNL A   1      43.392  30.330  27.384  1.00  0.00     0.074 A 
ATOM     50  C   UNL A   1      42.946  29.738  26.140  1.00  0.00     0.031 C 
ATOM     51  C   UNL A   1      44.086  25.928  30.231  1.00  0.00     0.029 A 
ATOM     52  C   UNL A   1      43.906  26.786  31.399  1.00  0.00     0.049 A 
ATOM     53  H   UNL A   1      41.897  27.442  31.899  1.00  0.00     0.167 HD
ATOM     54  C   UNL A   1      44.318  31.170  27.948  1.00  0.00     0.037 A 
ATOM     55  C   UNL A   1      44.939  27.146  32.284  1.00  0.00     0.037 A 
ATOM     56  C   UNL A   1      44.331  31.018  29.408  1.00  0.00     0.049 A 
ATOM     57  C   UNL A   1      44.642  28.288  33.226  1.00  0.00     0.074 A 
ATOM     58  C   UNL A   1      44.306  29.795  30.047  1.00  0.00     0.029 A 
ATOM     59  N   UNL A   1      44.118  31.933  30.449  1.00  0.00    -0.354 N 
ATOM     60  N   UNL A   1      44.831  29.508  32.846  1.00  0.00    -0.248 NA
ATOM     61  C   UNL A   1      44.226  28.263  34.626  1.00  0.00     0.031 C 
ATOM     62  C   UNL A   1      43.202  30.050  30.853  1.00  0.00     0.029 A 
ATOM     63  C   UNL A   1      43.586  31.187  31.502  1.00  0.00     0.049 A 
ATOM     64  H   UNL A   1      44.305  32.900  30.439  1.00  0.00     0.167 HD
ATOM     65  C   UNL A   1      44.021  30.323  33.594  1.00  0.00     0.074 A 
ATOM     66  C   UNL A   1      43.896  29.563  34.823  1.00  0.00     0.031 C 
ATOM     67  C   UNL A   1      43.372  31.354  32.934  1.00  0.00     0.037 A 
BRANCH  54  68
ATOM     68  C   UNL A   1      45.460  31.830  27.303  1.00  0.00     0.058 A 
ATOM     69  C   UNL A   1      46.683  31.123  27.296  1.00  0.00     0.135 A 
ATOM     70  C   UNL A   1      45.461  33.139  26.834  1.00  0.00     0.135 A 
ATOM     71  F   UNL A   1      46.746  29.827  27.642  1.00  0.00    -0.206 F 
ATOM     72  C   UNL A   1      47.877  31.716  26.956  1.00  0.00     0.059 A 
ATOM     73  C   UNL A   1      46.655  33.752  26.447  1.00  0.00     0.059 A 
ATOM     74  F   UNL A   1      44.322  33.849  26.779  1.00  0.00    -0.206 F 
ATOM     75  C   UNL A   1      47.857  33.041  26.550  1.00  0.00     0.060 A 
BRANCH  75  76
ATOM     76  S   UNL A   1      49.442  33.796  26.172  1.00  0.00     0.124 S 
ATOM     77  O   UNL A   1      50.266  32.630  25.870  1.00  0.00    -0.237 OA
ATOM     78  O   UNL A   1      49.113  34.660  25.044  1.00  0.00    -0.237 OA
ATOM     79  O   UNL A   1      49.782  34.495  27.409  1.00  0.00    -0.744 OA
ENDBRANCH  75  76
ENDBRANCH  54  68
BRANCH  55  80
ATOM     80  C   UNL A   1      46.484  27.040  31.996  1.00  0.00     0.058 A 
ATOM     81  C   UNL A   1      47.171  27.514  30.862  1.00  0.00     0.135 A 
ATOM     82  C   UNL A   1      47.316  26.269  32.859  1.00  0.00     0.135 A 
ATOM     83  F   UNL A   1      46.499  28.143  29.884  1.00  0.00    -0.206 F 
ATOM     84  C   UNL A   1      48.575  27.330  30.673  1.00  0.00     0.059 A 
ATOM     85  C   UNL A   1      48.689  26.051  32.686  1.00  0.00     0.059 A 
ATOM     86  F   UNL A   1      46.825  25.658  33.934  1.00  0.00    -0.206 F 
ATOM     87  C   UNL A   1      49.333  26.626  31.614  1.00  0.00     0.060 A 
BRANCH  87  88
ATOM     88  S   UNL A   1      51.146  26.550  31.511  1.00  0.00     0.124 S 
ATOM     89  O   UNL A   1      51.392  26.712  30.082  1.00  0.00    -0.237 OA
ATOM     90  O   UNL A   1      51.538  27.683  32.347  1.00  0.00    -0.237 OA
ATOM     91  O   UNL A   1      51.478  25.237  32.053  1.00  0.00    -0.744 OA
ENDBRANCH  87  88
ENDBRANCH  55  80
BRANCH  67  92
ATOM     92  C   UNL A   1      42.168  32.123  33.398  1.00  0.00     0.058 A 
ATOM     93  C   UNL A   1      40.897  31.590  33.645  1.00  0.00     0.135 A 
ATOM     94  C   UNL A   1      42.281  33.525  33.580  1.00  0.00     0.135 A 
ATOM     95  F   UNL A   1      40.636  30.289  33.490  1.00  0.00    -0.206 F 
ATOM     96  C   UNL A   1      39.828  32.378  34.075  1.00  0.00     0.059 A 
ATOM     97  C   UNL A   1      41.240  34.320  34.035  1.00  0.00     0.059 A 
ATOM     98  F   UNL A   1      43.409  34.195  33.306  1.00  0.00    -0.206 F 
ATOM     99  C   UNL A   1      40.018  33.737  34.296  1.00  0.00     0.060 A 
BRANCH  99 100
ATOM    100  S   UNL A   1      38.683  34.740  34.950  1.00  0.00     0.124 S 
ATOM    101  O   UNL A   1      38.134  33.885  35.997  1.00  0.00    -0.237 OA
ATOM    102  O   UNL A   1      39.410  35.920  35.407  1.00  0.00    -0.237 OA
ATOM    103  O   UNL A   1      37.812  34.945  33.796  1.00  0.00    -0.744 OA
ENDBRANCH  99 100
ENDBRANCH  67  92
ENDBRANCH  41  42
ENDBRANCH  34  36
ENDBRANCH  33  34
ENDBRANCH  32  33
ENDBRANCH   1  32
TORSDOF 18
ENDMDL
