MODEL 1
REMARK VINA RESULT:     -11.6      0.000      0.000
REMARK SMILES CC(=O)c1c[nH]c(C(=O)N[C@H]2C=C[C@H](C(=O)OCCOC(=O)c3ccc(-c4c5nc(c(-c6c(F)cc(S(=O)(=O)[O-])cc6F)c6ccc([nH]6)c(-c6c(F)cc(S(=O)(=O)[O-])cc6F)c6nc(c(-c7c(F)cc(S(=O)(=O)[O-])cc7F)c7ccc4[nH]7)C=C6)C=C5)cc3)C2)c1
REMARK SMILES IDX 18 1 17 2 15 3 16 4 14 5 11 6 12 7 89 8 13 9 10 10 8 11 9 12
REMARK SMILES IDX 7 14 4 15 5 16 90 17 6 18 2 20 1 21 3 22 19 23 20 24 21 25
REMARK SMILES IDX 22 26 23 27 24 28 88 29 25 30 87 31 26 32 27 33 28 34 81 35
REMARK SMILES IDX 29 36 86 37 80 38 82 39 30 40 85 41 79 42 78 43 31 45 65 46
REMARK SMILES IDX 44 47 64 48 45 49 48 50 63 51 83 52 46 53 47 54 62 56 84 57
REMARK SMILES IDX 49 58 32 59 33 60 42 61 34 62 35 63 41 64 43 65 36 66 37 67
REMARK SMILES IDX 38 68 39 69 40 70 66 71 67 72 76 73 68 74 69 75 75 76 77 77
REMARK SMILES IDX 70 78 71 79 72 80 73 81 74 82 50 83 51 84 60 85 52 86 53 87
REMARK SMILES IDX 59 88 61 89 54 90 55 91 56 92 57 93 58 94
REMARK H PARENT 10 13 6 19 82 44 48 55
REMARK Flexibility Score: inf
ROOT
ATOM      1  C   UNL A   1      33.456  31.514  27.586  1.00  0.00     0.274 C 
ENDROOT
BRANCH   1   2
ATOM      2  O   UNL A   1      32.813  30.266  27.243  1.00  0.00    -0.462 OA
BRANCH   2   3
ATOM      3  C   UNL A   1      32.054  30.307  26.115  1.00  0.00     0.312 C 
ATOM      4  O   UNL A   1      31.199  31.165  25.906  1.00  0.00    -0.252 OA
BRANCH   3   5
ATOM      5  C   UNL A   1      32.288  29.130  25.167  1.00  0.00     0.124 C 
ATOM      6  C   UNL A   1      32.466  28.906  22.704  1.00  0.00     0.106 C 
ATOM      7  C   UNL A   1      31.087  28.653  23.175  1.00  0.00    -0.006 C 
ATOM      8  C   UNL A   1      33.260  29.261  23.978  1.00  0.00     0.048 C 
ATOM      9  C   UNL A   1      30.981  28.783  24.502  1.00  0.00    -0.014 C 
BRANCH   6  10
ATOM     10  N   UNL A   1      32.934  27.791  21.892  1.00  0.00    -0.345 N 
ATOM     11  C   UNL A   1      33.190  26.460  22.116  1.00  0.00     0.268 C 
ATOM     12  O   UNL A   1      33.734  25.826  21.223  1.00  0.00    -0.268 OA
ATOM     13  H   UNL A   1      33.109  28.054  20.960  1.00  0.00     0.164 HD
BRANCH  11  14
ATOM     14  C   UNL A   1      32.942  25.868  23.408  1.00  0.00     0.105 A 
ATOM     15  C   UNL A   1      32.030  25.157  25.351  1.00  0.00     0.035 A 
ATOM     16  C   UNL A   1      33.341  25.522  25.589  1.00  0.00     0.094 A 
ATOM     17  C   UNL A   1      31.876  25.166  23.936  1.00  0.00     0.045 A 
ATOM     18  N   UNL A   1      33.912  25.842  24.385  1.00  0.00    -0.356 N 
ATOM     19  H   UNL A   1      34.868  26.024  24.240  1.00  0.00     0.166 HD
BRANCH  15  20
ATOM     20  C   UNL A   1      30.985  24.892  26.338  1.00  0.00     0.161 C 
ATOM     21  C   UNL A   1      29.637  25.533  26.116  1.00  0.00     0.093 C 
ATOM     22  O   UNL A   1      31.163  24.114  27.274  1.00  0.00    -0.294 OA
ENDBRANCH  15  20
ENDBRANCH  11  14
ENDBRANCH   6  10
ENDBRANCH   3   5
ENDBRANCH   2   3
ENDBRANCH   1   2
BRANCH   1  23
ATOM     23  C   UNL A   1      34.737  31.340  28.412  1.00  0.00     0.275 C 
BRANCH  23  24
ATOM     24  O   UNL A   1      35.941  31.268  27.637  1.00  0.00    -0.458 OA
BRANCH  24  25
ATOM     25  C   UNL A   1      36.403  30.007  27.527  1.00  0.00     0.338 C 
ATOM     26  O   UNL A   1      35.861  29.067  26.960  1.00  0.00    -0.246 OA
BRANCH  25  27
ATOM     27  C   UNL A   1      37.601  29.766  28.312  1.00  0.00     0.060 A 
ATOM     28  C   UNL A   1      38.808  29.760  27.610  1.00  0.00     0.016 A 
ATOM     29  C   UNL A   1      37.450  29.103  29.528  1.00  0.00     0.016 A 
ATOM     30  C   UNL A   1      39.831  28.943  28.030  1.00  0.00     0.010 A 
ATOM     31  C   UNL A   1      38.489  28.305  29.974  1.00  0.00     0.010 A 
ATOM     32  C   UNL A   1      39.654  28.197  29.197  1.00  0.00    -0.014 A 
BRANCH  32  33
ATOM     33  C   UNL A   1      40.828  27.483  29.715  1.00  0.00     0.031 A 
ATOM     34  C   UNL A   1      41.017  26.157  28.965  1.00  0.00     0.074 A 
ATOM     35  C   UNL A   1      41.512  28.081  30.736  1.00  0.00     0.049 A 
ATOM     36  N   UNL A   1      41.671  25.091  29.307  1.00  0.00    -0.248 NA
ATOM     37  C   UNL A   1      40.292  25.947  27.673  1.00  0.00     0.031 C 
ATOM     38  C   UNL A   1      41.124  29.356  31.380  1.00  0.00     0.029 A 
ATOM     39  N   UNL A   1      42.655  27.758  31.437  1.00  0.00    -0.354 N 
ATOM     40  C   UNL A   1      41.664  24.235  28.185  1.00  0.00     0.074 A 
ATOM     41  C   UNL A   1      40.660  24.723  27.296  1.00  0.00     0.031 C 
ATOM     42  C   UNL A   1      41.966  29.660  32.394  1.00  0.00     0.029 A 
ATOM     43  C   UNL A   1      43.006  28.654  32.483  1.00  0.00     0.049 A 
ATOM     44  H   UNL A   1      43.192  26.960  31.227  1.00  0.00     0.167 HD
ATOM     45  C   UNL A   1      42.625  23.296  27.960  1.00  0.00     0.037 A 
ATOM     46  C   UNL A   1      44.057  28.585  33.359  1.00  0.00     0.037 A 
ATOM     47  C   UNL A   1      43.556  23.288  29.038  1.00  0.00     0.049 A 
ATOM     48  C   UNL A   1      44.934  27.529  32.832  1.00  0.00     0.074 A 
ATOM     49  C   UNL A   1      43.451  22.885  30.342  1.00  0.00     0.029 A 
ATOM     50  N   UNL A   1      44.667  24.087  28.895  1.00  0.00    -0.354 N 
ATOM     51  N   UNL A   1      45.638  27.633  31.744  1.00  0.00    -0.248 NA
ATOM     52  C   UNL A   1      45.002  26.240  33.530  1.00  0.00     0.031 C 
ATOM     53  C   UNL A   1      44.259  23.803  31.041  1.00  0.00     0.029 A 
ATOM     54  C   UNL A   1      44.960  24.606  30.132  1.00  0.00     0.049 A 
ATOM     55  H   UNL A   1      45.162  24.254  28.061  1.00  0.00     0.167 HD
ATOM     56  C   UNL A   1      45.932  26.325  31.453  1.00  0.00     0.074 A 
ATOM     57  C   UNL A   1      45.805  25.587  32.693  1.00  0.00     0.031 C 
ATOM     58  C   UNL A   1      45.679  25.862  30.202  1.00  0.00     0.037 A 
BRANCH  45  59
ATOM     59  C   UNL A   1      43.010  22.549  26.715  1.00  0.00     0.058 A 
ATOM     60  C   UNL A   1      42.515  21.230  26.571  1.00  0.00     0.135 A 
ATOM     61  C   UNL A   1      44.087  22.902  25.889  1.00  0.00     0.135 A 
ATOM     62  F   UNL A   1      41.442  20.819  27.269  1.00  0.00    -0.206 F 
ATOM     63  C   UNL A   1      43.155  20.275  25.791  1.00  0.00     0.059 A 
ATOM     64  C   UNL A   1      44.714  21.971  25.058  1.00  0.00     0.059 A 
ATOM     65  F   UNL A   1      44.627  24.127  25.928  1.00  0.00    -0.206 F 
ATOM     66  C   UNL A   1      44.284  20.647  25.073  1.00  0.00     0.060 A 
BRANCH  66  67
ATOM     67  S   UNL A   1      45.215  19.365  24.213  1.00  0.00     0.124 S 
ATOM     68  O   UNL A   1      44.887  18.185  25.005  1.00  0.00    -0.237 OA
ATOM     69  O   UNL A   1      44.640  19.407  22.872  1.00  0.00    -0.237 OA
ATOM     70  O   UNL A   1      46.594  19.833  24.309  1.00  0.00    -0.744 OA
ENDBRANCH  66  67
ENDBRANCH  45  59
BRANCH  46  71
ATOM     71  C   UNL A   1      44.507  29.217  34.664  1.00  0.00     0.058 A 
ATOM     72  C   UNL A   1      44.066  28.866  35.945  1.00  0.00     0.135 A 
ATOM     73  C   UNL A   1      45.625  30.104  34.656  1.00  0.00     0.135 A 
ATOM     74  F   UNL A   1      42.961  28.134  36.122  1.00  0.00    -0.206 F 
ATOM     75  C   UNL A   1      44.773  29.224  37.108  1.00  0.00     0.059 A 
ATOM     76  C   UNL A   1      46.378  30.417  35.784  1.00  0.00     0.059 A 
ATOM     77  F   UNL A   1      46.077  30.661  33.523  1.00  0.00    -0.206 F 
ATOM     78  C   UNL A   1      45.965  29.940  37.011  1.00  0.00     0.060 A 
BRANCH  78  79
ATOM     79  S   UNL A   1      47.063  30.123  38.435  1.00  0.00     0.124 S 
ATOM     80  O   UNL A   1      47.933  31.213  38.010  1.00  0.00    -0.237 OA
ATOM     81  O   UNL A   1      46.134  30.436  39.517  1.00  0.00    -0.237 OA
ATOM     82  O   UNL A   1      47.694  28.809  38.532  1.00  0.00    -0.744 OA
ENDBRANCH  78  79
ENDBRANCH  46  71
BRANCH  58  83
ATOM     83  C   UNL A   1      45.785  26.917  29.109  1.00  0.00     0.058 A 
ATOM     84  C   UNL A   1      47.017  27.542  28.843  1.00  0.00     0.135 A 
ATOM     85  C   UNL A   1      44.690  27.410  28.381  1.00  0.00     0.135 A 
ATOM     86  F   UNL A   1      48.126  27.130  29.477  1.00  0.00    -0.206 F 
ATOM     87  C   UNL A   1      47.145  28.595  27.929  1.00  0.00     0.059 A 
ATOM     88  C   UNL A   1      44.786  28.457  27.458  1.00  0.00     0.059 A 
ATOM     89  F   UNL A   1      43.479  26.882  28.546  1.00  0.00    -0.206 F 
ATOM     90  C   UNL A   1      46.021  29.051  27.240  1.00  0.00     0.060 A 
BRANCH  90  91
ATOM     91  S   UNL A   1      46.197  30.408  26.059  1.00  0.00     0.124 S 
ATOM     92  O   UNL A   1      44.912  31.091  26.170  1.00  0.00    -0.237 OA
ATOM     93  O   UNL A   1      47.345  31.133  26.593  1.00  0.00    -0.237 OA
ATOM     94  O   UNL A   1      46.427  29.730  24.783  1.00  0.00    -0.744 OA
ENDBRANCH  90  91
ENDBRANCH  58  83
ENDBRANCH  32  33
ENDBRANCH  25  27
ENDBRANCH  24  25
ENDBRANCH  23  24
ENDBRANCH   1  23
TORSDOF 17
ENDMDL
MODEL 2
REMARK VINA RESULT:     -11.5      4.176      9.143
REMARK SMILES CC(=O)c1c[nH]c(C(=O)N[C@H]2C=C[C@H](C(=O)OCCOC(=O)c3ccc(-c4c5nc(c(-c6c(F)cc(S(=O)(=O)[O-])cc6F)c6ccc([nH]6)c(-c6c(F)cc(S(=O)(=O)[O-])cc6F)c6nc(c(-c7c(F)cc(S(=O)(=O)[O-])cc7F)c7ccc4[nH]7)C=C6)C=C5)cc3)C2)c1
REMARK SMILES IDX 18 1 17 2 15 3 16 4 14 5 11 6 12 7 89 8 13 9 10 10 8 11 9 12
REMARK SMILES IDX 7 14 4 15 5 16 90 17 6 18 2 20 1 21 3 22 19 23 20 24 21 25
REMARK SMILES IDX 22 26 23 27 24 28 88 29 25 30 87 31 26 32 27 33 28 34 81 35
REMARK SMILES IDX 29 36 86 37 80 38 82 39 30 40 85 41 79 42 78 43 31 45 65 46
REMARK SMILES IDX 44 47 64 48 45 49 48 50 63 51 83 52 46 53 47 54 62 56 84 57
REMARK SMILES IDX 49 58 32 59 33 60 42 61 34 62 35 63 41 64 43 65 36 66 37 67
REMARK SMILES IDX 38 68 39 69 40 70 66 71 67 72 76 73 68 74 69 75 75 76 77 77
REMARK SMILES IDX 70 78 71 79 72 80 73 81 74 82 50 83 51 84 60 85 52 86 53 87
REMARK SMILES IDX 59 88 61 89 54 90 55 91 56 92 57 93 58 94
REMARK H PARENT 10 13 6 19 82 44 48 55
REMARK Flexibility Score: inf
ROOT
ATOM      1  C   UNL A   1      39.131  21.034  25.744  1.00  0.00     0.274 C 
ENDROOT
BRANCH   1   2
ATOM      2  O   UNL A   1      37.894  21.276  25.038  1.00  0.00    -0.462 OA
BRANCH   2   3
ATOM      3  C   UNL A   1      37.262  22.433  25.375  1.00  0.00     0.312 C 
ATOM      4  O   UNL A   1      37.841  23.405  25.855  1.00  0.00    -0.252 OA
BRANCH   3   5
ATOM      5  C   UNL A   1      35.744  22.385  25.198  1.00  0.00     0.124 C 
ATOM      6  C   UNL A   1      33.993  24.103  24.840  1.00  0.00     0.106 C 
ATOM      7  C   UNL A   1      34.146  23.773  26.274  1.00  0.00    -0.006 C 
ATOM      8  C   UNL A   1      35.052  23.244  24.120  1.00  0.00     0.048 C 
ATOM      9  C   UNL A   1      35.097  22.854  26.475  1.00  0.00    -0.014 C 
BRANCH   6  10
ATOM     10  N   UNL A   1      32.601  23.958  24.435  1.00  0.00    -0.345 N 
ATOM     11  C   UNL A   1      31.777  22.902  24.132  1.00  0.00     0.268 C 
ATOM     12  O   UNL A   1      30.674  23.153  23.669  1.00  0.00    -0.268 OA
ATOM     13  H   UNL A   1      32.141  24.825  24.360  1.00  0.00     0.164 HD
BRANCH  11  14
ATOM     14  C   UNL A   1      32.250  21.543  24.238  1.00  0.00     0.105 A 
ATOM     15  C   UNL A   1      32.710  19.353  23.908  1.00  0.00     0.035 A 
ATOM     16  C   UNL A   1      32.510  19.561  25.260  1.00  0.00     0.094 A 
ATOM     17  C   UNL A   1      32.768  20.649  23.322  1.00  0.00     0.045 A 
ATOM     18  N   UNL A   1      32.345  20.908  25.457  1.00  0.00    -0.356 N 
ATOM     19  H   UNL A   1      32.302  21.353  26.333  1.00  0.00     0.166 HD
BRANCH  15  20
ATOM     20  C   UNL A   1      32.771  18.075  23.203  1.00  0.00     0.161 C 
ATOM     21  C   UNL A   1      33.218  16.866  23.987  1.00  0.00     0.093 C 
ATOM     22  O   UNL A   1      32.398  17.963  22.036  1.00  0.00    -0.294 OA
ENDBRANCH  15  20
ENDBRANCH  11  14
ENDBRANCH   6  10
ENDBRANCH   3   5
ENDBRANCH   2   3
ENDBRANCH   1   2
BRANCH   1  23
ATOM     23  C   UNL A   1      39.661  19.602  25.583  1.00  0.00     0.275 C 
BRANCH  23  24
ATOM     24  O   UNL A   1      40.555  19.179  26.620  1.00  0.00    -0.458 OA
BRANCH  24  25
ATOM     25  C   UNL A   1      41.817  19.021  26.173  1.00  0.00     0.338 C 
ATOM     26  O   UNL A   1      42.322  17.998  25.729  1.00  0.00    -0.246 OA
BRANCH  25  27
ATOM     27  C   UNL A   1      42.657  20.182  26.410  1.00  0.00     0.060 A 
ATOM     28  C   UNL A   1      42.508  20.810  27.648  1.00  0.00     0.016 A 
ATOM     29  C   UNL A   1      43.152  20.854  25.294  1.00  0.00     0.016 A 
ATOM     30  C   UNL A   1      42.688  22.170  27.742  1.00  0.00     0.010 A 
ATOM     31  C   UNL A   1      43.369  22.217  25.392  1.00  0.00     0.010 A 
ATOM     32  C   UNL A   1      43.091  22.872  26.604  1.00  0.00    -0.014 A 
BRANCH  32  33
ATOM     33  C   UNL A   1      43.453  24.283  26.786  1.00  0.00     0.031 A 
ATOM     34  C   UNL A   1      42.188  25.141  26.924  1.00  0.00     0.074 A 
ATOM     35  C   UNL A   1      44.785  24.583  26.785  1.00  0.00     0.049 A 
ATOM     36  N   UNL A   1      42.021  26.415  26.749  1.00  0.00    -0.248 NA
ATOM     37  C   UNL A   1      40.884  24.468  27.215  1.00  0.00     0.031 C 
ATOM     38  C   UNL A   1      45.873  23.602  26.566  1.00  0.00     0.029 A 
ATOM     39  N   UNL A   1      45.503  25.747  26.967  1.00  0.00    -0.354 N 
ATOM     40  C   UNL A   1      40.707  26.713  27.170  1.00  0.00     0.074 A 
ATOM     41  C   UNL A   1      40.010  25.472  27.264  1.00  0.00     0.031 C 
ATOM     42  C   UNL A   1      47.080  24.210  26.569  1.00  0.00     0.029 A 
ATOM     43  C   UNL A   1      46.912  25.625  26.837  1.00  0.00     0.049 A 
ATOM     44  H   UNL A   1      45.067  26.605  27.173  1.00  0.00     0.167 HD
ATOM     45  C   UNL A   1      40.330  27.944  27.617  1.00  0.00     0.037 A 
ATOM     46  C   UNL A   1      47.873  26.597  26.935  1.00  0.00     0.037 A 
ATOM     47  C   UNL A   1      41.426  28.848  27.525  1.00  0.00     0.049 A 
ATOM     48  C   UNL A   1      47.181  27.775  27.481  1.00  0.00     0.074 A 
ATOM     49  C   UNL A   1      42.062  29.418  26.455  1.00  0.00     0.029 A 
ATOM     50  N   UNL A   1      42.218  28.970  28.644  1.00  0.00    -0.354 N 
ATOM     51  N   UNL A   1      46.735  27.865  28.699  1.00  0.00    -0.248 NA
ATOM     52  C   UNL A   1      46.915  28.920  26.603  1.00  0.00     0.031 C 
ATOM     53  C   UNL A   1      43.408  29.485  26.864  1.00  0.00     0.029 A 
ATOM     54  C   UNL A   1      43.512  29.129  28.215  1.00  0.00     0.049 A 
ATOM     55  H   UNL A   1      41.913  28.949  29.579  1.00  0.00     0.167 HD
ATOM     56  C   UNL A   1      45.843  28.904  28.613  1.00  0.00     0.074 A 
ATOM     57  C   UNL A   1      46.223  29.679  27.449  1.00  0.00     0.031 C 
ATOM     58  C   UNL A   1      44.588  28.728  29.099  1.00  0.00     0.037 A 
BRANCH  45  59
ATOM     59  C   UNL A   1      39.140  28.387  28.419  1.00  0.00     0.058 A 
ATOM     60  C   UNL A   1      38.410  29.500  27.936  1.00  0.00     0.135 A 
ATOM     61  C   UNL A   1      38.920  28.033  29.759  1.00  0.00     0.135 A 
ATOM     62  F   UNL A   1      38.500  29.874  26.648  1.00  0.00    -0.206 F 
ATOM     63  C   UNL A   1      37.652  30.312  28.770  1.00  0.00     0.059 A 
ATOM     64  C   UNL A   1      38.121  28.807  30.603  1.00  0.00     0.059 A 
ATOM     65  F   UNL A   1      39.544  26.989  30.318  1.00  0.00    -0.206 F 
ATOM     66  C   UNL A   1      37.552  29.980  30.114  1.00  0.00     0.060 A 
BRANCH  66  67
ATOM     67  S   UNL A   1      36.725  31.135  31.224  1.00  0.00     0.124 S 
ATOM     68  O   UNL A   1      36.290  30.248  32.298  1.00  0.00    -0.237 OA
ATOM     69  O   UNL A   1      37.798  32.063  31.567  1.00  0.00    -0.237 OA
ATOM     70  O   UNL A   1      35.665  31.697  30.393  1.00  0.00    -0.744 OA
ENDBRANCH  66  67
ENDBRANCH  45  59
BRANCH  46  71
ATOM     71  C   UNL A   1      49.341  26.797  26.606  1.00  0.00     0.058 A 
ATOM     72  C   UNL A   1      50.381  26.943  27.532  1.00  0.00     0.135 A 
ATOM     73  C   UNL A   1      49.782  26.621  25.260  1.00  0.00     0.135 A 
ATOM     74  F   UNL A   1      50.133  27.229  28.815  1.00  0.00    -0.206 F 
ATOM     75  C   UNL A   1      51.732  26.760  27.181  1.00  0.00     0.059 A 
ATOM     76  C   UNL A   1      51.103  26.372  24.900  1.00  0.00     0.059 A 
ATOM     77  F   UNL A   1      48.922  26.621  24.231  1.00  0.00    -0.206 F 
ATOM     78  C   UNL A   1      52.075  26.406  25.877  1.00  0.00     0.060 A 
BRANCH  78  79
ATOM     79  S   UNL A   1      53.742  25.837  25.473  1.00  0.00     0.124 S 
ATOM     80  O   UNL A   1      54.271  25.485  26.785  1.00  0.00    -0.237 OA
ATOM     81  O   UNL A   1      53.488  24.720  24.568  1.00  0.00    -0.237 OA
ATOM     82  O   UNL A   1      54.344  27.010  24.842  1.00  0.00    -0.744 OA
ENDBRANCH  78  79
ENDBRANCH  46  71
BRANCH  58  83
ATOM     83  C   UNL A   1      44.497  27.755  30.267  1.00  0.00     0.058 A 
ATOM     84  C   UNL A   1      45.084  28.074  31.504  1.00  0.00     0.135 A 
ATOM     85  C   UNL A   1      43.939  26.468  30.178  1.00  0.00     0.135 A 
ATOM     86  F   UNL A   1      45.629  29.287  31.691  1.00  0.00    -0.206 F 
ATOM     87  C   UNL A   1      45.127  27.171  32.573  1.00  0.00     0.059 A 
ATOM     88  C   UNL A   1      43.962  25.545  31.228  1.00  0.00     0.059 A 
ATOM     89  F   UNL A   1      43.348  26.067  29.056  1.00  0.00    -0.206 F 
ATOM     90  C   UNL A   1      44.565  25.903  32.427  1.00  0.00     0.060 A 
BRANCH  90  91
ATOM     91  S   UNL A   1      44.621  24.745  33.813  1.00  0.00     0.124 S 
ATOM     92  O   UNL A   1      43.934  25.481  34.869  1.00  0.00    -0.237 OA
ATOM     93  O   UNL A   1      43.904  23.592  33.279  1.00  0.00    -0.237 OA
ATOM     94  O   UNL A   1      46.052  24.539  34.036  1.00  0.00    -0.744 OA
ENDBRANCH  90  91
ENDBRANCH  58  83
ENDBRANCH  32  33
ENDBRANCH  25  27
ENDBRANCH  24  25
ENDBRANCH  23  24
ENDBRANCH   1  23
TORSDOF 17
ENDMDL
MODEL 3
REMARK VINA RESULT:     -11.1      4.621      6.422
REMARK SMILES CC(=O)c1c[nH]c(C(=O)N[C@H]2C=C[C@H](C(=O)OCCOC(=O)c3ccc(-c4c5nc(c(-c6c(F)cc(S(=O)(=O)[O-])cc6F)c6ccc([nH]6)c(-c6c(F)cc(S(=O)(=O)[O-])cc6F)c6nc(c(-c7c(F)cc(S(=O)(=O)[O-])cc7F)c7ccc4[nH]7)C=C6)C=C5)cc3)C2)c1
REMARK SMILES IDX 18 1 17 2 15 3 16 4 14 5 11 6 12 7 89 8 13 9 10 10 8 11 9 12
REMARK SMILES IDX 7 14 4 15 5 16 90 17 6 18 2 20 1 21 3 22 19 23 20 24 21 25
REMARK SMILES IDX 22 26 23 27 24 28 88 29 25 30 87 31 26 32 27 33 28 34 81 35
REMARK SMILES IDX 29 36 86 37 80 38 82 39 30 40 85 41 79 42 78 43 31 45 65 46
REMARK SMILES IDX 44 47 64 48 45 49 48 50 63 51 83 52 46 53 47 54 62 56 84 57
REMARK SMILES IDX 49 58 32 59 33 60 42 61 34 62 35 63 41 64 43 65 36 66 37 67
REMARK SMILES IDX 38 68 39 69 40 70 66 71 67 72 76 73 68 74 69 75 75 76 77 77
REMARK SMILES IDX 70 78 71 79 72 80 73 81 74 82 50 83 51 84 60 85 52 86 53 87
REMARK SMILES IDX 59 88 61 89 54 90 55 91 56 92 57 93 58 94
REMARK H PARENT 10 13 6 19 82 44 48 55
REMARK Flexibility Score: inf
ROOT
ATOM      1  C   UNL A   1      31.860  31.067  26.490  1.00  0.00     0.274 C 
ENDROOT
BRANCH   1   2
ATOM      2  O   UNL A   1      32.106  30.028  27.464  1.00  0.00    -0.462 OA
BRANCH   2   3
ATOM      3  C   UNL A   1      33.003  29.082  27.075  1.00  0.00     0.312 C 
ATOM      4  O   UNL A   1      34.149  29.018  27.514  1.00  0.00    -0.252 OA
BRANCH   3   5
ATOM      5  C   UNL A   1      32.494  28.162  25.965  1.00  0.00     0.124 C 
ATOM      6  C   UNL A   1      32.358  25.702  25.691  1.00  0.00     0.106 C 
ATOM      7  C   UNL A   1      33.596  26.249  25.093  1.00  0.00    -0.006 C 
ATOM      8  C   UNL A   1      31.642  26.922  26.304  1.00  0.00     0.048 C 
ATOM      9  C   UNL A   1      33.681  27.574  25.247  1.00  0.00    -0.014 C 
BRANCH   6  10
ATOM     10  N   UNL A   1      31.635  24.903  24.710  1.00  0.00    -0.345 N 
ATOM     11  C   UNL A   1      30.712  25.164  23.727  1.00  0.00     0.268 C 
ATOM     12  O   UNL A   1      30.183  24.211  23.174  1.00  0.00    -0.268 OA
ATOM     13  H   UNL A   1      31.862  23.947  24.765  1.00  0.00     0.164 HD
BRANCH  11  14
ATOM     14  C   UNL A   1      30.291  26.516  23.451  1.00  0.00     0.105 A 
ATOM     15  C   UNL A   1      29.117  28.386  22.961  1.00  0.00     0.035 A 
ATOM     16  C   UNL A   1      30.358  28.477  22.360  1.00  0.00     0.094 A 
ATOM     17  C   UNL A   1      29.187  27.257  23.824  1.00  0.00     0.045 A 
ATOM     18  N   UNL A   1      31.097  27.393  22.758  1.00  0.00    -0.356 N 
ATOM     19  H   UNL A   1      32.055  27.260  22.578  1.00  0.00     0.166 HD
BRANCH  15  20
ATOM     20  C   UNL A   1      27.943  29.221  22.712  1.00  0.00     0.161 C 
ATOM     21  C   UNL A   1      28.052  30.275  21.638  1.00  0.00     0.093 C 
ATOM     22  O   UNL A   1      26.878  29.027  23.295  1.00  0.00    -0.294 OA
ENDBRANCH  15  20
ENDBRANCH  11  14
ENDBRANCH   6  10
ENDBRANCH   3   5
ENDBRANCH   2   3
ENDBRANCH   1   2
BRANCH   1  23
ATOM     23  C   UNL A   1      31.976  32.486  27.062  1.00  0.00     0.275 C 
BRANCH  23  24
ATOM     24  O   UNL A   1      33.297  32.854  27.481  1.00  0.00    -0.458 OA
BRANCH  24  25
ATOM     25  C   UNL A   1      33.290  33.897  28.333  1.00  0.00     0.338 C 
ATOM     26  O   UNL A   1      32.553  34.873  28.302  1.00  0.00    -0.246 OA
BRANCH  25  27
ATOM     27  C   UNL A   1      34.396  33.873  29.276  1.00  0.00     0.060 A 
ATOM     28  C   UNL A   1      35.630  34.307  28.791  1.00  0.00     0.016 A 
ATOM     29  C   UNL A   1      34.291  33.010  30.366  1.00  0.00     0.016 A 
ATOM     30  C   UNL A   1      36.786  33.745  29.281  1.00  0.00     0.010 A 
ATOM     31  C   UNL A   1      35.453  32.468  30.887  1.00  0.00     0.010 A 
ATOM     32  C   UNL A   1      36.688  32.805  30.309  1.00  0.00    -0.014 A 
BRANCH  32  33
ATOM     33  C   UNL A   1      37.943  32.368  30.933  1.00  0.00     0.031 A 
ATOM     34  C   UNL A   1      38.514  31.156  30.183  1.00  0.00     0.074 A 
ATOM     35  C   UNL A   1      38.364  33.067  32.028  1.00  0.00     0.049 A 
ATOM     36  N   UNL A   1      39.367  30.261  30.572  1.00  0.00    -0.248 NA
ATOM     37  C   UNL A   1      37.987  30.834  28.820  1.00  0.00     0.031 C 
ATOM     38  C   UNL A   1      37.623  34.188  32.651  1.00  0.00     0.029 A 
ATOM     39  N   UNL A   1      39.479  32.995  32.838  1.00  0.00    -0.354 N 
ATOM     40  C   UNL A   1      39.672  29.474  29.441  1.00  0.00     0.074 A 
ATOM     41  C   UNL A   1      38.671  29.748  28.462  1.00  0.00     0.031 C 
ATOM     42  C   UNL A   1      38.268  34.640  33.751  1.00  0.00     0.029 A 
ATOM     43  C   UNL A   1      39.504  33.904  33.929  1.00  0.00     0.049 A 
ATOM     44  H   UNL A   1      40.208  32.355  32.670  1.00  0.00     0.167 HD
ATOM     45  C   UNL A   1      40.847  28.798  29.300  1.00  0.00     0.037 A 
ATOM     46  C   UNL A   1      40.453  34.049  34.908  1.00  0.00     0.037 A 
ATOM     47  C   UNL A   1      41.645  28.965  30.467  1.00  0.00     0.049 A 
ATOM     48  C   UNL A   1      41.603  33.251  34.455  1.00  0.00     0.074 A 
ATOM     49  C   UNL A   1      41.515  28.496  31.746  1.00  0.00     0.029 A 
ATOM     50  N   UNL A   1      42.542  30.008  30.453  1.00  0.00    -0.354 N 
ATOM     51  N   UNL A   1      42.362  33.563  33.447  1.00  0.00    -0.248 NA
ATOM     52  C   UNL A   1      41.908  31.987  35.134  1.00  0.00     0.031 C 
ATOM     53  C   UNL A   1      42.010  29.549  32.540  1.00  0.00     0.029 A 
ATOM     54  C   UNL A   1      42.583  30.531  31.722  1.00  0.00     0.049 A 
ATOM     55  H   UNL A   1      43.060  30.321  29.677  1.00  0.00     0.167 HD
ATOM     56  C   UNL A   1      42.986  32.374  33.166  1.00  0.00     0.074 A 
ATOM     57  C   UNL A   1      42.920  31.577  34.373  1.00  0.00     0.031 C 
ATOM     58  C   UNL A   1      42.972  31.917  31.887  1.00  0.00     0.037 A 
BRANCH  45  59
ATOM     59  C   UNL A   1      41.516  28.214  28.088  1.00  0.00     0.058 A 
ATOM     60  C   UNL A   1      41.559  26.802  27.988  1.00  0.00     0.135 A 
ATOM     61  C   UNL A   1      42.400  28.924  27.261  1.00  0.00     0.135 A 
ATOM     62  F   UNL A   1      40.704  26.037  28.689  1.00  0.00    -0.206 F 
ATOM     63  C   UNL A   1      42.532  26.138  27.252  1.00  0.00     0.059 A 
ATOM     64  C   UNL A   1      43.352  28.274  26.474  1.00  0.00     0.059 A 
ATOM     65  F   UNL A   1      42.435  30.262  27.261  1.00  0.00    -0.206 F 
ATOM     66  C   UNL A   1      43.454  26.887  26.533  1.00  0.00     0.060 A 
BRANCH  66  67
ATOM     67  S   UNL A   1      44.821  26.027  25.733  1.00  0.00     0.124 S 
ATOM     68  O   UNL A   1      45.434  27.104  24.964  1.00  0.00    -0.237 OA
ATOM     69  O   UNL A   1      45.596  25.543  26.872  1.00  0.00    -0.237 OA
ATOM     70  O   UNL A   1      44.154  24.988  24.955  1.00  0.00    -0.744 OA
ENDBRANCH  66  67
ENDBRANCH  45  59
BRANCH  46  71
ATOM     71  C   UNL A   1      40.612  34.715  36.262  1.00  0.00     0.058 A 
ATOM     72  C   UNL A   1      41.545  35.705  36.589  1.00  0.00     0.135 A 
ATOM     73  C   UNL A   1      39.617  34.500  37.263  1.00  0.00     0.135 A 
ATOM     74  F   UNL A   1      42.604  35.946  35.807  1.00  0.00    -0.206 F 
ATOM     75  C   UNL A   1      41.405  36.525  37.725  1.00  0.00     0.059 A 
ATOM     76  C   UNL A   1      39.421  35.337  38.357  1.00  0.00     0.059 A 
ATOM     77  F   UNL A   1      38.742  33.486  37.182  1.00  0.00    -0.206 F 
ATOM     78  C   UNL A   1      40.302  36.378  38.563  1.00  0.00     0.060 A 
BRANCH  78  79
ATOM     79  S   UNL A   1      39.914  37.616  39.822  1.00  0.00     0.124 S 
ATOM     80  O   UNL A   1      40.997  38.577  39.646  1.00  0.00    -0.237 OA
ATOM     81  O   UNL A   1      38.587  38.073  39.422  1.00  0.00    -0.237 OA
ATOM     82  O   UNL A   1      39.948  36.844  41.061  1.00  0.00    -0.744 OA
ENDBRANCH  78  79
ENDBRANCH  46  71
BRANCH  58  83
ATOM     83  C   UNL A   1      42.927  33.011  30.829  1.00  0.00     0.058 A 
ATOM     84  C   UNL A   1      44.047  33.833  30.610  1.00  0.00     0.135 A 
ATOM     85  C   UNL A   1      41.779  33.348  30.091  1.00  0.00     0.135 A 
ATOM     86  F   UNL A   1      45.197  33.581  31.256  1.00  0.00    -0.206 F 
ATOM     87  C   UNL A   1      44.021  34.923  29.731  1.00  0.00     0.059 A 
ATOM     88  C   UNL A   1      41.723  34.427  29.203  1.00  0.00     0.059 A 
ATOM     89  F   UNL A   1      40.666  32.628  30.214  1.00  0.00    -0.206 F 
ATOM     90  C   UNL A   1      42.852  35.216  29.031  1.00  0.00     0.060 A 
BRANCH  90  91
ATOM     91  S   UNL A   1      42.829  36.622  27.895  1.00  0.00     0.124 S 
ATOM     92  O   UNL A   1      42.674  35.976  26.596  1.00  0.00    -0.237 OA
ATOM     93  O   UNL A   1      41.673  37.378  28.366  1.00  0.00    -0.237 OA
ATOM     94  O   UNL A   1      44.124  37.266  28.113  1.00  0.00    -0.744 OA
ENDBRANCH  90  91
ENDBRANCH  58  83
ENDBRANCH  32  33
ENDBRANCH  25  27
ENDBRANCH  24  25
ENDBRANCH  23  24
ENDBRANCH   1  23
TORSDOF 17
ENDMDL
