MODEL 1
REMARK VINA RESULT:     -12.5      0.000      0.000
REMARK SMILES O=C(OCCOC(=O)c1ccc(-c2c3nc(c(-c4c(F)cc(S(=O)(=O)[O-])cc4F)c4ccc([nH]4)c(-c4c(F)cc(S(=O)(=O)[O-])cc4F)c4nc(c(-c5c(F)cc(S(=O)(=O)[O-])cc5F)c5ccc2[nH]5)C=C4)C=C3)cc1)C1=Cc2c(ccc(Cl)c2Sc2ccccc2)O[C@H]1C(F)(F)F
REMARK SMILES IDX 5 1 4 2 3 3 2 4 1 5 75 6 76 7 92 8 77 9 91 10 78 11 83 12
REMARK SMILES IDX 79 13 81 14 80 15 82 16 93 17 94 18 95 19 96 20 84 21 85 22
REMARK SMILES IDX 86 23 90 24 87 25 89 26 88 27 6 28 7 29 8 30 9 31 10 32
REMARK SMILES IDX 74 33 11 34 73 35 12 36 13 37 14 38 67 39 15 40 72 41 66 42
REMARK SMILES IDX 68 43 16 44 71 45 65 46 64 47 17 49 51 50 30 51 50 52 31 53
REMARK SMILES IDX 34 54 49 55 69 56 32 57 33 58 48 60 70 61 35 62 18 63 19 64
REMARK SMILES IDX 28 65 20 66 21 67 27 68 29 69 22 70 23 71 24 72 25 73 26 74
REMARK SMILES IDX 52 75 53 76 62 77 54 78 55 79 61 80 63 81 56 82 57 83 58 84
REMARK SMILES IDX 59 85 60 86 36 87 37 88 46 89 38 90 39 91 45 92 47 93 40 94
REMARK SMILES IDX 41 95 42 96 43 97 44 98
REMARK H PARENT 68 48 34 59
REMARK Flexibility Score: inf
ROOT
ATOM      1  C   UNL A   1      33.674  28.579  27.251  1.00  0.00     0.275 C 
ENDROOT
BRANCH   1   2
ATOM      2  C   UNL A   1      32.598  29.591  26.695  1.00  0.00     0.275 C 
BRANCH   2   3
ATOM      3  O   UNL A   1      32.756  30.064  25.354  1.00  0.00    -0.459 OA
BRANCH   3   4
ATOM      4  C   UNL A   1      32.867  29.251  24.303  1.00  0.00     0.338 C 
ATOM      5  O   UNL A   1      33.885  29.236  23.623  1.00  0.00    -0.246 OA
BRANCH   4   6
ATOM      6  C   UNL A   1      31.684  28.466  23.927  1.00  0.00     0.087 C 
ATOM      7  C   UNL A   1      31.355  27.196  24.232  1.00  0.00     0.028 C 
ATOM      8  C   UNL A   1      31.032  28.910  22.678  1.00  0.00     0.316 C 
ATOM      9  C   UNL A   1      32.142  26.212  23.478  1.00  0.00     0.033 A 
ATOM     10  O   UNL A   1      30.982  27.710  21.778  1.00  0.00    -0.475 OA
ATOM     11  C   UNL A   1      31.794  26.586  22.116  1.00  0.00     0.129 A 
ATOM     12  C   UNL A   1      32.992  25.034  23.875  1.00  0.00     0.042 A 
ATOM     13  C   UNL A   1      32.172  25.752  21.098  1.00  0.00     0.049 A 
ATOM     14  C   UNL A   1      33.313  24.241  22.740  1.00  0.00     0.055 A 
ATOM     15  C   UNL A   1      32.902  24.598  21.417  1.00  0.00     0.025 A 
ATOM     16  Cl  UNL A   1      34.183  22.737  22.821  1.00  0.00    -0.083 Cl
BRANCH   8  17
ATOM     17  C   UNL A   1      29.703  29.578  23.130  1.00  0.00     0.430 C 
ATOM     18  F   UNL A   1      29.885  30.335  24.251  1.00  0.00    -0.167 F 
ATOM     19  F   UNL A   1      29.185  30.400  22.194  1.00  0.00    -0.167 F 
ATOM     20  F   UNL A   1      28.759  28.659  23.448  1.00  0.00    -0.167 F 
ENDBRANCH   8  17
BRANCH  12  21
ATOM     21  S   UNL A   1      33.784  24.157  25.592  1.00  0.00    -0.088 SA
BRANCH  21  22
ATOM     22  C   UNL A   1      35.489  23.280  25.935  1.00  0.00     0.012 A 
ATOM     23  C   UNL A   1      35.728  21.883  25.837  1.00  0.00     0.015 A 
ATOM     24  C   UNL A   1      36.666  24.074  26.132  1.00  0.00     0.015 A 
ATOM     25  C   UNL A   1      37.048  21.366  25.599  1.00  0.00     0.001 A 
ATOM     26  C   UNL A   1      37.976  23.552  25.872  1.00  0.00     0.001 A 
ATOM     27  C   UNL A   1      38.158  22.209  25.553  1.00  0.00     0.000 A 
ENDBRANCH  21  22
ENDBRANCH  12  21
ENDBRANCH   4   6
ENDBRANCH   3   4
ENDBRANCH   2   3
ENDBRANCH   1   2
BRANCH   1  28
ATOM     28  O   UNL A   1      34.978  28.996  27.143  1.00  0.00    -0.458 OA
BRANCH  28  29
ATOM     29  C   UNL A   1      35.067  29.990  28.002  1.00  0.00     0.338 C 
ATOM     30  O   UNL A   1      34.254  30.828  28.375  1.00  0.00    -0.246 OA
BRANCH  29  31
ATOM     31  C   UNL A   1      36.347  29.859  28.523  1.00  0.00     0.060 A 
ATOM     32  C   UNL A   1      37.256  30.170  27.536  1.00  0.00     0.016 A 
ATOM     33  C   UNL A   1      36.569  29.328  29.808  1.00  0.00     0.016 A 
ATOM     34  C   UNL A   1      38.487  29.730  27.767  1.00  0.00     0.010 A 
ATOM     35  C   UNL A   1      37.854  29.063  30.111  1.00  0.00     0.010 A 
ATOM     36  C   UNL A   1      38.754  29.246  29.062  1.00  0.00    -0.014 A 
BRANCH  36  37
ATOM     37  C   UNL A   1      40.128  28.969  29.265  1.00  0.00     0.031 A 
ATOM     38  C   UNL A   1      40.596  27.683  28.738  1.00  0.00     0.074 A 
ATOM     39  C   UNL A   1      40.784  30.052  29.689  1.00  0.00     0.049 A 
ATOM     40  N   UNL A   1      41.813  27.266  28.692  1.00  0.00    -0.248 NA
ATOM     41  C   UNL A   1      39.589  26.742  28.196  1.00  0.00     0.031 C 
ATOM     42  C   UNL A   1      40.159  31.339  30.077  1.00  0.00     0.029 A 
ATOM     43  N   UNL A   1      42.103  30.291  29.747  1.00  0.00    -0.354 N 
ATOM     44  C   UNL A   1      41.729  25.995  28.165  1.00  0.00     0.074 A 
ATOM     45  C   UNL A   1      40.345  25.697  27.899  1.00  0.00     0.031 C 
ATOM     46  C   UNL A   1      41.119  32.251  30.250  1.00  0.00     0.029 A 
ATOM     47  C   UNL A   1      42.392  31.572  30.123  1.00  0.00     0.049 A 
ATOM     48  H   UNL A   1      42.788  29.616  29.539  1.00  0.00     0.167 HD
ATOM     49  C   UNL A   1      42.779  25.184  27.961  1.00  0.00     0.037 A 
ATOM     50  C   UNL A   1      43.595  32.079  30.394  1.00  0.00     0.037 A 
ATOM     51  C   UNL A   1      44.110  25.625  28.275  1.00  0.00     0.049 A 
ATOM     52  C   UNL A   1      44.726  31.117  30.207  1.00  0.00     0.074 A 
ATOM     53  C   UNL A   1      45.294  24.934  28.179  1.00  0.00     0.029 A 
ATOM     54  N   UNL A   1      44.415  26.901  28.757  1.00  0.00    -0.354 N 
ATOM     55  N   UNL A   1      44.679  29.879  29.760  1.00  0.00    -0.248 NA
ATOM     56  C   UNL A   1      46.055  31.590  30.570  1.00  0.00     0.031 C 
ATOM     57  C   UNL A   1      46.306  25.773  28.659  1.00  0.00     0.029 A 
ATOM     58  C   UNL A   1      45.768  27.014  28.988  1.00  0.00     0.049 A 
ATOM     59  H   UNL A   1      43.757  27.617  28.910  1.00  0.00     0.167 HD
ATOM     60  C   UNL A   1      45.977  29.412  29.783  1.00  0.00     0.074 A 
ATOM     61  C   UNL A   1      46.786  30.529  30.255  1.00  0.00     0.031 C 
ATOM     62  C   UNL A   1      46.469  28.188  29.463  1.00  0.00     0.037 A 
BRANCH  49  63
ATOM     63  C   UNL A   1      42.497  23.797  27.494  1.00  0.00     0.058 A 
ATOM     64  C   UNL A   1      42.310  23.483  26.139  1.00  0.00     0.135 A 
ATOM     65  C   UNL A   1      42.394  22.759  28.431  1.00  0.00     0.135 A 
ATOM     66  F   UNL A   1      42.325  24.450  25.208  1.00  0.00    -0.206 F 
ATOM     67  C   UNL A   1      42.054  22.180  25.727  1.00  0.00     0.059 A 
ATOM     68  C   UNL A   1      42.167  21.446  28.041  1.00  0.00     0.059 A 
ATOM     69  F   UNL A   1      42.504  23.020  29.743  1.00  0.00    -0.206 F 
ATOM     70  C   UNL A   1      42.005  21.165  26.686  1.00  0.00     0.060 A 
BRANCH  70  71
ATOM     71  S   UNL A   1      41.763  19.468  26.128  1.00  0.00     0.124 S 
ATOM     72  O   UNL A   1      42.688  19.393  25.002  1.00  0.00    -0.237 OA
ATOM     73  O   UNL A   1      42.142  18.701  27.311  1.00  0.00    -0.237 OA
ATOM     74  O   UNL A   1      40.347  19.422  25.780  1.00  0.00    -0.744 OA
ENDBRANCH  70  71
ENDBRANCH  49  63
BRANCH  50  75
ATOM     75  C   UNL A   1      43.715  33.449  30.928  1.00  0.00     0.058 A 
ATOM     76  C   UNL A   1      43.870  34.547  30.076  1.00  0.00     0.135 A 
ATOM     77  C   UNL A   1      43.617  33.698  32.310  1.00  0.00     0.135 A 
ATOM     78  F   UNL A   1      43.932  34.363  28.748  1.00  0.00    -0.206 F 
ATOM     79  C   UNL A   1      43.972  35.839  30.576  1.00  0.00     0.059 A 
ATOM     80  C   UNL A   1      43.678  34.982  32.831  1.00  0.00     0.059 A 
ATOM     81  F   UNL A   1      43.425  32.684  33.170  1.00  0.00    -0.206 F 
ATOM     82  C   UNL A   1      43.883  36.044  31.955  1.00  0.00     0.060 A 
BRANCH  82  83
ATOM     83  S   UNL A   1      44.052  37.721  32.593  1.00  0.00     0.124 S 
ATOM     84  O   UNL A   1      43.029  37.738  33.633  1.00  0.00    -0.237 OA
ATOM     85  O   UNL A   1      45.436  37.736  33.056  1.00  0.00    -0.237 OA
ATOM     86  O   UNL A   1      43.778  38.556  31.427  1.00  0.00    -0.744 OA
ENDBRANCH  82  83
ENDBRANCH  50  75
BRANCH  62  87
ATOM     87  C   UNL A   1      47.948  28.054  29.589  1.00  0.00     0.058 A 
ATOM     88  C   UNL A   1      48.542  27.598  30.773  1.00  0.00     0.135 A 
ATOM     89  C   UNL A   1      48.766  28.352  28.490  1.00  0.00     0.135 A 
ATOM     90  F   UNL A   1      47.787  27.319  31.848  1.00  0.00    -0.206 F 
ATOM     91  C   UNL A   1      49.916  27.474  30.875  1.00  0.00     0.059 A 
ATOM     92  C   UNL A   1      50.139  28.189  28.556  1.00  0.00     0.059 A 
ATOM     93  F   UNL A   1      48.227  28.778  27.336  1.00  0.00    -0.206 F 
ATOM     94  C   UNL A   1      50.703  27.766  29.759  1.00  0.00     0.060 A 
BRANCH  94  95
ATOM     95  S   UNL A   1      52.486  27.562  29.896  1.00  0.00     0.124 S 
ATOM     96  O   UNL A   1      52.695  26.328  29.146  1.00  0.00    -0.237 OA
ATOM     97  O   UNL A   1      52.984  28.781  29.269  1.00  0.00    -0.237 OA
ATOM     98  O   UNL A   1      52.706  27.468  31.336  1.00  0.00    -0.744 OA
ENDBRANCH  94  95
ENDBRANCH  62  87
ENDBRANCH  36  37
ENDBRANCH  29  31
ENDBRANCH  28  29
ENDBRANCH   1  28
TORSDOF 17
ENDMDL
MODEL 2
REMARK VINA RESULT:     -11.9      2.021      3.079
REMARK SMILES O=C(OCCOC(=O)c1ccc(-c2c3nc(c(-c4c(F)cc(S(=O)(=O)[O-])cc4F)c4ccc([nH]4)c(-c4c(F)cc(S(=O)(=O)[O-])cc4F)c4nc(c(-c5c(F)cc(S(=O)(=O)[O-])cc5F)c5ccc2[nH]5)C=C4)C=C3)cc1)C1=Cc2c(ccc(Cl)c2Sc2ccccc2)O[C@H]1C(F)(F)F
REMARK SMILES IDX 5 1 4 2 3 3 2 4 1 5 75 6 76 7 92 8 77 9 91 10 78 11 83 12
REMARK SMILES IDX 79 13 81 14 80 15 82 16 93 17 94 18 95 19 96 20 84 21 85 22
REMARK SMILES IDX 86 23 90 24 87 25 89 26 88 27 6 28 7 29 8 30 9 31 10 32
REMARK SMILES IDX 74 33 11 34 73 35 12 36 13 37 14 38 67 39 15 40 72 41 66 42
REMARK SMILES IDX 68 43 16 44 71 45 65 46 64 47 17 49 51 50 30 51 50 52 31 53
REMARK SMILES IDX 34 54 49 55 69 56 32 57 33 58 48 60 70 61 35 62 18 63 19 64
REMARK SMILES IDX 28 65 20 66 21 67 27 68 29 69 22 70 23 71 24 72 25 73 26 74
REMARK SMILES IDX 52 75 53 76 62 77 54 78 55 79 61 80 63 81 56 82 57 83 58 84
REMARK SMILES IDX 59 85 60 86 36 87 37 88 46 89 38 90 39 91 45 92 47 93 40 94
REMARK SMILES IDX 41 95 42 96 43 97 44 98
REMARK H PARENT 68 48 34 59
REMARK Flexibility Score: inf
ROOT
ATOM      1  C   UNL A   1      33.474  28.834  26.981  1.00  0.00     0.275 C 
ENDROOT
BRANCH   1   2
ATOM      2  C   UNL A   1      32.628  27.501  26.992  1.00  0.00     0.275 C 
BRANCH   2   3
ATOM      3  O   UNL A   1      33.150  26.373  26.284  1.00  0.00    -0.459 OA
BRANCH   3   4
ATOM      4  C   UNL A   1      32.378  25.424  25.753  1.00  0.00     0.338 C 
ATOM      5  O   UNL A   1      31.566  24.816  26.439  1.00  0.00    -0.246 OA
BRANCH   4   6
ATOM      6  C   UNL A   1      32.621  25.059  24.350  1.00  0.00     0.087 C 
ATOM      7  C   UNL A   1      32.679  23.846  23.769  1.00  0.00     0.028 C 
ATOM      8  C   UNL A   1      33.385  26.066  23.586  1.00  0.00     0.316 C 
ATOM      9  C   UNL A   1      33.922  23.129  24.081  1.00  0.00     0.033 A 
ATOM     10  O   UNL A   1      34.579  25.350  23.023  1.00  0.00    -0.475 OA
ATOM     11  C   UNL A   1      34.904  24.067  23.557  1.00  0.00     0.129 A 
ATOM     12  C   UNL A   1      34.225  21.769  24.650  1.00  0.00     0.042 A 
ATOM     13  C   UNL A   1      36.208  23.659  23.468  1.00  0.00     0.049 A 
ATOM     14  C   UNL A   1      35.601  21.453  24.493  1.00  0.00     0.055 A 
ATOM     15  C   UNL A   1      36.535  22.370  23.914  1.00  0.00     0.025 A 
ATOM     16  Cl  UNL A   1      36.302  19.921  24.925  1.00  0.00    -0.083 Cl
BRANCH   8  17
ATOM     17  C   UNL A   1      32.353  26.707  22.615  1.00  0.00     0.430 C 
ATOM     18  F   UNL A   1      31.108  26.745  23.171  1.00  0.00    -0.167 F 
ATOM     19  F   UNL A   1      32.665  27.977  22.285  1.00  0.00    -0.167 F 
ATOM     20  F   UNL A   1      32.231  25.995  21.468  1.00  0.00    -0.167 F 
ENDBRANCH   8  17
BRANCH  12  21
ATOM     21  S   UNL A   1      33.232  20.163  25.533  1.00  0.00    -0.088 SA
BRANCH  21  22
ATOM     22  C   UNL A   1      33.047  18.298  25.001  1.00  0.00     0.012 A 
ATOM     23  C   UNL A   1      33.637  17.710  23.850  1.00  0.00     0.015 A 
ATOM     24  C   UNL A   1      32.426  17.366  25.895  1.00  0.00     0.015 A 
ATOM     25  C   UNL A   1      33.895  16.299  23.782  1.00  0.00     0.001 A 
ATOM     26  C   UNL A   1      32.707  15.962  25.829  1.00  0.00     0.001 A 
ATOM     27  C   UNL A   1      33.486  15.438  24.801  1.00  0.00     0.000 A 
ENDBRANCH  21  22
ENDBRANCH  12  21
ENDBRANCH   4   6
ENDBRANCH   3   4
ENDBRANCH   2   3
ENDBRANCH   1   2
BRANCH   1  28
ATOM     28  O   UNL A   1      34.739  28.726  27.507  1.00  0.00    -0.458 OA
BRANCH  28  29
ATOM     29  C   UNL A   1      35.084  29.971  27.763  1.00  0.00     0.338 C 
ATOM     30  O   UNL A   1      34.488  31.034  27.624  1.00  0.00    -0.246 OA
BRANCH  29  31
ATOM     31  C   UNL A   1      36.335  29.848  28.352  1.00  0.00     0.060 A 
ATOM     32  C   UNL A   1      37.294  30.159  27.412  1.00  0.00     0.016 A 
ATOM     33  C   UNL A   1      36.491  29.326  29.649  1.00  0.00     0.016 A 
ATOM     34  C   UNL A   1      38.512  29.727  27.711  1.00  0.00     0.010 A 
ATOM     35  C   UNL A   1      37.760  29.068  30.021  1.00  0.00     0.010 A 
ATOM     36  C   UNL A   1      38.713  29.251  29.020  1.00  0.00    -0.014 A 
BRANCH  36  37
ATOM     37  C   UNL A   1      40.076  28.981  29.297  1.00  0.00     0.031 A 
ATOM     38  C   UNL A   1      40.577  27.696  28.802  1.00  0.00     0.074 A 
ATOM     39  C   UNL A   1      40.703  30.069  29.750  1.00  0.00     0.049 A 
ATOM     40  N   UNL A   1      41.797  27.284  28.822  1.00  0.00    -0.248 NA
ATOM     41  C   UNL A   1      39.606  26.747  28.211  1.00  0.00     0.031 C 
ATOM     42  C   UNL A   1      40.053  31.355  30.098  1.00  0.00     0.029 A 
ATOM     43  N   UNL A   1      42.016  30.315  29.876  1.00  0.00    -0.354 N 
ATOM     44  C   UNL A   1      41.748  26.011  28.297  1.00  0.00     0.074 A 
ATOM     45  C   UNL A   1      40.381  25.704  27.960  1.00  0.00     0.031 C 
ATOM     46  C   UNL A   1      40.997  32.273  30.317  1.00  0.00     0.029 A 
ATOM     47  C   UNL A   1      42.278  31.600  30.261  1.00  0.00     0.049 A 
ATOM     48  H   UNL A   1      42.715  29.643  29.708  1.00  0.00     0.167 HD
ATOM     49  C   UNL A   1      42.811  25.204  28.154  1.00  0.00     0.037 A 
ATOM     50  C   UNL A   1      43.464  32.114  30.593  1.00  0.00     0.037 A 
ATOM     51  C   UNL A   1      44.121  25.654  28.535  1.00  0.00     0.049 A 
ATOM     52  C   UNL A   1      44.607  31.157  30.471  1.00  0.00     0.074 A 
ATOM     53  C   UNL A   1      45.312  24.968  28.506  1.00  0.00     0.029 A 
ATOM     54  N   UNL A   1      44.394  26.933  29.027  1.00  0.00    -0.354 N 
ATOM     55  N   UNL A   1      44.590  29.917  30.028  1.00  0.00    -0.248 NA
ATOM     56  C   UNL A   1      45.912  31.638  30.901  1.00  0.00     0.031 C 
ATOM     57  C   UNL A   1      46.293  25.814  29.035  1.00  0.00     0.029 A 
ATOM     58  C   UNL A   1      45.732  27.054  29.328  1.00  0.00     0.049 A 
ATOM     59  H   UNL A   1      43.725  27.647  29.141  1.00  0.00     0.167 HD
ATOM     60  C   UNL A   1      45.887  29.457  30.122  1.00  0.00     0.074 A 
ATOM     61  C   UNL A   1      46.665  30.580  30.631  1.00  0.00     0.031 C 
ATOM     62  C   UNL A   1      46.401  28.233  29.834  1.00  0.00     0.037 A 
BRANCH  49  63
ATOM     63  C   UNL A   1      42.561  23.813  27.679  1.00  0.00     0.058 A 
ATOM     64  C   UNL A   1      42.406  22.733  28.562  1.00  0.00     0.135 A 
ATOM     65  C   UNL A   1      42.494  23.554  26.302  1.00  0.00     0.135 A 
ATOM     66  F   UNL A   1      42.535  22.914  29.886  1.00  0.00    -0.206 F 
ATOM     67  C   UNL A   1      42.168  21.446  28.095  1.00  0.00     0.059 A 
ATOM     68  C   UNL A   1      42.229  22.282  25.813  1.00  0.00     0.059 A 
ATOM     69  F   UNL A   1      42.697  24.543  25.417  1.00  0.00    -0.206 F 
ATOM     70  C   UNL A   1      42.061  21.235  26.718  1.00  0.00     0.060 A 
BRANCH  70  71
ATOM     71  S   UNL A   1      41.662  19.578  26.131  1.00  0.00     0.124 S 
ATOM     72  O   UNL A   1      40.247  19.715  25.800  1.00  0.00    -0.237 OA
ATOM     73  O   UNL A   1      42.567  19.429  24.995  1.00  0.00    -0.237 OA
ATOM     74  O   UNL A   1      41.957  18.730  27.280  1.00  0.00    -0.744 OA
ENDBRANCH  70  71
ENDBRANCH  49  63
BRANCH  50  75
ATOM     75  C   UNL A   1      43.548  33.487  31.126  1.00  0.00     0.058 A 
ATOM     76  C   UNL A   1      43.318  33.754  32.479  1.00  0.00     0.135 A 
ATOM     77  C   UNL A   1      43.920  34.563  30.296  1.00  0.00     0.135 A 
ATOM     78  F   UNL A   1      42.996  32.756  33.315  1.00  0.00    -0.206 F 
ATOM     79  C   UNL A   1      43.408  35.046  32.984  1.00  0.00     0.059 A 
ATOM     80  C   UNL A   1      44.054  35.854  30.785  1.00  0.00     0.059 A 
ATOM     81  F   UNL A   1      44.193  34.355  28.998  1.00  0.00    -0.206 F 
ATOM     82  C   UNL A   1      43.768  36.089  32.126  1.00  0.00     0.060 A 
BRANCH  82  83
ATOM     83  S   UNL A   1      43.846  37.764  32.788  1.00  0.00     0.124 S 
ATOM     84  O   UNL A   1      43.462  38.552  31.621  1.00  0.00    -0.237 OA
ATOM     85  O   UNL A   1      42.873  37.711  33.873  1.00  0.00    -0.237 OA
ATOM     86  O   UNL A   1      45.238  37.898  33.207  1.00  0.00    -0.744 OA
ENDBRANCH  82  83
ENDBRANCH  50  75
BRANCH  62  87
ATOM     87  C   UNL A   1      47.872  28.108  30.039  1.00  0.00     0.058 A 
ATOM     88  C   UNL A   1      48.780  28.401  29.014  1.00  0.00     0.135 A 
ATOM     89  C   UNL A   1      48.366  27.729  31.296  1.00  0.00     0.135 A 
ATOM     90  F   UNL A   1      48.338  28.751  27.795  1.00  0.00    -0.206 F 
ATOM     91  C   UNL A   1      50.144  28.286  29.220  1.00  0.00     0.059 A 
ATOM     92  C   UNL A   1      49.727  27.654  31.536  1.00  0.00     0.059 A 
ATOM     93  F   UNL A   1      47.522  27.456  32.304  1.00  0.00    -0.206 F 
ATOM     94  C   UNL A   1      50.605  27.918  30.485  1.00  0.00     0.060 A 
BRANCH  94  95
ATOM     95  S   UNL A   1      52.382  27.811  30.747  1.00  0.00     0.124 S 
ATOM     96  O   UNL A   1      52.637  26.409  30.434  1.00  0.00    -0.237 OA
ATOM     97  O   UNL A   1      52.894  28.781  29.784  1.00  0.00    -0.237 OA
ATOM     98  O   UNL A   1      52.541  28.181  32.149  1.00  0.00    -0.744 OA
ENDBRANCH  94  95
ENDBRANCH  62  87
ENDBRANCH  36  37
ENDBRANCH  29  31
ENDBRANCH  28  29
ENDBRANCH   1  28
TORSDOF 17
ENDMDL
MODEL 3
REMARK VINA RESULT:     -11.8      3.712      9.479
REMARK SMILES O=C(OCCOC(=O)c1ccc(-c2c3nc(c(-c4c(F)cc(S(=O)(=O)[O-])cc4F)c4ccc([nH]4)c(-c4c(F)cc(S(=O)(=O)[O-])cc4F)c4nc(c(-c5c(F)cc(S(=O)(=O)[O-])cc5F)c5ccc2[nH]5)C=C4)C=C3)cc1)C1=Cc2c(ccc(Cl)c2Sc2ccccc2)O[C@H]1C(F)(F)F
REMARK SMILES IDX 5 1 4 2 3 3 2 4 1 5 75 6 76 7 92 8 77 9 91 10 78 11 83 12
REMARK SMILES IDX 79 13 81 14 80 15 82 16 93 17 94 18 95 19 96 20 84 21 85 22
REMARK SMILES IDX 86 23 90 24 87 25 89 26 88 27 6 28 7 29 8 30 9 31 10 32
REMARK SMILES IDX 74 33 11 34 73 35 12 36 13 37 14 38 67 39 15 40 72 41 66 42
REMARK SMILES IDX 68 43 16 44 71 45 65 46 64 47 17 49 51 50 30 51 50 52 31 53
REMARK SMILES IDX 34 54 49 55 69 56 32 57 33 58 48 60 70 61 35 62 18 63 19 64
REMARK SMILES IDX 28 65 20 66 21 67 27 68 29 69 22 70 23 71 24 72 25 73 26 74
REMARK SMILES IDX 52 75 53 76 62 77 54 78 55 79 61 80 63 81 56 82 57 83 58 84
REMARK SMILES IDX 59 85 60 86 36 87 37 88 46 89 38 90 39 91 45 92 47 93 40 94
REMARK SMILES IDX 41 95 42 96 43 97 44 98
REMARK H PARENT 68 48 34 59
REMARK Flexibility Score: inf
ROOT
ATOM      1  C   UNL A   1      36.691  23.460  25.651  1.00  0.00     0.275 C 
ENDROOT
BRANCH   1   2
ATOM      2  C   UNL A   1      36.009  23.714  24.250  1.00  0.00     0.275 C 
BRANCH   2   3
ATOM      3  O   UNL A   1      34.923  24.644  24.194  1.00  0.00    -0.459 OA
BRANCH   3   4
ATOM      4  C   UNL A   1      33.788  24.402  23.538  1.00  0.00     0.338 C 
ATOM      5  O   UNL A   1      33.762  24.370  22.315  1.00  0.00    -0.246 OA
BRANCH   4   6
ATOM      6  C   UNL A   1      32.558  24.290  24.334  1.00  0.00     0.087 C 
ATOM      7  C   UNL A   1      31.467  25.079  24.355  1.00  0.00     0.028 C 
ATOM      8  C   UNL A   1      32.721  23.555  25.604  1.00  0.00     0.316 C 
ATOM      9  C   UNL A   1      31.701  26.349  25.053  1.00  0.00     0.033 A 
ATOM     10  O   UNL A   1      32.250  24.478  26.690  1.00  0.00    -0.475 OA
ATOM     11  C   UNL A   1      32.083  25.859  26.369  1.00  0.00     0.129 A 
ATOM     12  C   UNL A   1      31.512  27.795  24.677  1.00  0.00     0.042 A 
ATOM     13  C   UNL A   1      32.184  26.761  27.393  1.00  0.00     0.049 A 
ATOM     14  C   UNL A   1      31.631  28.631  25.819  1.00  0.00     0.055 A 
ATOM     15  C   UNL A   1      31.944  28.115  27.116  1.00  0.00     0.025 A 
ATOM     16  Cl  UNL A   1      31.361  30.350  25.797  1.00  0.00    -0.083 Cl
BRANCH   8  17
ATOM     17  C   UNL A   1      31.989  22.200  25.385  1.00  0.00     0.430 C 
ATOM     18  F   UNL A   1      30.724  22.235  25.894  1.00  0.00    -0.167 F 
ATOM     19  F   UNL A   1      31.869  21.875  24.081  1.00  0.00    -0.167 F 
ATOM     20  F   UNL A   1      32.619  21.179  26.014  1.00  0.00    -0.167 F 
ENDBRANCH   8  17
BRANCH  12  21
ATOM     21  S   UNL A   1      31.053  28.950  23.004  1.00  0.00    -0.088 SA
BRANCH  21  22
ATOM     22  C   UNL A   1      29.570  30.155  22.624  1.00  0.00     0.012 A 
ATOM     23  C   UNL A   1      29.001  31.073  23.547  1.00  0.00     0.015 A 
ATOM     24  C   UNL A   1      29.095  30.290  21.278  1.00  0.00     0.015 A 
ATOM     25  C   UNL A   1      28.299  32.244  23.098  1.00  0.00     0.001 A 
ATOM     26  C   UNL A   1      28.413  31.472  20.838  1.00  0.00     0.001 A 
ATOM     27  C   UNL A   1      28.064  32.472  21.742  1.00  0.00     0.000 A 
ENDBRANCH  21  22
ENDBRANCH  12  21
ENDBRANCH   4   6
ENDBRANCH   3   4
ENDBRANCH   2   3
ENDBRANCH   1   2
BRANCH   1  28
ATOM     28  O   UNL A   1      37.505  24.473  26.095  1.00  0.00    -0.458 OA
BRANCH  28  29
ATOM     29  C   UNL A   1      38.630  23.863  26.408  1.00  0.00     0.338 C 
ATOM     30  O   UNL A   1      39.037  22.728  26.189  1.00  0.00    -0.246 OA
BRANCH  29  31
ATOM     31  C   UNL A   1      39.382  24.858  27.018  1.00  0.00     0.060 A 
ATOM     32  C   UNL A   1      39.049  24.901  28.354  1.00  0.00     0.016 A 
ATOM     33  C   UNL A   1      40.196  25.730  26.271  1.00  0.00     0.016 A 
ATOM     34  C   UNL A   1      39.395  26.025  28.968  1.00  0.00     0.010 A 
ATOM     35  C   UNL A   1      40.707  26.772  26.954  1.00  0.00     0.010 A 
ATOM     36  C   UNL A   1      40.256  26.891  28.267  1.00  0.00    -0.014 A 
BRANCH  36  37
ATOM     37  C   UNL A   1      40.710  27.970  29.066  1.00  0.00     0.031 A 
ATOM     38  C   UNL A   1      39.732  29.036  29.298  1.00  0.00     0.074 A 
ATOM     39  C   UNL A   1      41.873  27.681  29.654  1.00  0.00     0.049 A 
ATOM     40  N   UNL A   1      39.866  30.048  30.082  1.00  0.00    -0.248 NA
ATOM     41  C   UNL A   1      38.444  28.976  28.569  1.00  0.00     0.031 C 
ATOM     42  C   UNL A   1      42.696  26.477  29.390  1.00  0.00     0.029 A 
ATOM     43  N   UNL A   1      42.499  28.296  30.669  1.00  0.00    -0.354 N 
ATOM     44  C   UNL A   1      38.711  30.780  29.914  1.00  0.00     0.074 A 
ATOM     45  C   UNL A   1      37.873  30.106  28.955  1.00  0.00     0.031 C 
ATOM     46  C   UNL A   1      43.676  26.415  30.294  1.00  0.00     0.029 A 
ATOM     47  C   UNL A   1      43.619  27.630  31.081  1.00  0.00     0.049 A 
ATOM     48  H   UNL A   1      42.186  29.137  31.073  1.00  0.00     0.167 HD
ATOM     49  C   UNL A   1      38.444  31.938  30.539  1.00  0.00     0.037 A 
ATOM     50  C   UNL A   1      44.519  28.045  31.973  1.00  0.00     0.037 A 
ATOM     51  C   UNL A   1      39.382  32.490  31.478  1.00  0.00     0.049 A 
ATOM     52  C   UNL A   1      44.205  29.367  32.598  1.00  0.00     0.074 A 
ATOM     53  C   UNL A   1      39.310  33.671  32.177  1.00  0.00     0.029 A 
ATOM     54  N   UNL A   1      40.582  31.870  31.837  1.00  0.00    -0.354 N 
ATOM     55  N   UNL A   1      43.140  30.122  32.419  1.00  0.00    -0.248 NA
ATOM     56  C   UNL A   1      45.197  29.910  33.516  1.00  0.00     0.031 C 
ATOM     57  C   UNL A   1      40.494  33.792  32.913  1.00  0.00     0.029 A 
ATOM     58  C   UNL A   1      41.275  32.654  32.733  1.00  0.00     0.049 A 
ATOM     59  H   UNL A   1      40.888  30.998  31.499  1.00  0.00     0.167 HD
ATOM     60  C   UNL A   1      43.325  31.239  33.206  1.00  0.00     0.074 A 
ATOM     61  C   UNL A   1      44.596  31.031  33.890  1.00  0.00     0.031 C 
ATOM     62  C   UNL A   1      42.544  32.341  33.354  1.00  0.00     0.037 A 
BRANCH  49  63
ATOM     63  C   UNL A   1      37.198  32.659  30.151  1.00  0.00     0.058 A 
ATOM     64  C   UNL A   1      37.169  33.607  29.116  1.00  0.00     0.135 A 
ATOM     65  C   UNL A   1      36.008  32.407  30.848  1.00  0.00     0.135 A 
ATOM     66  F   UNL A   1      38.296  33.939  28.466  1.00  0.00    -0.206 F 
ATOM     67  C   UNL A   1      35.994  34.262  28.769  1.00  0.00     0.059 A 
ATOM     68  C   UNL A   1      34.816  33.029  30.501  1.00  0.00     0.059 A 
ATOM     69  F   UNL A   1      35.999  31.556  31.886  1.00  0.00    -0.206 F 
ATOM     70  C   UNL A   1      34.818  33.950  29.455  1.00  0.00     0.060 A 
BRANCH  70  71
ATOM     71  S   UNL A   1      33.283  34.741  28.934  1.00  0.00     0.124 S 
ATOM     72  O   UNL A   1      32.550  34.819  30.193  1.00  0.00    -0.237 OA
ATOM     73  O   UNL A   1      33.761  36.012  28.398  1.00  0.00    -0.237 OA
ATOM     74  O   UNL A   1      32.740  33.812  27.948  1.00  0.00    -0.744 OA
ENDBRANCH  70  71
ENDBRANCH  49  63
BRANCH  50  75
ATOM     75  C   UNL A   1      45.750  27.261  32.197  1.00  0.00     0.058 A 
ATOM     76  C   UNL A   1      46.889  27.463  31.412  1.00  0.00     0.135 A 
ATOM     77  C   UNL A   1      45.831  26.327  33.248  1.00  0.00     0.135 A 
ATOM     78  F   UNL A   1      46.871  28.368  30.421  1.00  0.00    -0.206 F 
ATOM     79  C   UNL A   1      48.051  26.733  31.628  1.00  0.00     0.059 A 
ATOM     80  C   UNL A   1      46.993  25.615  33.508  1.00  0.00     0.059 A 
ATOM     81  F   UNL A   1      44.780  26.125  34.058  1.00  0.00    -0.206 F 
ATOM     82  C   UNL A   1      48.090  25.806  32.673  1.00  0.00     0.060 A 
BRANCH  82  83
ATOM     83  S   UNL A   1      49.592  24.842  32.920  1.00  0.00     0.124 S 
ATOM     84  O   UNL A   1      50.042  24.652  31.545  1.00  0.00    -0.237 OA
ATOM     85  O   UNL A   1      50.401  25.739  33.740  1.00  0.00    -0.237 OA
ATOM     86  O   UNL A   1      49.116  23.641  33.598  1.00  0.00    -0.744 OA
ENDBRANCH  82  83
ENDBRANCH  50  75
BRANCH  62  87
ATOM     87  C   UNL A   1      43.060  33.349  34.323  1.00  0.00     0.058 A 
ATOM     88  C   UNL A   1      43.900  34.392  33.913  1.00  0.00     0.135 A 
ATOM     89  C   UNL A   1      42.667  33.281  35.667  1.00  0.00     0.135 A 
ATOM     90  F   UNL A   1      44.306  34.476  32.635  1.00  0.00    -0.206 F 
ATOM     91  C   UNL A   1      44.367  35.325  34.822  1.00  0.00     0.059 A 
ATOM     92  C   UNL A   1      43.085  34.231  36.582  1.00  0.00     0.059 A 
ATOM     93  F   UNL A   1      41.851  32.301  36.089  1.00  0.00    -0.206 F 
ATOM     94  C   UNL A   1      43.948  35.238  36.152  1.00  0.00     0.060 A 
BRANCH  94  95
ATOM     95  S   UNL A   1      44.534  36.482  37.312  1.00  0.00     0.124 S 
ATOM     96  O   UNL A   1      44.094  35.920  38.585  1.00  0.00    -0.237 OA
ATOM     97  O   UNL A   1      45.974  36.469  37.075  1.00  0.00    -0.237 OA
ATOM     98  O   UNL A   1      43.844  37.695  36.887  1.00  0.00    -0.744 OA
ENDBRANCH  94  95
ENDBRANCH  62  87
ENDBRANCH  36  37
ENDBRANCH  29  31
ENDBRANCH  28  29
ENDBRANCH   1  28
TORSDOF 17
ENDMDL
