MODEL 1
REMARK VINA RESULT:     -13.2      0.000      0.000
REMARK SMILES Cc1ccc(NC(=O)c2csc(Br)c2)c(C(=O)OCCOC(=O)c2ccc(-c3c4nc(c(-c5c(F)cc(S(=O)(=O)[O-])cc5F)c5ccc([nH]5)c(-c5c(F)cc(S(=O)(=O)[O-])cc5F)c5nc(c(-c6c(F)cc(S(=O)(=O)[O-])cc6F)c6ccc3[nH]6)C=C5)C=C4)cc2)c1
REMARK SMILES IDX 20 1 19 2 18 3 16 4 17 5 15 6 1 7 2 8 3 9 90 10 4 11 5 12
REMARK SMILES IDX 6 13 7 14 8 16 9 17 10 18 14 19 11 20 12 21 13 22 21 23
REMARK SMILES IDX 22 24 23 25 24 26 25 27 89 28 26 29 88 30 27 31 28 32 29 33
REMARK SMILES IDX 82 34 30 35 87 36 81 37 83 38 31 39 86 40 80 41 79 42 32 44
REMARK SMILES IDX 66 45 45 46 65 47 46 48 49 49 64 50 84 51 47 52 48 53 63 55
REMARK SMILES IDX 85 56 50 57 33 58 34 59 43 60 35 61 36 62 42 63 44 64 37 65
REMARK SMILES IDX 38 66 39 67 40 68 41 69 67 70 68 71 77 72 69 73 70 74 76 75
REMARK SMILES IDX 78 76 71 77 72 78 73 79 74 80 75 81 51 82 52 83 61 84 53 85
REMARK SMILES IDX 54 86 60 87 62 88 55 89 56 90 57 91 58 92 59 93
REMARK H PARENT 6 15 83 43 49 54
REMARK Flexibility Score: inf
ROOT
ATOM      1  C   UNL A   1      33.978  30.804  27.676  1.00  0.00     0.275 C 
ENDROOT
BRANCH   1   2
ATOM      2  C   UNL A   1      32.657  30.143  27.220  1.00  0.00     0.275 C 
BRANCH   2   3
ATOM      3  O   UNL A   1      32.238  30.476  25.864  1.00  0.00    -0.458 OA
BRANCH   3   4
ATOM      4  C   UNL A   1      32.437  29.461  24.973  1.00  0.00     0.340 C 
ATOM      5  O   UNL A   1      33.538  28.990  24.717  1.00  0.00    -0.246 OA
BRANCH   4   6
ATOM      6  C   UNL A   1      31.358  29.228  23.987  1.00  0.00     0.083 A 
ATOM      7  C   UNL A   1      28.212  31.388  23.726  1.00  0.00     0.044 C 
ATOM      8  C   UNL A   1      29.221  30.320  23.448  1.00  0.00    -0.050 A 
ATOM      9  C   UNL A   1      29.158  29.569  22.288  1.00  0.00     0.005 A 
ATOM     10  C   UNL A   1      30.277  30.087  24.319  1.00  0.00     0.021 A 
ATOM     11  C   UNL A   1      30.191  28.686  21.970  1.00  0.00     0.027 A 
ATOM     12  C   UNL A   1      31.373  28.590  22.720  1.00  0.00     0.056 A 
BRANCH  12  13
ATOM     13  N   UNL A   1      32.490  27.917  22.146  1.00  0.00    -0.321 N 
ATOM     14  C   UNL A   1      32.996  26.617  22.293  1.00  0.00     0.256 C 
ATOM     15  H   UNL A   1      33.007  28.474  21.520  1.00  0.00     0.170 HD
ATOM     16  O   UNL A   1      33.977  26.249  21.677  1.00  0.00    -0.269 OA
BRANCH  14  17
ATOM     17  C   UNL A   1      32.426  25.631  23.207  1.00  0.00     0.052 A 
ATOM     18  C   UNL A   1      31.336  24.872  22.803  1.00  0.00     0.080 A 
ATOM     19  C   UNL A   1      32.726  25.395  24.590  1.00  0.00     0.041 A 
ATOM     20  S   UNL A   1      30.813  23.778  24.003  1.00  0.00    -0.136 S 
ATOM     21  C   UNL A   1      31.954  24.379  25.101  1.00  0.00     0.071 A 
ATOM     22  Br  UNL A   1      32.133  23.702  26.837  1.00  0.00    -0.039 Br
ENDBRANCH  14  17
ENDBRANCH  12  13
ENDBRANCH   4   6
ENDBRANCH   3   4
ENDBRANCH   2   3
ENDBRANCH   1   2
BRANCH   1  23
ATOM     23  O   UNL A   1      35.148  29.976  27.829  1.00  0.00    -0.458 OA
BRANCH  23  24
ATOM     24  C   UNL A   1      36.334  30.636  27.827  1.00  0.00     0.338 C 
ATOM     25  O   UNL A   1      36.430  31.840  28.018  1.00  0.00    -0.246 OA
BRANCH  24  26
ATOM     26  C   UNL A   1      37.404  29.614  27.964  1.00  0.00     0.060 A 
ATOM     27  C   UNL A   1      38.523  29.722  27.133  1.00  0.00     0.016 A 
ATOM     28  C   UNL A   1      37.457  28.818  29.108  1.00  0.00     0.016 A 
ATOM     29  C   UNL A   1      39.735  29.148  27.466  1.00  0.00     0.010 A 
ATOM     30  C   UNL A   1      38.673  28.314  29.498  1.00  0.00     0.010 A 
ATOM     31  C   UNL A   1      39.801  28.480  28.672  1.00  0.00    -0.014 A 
BRANCH  31  32
ATOM     32  C   UNL A   1      40.936  27.671  29.044  1.00  0.00     0.031 A 
ATOM     33  C   UNL A   1      41.048  26.246  28.698  1.00  0.00     0.074 A 
ATOM     34  C   UNL A   1      41.899  28.450  29.575  1.00  0.00     0.049 A 
ATOM     35  N   UNL A   1      42.067  25.527  29.003  1.00  0.00    -0.248 NA
ATOM     36  C   UNL A   1      40.017  25.467  28.018  1.00  0.00     0.031 C 
ATOM     37  C   UNL A   1      43.323  28.250  29.713  1.00  0.00     0.029 A 
ATOM     38  N   UNL A   1      41.658  29.627  30.279  1.00  0.00    -0.354 N 
ATOM     39  C   UNL A   1      41.975  24.327  28.325  1.00  0.00     0.074 A 
ATOM     40  C   UNL A   1      40.631  24.294  27.820  1.00  0.00     0.031 C 
ATOM     41  C   UNL A   1      43.779  29.097  30.657  1.00  0.00     0.029 A 
ATOM     42  C   UNL A   1      42.616  29.735  31.272  1.00  0.00     0.049 A 
ATOM     43  H   UNL A   1      40.934  30.271  30.102  1.00  0.00     0.167 HD
ATOM     44  C   UNL A   1      43.122  23.606  28.179  1.00  0.00     0.037 A 
ATOM     45  C   UNL A   1      42.200  29.514  32.559  1.00  0.00     0.037 A 
ATOM     46  C   UNL A   1      44.125  24.152  29.093  1.00  0.00     0.049 A 
ATOM     47  C   UNL A   1      42.818  28.242  33.087  1.00  0.00     0.074 A 
ATOM     48  C   UNL A   1      45.117  25.102  28.917  1.00  0.00     0.029 A 
ATOM     49  N   UNL A   1      43.894  24.058  30.464  1.00  0.00    -0.354 N 
ATOM     50  N   UNL A   1      43.005  27.148  32.391  1.00  0.00    -0.248 NA
ATOM     51  C   UNL A   1      43.473  28.213  34.390  1.00  0.00     0.031 C 
ATOM     52  C   UNL A   1      45.373  25.683  30.191  1.00  0.00     0.029 A 
ATOM     53  C   UNL A   1      44.556  25.072  31.132  1.00  0.00     0.049 A 
ATOM     54  H   UNL A   1      43.340  23.369  30.895  1.00  0.00     0.167 HD
ATOM     55  C   UNL A   1      43.882  26.338  33.074  1.00  0.00     0.074 A 
ATOM     56  C   UNL A   1      44.117  27.037  34.329  1.00  0.00     0.031 C 
ATOM     57  C   UNL A   1      44.454  25.198  32.576  1.00  0.00     0.037 A 
BRANCH  44  58
ATOM     58  C   UNL A   1      43.453  22.625  27.064  1.00  0.00     0.058 A 
ATOM     59  C   UNL A   1      42.765  21.388  27.006  1.00  0.00     0.135 A 
ATOM     60  C   UNL A   1      44.492  22.751  26.117  1.00  0.00     0.135 A 
ATOM     61  F   UNL A   1      41.730  21.126  27.818  1.00  0.00    -0.206 F 
ATOM     62  C   UNL A   1      43.116  20.350  26.137  1.00  0.00     0.059 A 
ATOM     63  C   UNL A   1      44.856  21.727  25.231  1.00  0.00     0.059 A 
ATOM     64  F   UNL A   1      45.222  23.863  26.003  1.00  0.00    -0.206 F 
ATOM     65  C   UNL A   1      44.176  20.520  25.262  1.00  0.00     0.060 A 
BRANCH  65  66
ATOM     66  S   UNL A   1      44.641  19.160  24.175  1.00  0.00     0.124 S 
ATOM     67  O   UNL A   1      46.041  18.952  24.530  1.00  0.00    -0.237 OA
ATOM     68  O   UNL A   1      43.718  18.106  24.584  1.00  0.00    -0.237 OA
ATOM     69  O   UNL A   1      44.413  19.697  22.836  1.00  0.00    -0.744 OA
ENDBRANCH  65  66
ENDBRANCH  44  58
BRANCH  45  70
ATOM     70  C   UNL A   1      40.840  30.092  32.851  1.00  0.00     0.058 A 
ATOM     71  C   UNL A   1      40.773  31.499  32.941  1.00  0.00     0.135 A 
ATOM     72  C   UNL A   1      39.622  29.426  32.625  1.00  0.00     0.135 A 
ATOM     73  F   UNL A   1      41.889  32.207  33.182  1.00  0.00    -0.206 F 
ATOM     74  C   UNL A   1      39.617  32.214  32.643  1.00  0.00     0.059 A 
ATOM     75  C   UNL A   1      38.432  30.133  32.340  1.00  0.00     0.059 A 
ATOM     76  F   UNL A   1      39.589  28.087  32.554  1.00  0.00    -0.206 F 
ATOM     77  C   UNL A   1      38.464  31.529  32.278  1.00  0.00     0.060 A 
BRANCH  77  78
ATOM     78  S   UNL A   1      37.151  32.536  31.514  1.00  0.00     0.124 S 
ATOM     79  O   UNL A   1      36.823  33.472  32.582  1.00  0.00    -0.237 OA
ATOM     80  O   UNL A   1      37.850  33.107  30.363  1.00  0.00    -0.237 OA
ATOM     81  O   UNL A   1      36.118  31.579  31.160  1.00  0.00    -0.744 OA
ENDBRANCH  77  78
ENDBRANCH  45  70
BRANCH  57  82
ATOM     82  C   UNL A   1      45.113  24.135  33.427  1.00  0.00     0.058 A 
ATOM     83  C   UNL A   1      46.441  24.225  33.876  1.00  0.00     0.135 A 
ATOM     84  C   UNL A   1      44.363  23.057  33.960  1.00  0.00     0.135 A 
ATOM     85  F   UNL A   1      47.216  25.277  33.573  1.00  0.00    -0.206 F 
ATOM     86  C   UNL A   1      47.019  23.259  34.694  1.00  0.00     0.059 A 
ATOM     87  C   UNL A   1      44.899  22.125  34.841  1.00  0.00     0.059 A 
ATOM     88  F   UNL A   1      43.067  22.878  33.665  1.00  0.00    -0.206 F 
ATOM     89  C   UNL A   1      46.242  22.211  35.168  1.00  0.00     0.060 A 
BRANCH  89  90
ATOM     90  S   UNL A   1      46.985  20.982  36.247  1.00  0.00     0.124 S 
ATOM     91  O   UNL A   1      47.691  20.145  35.284  1.00  0.00    -0.237 OA
ATOM     92  O   UNL A   1      47.832  21.792  37.119  1.00  0.00    -0.237 OA
ATOM     93  O   UNL A   1      45.835  20.366  36.900  1.00  0.00    -0.744 OA
ENDBRANCH  89  90
ENDBRANCH  57  82
ENDBRANCH  31  32
ENDBRANCH  24  26
ENDBRANCH  23  24
ENDBRANCH   1  23
TORSDOF 16
ENDMDL
MODEL 2
REMARK VINA RESULT:     -13.1      1.608      2.260
REMARK SMILES Cc1ccc(NC(=O)c2csc(Br)c2)c(C(=O)OCCOC(=O)c2ccc(-c3c4nc(c(-c5c(F)cc(S(=O)(=O)[O-])cc5F)c5ccc([nH]5)c(-c5c(F)cc(S(=O)(=O)[O-])cc5F)c5nc(c(-c6c(F)cc(S(=O)(=O)[O-])cc6F)c6ccc3[nH]6)C=C5)C=C4)cc2)c1
REMARK SMILES IDX 20 1 19 2 18 3 16 4 17 5 15 6 1 7 2 8 3 9 90 10 4 11 5 12
REMARK SMILES IDX 6 13 7 14 8 16 9 17 10 18 14 19 11 20 12 21 13 22 21 23
REMARK SMILES IDX 22 24 23 25 24 26 25 27 89 28 26 29 88 30 27 31 28 32 29 33
REMARK SMILES IDX 82 34 30 35 87 36 81 37 83 38 31 39 86 40 80 41 79 42 32 44
REMARK SMILES IDX 66 45 45 46 65 47 46 48 49 49 64 50 84 51 47 52 48 53 63 55
REMARK SMILES IDX 85 56 50 57 33 58 34 59 43 60 35 61 36 62 42 63 44 64 37 65
REMARK SMILES IDX 38 66 39 67 40 68 41 69 67 70 68 71 77 72 69 73 70 74 76 75
REMARK SMILES IDX 78 76 71 77 72 78 73 79 74 80 75 81 51 82 52 83 61 84 53 85
REMARK SMILES IDX 54 86 60 87 62 88 55 89 56 90 57 91 58 92 59 93
REMARK H PARENT 6 15 83 43 49 54
REMARK Flexibility Score: inf
ROOT
ATOM      1  C   UNL A   1      33.989  30.522  27.354  1.00  0.00     0.275 C 
ENDROOT
BRANCH   1   2
ATOM      2  C   UNL A   1      32.673  29.742  27.137  1.00  0.00     0.275 C 
BRANCH   2   3
ATOM      3  O   UNL A   1      32.835  28.403  26.586  1.00  0.00    -0.458 OA
BRANCH   3   4
ATOM      4  C   UNL A   1      31.680  27.677  26.582  1.00  0.00     0.340 C 
ATOM      5  O   UNL A   1      31.087  27.339  27.599  1.00  0.00    -0.246 OA
BRANCH   4   6
ATOM      6  C   UNL A   1      31.381  26.920  25.344  1.00  0.00     0.083 A 
ATOM      7  C   UNL A   1      33.513  27.099  22.174  1.00  0.00     0.044 C 
ATOM      8  C   UNL A   1      32.432  26.710  23.130  1.00  0.00    -0.050 A 
ATOM      9  C   UNL A   1      31.605  25.632  22.868  1.00  0.00     0.005 A 
ATOM     10  C   UNL A   1      32.258  27.388  24.330  1.00  0.00     0.021 A 
ATOM     11  C   UNL A   1      30.705  25.188  23.838  1.00  0.00     0.027 A 
ATOM     12  C   UNL A   1      30.660  25.715  25.138  1.00  0.00     0.056 A 
BRANCH  12  13
ATOM     13  N   UNL A   1      29.953  24.992  26.141  1.00  0.00    -0.321 N 
ATOM     14  C   UNL A   1      30.189  23.761  26.771  1.00  0.00     0.256 C 
ATOM     15  H   UNL A   1      29.138  25.446  26.455  1.00  0.00     0.170 HD
ATOM     16  O   UNL A   1      29.441  23.339  27.629  1.00  0.00    -0.269 OA
BRANCH  14  17
ATOM     17  C   UNL A   1      31.307  22.885  26.430  1.00  0.00     0.052 A 
ATOM     18  C   UNL A   1      32.560  23.127  26.979  1.00  0.00     0.080 A 
ATOM     19  C   UNL A   1      31.374  21.837  25.452  1.00  0.00     0.041 A 
ATOM     20  S   UNL A   1      33.733  22.001  26.465  1.00  0.00    -0.136 S 
ATOM     21  C   UNL A   1      32.619  21.256  25.429  1.00  0.00     0.071 A 
ATOM     22  Br  UNL A   1      33.063  19.779  24.369  1.00  0.00    -0.039 Br
ENDBRANCH  14  17
ENDBRANCH  12  13
ENDBRANCH   4   6
ENDBRANCH   3   4
ENDBRANCH   2   3
ENDBRANCH   1   2
BRANCH   1  23
ATOM     23  O   UNL A   1      35.141  29.811  27.849  1.00  0.00    -0.458 OA
BRANCH  23  24
ATOM     24  C   UNL A   1      36.305  30.509  27.845  1.00  0.00     0.338 C 
ATOM     25  O   UNL A   1      36.363  31.713  28.049  1.00  0.00    -0.246 OA
BRANCH  24  26
ATOM     26  C   UNL A   1      37.409  29.521  27.962  1.00  0.00     0.060 A 
ATOM     27  C   UNL A   1      38.544  29.710  27.168  1.00  0.00     0.016 A 
ATOM     28  C   UNL A   1      37.462  28.671  29.067  1.00  0.00     0.016 A 
ATOM     29  C   UNL A   1      39.768  29.165  27.505  1.00  0.00     0.010 A 
ATOM     30  C   UNL A   1      38.686  28.194  29.464  1.00  0.00     0.010 A 
ATOM     31  C   UNL A   1      39.828  28.441  28.679  1.00  0.00    -0.014 A 
BRANCH  31  32
ATOM     32  C   UNL A   1      40.983  27.656  29.042  1.00  0.00     0.031 A 
ATOM     33  C   UNL A   1      41.137  26.242  28.668  1.00  0.00     0.074 A 
ATOM     34  C   UNL A   1      41.920  28.451  29.595  1.00  0.00     0.049 A 
ATOM     35  N   UNL A   1      42.173  25.546  28.966  1.00  0.00    -0.248 NA
ATOM     36  C   UNL A   1      40.132  25.450  27.966  1.00  0.00     0.031 C 
ATOM     37  C   UNL A   1      43.349  28.288  29.739  1.00  0.00     0.029 A 
ATOM     38  N   UNL A   1      41.643  29.607  30.321  1.00  0.00    -0.354 N 
ATOM     39  C   UNL A   1      42.119  24.358  28.263  1.00  0.00     0.074 A 
ATOM     40  C   UNL A   1      40.780  24.298  27.748  1.00  0.00     0.031 C 
ATOM     41  C   UNL A   1      43.776  29.128  30.702  1.00  0.00     0.029 A 
ATOM     42  C   UNL A   1      42.591  29.721  31.322  1.00  0.00     0.049 A 
ATOM     43  H   UNL A   1      40.902  30.233  30.152  1.00  0.00     0.167 HD
ATOM     44  C   UNL A   1      43.287  23.673  28.109  1.00  0.00     0.037 A 
ATOM     45  C   UNL A   1      42.173  29.462  32.601  1.00  0.00     0.037 A 
ATOM     46  C   UNL A   1      44.268  24.227  29.042  1.00  0.00     0.049 A 
ATOM     47  C   UNL A   1      42.824  28.197  33.108  1.00  0.00     0.074 A 
ATOM     48  C   UNL A   1      45.234  25.207  28.891  1.00  0.00     0.029 A 
ATOM     49  N   UNL A   1      44.032  24.099  30.408  1.00  0.00    -0.354 N 
ATOM     50  N   UNL A   1      43.046  27.123  32.392  1.00  0.00    -0.248 NA
ATOM     51  C   UNL A   1      43.472  28.160  34.415  1.00  0.00     0.031 C 
ATOM     52  C   UNL A   1      45.467  25.770  30.178  1.00  0.00     0.029 A 
ATOM     53  C   UNL A   1      44.661  25.118  31.101  1.00  0.00     0.049 A 
ATOM     54  H   UNL A   1      43.495  23.387  30.822  1.00  0.00     0.167 HD
ATOM     55  C   UNL A   1      43.940  26.324  33.064  1.00  0.00     0.074 A 
ATOM     56  C   UNL A   1      44.149  27.004  34.334  1.00  0.00     0.031 C 
ATOM     57  C   UNL A   1      44.547  25.211  32.547  1.00  0.00     0.037 A 
BRANCH  44  58
ATOM     58  C   UNL A   1      43.651  22.724  26.978  1.00  0.00     0.058 A 
ATOM     59  C   UNL A   1      42.998  21.470  26.889  1.00  0.00     0.135 A 
ATOM     60  C   UNL A   1      44.694  22.897  26.042  1.00  0.00     0.135 A 
ATOM     61  F   UNL A   1      41.964  21.165  27.687  1.00  0.00    -0.206 F 
ATOM     62  C   UNL A   1      43.383  20.461  26.002  1.00  0.00     0.059 A 
ATOM     63  C   UNL A   1      45.091  21.902  25.137  1.00  0.00     0.059 A 
ATOM     64  F   UNL A   1      45.395  24.030  25.956  1.00  0.00    -0.206 F 
ATOM     65  C   UNL A   1      44.444  20.676  25.138  1.00  0.00     0.060 A 
BRANCH  65  66
ATOM     66  S   UNL A   1      44.952  19.352  24.027  1.00  0.00     0.124 S 
ATOM     67  O   UNL A   1      44.483  19.842  22.734  1.00  0.00    -0.237 OA
ATOM     68  O   UNL A   1      46.399  19.332  24.211  1.00  0.00    -0.237 OA
ATOM     69  O   UNL A   1      44.245  18.182  24.541  1.00  0.00    -0.744 OA
ENDBRANCH  65  66
ENDBRANCH  44  58
BRANCH  45  70
ATOM     70  C   UNL A   1      40.797  29.996  32.897  1.00  0.00     0.058 A 
ATOM     71  C   UNL A   1      40.688  31.399  33.007  1.00  0.00     0.135 A 
ATOM     72  C   UNL A   1      39.599  29.299  32.656  1.00  0.00     0.135 A 
ATOM     73  F   UNL A   1      41.782  32.135  33.262  1.00  0.00    -0.206 F 
ATOM     74  C   UNL A   1      39.513  32.084  32.714  1.00  0.00     0.059 A 
ATOM     75  C   UNL A   1      38.390  29.974  32.376  1.00  0.00     0.059 A 
ATOM     76  F   UNL A   1      39.606  27.960  32.566  1.00  0.00    -0.206 F 
ATOM     77  C   UNL A   1      38.381  31.372  32.334  1.00  0.00     0.060 A 
BRANCH  77  78
ATOM     78  S   UNL A   1      37.043  32.351  31.580  1.00  0.00     0.124 S 
ATOM     79  O   UNL A   1      36.079  31.320  31.213  1.00  0.00    -0.237 OA
ATOM     80  O   UNL A   1      36.650  33.218  32.690  1.00  0.00    -0.237 OA
ATOM     81  O   UNL A   1      37.681  33.054  30.481  1.00  0.00    -0.744 OA
ENDBRANCH  77  78
ENDBRANCH  45  70
BRANCH  57  82
ATOM     82  C   UNL A   1      45.230  24.150  33.381  1.00  0.00     0.058 A 
ATOM     83  C   UNL A   1      46.542  24.281  33.866  1.00  0.00     0.135 A 
ATOM     84  C   UNL A   1      44.514  23.024  33.860  1.00  0.00     0.135 A 
ATOM     85  F   UNL A   1      47.278  25.374  33.617  1.00  0.00    -0.206 F 
ATOM     86  C   UNL A   1      47.141  23.315  34.668  1.00  0.00     0.059 A 
ATOM     87  C   UNL A   1      45.069  22.087  34.724  1.00  0.00     0.059 A 
ATOM     88  F   UNL A   1      43.235  22.800  33.525  1.00  0.00    -0.206 F 
ATOM     89  C   UNL A   1      46.399  22.219  35.088  1.00  0.00     0.060 A 
BRANCH  89  90
ATOM     90  S   UNL A   1      47.168  20.988  36.147  1.00  0.00     0.124 S 
ATOM     91  O   UNL A   1      46.412  19.792  35.791  1.00  0.00    -0.237 OA
ATOM     92  O   UNL A   1      48.559  21.010  35.704  1.00  0.00    -0.237 OA
ATOM     93  O   UNL A   1      46.937  21.507  37.491  1.00  0.00    -0.744 OA
ENDBRANCH  89  90
ENDBRANCH  57  82
ENDBRANCH  31  32
ENDBRANCH  24  26
ENDBRANCH  23  24
ENDBRANCH   1  23
TORSDOF 16
ENDMDL
MODEL 3
REMARK VINA RESULT:     -12.7      2.473      3.478
REMARK SMILES Cc1ccc(NC(=O)c2csc(Br)c2)c(C(=O)OCCOC(=O)c2ccc(-c3c4nc(c(-c5c(F)cc(S(=O)(=O)[O-])cc5F)c5ccc([nH]5)c(-c5c(F)cc(S(=O)(=O)[O-])cc5F)c5nc(c(-c6c(F)cc(S(=O)(=O)[O-])cc6F)c6ccc3[nH]6)C=C5)C=C4)cc2)c1
REMARK SMILES IDX 20 1 19 2 18 3 16 4 17 5 15 6 1 7 2 8 3 9 90 10 4 11 5 12
REMARK SMILES IDX 6 13 7 14 8 16 9 17 10 18 14 19 11 20 12 21 13 22 21 23
REMARK SMILES IDX 22 24 23 25 24 26 25 27 89 28 26 29 88 30 27 31 28 32 29 33
REMARK SMILES IDX 82 34 30 35 87 36 81 37 83 38 31 39 86 40 80 41 79 42 32 44
REMARK SMILES IDX 66 45 45 46 65 47 46 48 49 49 64 50 84 51 47 52 48 53 63 55
REMARK SMILES IDX 85 56 50 57 33 58 34 59 43 60 35 61 36 62 42 63 44 64 37 65
REMARK SMILES IDX 38 66 39 67 40 68 41 69 67 70 68 71 77 72 69 73 70 74 76 75
REMARK SMILES IDX 78 76 71 77 72 78 73 79 74 80 75 81 51 82 52 83 61 84 53 85
REMARK SMILES IDX 54 86 60 87 62 88 55 89 56 90 57 91 58 92 59 93
REMARK H PARENT 6 15 83 43 49 54
REMARK Flexibility Score: inf
ROOT
ATOM      1  C   UNL A   1      33.266  30.693  27.028  1.00  0.00     0.275 C 
ENDROOT
BRANCH   1   2
ATOM      2  C   UNL A   1      32.270  29.520  27.178  1.00  0.00     0.275 C 
BRANCH   2   3
ATOM      3  O   UNL A   1      32.413  28.462  26.186  1.00  0.00    -0.458 OA
BRANCH   3   4
ATOM      4  C   UNL A   1      31.476  27.477  26.307  1.00  0.00     0.340 C 
ATOM      5  O   UNL A   1      31.090  27.037  27.383  1.00  0.00    -0.246 OA
BRANCH   4   6
ATOM      6  C   UNL A   1      31.246  26.634  25.112  1.00  0.00     0.083 A 
ATOM      7  C   UNL A   1      33.444  26.734  21.984  1.00  0.00     0.044 C 
ATOM      8  C   UNL A   1      32.360  26.348  22.938  1.00  0.00    -0.050 A 
ATOM      9  C   UNL A   1      31.596  25.214  22.724  1.00  0.00     0.005 A 
ATOM     10  C   UNL A   1      32.123  27.086  24.090  1.00  0.00     0.021 A 
ATOM     11  C   UNL A   1      30.696  24.783  23.699  1.00  0.00     0.027 A 
ATOM     12  C   UNL A   1      30.593  25.384  24.964  1.00  0.00     0.056 A 
BRANCH  12  13
ATOM     13  N   UNL A   1      29.898  24.685  25.993  1.00  0.00    -0.321 N 
ATOM     14  C   UNL A   1      30.213  23.547  26.750  1.00  0.00     0.256 C 
ATOM     15  H   UNL A   1      29.026  25.081  26.219  1.00  0.00     0.170 HD
ATOM     16  O   UNL A   1      29.457  23.130  27.605  1.00  0.00    -0.269 OA
BRANCH  14  17
ATOM     17  C   UNL A   1      31.429  22.763  26.553  1.00  0.00     0.052 A 
ATOM     18  C   UNL A   1      32.549  23.029  27.330  1.00  0.00     0.080 A 
ATOM     19  C   UNL A   1      31.733  21.798  25.535  1.00  0.00     0.041 A 
ATOM     20  S   UNL A   1      33.867  22.012  26.956  1.00  0.00    -0.136 S 
ATOM     21  C   UNL A   1      33.000  21.290  25.693  1.00  0.00     0.071 A 
ATOM     22  Br  UNL A   1      33.717  19.925  24.631  1.00  0.00    -0.039 Br
ENDBRANCH  14  17
ENDBRANCH  12  13
ENDBRANCH   4   6
ENDBRANCH   3   4
ENDBRANCH   2   3
ENDBRANCH   1   2
BRANCH   1  23
ATOM     23  O   UNL A   1      34.664  30.449  27.282  1.00  0.00    -0.458 OA
BRANCH  23  24
ATOM     24  C   UNL A   1      35.372  31.518  27.724  1.00  0.00     0.338 C 
ATOM     25  O   UNL A   1      34.948  32.665  27.685  1.00  0.00    -0.246 OA
BRANCH  24  26
ATOM     26  C   UNL A   1      36.473  30.993  28.574  1.00  0.00     0.060 A 
ATOM     27  C   UNL A   1      36.424  29.649  28.954  1.00  0.00     0.016 A 
ATOM     28  C   UNL A   1      37.669  31.704  28.672  1.00  0.00     0.016 A 
ATOM     29  C   UNL A   1      37.560  28.955  29.325  1.00  0.00     0.010 A 
ATOM     30  C   UNL A   1      38.819  31.011  28.954  1.00  0.00     0.010 A 
ATOM     31  C   UNL A   1      38.755  29.643  29.281  1.00  0.00    -0.014 A 
BRANCH  31  32
ATOM     32  C   UNL A   1      39.975  29.104  29.831  1.00  0.00     0.031 A 
ATOM     33  C   UNL A   1      40.536  27.810  29.414  1.00  0.00     0.074 A 
ATOM     34  C   UNL A   1      40.570  30.026  30.614  1.00  0.00     0.049 A 
ATOM     35  N   UNL A   1      41.634  27.338  29.881  1.00  0.00    -0.248 NA
ATOM     36  C   UNL A   1      39.905  26.891  28.472  1.00  0.00     0.031 C 
ATOM     37  C   UNL A   1      41.941  30.174  31.044  1.00  0.00     0.029 A 
ATOM     38  N   UNL A   1      39.888  31.005  31.333  1.00  0.00    -0.354 N 
ATOM     39  C   UNL A   1      42.004  26.250  29.113  1.00  0.00     0.074 A 
ATOM     40  C   UNL A   1      40.842  25.946  28.327  1.00  0.00     0.031 C 
ATOM     41  C   UNL A   1      41.961  30.981  32.124  1.00  0.00     0.029 A 
ATOM     42  C   UNL A   1      40.572  31.221  32.516  1.00  0.00     0.049 A 
ATOM     43  H   UNL A   1      39.063  31.463  31.050  1.00  0.00     0.167 HD
ATOM     44  C   UNL A   1      43.311  25.866  29.167  1.00  0.00     0.037 A 
ATOM     45  C   UNL A   1      39.995  30.740  33.662  1.00  0.00     0.037 A 
ATOM     46  C   UNL A   1      43.933  26.525  30.316  1.00  0.00     0.049 A 
ATOM     47  C   UNL A   1      40.825  29.607  34.218  1.00  0.00     0.074 A 
ATOM     48  C   UNL A   1      44.643  27.708  30.430  1.00  0.00     0.029 A 
ATOM     49  N   UNL A   1      43.480  26.201  31.592  1.00  0.00    -0.354 N 
ATOM     50  N   UNL A   1      41.432  28.694  33.501  1.00  0.00    -0.248 NA
ATOM     51  C   UNL A   1      41.202  29.576  35.626  1.00  0.00     0.031 C 
ATOM     52  C   UNL A   1      44.484  28.167  31.768  1.00  0.00     0.029 A 
ATOM     53  C   UNL A   1      43.700  27.254  32.461  1.00  0.00     0.049 A 
ATOM     54  H   UNL A   1      43.063  25.345  31.841  1.00  0.00     0.167 HD
ATOM     55  C   UNL A   1      42.350  28.050  34.297  1.00  0.00     0.074 A 
ATOM     56  C   UNL A   1      42.142  28.619  35.621  1.00  0.00     0.031 C 
ATOM     57  C   UNL A   1      43.295  27.164  33.854  1.00  0.00     0.037 A 
BRANCH  44  58
ATOM     58  C   UNL A   1      44.102  25.151  28.083  1.00  0.00     0.058 A 
ATOM     59  C   UNL A   1      44.125  25.692  26.774  1.00  0.00     0.135 A 
ATOM     60  C   UNL A   1      44.739  23.897  28.199  1.00  0.00     0.135 A 
ATOM     61  F   UNL A   1      43.591  26.893  26.506  1.00  0.00    -0.206 F 
ATOM     62  C   UNL A   1      44.668  25.023  25.673  1.00  0.00     0.059 A 
ATOM     63  C   UNL A   1      45.298  23.212  27.110  1.00  0.00     0.059 A 
ATOM     64  F   UNL A   1      44.846  23.256  29.365  1.00  0.00    -0.206 F 
ATOM     65  C   UNL A   1      45.240  23.773  25.844  1.00  0.00     0.060 A 
BRANCH  65  66
ATOM     66  S   UNL A   1      45.902  22.908  24.409  1.00  0.00     0.124 S 
ATOM     67  O   UNL A   1      44.712  22.735  23.582  1.00  0.00    -0.237 OA
ATOM     68  O   UNL A   1      46.893  23.854  23.907  1.00  0.00    -0.237 OA
ATOM     69  O   UNL A   1      46.450  21.677  24.973  1.00  0.00    -0.744 OA
ENDBRANCH  65  66
ENDBRANCH  44  58
BRANCH  45  70
ATOM     70  C   UNL A   1      38.500  30.915  33.693  1.00  0.00     0.058 A 
ATOM     71  C   UNL A   1      38.032  32.142  34.208  1.00  0.00     0.135 A 
ATOM     72  C   UNL A   1      37.592  30.189  32.900  1.00  0.00     0.135 A 
ATOM     73  F   UNL A   1      38.829  32.883  34.996  1.00  0.00    -0.206 F 
ATOM     74  C   UNL A   1      36.821  32.705  33.818  1.00  0.00     0.059 A 
ATOM     75  C   UNL A   1      36.348  30.733  32.508  1.00  0.00     0.059 A 
ATOM     76  F   UNL A   1      37.944  28.998  32.393  1.00  0.00    -0.206 F 
ATOM     77  C   UNL A   1      36.010  32.027  32.915  1.00  0.00     0.060 A 
BRANCH  77  78
ATOM     78  S   UNL A   1      34.676  33.007  32.154  1.00  0.00     0.124 S 
ATOM     79  O   UNL A   1      35.297  34.319  32.022  1.00  0.00    -0.237 OA
ATOM     80  O   UNL A   1      34.455  32.282  30.903  1.00  0.00    -0.237 OA
ATOM     81  O   UNL A   1      33.572  32.911  33.093  1.00  0.00    -0.744 OA
ENDBRANCH  77  78
ENDBRANCH  45  70
BRANCH  57  82
ATOM     82  C   UNL A   1      44.044  26.201  34.748  1.00  0.00     0.058 A 
ATOM     83  C   UNL A   1      43.506  24.978  35.181  1.00  0.00     0.135 A 
ATOM     84  C   UNL A   1      45.409  26.412  35.068  1.00  0.00     0.135 A 
ATOM     85  F   UNL A   1      42.277  24.583  34.818  1.00  0.00    -0.206 F 
ATOM     86  C   UNL A   1      44.224  24.084  35.969  1.00  0.00     0.059 A 
ATOM     87  C   UNL A   1      46.167  25.495  35.787  1.00  0.00     0.059 A 
ATOM     88  F   UNL A   1      46.070  27.509  34.672  1.00  0.00    -0.206 F 
ATOM     89  C   UNL A   1      45.552  24.353  36.271  1.00  0.00     0.060 A 
BRANCH  89  90
ATOM     90  S   UNL A   1      46.484  23.182  37.265  1.00  0.00     0.124 S 
ATOM     91  O   UNL A   1      47.786  23.222  36.609  1.00  0.00    -0.237 OA
ATOM     92  O   UNL A   1      46.429  23.779  38.597  1.00  0.00    -0.237 OA
ATOM     93  O   UNL A   1      45.735  21.939  37.113  1.00  0.00    -0.744 OA
ENDBRANCH  89  90
ENDBRANCH  57  82
ENDBRANCH  31  32
ENDBRANCH  24  26
ENDBRANCH  23  24
ENDBRANCH   1  23
TORSDOF 16
ENDMDL
