MODEL 1
REMARK VINA RESULT:     -10.2      0.000      0.000
REMARK SMILES CC(C)Cc1ccc([C@H](C)C(=O)OCCOC(=O)c2ccc(-c3c4nc(c(-c5c(F)cc(S(=O)(=O)[O-])cc5F)c5ccc([nH]5)c(-c5c(F)cc(S(=O)(=O)[O-])cc5F)c5nc(c(-c6c(F)cc(S(=O)(=O)[O-])cc6F)c6ccc3[nH]6)C=C5)C=C4)cc2)cc1
REMARK SMILES IDX 14 1 13 2 11 3 12 4 9 5 10 6 8 7 5 8 6 9 86 10 7 11 85 12
REMARK SMILES IDX 4 13 2 14 1 15 3 16 15 17 16 18 17 19 18 20 19 21 20 22
REMARK SMILES IDX 84 23 21 24 83 25 22 26 23 27 24 28 77 29 25 30 82 31 76 32
REMARK SMILES IDX 78 33 26 34 81 35 75 36 74 37 27 39 61 40 40 41 60 42 41 43
REMARK SMILES IDX 44 44 59 45 79 46 42 47 43 48 58 50 80 51 45 52 28 53 29 54
REMARK SMILES IDX 38 55 30 56 31 57 37 58 39 59 32 60 33 61 34 62 35 63 36 64
REMARK SMILES IDX 62 65 63 66 72 67 64 68 65 69 71 70 73 71 66 72 67 73 68 74
REMARK SMILES IDX 69 75 70 76 46 77 47 78 56 79 48 80 49 81 55 82 57 83 50 84
REMARK SMILES IDX 51 85 52 86 53 87 54 88
REMARK H PARENT 78 38 44 49
REMARK Flexibility Score: inf
ROOT
ATOM      1  C   UNL A   1      43.641  22.573  25.472  1.00  0.00     0.274 C 
ENDROOT
BRANCH   1   2
ATOM      2  O   UNL A   1      42.230  22.296  25.386  1.00  0.00    -0.462 OA
BRANCH   2   3
ATOM      3  C   UNL A   1      41.798  21.221  26.100  1.00  0.00     0.313 C 
ATOM      4  O   UNL A   1      42.248  20.086  25.967  1.00  0.00    -0.252 OA
BRANCH   3   5
ATOM      5  C   UNL A   1      40.680  21.559  27.092  1.00  0.00     0.126 C 
ATOM      6  C   UNL A   1      41.172  22.364  28.297  1.00  0.00     0.025 C 
BRANCH   5   7
ATOM      7  C   UNL A   1      39.465  22.118  26.369  1.00  0.00    -0.034 A 
ATOM      8  C   UNL A   1      37.130  23.212  25.218  1.00  0.00    -0.048 A 
ATOM      9  C   UNL A   1      37.933  23.990  26.054  1.00  0.00     0.004 A 
ATOM     10  C   UNL A   1      37.533  21.905  24.914  1.00  0.00     0.004 A 
ATOM     11  C   UNL A   1      39.088  23.450  26.617  1.00  0.00     0.005 A 
ATOM     12  C   UNL A   1      38.684  21.361  25.488  1.00  0.00     0.005 A 
BRANCH   8  13
ATOM     13  C   UNL A   1      35.814  23.745  24.712  1.00  0.00     0.038 C 
BRANCH  13  14
ATOM     14  C   UNL A   1      34.978  24.406  25.827  1.00  0.00    -0.013 C 
ATOM     15  C   UNL A   1      34.099  25.543  25.296  1.00  0.00     0.008 C 
ATOM     16  C   UNL A   1      34.107  23.358  26.520  1.00  0.00     0.008 C 
ENDBRANCH  13  14
ENDBRANCH   8  13
ENDBRANCH   5   7
ENDBRANCH   3   5
ENDBRANCH   2   3
ENDBRANCH   1   2
BRANCH   1  17
ATOM     17  C   UNL A   1      43.922  24.059  25.711  1.00  0.00     0.275 C 
BRANCH  17  18
ATOM     18  O   UNL A   1      42.991  24.647  26.642  1.00  0.00    -0.458 OA
BRANCH  18  19
ATOM     19  C   UNL A   1      42.338  25.741  26.187  1.00  0.00     0.338 C 
ATOM     20  O   UNL A   1      42.051  26.005  25.033  1.00  0.00    -0.246 OA
BRANCH  19  21
ATOM     21  C   UNL A   1      41.902  26.564  27.324  1.00  0.00     0.060 A 
ATOM     22  C   UNL A   1      42.559  27.775  27.553  1.00  0.00     0.016 A 
ATOM     23  C   UNL A   1      40.932  26.105  28.216  1.00  0.00     0.016 A 
ATOM     24  C   UNL A   1      42.261  28.534  28.680  1.00  0.00     0.010 A 
ATOM     25  C   UNL A   1      40.623  26.875  29.343  1.00  0.00     0.010 A 
ATOM     26  C   UNL A   1      41.293  28.087  29.586  1.00  0.00    -0.014 A 
BRANCH  26  27
ATOM     27  C   UNL A   1      41.010  28.878  30.806  1.00  0.00     0.031 A 
ATOM     28  C   UNL A   1      39.896  29.884  30.805  1.00  0.00     0.074 A 
ATOM     29  C   UNL A   1      41.742  28.676  31.917  1.00  0.00     0.049 A 
ATOM     30  N   UNL A   1      39.568  30.753  31.724  1.00  0.00    -0.248 NA
ATOM     31  C   UNL A   1      39.036  29.913  29.611  1.00  0.00     0.031 C 
ATOM     32  C   UNL A   1      42.812  27.686  32.056  1.00  0.00     0.029 A 
ATOM     33  N   UNL A   1      41.699  29.295  33.140  1.00  0.00    -0.354 N 
ATOM     34  C   UNL A   1      38.484  31.455  31.212  1.00  0.00     0.074 A 
ATOM     35  C   UNL A   1      38.210  30.910  29.899  1.00  0.00     0.031 C 
ATOM     36  C   UNL A   1      43.325  27.767  33.295  1.00  0.00     0.029 A 
ATOM     37  C   UNL A   1      42.657  28.846  34.017  1.00  0.00     0.049 A 
ATOM     38  H   UNL A   1      41.044  29.994  33.369  1.00  0.00     0.167 HD
ATOM     39  C   UNL A   1      37.785  32.462  31.786  1.00  0.00     0.037 A 
ATOM     40  C   UNL A   1      42.984  29.280  35.248  1.00  0.00     0.037 A 
ATOM     41  C   UNL A   1      38.052  32.985  33.101  1.00  0.00     0.049 A 
ATOM     42  C   UNL A   1      42.234  30.439  35.842  1.00  0.00     0.074 A 
ATOM     43  C   UNL A   1      37.394  33.998  33.777  1.00  0.00     0.029 A 
ATOM     44  N   UNL A   1      39.058  32.532  33.942  1.00  0.00    -0.354 N 
ATOM     45  N   UNL A   1      41.234  31.118  35.332  1.00  0.00    -0.248 NA
ATOM     46  C   UNL A   1      42.668  30.902  37.166  1.00  0.00     0.031 C 
ATOM     47  C   UNL A   1      38.023  34.177  35.016  1.00  0.00     0.029 A 
ATOM     48  C   UNL A   1      39.053  33.256  35.122  1.00  0.00     0.049 A 
ATOM     49  H   UNL A   1      39.684  31.801  33.731  1.00  0.00     0.167 HD
ATOM     50  C   UNL A   1      40.918  32.089  36.274  1.00  0.00     0.074 A 
ATOM     51  C   UNL A   1      41.821  31.898  37.392  1.00  0.00     0.031 C 
ATOM     52  C   UNL A   1      39.969  33.057  36.217  1.00  0.00     0.037 A 
BRANCH  39  53
ATOM     53  C   UNL A   1      36.688  33.088  30.976  1.00  0.00     0.058 A 
ATOM     54  C   UNL A   1      36.960  33.989  29.935  1.00  0.00     0.135 A 
ATOM     55  C   UNL A   1      35.345  32.774  31.239  1.00  0.00     0.135 A 
ATOM     56  F   UNL A   1      38.226  34.336  29.655  1.00  0.00    -0.206 F 
ATOM     57  C   UNL A   1      35.936  34.577  29.198  1.00  0.00     0.059 A 
ATOM     58  C   UNL A   1      34.306  33.336  30.504  1.00  0.00     0.059 A 
ATOM     59  F   UNL A   1      35.032  31.921  32.227  1.00  0.00    -0.206 F 
ATOM     60  C   UNL A   1      34.611  34.249  29.495  1.00  0.00     0.060 A 
BRANCH  60  61
ATOM     61  S   UNL A   1      33.287  35.027  28.544  1.00  0.00     0.124 S 
ATOM     62  O   UNL A   1      34.045  35.921  27.672  1.00  0.00    -0.237 OA
ATOM     63  O   UNL A   1      32.657  33.886  27.887  1.00  0.00    -0.237 OA
ATOM     64  O   UNL A   1      32.478  35.684  29.565  1.00  0.00    -0.744 OA
ENDBRANCH  60  61
ENDBRANCH  39  53
BRANCH  40  65
ATOM     65  C   UNL A   1      44.106  28.637  35.979  1.00  0.00     0.058 A 
ATOM     66  C   UNL A   1      45.423  29.090  35.826  1.00  0.00     0.135 A 
ATOM     67  C   UNL A   1      43.874  27.577  36.870  1.00  0.00     0.135 A 
ATOM     68  F   UNL A   1      45.693  30.093  34.977  1.00  0.00    -0.206 F 
ATOM     69  C   UNL A   1      46.475  28.517  36.533  1.00  0.00     0.059 A 
ATOM     70  C   UNL A   1      44.906  27.002  37.603  1.00  0.00     0.059 A 
ATOM     71  F   UNL A   1      42.628  27.116  37.056  1.00  0.00    -0.206 F 
ATOM     72  C   UNL A   1      46.205  27.475  37.423  1.00  0.00     0.060 A 
BRANCH  72  73
ATOM     73  S   UNL A   1      47.562  26.783  38.394  1.00  0.00     0.124 S 
ATOM     74  O   UNL A   1      46.971  25.541  38.879  1.00  0.00    -0.237 OA
ATOM     75  O   UNL A   1      48.619  26.642  37.398  1.00  0.00    -0.237 OA
ATOM     76  O   UNL A   1      47.802  27.808  39.407  1.00  0.00    -0.744 OA
ENDBRANCH  72  73
ENDBRANCH  40  65
BRANCH  52  77
ATOM     77  C   UNL A   1      39.864  33.978  37.396  1.00  0.00     0.058 A 
ATOM     78  C   UNL A   1      39.033  33.676  38.484  1.00  0.00     0.135 A 
ATOM     79  C   UNL A   1      40.627  35.154  37.455  1.00  0.00     0.135 A 
ATOM     80  F   UNL A   1      38.277  32.566  38.469  1.00  0.00    -0.206 F 
ATOM     81  C   UNL A   1      38.948  34.518  39.587  1.00  0.00     0.059 A 
ATOM     82  C   UNL A   1      40.572  36.003  38.556  1.00  0.00     0.059 A 
ATOM     83  F   UNL A   1      41.442  35.483  36.440  1.00  0.00    -0.206 F 
ATOM     84  C   UNL A   1      39.721  35.681  39.613  1.00  0.00     0.060 A 
BRANCH  84  85
ATOM     85  S   UNL A   1      39.630  36.756  41.062  1.00  0.00     0.124 S 
ATOM     86  O   UNL A   1      38.887  35.920  41.999  1.00  0.00    -0.237 OA
ATOM     87  O   UNL A   1      41.037  36.972  41.385  1.00  0.00    -0.237 OA
ATOM     88  O   UNL A   1      38.920  37.931  40.565  1.00  0.00    -0.744 OA
ENDBRANCH  84  85
ENDBRANCH  52  77
ENDBRANCH  26  27
ENDBRANCH  19  21
ENDBRANCH  18  19
ENDBRANCH  17  18
ENDBRANCH   1  17
TORSDOF 17
ENDMDL
MODEL 2
REMARK VINA RESULT:     -10.2      5.428     10.674
REMARK SMILES CC(C)Cc1ccc([C@H](C)C(=O)OCCOC(=O)c2ccc(-c3c4nc(c(-c5c(F)cc(S(=O)(=O)[O-])cc5F)c5ccc([nH]5)c(-c5c(F)cc(S(=O)(=O)[O-])cc5F)c5nc(c(-c6c(F)cc(S(=O)(=O)[O-])cc6F)c6ccc3[nH]6)C=C5)C=C4)cc2)cc1
REMARK SMILES IDX 14 1 13 2 11 3 12 4 9 5 10 6 8 7 5 8 6 9 86 10 7 11 85 12
REMARK SMILES IDX 4 13 2 14 1 15 3 16 15 17 16 18 17 19 18 20 19 21 20 22
REMARK SMILES IDX 84 23 21 24 83 25 22 26 23 27 24 28 77 29 25 30 82 31 76 32
REMARK SMILES IDX 78 33 26 34 81 35 75 36 74 37 27 39 61 40 40 41 60 42 41 43
REMARK SMILES IDX 44 44 59 45 79 46 42 47 43 48 58 50 80 51 45 52 28 53 29 54
REMARK SMILES IDX 38 55 30 56 31 57 37 58 39 59 32 60 33 61 34 62 35 63 36 64
REMARK SMILES IDX 62 65 63 66 72 67 64 68 65 69 71 70 73 71 66 72 67 73 68 74
REMARK SMILES IDX 69 75 70 76 46 77 47 78 56 79 48 80 49 81 55 82 57 83 50 84
REMARK SMILES IDX 51 85 52 86 53 87 54 88
REMARK H PARENT 78 38 44 49
REMARK Flexibility Score: inf
ROOT
ATOM      1  C   UNL A   1      32.297  28.527  25.561  1.00  0.00     0.274 C 
ENDROOT
BRANCH   1   2
ATOM      2  O   UNL A   1      32.194  28.495  24.124  1.00  0.00    -0.462 OA
BRANCH   2   3
ATOM      3  C   UNL A   1      32.758  27.414  23.520  1.00  0.00     0.313 C 
ATOM      4  O   UNL A   1      33.555  27.489  22.588  1.00  0.00    -0.252 OA
BRANCH   3   5
ATOM      5  C   UNL A   1      32.295  26.077  24.109  1.00  0.00     0.126 C 
ATOM      6  C   UNL A   1      30.954  25.605  23.543  1.00  0.00     0.025 C 
BRANCH   5   7
ATOM      7  C   UNL A   1      33.423  25.058  24.089  1.00  0.00    -0.034 A 
ATOM      8  C   UNL A   1      35.656  23.330  24.053  1.00  0.00    -0.048 A 
ATOM      9  C   UNL A   1      35.528  24.293  25.056  1.00  0.00     0.004 A 
ATOM     10  C   UNL A   1      34.634  23.198  23.105  1.00  0.00     0.004 A 
ATOM     11  C   UNL A   1      34.422  25.141  25.076  1.00  0.00     0.005 A 
ATOM     12  C   UNL A   1      33.533  24.056  23.118  1.00  0.00     0.005 A 
BRANCH   8  13
ATOM     13  C   UNL A   1      36.910  22.499  23.949  1.00  0.00     0.038 C 
BRANCH  13  14
ATOM     14  C   UNL A   1      37.187  21.689  25.232  1.00  0.00    -0.013 C 
ATOM     15  C   UNL A   1      37.216  20.180  24.970  1.00  0.00     0.008 C 
ATOM     16  C   UNL A   1      38.512  22.131  25.854  1.00  0.00     0.008 C 
ENDBRANCH  13  14
ENDBRANCH   8  13
ENDBRANCH   5   7
ENDBRANCH   3   5
ENDBRANCH   2   3
ENDBRANCH   1   2
BRANCH   1  17
ATOM     17  C   UNL A   1      33.713  28.872  26.030  1.00  0.00     0.275 C 
BRANCH  17  18
ATOM     18  O   UNL A   1      33.815  28.917  27.467  1.00  0.00    -0.458 OA
BRANCH  18  19
ATOM     19  C   UNL A   1      34.325  30.064  27.971  1.00  0.00     0.338 C 
ATOM     20  O   UNL A   1      33.722  31.089  28.236  1.00  0.00    -0.246 OA
BRANCH  19  21
ATOM     21  C   UNL A   1      35.752  29.879  28.274  1.00  0.00     0.060 A 
ATOM     22  C   UNL A   1      36.680  30.127  27.261  1.00  0.00     0.016 A 
ATOM     23  C   UNL A   1      36.166  29.367  29.504  1.00  0.00     0.016 A 
ATOM     24  C   UNL A   1      38.029  29.857  27.463  1.00  0.00     0.010 A 
ATOM     25  C   UNL A   1      37.525  29.108  29.712  1.00  0.00     0.010 A 
ATOM     26  C   UNL A   1      38.462  29.341  28.689  1.00  0.00    -0.014 A 
BRANCH  26  27
ATOM     27  C   UNL A   1      39.894  29.016  28.883  1.00  0.00     0.031 A 
ATOM     28  C   UNL A   1      40.836  30.063  29.401  1.00  0.00     0.074 A 
ATOM     29  C   UNL A   1      40.339  27.775  28.614  1.00  0.00     0.049 A 
ATOM     30  N   UNL A   1      42.136  30.015  29.526  1.00  0.00    -0.248 NA
ATOM     31  C   UNL A   1      40.234  31.333  29.837  1.00  0.00     0.031 C 
ATOM     32  C   UNL A   1      39.507  26.659  28.162  1.00  0.00     0.029 A 
ATOM     33  N   UNL A   1      41.603  27.246  28.679  1.00  0.00    -0.354 N 
ATOM     34  C   UNL A   1      42.515  31.254  30.026  1.00  0.00     0.074 A 
ATOM     35  C   UNL A   1      41.306  32.035  30.181  1.00  0.00     0.031 C 
ATOM     36  C   UNL A   1      40.283  25.576  27.988  1.00  0.00     0.029 A 
ATOM     37  C   UNL A   1      41.671  25.937  28.266  1.00  0.00     0.049 A 
ATOM     38  H   UNL A   1      42.386  27.754  28.991  1.00  0.00     0.167 HD
ATOM     39  C   UNL A   1      43.759  31.697  30.326  1.00  0.00     0.037 A 
ATOM     40  C   UNL A   1      42.735  25.131  28.094  1.00  0.00     0.037 A 
ATOM     41  C   UNL A   1      44.955  30.907  30.188  1.00  0.00     0.049 A 
ATOM     42  C   UNL A   1      44.112  25.664  28.375  1.00  0.00     0.074 A 
ATOM     43  C   UNL A   1      46.261  31.262  30.474  1.00  0.00     0.029 A 
ATOM     44  N   UNL A   1      44.988  29.599  29.726  1.00  0.00    -0.354 N 
ATOM     45  N   UNL A   1      44.461  26.850  28.814  1.00  0.00    -0.248 NA
ATOM     46  C   UNL A   1      45.239  24.757  28.122  1.00  0.00     0.031 C 
ATOM     47  C   UNL A   1      47.088  30.176  30.156  1.00  0.00     0.029 A 
ATOM     48  C   UNL A   1      46.292  29.137  29.700  1.00  0.00     0.049 A 
ATOM     49  H   UNL A   1      44.198  29.075  29.456  1.00  0.00     0.167 HD
ATOM     50  C   UNL A   1      45.848  26.833  28.889  1.00  0.00     0.074 A 
ATOM     51  C   UNL A   1      46.274  25.512  28.469  1.00  0.00     0.031 C 
ATOM     52  C   UNL A   1      46.694  27.823  29.266  1.00  0.00     0.037 A 
BRANCH  39  53
ATOM     53  C   UNL A   1      43.889  33.116  30.797  1.00  0.00     0.058 A 
ATOM     54  C   UNL A   1      43.788  33.457  32.154  1.00  0.00     0.135 A 
ATOM     55  C   UNL A   1      44.130  34.149  29.876  1.00  0.00     0.135 A 
ATOM     56  F   UNL A   1      43.541  32.509  33.072  1.00  0.00    -0.206 F 
ATOM     57  C   UNL A   1      43.894  34.777  32.581  1.00  0.00     0.059 A 
ATOM     58  C   UNL A   1      44.257  35.474  30.283  1.00  0.00     0.059 A 
ATOM     59  F   UNL A   1      44.231  33.876  28.566  1.00  0.00    -0.206 F 
ATOM     60  C   UNL A   1      44.122  35.780  31.636  1.00  0.00     0.060 A 
BRANCH  60  61
ATOM     61  S   UNL A   1      44.245  37.492  32.197  1.00  0.00     0.124 S 
ATOM     62  O   UNL A   1      45.671  37.597  32.495  1.00  0.00    -0.237 OA
ATOM     63  O   UNL A   1      43.786  38.241  31.031  1.00  0.00    -0.237 OA
ATOM     64  O   UNL A   1      43.357  37.535  33.354  1.00  0.00    -0.744 OA
ENDBRANCH  60  61
ENDBRANCH  39  53
BRANCH  40  65
ATOM     65  C   UNL A   1      42.537  23.749  27.589  1.00  0.00     0.058 A 
ATOM     66  C   UNL A   1      42.461  23.484  26.215  1.00  0.00     0.135 A 
ATOM     67  C   UNL A   1      42.450  22.662  28.474  1.00  0.00     0.135 A 
ATOM     68  F   UNL A   1      42.528  24.493  25.333  1.00  0.00    -0.206 F 
ATOM     69  C   UNL A   1      42.310  22.188  25.733  1.00  0.00     0.059 A 
ATOM     70  C   UNL A   1      42.319  21.356  28.015  1.00  0.00     0.059 A 
ATOM     71  F   UNL A   1      42.526  22.866  29.798  1.00  0.00    -0.206 F 
ATOM     72  C   UNL A   1      42.244  21.130  26.641  1.00  0.00     0.060 A 
BRANCH  72  73
ATOM     73  S   UNL A   1      42.122  19.442  26.009  1.00  0.00     0.124 S 
ATOM     74  O   UNL A   1      40.697  19.341  25.719  1.00  0.00    -0.237 OA
ATOM     75  O   UNL A   1      43.009  19.479  24.850  1.00  0.00    -0.237 OA
ATOM     76  O   UNL A   1      42.601  18.634  27.126  1.00  0.00    -0.744 OA
ENDBRANCH  72  73
ENDBRANCH  40  65
BRANCH  52  77
ATOM     77  C   UNL A   1      48.162  27.512  29.240  1.00  0.00     0.058 A 
ATOM     78  C   UNL A   1      48.968  27.895  28.159  1.00  0.00     0.135 A 
ATOM     79  C   UNL A   1      48.773  26.858  30.321  1.00  0.00     0.135 A 
ATOM     80  F   UNL A   1      48.427  28.515  27.099  1.00  0.00    -0.206 F 
ATOM     81  C   UNL A   1      50.333  27.626  28.141  1.00  0.00     0.059 A 
ATOM     82  C   UNL A   1      50.139  26.594  30.333  1.00  0.00     0.059 A 
ATOM     83  F   UNL A   1      48.044  26.477  31.382  1.00  0.00    -0.206 F 
ATOM     84  C   UNL A   1      50.909  26.973  29.233  1.00  0.00     0.060 A 
BRANCH  84  85
ATOM     85  S   UNL A   1      52.686  26.653  29.217  1.00  0.00     0.124 S 
ATOM     86  O   UNL A   1      52.830  25.859  28.002  1.00  0.00    -0.237 OA
ATOM     87  O   UNL A   1      53.250  27.999  29.165  1.00  0.00    -0.237 OA
ATOM     88  O   UNL A   1      52.910  25.937  30.469  1.00  0.00    -0.744 OA
ENDBRANCH  84  85
ENDBRANCH  52  77
ENDBRANCH  26  27
ENDBRANCH  19  21
ENDBRANCH  18  19
ENDBRANCH  17  18
ENDBRANCH   1  17
TORSDOF 17
ENDMDL
MODEL 3
REMARK VINA RESULT:     -10.1      1.450      8.867
REMARK SMILES CC(C)Cc1ccc([C@H](C)C(=O)OCCOC(=O)c2ccc(-c3c4nc(c(-c5c(F)cc(S(=O)(=O)[O-])cc5F)c5ccc([nH]5)c(-c5c(F)cc(S(=O)(=O)[O-])cc5F)c5nc(c(-c6c(F)cc(S(=O)(=O)[O-])cc6F)c6ccc3[nH]6)C=C5)C=C4)cc2)cc1
REMARK SMILES IDX 14 1 13 2 11 3 12 4 9 5 10 6 8 7 5 8 6 9 86 10 7 11 85 12
REMARK SMILES IDX 4 13 2 14 1 15 3 16 15 17 16 18 17 19 18 20 19 21 20 22
REMARK SMILES IDX 84 23 21 24 83 25 22 26 23 27 24 28 77 29 25 30 82 31 76 32
REMARK SMILES IDX 78 33 26 34 81 35 75 36 74 37 27 39 61 40 40 41 60 42 41 43
REMARK SMILES IDX 44 44 59 45 79 46 42 47 43 48 58 50 80 51 45 52 28 53 29 54
REMARK SMILES IDX 38 55 30 56 31 57 37 58 39 59 32 60 33 61 34 62 35 63 36 64
REMARK SMILES IDX 62 65 63 66 72 67 64 68 65 69 71 70 73 71 66 72 67 73 68 74
REMARK SMILES IDX 69 75 70 76 46 77 47 78 56 79 48 80 49 81 55 82 57 83 50 84
REMARK SMILES IDX 51 85 52 86 53 87 54 88
REMARK H PARENT 78 38 44 49
REMARK Flexibility Score: inf
ROOT
ATOM      1  C   UNL A   1      38.603  21.678  25.706  1.00  0.00     0.274 C 
ENDROOT
BRANCH   1   2
ATOM      2  O   UNL A   1      37.356  22.387  25.836  1.00  0.00    -0.462 OA
BRANCH   2   3
ATOM      3  C   UNL A   1      36.598  22.454  24.708  1.00  0.00     0.313 C 
ATOM      4  O   UNL A   1      37.065  22.559  23.576  1.00  0.00    -0.252 OA
BRANCH   3   5
ATOM      5  C   UNL A   1      35.091  22.396  24.981  1.00  0.00     0.126 C 
ATOM      6  C   UNL A   1      34.745  21.646  26.270  1.00  0.00     0.025 C 
BRANCH   5   7
ATOM      7  C   UNL A   1      34.458  23.768  24.818  1.00  0.00    -0.034 A 
ATOM      8  C   UNL A   1      33.445  26.367  24.380  1.00  0.00    -0.048 A 
ATOM      9  C   UNL A   1      33.689  25.516  23.300  1.00  0.00     0.004 A 
ATOM     10  C   UNL A   1      33.655  25.891  25.680  1.00  0.00     0.004 A 
ATOM     11  C   UNL A   1      34.184  24.232  23.519  1.00  0.00     0.005 A 
ATOM     12  C   UNL A   1      34.162  24.608  25.898  1.00  0.00     0.005 A 
BRANCH   8  13
ATOM     13  C   UNL A   1      33.035  27.799  24.146  1.00  0.00     0.038 C 
BRANCH  13  14
ATOM     14  C   UNL A   1      31.748  28.176  24.909  1.00  0.00    -0.013 C 
ATOM     15  C   UNL A   1      31.647  29.682  25.167  1.00  0.00     0.008 C 
ATOM     16  C   UNL A   1      30.520  27.701  24.131  1.00  0.00     0.008 C 
ENDBRANCH  13  14
ENDBRANCH   8  13
ENDBRANCH   5   7
ENDBRANCH   3   5
ENDBRANCH   2   3
ENDBRANCH   1   2
BRANCH   1  17
ATOM     17  C   UNL A   1      39.712  22.304  26.555  1.00  0.00     0.275 C 
BRANCH  17  18
ATOM     18  O   UNL A   1      39.556  23.730  26.691  1.00  0.00    -0.458 OA
BRANCH  18  19
ATOM     19  C   UNL A   1      40.711  24.429  26.783  1.00  0.00     0.338 C 
ATOM     20  O   UNL A   1      41.732  24.258  26.140  1.00  0.00    -0.246 OA
BRANCH  19  21
ATOM     21  C   UNL A   1      40.541  25.542  27.726  1.00  0.00     0.060 A 
ATOM     22  C   UNL A   1      41.529  26.528  27.771  1.00  0.00     0.016 A 
ATOM     23  C   UNL A   1      39.478  25.564  28.631  1.00  0.00     0.016 A 
ATOM     24  C   UNL A   1      41.472  27.538  28.724  1.00  0.00     0.010 A 
ATOM     25  C   UNL A   1      39.414  26.589  29.582  1.00  0.00     0.010 A 
ATOM     26  C   UNL A   1      40.416  27.574  29.640  1.00  0.00    -0.014 A 
BRANCH  26  27
ATOM     27  C   UNL A   1      40.383  28.629  30.680  1.00  0.00     0.031 A 
ATOM     28  C   UNL A   1      41.333  28.568  31.840  1.00  0.00     0.074 A 
ATOM     29  C   UNL A   1      39.512  29.650  30.568  1.00  0.00     0.049 A 
ATOM     30  N   UNL A   1      41.383  29.320  32.907  1.00  0.00    -0.248 NA
ATOM     31  C   UNL A   1      42.366  27.521  31.790  1.00  0.00     0.031 C 
ATOM     32  C   UNL A   1      38.580  29.847  29.456  1.00  0.00     0.029 A 
ATOM     33  N   UNL A   1      39.269  30.711  31.402  1.00  0.00    -0.354 N 
ATOM     34  C   UNL A   1      42.430  28.823  33.673  1.00  0.00     0.074 A 
ATOM     35  C   UNL A   1      42.989  27.702  32.947  1.00  0.00     0.031 C 
ATOM     36  C   UNL A   1      37.865  30.962  29.678  1.00  0.00     0.029 A 
ATOM     37  C   UNL A   1      38.250  31.526  30.969  1.00  0.00     0.049 A 
ATOM     38  H   UNL A   1      39.774  30.874  32.231  1.00  0.00     0.167 HD
ATOM     39  C   UNL A   1      42.880  29.263  34.872  1.00  0.00     0.037 A 
ATOM     40  C   UNL A   1      37.667  32.584  31.563  1.00  0.00     0.037 A 
ATOM     41  C   UNL A   1      42.331  30.392  35.577  1.00  0.00     0.049 A 
ATOM     42  C   UNL A   1      38.143  33.017  32.920  1.00  0.00     0.074 A 
ATOM     43  C   UNL A   1      42.723  30.922  36.794  1.00  0.00     0.029 A 
ATOM     44  N   UNL A   1      41.272  31.166  35.126  1.00  0.00    -0.354 N 
ATOM     45  N   UNL A   1      39.111  32.516  33.651  1.00  0.00    -0.248 NA
ATOM     46  C   UNL A   1      37.438  34.146  33.542  1.00  0.00     0.031 C 
ATOM     47  C   UNL A   1      41.879  32.001  37.092  1.00  0.00     0.029 A 
ATOM     48  C   UNL A   1      40.982  32.159  36.047  1.00  0.00     0.049 A 
ATOM     49  H   UNL A   1      40.795  31.030  34.275  1.00  0.00     0.167 HD
ATOM     50  C   UNL A   1      39.131  33.268  34.819  1.00  0.00     0.074 A 
ATOM     51  C   UNL A   1      38.091  34.270  34.690  1.00  0.00     0.031 C 
ATOM     52  C   UNL A   1      39.935  33.138  35.904  1.00  0.00     0.037 A 
BRANCH  39  53
ATOM     53  C   UNL A   1      43.999  28.494  35.511  1.00  0.00     0.058 A 
ATOM     54  C   UNL A   1      45.345  28.797  35.256  1.00  0.00     0.135 A 
ATOM     55  C   UNL A   1      43.719  27.444  36.401  1.00  0.00     0.135 A 
ATOM     56  F   UNL A   1      45.665  29.780  34.399  1.00  0.00    -0.206 F 
ATOM     57  C   UNL A   1      46.376  28.069  35.841  1.00  0.00     0.059 A 
ATOM     58  C   UNL A   1      44.735  26.714  37.011  1.00  0.00     0.059 A 
ATOM     59  F   UNL A   1      42.448  27.112  36.675  1.00  0.00    -0.206 F 
ATOM     60  C   UNL A   1      46.061  27.024  36.712  1.00  0.00     0.060 A 
BRANCH  60  61
ATOM     61  S   UNL A   1      47.405  26.076  37.457  1.00  0.00     0.124 S 
ATOM     62  O   UNL A   1      48.171  27.129  38.117  1.00  0.00    -0.237 OA
ATOM     63  O   UNL A   1      46.693  25.160  38.343  1.00  0.00    -0.237 OA
ATOM     64  O   UNL A   1      48.055  25.452  36.309  1.00  0.00    -0.744 OA
ENDBRANCH  60  61
ENDBRANCH  39  53
BRANCH  40  65
ATOM     65  C   UNL A   1      36.540  33.276  30.889  1.00  0.00     0.058 A 
ATOM     66  C   UNL A   1      35.222  33.113  31.333  1.00  0.00     0.135 A 
ATOM     67  C   UNL A   1      36.766  34.139  29.805  1.00  0.00     0.135 A 
ATOM     68  F   UNL A   1      34.956  32.289  32.359  1.00  0.00    -0.206 F 
ATOM     69  C   UNL A   1      34.163  33.784  30.730  1.00  0.00     0.059 A 
ATOM     70  C   UNL A   1      35.728  34.837  29.199  1.00  0.00     0.059 A 
ATOM     71  F   UNL A   1      38.014  34.334  29.350  1.00  0.00    -0.206 F 
ATOM     72  C   UNL A   1      34.427  34.648  29.665  1.00  0.00     0.060 A 
BRANCH  72  73
ATOM     73  S   UNL A   1      33.061  35.574  28.932  1.00  0.00     0.124 S 
ATOM     74  O   UNL A   1      32.365  34.531  28.189  1.00  0.00    -0.237 OA
ATOM     75  O   UNL A   1      32.368  36.091  30.109  1.00  0.00    -0.237 OA
ATOM     76  O   UNL A   1      33.739  36.583  28.124  1.00  0.00    -0.744 OA
ENDBRANCH  72  73
ENDBRANCH  40  65
BRANCH  52  77
ATOM     77  C   UNL A   1      39.717  34.101  37.033  1.00  0.00     0.058 A 
ATOM     78  C   UNL A   1      38.866  33.790  38.102  1.00  0.00     0.135 A 
ATOM     79  C   UNL A   1      40.393  35.331  37.063  1.00  0.00     0.135 A 
ATOM     80  F   UNL A   1      38.192  32.629  38.113  1.00  0.00    -0.206 F 
ATOM     81  C   UNL A   1      38.678  34.673  39.161  1.00  0.00     0.059 A 
ATOM     82  C   UNL A   1      40.235  36.222  38.120  1.00  0.00     0.059 A 
ATOM     83  F   UNL A   1      41.224  35.672  36.065  1.00  0.00    -0.206 F 
ATOM     84  C   UNL A   1      39.366  35.888  39.159  1.00  0.00     0.060 A 
BRANCH  84  85
ATOM     85  S   UNL A   1      39.141  37.017  40.550  1.00  0.00     0.124 S 
ATOM     86  O   UNL A   1      38.313  38.059  39.952  1.00  0.00    -0.237 OA
ATOM     87  O   UNL A   1      38.479  36.173  41.540  1.00  0.00    -0.237 OA
ATOM     88  O   UNL A   1      40.505  37.412  40.887  1.00  0.00    -0.744 OA
ENDBRANCH  84  85
ENDBRANCH  52  77
ENDBRANCH  26  27
ENDBRANCH  19  21
ENDBRANCH  18  19
ENDBRANCH  17  18
ENDBRANCH   1  17
TORSDOF 17
ENDMDL
