MODEL 1
REMARK VINA RESULT:     -11.9      0.000      0.000
REMARK SMILES Cc1[nH]cnc1C[NH+]1CCC(Oc2cccc(F)c2)(C(=O)OCCOC(=O)c2ccc(-c3c4nc(c(-c5c(F)cc(S(=O)(=O)[O-])cc5F)c5ccc([nH]5)c(-c5c(F)cc(S(=O)(=O)[O-])cc5F)c5nc(c(-c6c(F)cc(S(=O)(=O)[O-])cc6F)c6ccc3[nH]6)C=C5)C=C4)cc2)CC1
REMARK SMILES IDX 24 1 23 2 22 3 20 4 21 5 11 6 8 7 9 8 95 9 10 11 94 12 7 13
REMARK SMILES IDX 6 14 1 15 2 16 3 17 4 18 5 20 12 21 13 22 14 23 19 24 15 25
REMARK SMILES IDX 17 26 16 27 18 28 25 29 26 30 27 31 28 32 29 33 93 34 30 35
REMARK SMILES IDX 92 36 31 37 32 38 33 39 86 40 34 41 91 42 85 43 87 44 35 45
REMARK SMILES IDX 90 46 84 47 83 48 36 50 70 51 49 52 69 53 50 54 53 55 68 56
REMARK SMILES IDX 88 57 51 58 52 59 67 61 89 62 54 63 37 64 38 65 47 66 39 67
REMARK SMILES IDX 40 68 46 69 48 70 41 71 42 72 43 73 44 74 45 75 71 76 72 77
REMARK SMILES IDX 81 78 73 79 74 80 80 81 82 82 75 83 76 84 77 85 78 86 79 87
REMARK SMILES IDX 55 88 56 89 65 90 57 91 58 92 64 93 66 94 59 95 60 96 61 97
REMARK SMILES IDX 62 98 63 99
REMARK H PARENT 8 10 3 19 87 49 53 60
REMARK Flexibility Score: inf
ROOT
ATOM      1  C   UNL A   1      32.783  30.265  27.223  1.00  0.00     0.275 C 
ENDROOT
BRANCH   1   2
ATOM      2  C   UNL A   1      31.796  29.105  27.254  1.00  0.00     0.274 C 
BRANCH   2   3
ATOM      3  O   UNL A   1      32.313  27.953  26.557  1.00  0.00    -0.459 OA
BRANCH   3   4
ATOM      4  C   UNL A   1      31.375  27.161  25.961  1.00  0.00     0.351 C 
ATOM      5  O   UNL A   1      30.624  26.415  26.586  1.00  0.00    -0.247 OA
BRANCH   4   6
ATOM      6  C   UNL A   1      31.442  27.182  24.425  1.00  0.00     0.216 C 
ATOM      7  N   UNL A   1      29.157  28.313  23.025  1.00  0.00    -0.330 N 
ATOM      8  C   UNL A   1      30.065  29.226  23.715  1.00  0.00     0.267 C 
ATOM      9  C   UNL A   1      28.964  27.096  23.810  1.00  0.00     0.267 C 
ATOM     10  H   UNL A   1      29.610  28.067  22.144  1.00  0.00     0.348 HD
ATOM     11  C   UNL A   1      31.451  28.586  23.795  1.00  0.00     0.122 C 
ATOM     12  C   UNL A   1      30.283  26.324  23.863  1.00  0.00     0.122 C 
BRANCH   7  13
ATOM     13  C   UNL A   1      27.874  28.922  22.618  1.00  0.00     0.321 C 
BRANCH  13  14
ATOM     14  C   UNL A   1      27.986  30.286  22.003  1.00  0.00     0.115 A 
ATOM     15  C   UNL A   1      27.602  31.950  23.996  1.00  0.00     0.066 C 
ATOM     16  C   UNL A   1      27.873  31.528  22.606  1.00  0.00     0.040 A 
ATOM     17  N   UNL A   1      28.100  32.432  21.600  1.00  0.00    -0.348 N 
ATOM     18  C   UNL A   1      28.390  31.731  20.470  1.00  0.00     0.197 A 
ATOM     19  H   UNL A   1      28.060  33.412  21.681  1.00  0.00     0.167 HD
ATOM     20  N   UNL A   1      28.307  30.437  20.670  1.00  0.00    -0.236 NA
ENDBRANCH  13  14
ENDBRANCH   7  13
BRANCH   6  21
ATOM     21  O   UNL A   1      32.792  26.629  24.298  1.00  0.00    -0.475 OA
BRANCH  21  22
ATOM     22  C   UNL A   1      32.931  25.521  23.520  1.00  0.00     0.123 A 
ATOM     23  C   UNL A   1      32.733  25.620  22.144  1.00  0.00     0.047 A 
ATOM     24  C   UNL A   1      33.368  24.329  24.092  1.00  0.00     0.085 A 
ATOM     25  C   UNL A   1      32.912  24.499  21.335  1.00  0.00     0.007 A 
ATOM     26  C   UNL A   1      33.546  23.219  23.275  1.00  0.00     0.126 A 
ATOM     27  C   UNL A   1      33.314  23.292  21.904  1.00  0.00     0.039 A 
ATOM     28  F   UNL A   1      33.951  22.061  23.811  1.00  0.00    -0.207 F 
ENDBRANCH  21  22
ENDBRANCH   6  21
ENDBRANCH   4   6
ENDBRANCH   3   4
ENDBRANCH   2   3
ENDBRANCH   1   2
BRANCH   1  29
ATOM     29  O   UNL A   1      34.108  29.776  27.476  1.00  0.00    -0.458 OA
BRANCH  29  30
ATOM     30  C   UNL A   1      34.852  30.516  28.327  1.00  0.00     0.338 C 
ATOM     31  O   UNL A   1      34.491  31.534  28.907  1.00  0.00    -0.246 OA
BRANCH  30  32
ATOM     32  C   UNL A   1      36.208  29.945  28.470  1.00  0.00     0.060 A 
ATOM     33  C   UNL A   1      36.667  29.425  29.683  1.00  0.00     0.016 A 
ATOM     34  C   UNL A   1      37.083  30.054  27.387  1.00  0.00     0.016 A 
ATOM     35  C   UNL A   1      38.024  29.147  29.853  1.00  0.00     0.010 A 
ATOM     36  C   UNL A   1      38.426  29.707  27.536  1.00  0.00     0.010 A 
ATOM     37  C   UNL A   1      38.915  29.284  28.780  1.00  0.00    -0.014 A 
BRANCH  37  38
ATOM     38  C   UNL A   1      40.347  28.924  28.914  1.00  0.00     0.031 A 
ATOM     39  C   UNL A   1      41.376  29.958  29.271  1.00  0.00     0.074 A 
ATOM     40  C   UNL A   1      40.722  27.659  28.645  1.00  0.00     0.049 A 
ATOM     41  N   UNL A   1      42.680  29.886  29.181  1.00  0.00    -0.248 NA
ATOM     42  C   UNL A   1      40.881  31.239  29.798  1.00  0.00     0.031 C 
ATOM     43  C   UNL A   1      39.806  26.558  28.338  1.00  0.00     0.029 A 
ATOM     44  N   UNL A   1      41.967  27.093  28.563  1.00  0.00    -0.354 N 
ATOM     45  C   UNL A   1      43.162  31.115  29.617  1.00  0.00     0.074 A 
ATOM     46  C   UNL A   1      42.010  31.919  29.969  1.00  0.00     0.031 C 
ATOM     47  C   UNL A   1      40.520  25.450  28.096  1.00  0.00     0.029 A 
ATOM     48  C   UNL A   1      41.939  25.784  28.149  1.00  0.00     0.049 A 
ATOM     49  H   UNL A   1      42.798  27.575  28.779  1.00  0.00     0.167 HD
ATOM     50  C   UNL A   1      44.450  31.525  29.710  1.00  0.00     0.037 A 
ATOM     51  C   UNL A   1      42.935  24.956  27.785  1.00  0.00     0.037 A 
ATOM     52  C   UNL A   1      45.586  30.699  29.377  1.00  0.00     0.049 A 
ATOM     53  C   UNL A   1      44.345  25.459  27.802  1.00  0.00     0.074 A 
ATOM     54  C   UNL A   1      46.932  31.016  29.452  1.00  0.00     0.029 A 
ATOM     55  N   UNL A   1      45.508  29.395  28.910  1.00  0.00    -0.354 N 
ATOM     56  N   UNL A   1      44.788  26.643  28.150  1.00  0.00    -0.248 NA
ATOM     57  C   UNL A   1      45.388  24.528  27.354  1.00  0.00     0.031 C 
ATOM     58  C   UNL A   1      47.667  29.915  28.998  1.00  0.00     0.029 A 
ATOM     59  C   UNL A   1      46.781  28.901  28.672  1.00  0.00     0.049 A 
ATOM     60  H   UNL A   1      44.673  28.895  28.769  1.00  0.00     0.167 HD
ATOM     61  C   UNL A   1      46.161  26.603  27.963  1.00  0.00     0.074 A 
ATOM     62  C   UNL A   1      46.479  25.272  27.482  1.00  0.00     0.031 C 
ATOM     63  C   UNL A   1      47.075  27.582  28.172  1.00  0.00     0.037 A 
BRANCH  50  64
ATOM     64  C   UNL A   1      44.724  32.929  30.174  1.00  0.00     0.058 A 
ATOM     65  C   UNL A   1      44.821  33.214  31.546  1.00  0.00     0.135 A 
ATOM     66  C   UNL A   1      44.785  34.004  29.277  1.00  0.00     0.135 A 
ATOM     67  F   UNL A   1      44.774  32.222  32.449  1.00  0.00    -0.206 F 
ATOM     68  C   UNL A   1      44.944  34.519  32.013  1.00  0.00     0.059 A 
ATOM     69  C   UNL A   1      44.924  35.318  29.720  1.00  0.00     0.059 A 
ATOM     70  F   UNL A   1      44.712  33.785  27.954  1.00  0.00    -0.206 F 
ATOM     71  C   UNL A   1      44.986  35.568  31.092  1.00  0.00     0.060 A 
BRANCH  71  72
ATOM     72  S   UNL A   1      45.152  37.256  31.711  1.00  0.00     0.124 S 
ATOM     73  O   UNL A   1      44.286  37.998  30.802  1.00  0.00    -0.237 OA
ATOM     74  O   UNL A   1      44.674  37.131  33.085  1.00  0.00    -0.237 OA
ATOM     75  O   UNL A   1      46.582  37.525  31.580  1.00  0.00    -0.744 OA
ENDBRANCH  71  72
ENDBRANCH  50  64
BRANCH  51  76
ATOM     76  C   UNL A   1      42.590  23.590  27.324  1.00  0.00     0.058 A 
ATOM     77  C   UNL A   1      42.349  22.560  28.247  1.00  0.00     0.135 A 
ATOM     78  C   UNL A   1      42.626  23.261  25.963  1.00  0.00     0.135 A 
ATOM     79  F   UNL A   1      42.317  22.828  29.562  1.00  0.00    -0.206 F 
ATOM     80  C   UNL A   1      42.211  21.239  27.841  1.00  0.00     0.059 A 
ATOM     81  C   UNL A   1      42.469  21.948  25.530  1.00  0.00     0.059 A 
ATOM     82  F   UNL A   1      42.841  24.218  25.048  1.00  0.00    -0.206 F 
ATOM     83  C   UNL A   1      42.293  20.941  26.480  1.00  0.00     0.060 A 
BRANCH  83  84
ATOM     84  S   UNL A   1      42.188  19.212  25.970  1.00  0.00     0.124 S 
ATOM     85  O   UNL A   1      40.754  19.063  25.745  1.00  0.00    -0.237 OA
ATOM     86  O   UNL A   1      43.024  19.188  24.774  1.00  0.00    -0.237 OA
ATOM     87  O   UNL A   1      42.724  18.490  27.120  1.00  0.00    -0.744 OA
ENDBRANCH  83  84
ENDBRANCH  51  76
BRANCH  63  88
ATOM     88  C   UNL A   1      48.507  27.250  27.878  1.00  0.00     0.058 A 
ATOM     89  C   UNL A   1      49.056  27.504  26.612  1.00  0.00     0.135 A 
ATOM     90  C   UNL A   1      49.324  26.640  28.842  1.00  0.00     0.135 A 
ATOM     91  F   UNL A   1      48.313  28.086  25.658  1.00  0.00    -0.206 F 
ATOM     92  C   UNL A   1      50.366  27.155  26.308  1.00  0.00     0.059 A 
ATOM     93  C   UNL A   1      50.643  26.297  28.564  1.00  0.00     0.059 A 
ATOM     94  F   UNL A   1      48.846  26.393  30.072  1.00  0.00    -0.206 F 
ATOM     95  C   UNL A   1      51.151  26.547  27.289  1.00  0.00     0.060 A 
BRANCH  95  96
ATOM     96  S   UNL A   1      52.861  26.126  26.890  1.00  0.00     0.124 S 
ATOM     97  O   UNL A   1      53.487  26.141  28.207  1.00  0.00    -0.237 OA
ATOM     98  O   UNL A   1      52.722  24.813  26.267  1.00  0.00    -0.237 OA
ATOM     99  O   UNL A   1      53.269  27.198  25.986  1.00  0.00    -0.744 OA
ENDBRANCH  95  96
ENDBRANCH  63  88
ENDBRANCH  37  38
ENDBRANCH  30  32
ENDBRANCH  29  30
ENDBRANCH   1  29
TORSDOF 18
ENDMDL
MODEL 2
REMARK VINA RESULT:     -11.9      2.322      4.292
REMARK SMILES Cc1[nH]cnc1C[NH+]1CCC(Oc2cccc(F)c2)(C(=O)OCCOC(=O)c2ccc(-c3c4nc(c(-c5c(F)cc(S(=O)(=O)[O-])cc5F)c5ccc([nH]5)c(-c5c(F)cc(S(=O)(=O)[O-])cc5F)c5nc(c(-c6c(F)cc(S(=O)(=O)[O-])cc6F)c6ccc3[nH]6)C=C5)C=C4)cc2)CC1
REMARK SMILES IDX 24 1 23 2 22 3 20 4 21 5 11 6 8 7 9 8 95 9 10 11 94 12 7 13
REMARK SMILES IDX 6 14 1 15 2 16 3 17 4 18 5 20 12 21 13 22 14 23 19 24 15 25
REMARK SMILES IDX 17 26 16 27 18 28 25 29 26 30 27 31 28 32 29 33 93 34 30 35
REMARK SMILES IDX 92 36 31 37 32 38 33 39 86 40 34 41 91 42 85 43 87 44 35 45
REMARK SMILES IDX 90 46 84 47 83 48 36 50 70 51 49 52 69 53 50 54 53 55 68 56
REMARK SMILES IDX 88 57 51 58 52 59 67 61 89 62 54 63 37 64 38 65 47 66 39 67
REMARK SMILES IDX 40 68 46 69 48 70 41 71 42 72 43 73 44 74 45 75 71 76 72 77
REMARK SMILES IDX 81 78 73 79 74 80 80 81 82 82 75 83 76 84 77 85 78 86 79 87
REMARK SMILES IDX 55 88 56 89 65 90 57 91 58 92 64 93 66 94 59 95 60 96 61 97
REMARK SMILES IDX 62 98 63 99
REMARK H PARENT 8 10 3 19 87 49 53 60
REMARK Flexibility Score: inf
ROOT
ATOM      1  C   UNL A   1      34.167  30.647  27.196  1.00  0.00     0.275 C 
ENDROOT
BRANCH   1   2
ATOM      2  C   UNL A   1      33.311  29.754  26.307  1.00  0.00     0.274 C 
BRANCH   2   3
ATOM      3  O   UNL A   1      33.970  28.502  26.027  1.00  0.00    -0.459 OA
BRANCH   3   4
ATOM      4  C   UNL A   1      33.734  27.983  24.787  1.00  0.00     0.351 C 
ATOM      5  O   UNL A   1      34.019  28.567  23.743  1.00  0.00    -0.247 OA
BRANCH   4   6
ATOM      6  C   UNL A   1      32.945  26.662  24.815  1.00  0.00     0.216 C 
ATOM      7  N   UNL A   1      34.308  24.295  23.818  1.00  0.00    -0.330 N 
ATOM      8  C   UNL A   1      34.709  24.826  25.119  1.00  0.00     0.267 C 
ATOM      9  C   UNL A   1      34.028  25.386  22.887  1.00  0.00     0.267 C 
ATOM     10  H   UNL A   1      33.449  23.768  23.975  1.00  0.00     0.348 HD
ATOM     11  C   UNL A   1      33.530  25.578  25.736  1.00  0.00     0.122 C 
ATOM     12  C   UNL A   1      32.790  26.143  23.366  1.00  0.00     0.122 C 
BRANCH   7  13
ATOM     13  C   UNL A   1      35.246  23.305  23.250  1.00  0.00     0.321 C 
BRANCH  13  14
ATOM     14  C   UNL A   1      35.567  22.147  24.147  1.00  0.00     0.115 A 
ATOM     15  C   UNL A   1      33.268  20.941  24.529  1.00  0.00     0.066 C 
ATOM     16  C   UNL A   1      34.720  21.176  24.657  1.00  0.00     0.040 A 
ATOM     17  N   UNL A   1      35.534  20.339  25.378  1.00  0.00    -0.348 N 
ATOM     18  C   UNL A   1      36.813  20.784  25.238  1.00  0.00     0.197 A 
ATOM     19  H   UNL A   1      35.244  19.558  25.902  1.00  0.00     0.167 HD
ATOM     20  N   UNL A   1      36.868  21.882  24.523  1.00  0.00    -0.236 NA
ENDBRANCH  13  14
ENDBRANCH   7  13
BRANCH   6  21
ATOM     21  O   UNL A   1      31.739  27.189  25.459  1.00  0.00    -0.475 OA
BRANCH  21  22
ATOM     22  C   UNL A   1      30.652  27.382  24.663  1.00  0.00     0.123 A 
ATOM     23  C   UNL A   1      29.630  26.434  24.659  1.00  0.00     0.047 A 
ATOM     24  C   UNL A   1      30.526  28.567  23.944  1.00  0.00     0.085 A 
ATOM     25  C   UNL A   1      28.494  26.642  23.877  1.00  0.00     0.007 A 
ATOM     26  C   UNL A   1      29.389  28.764  23.170  1.00  0.00     0.126 A 
ATOM     27  C   UNL A   1      28.377  27.809  23.124  1.00  0.00     0.039 A 
ATOM     28  F   UNL A   1      29.259  29.892  22.460  1.00  0.00    -0.207 F 
ENDBRANCH  21  22
ENDBRANCH   6  21
ENDBRANCH   4   6
ENDBRANCH   3   4
ENDBRANCH   2   3
ENDBRANCH   1   2
BRANCH   1  29
ATOM     29  O   UNL A   1      35.004  29.835  28.032  1.00  0.00    -0.458 OA
BRANCH  29  30
ATOM     30  C   UNL A   1      35.839  30.507  28.854  1.00  0.00     0.338 C 
ATOM     31  O   UNL A   1      35.563  31.506  29.507  1.00  0.00    -0.246 OA
BRANCH  30  32
ATOM     32  C   UNL A   1      37.180  29.885  28.860  1.00  0.00     0.060 A 
ATOM     33  C   UNL A   1      37.835  29.553  30.049  1.00  0.00     0.016 A 
ATOM     34  C   UNL A   1      37.847  29.752  27.641  1.00  0.00     0.016 A 
ATOM     35  C   UNL A   1      39.191  29.224  30.030  1.00  0.00     0.010 A 
ATOM     36  C   UNL A   1      39.184  29.351  27.615  1.00  0.00     0.010 A 
ATOM     37  C   UNL A   1      39.877  29.119  28.812  1.00  0.00    -0.014 A 
BRANCH  37  38
ATOM     38  C   UNL A   1      41.298  28.698  28.759  1.00  0.00     0.031 A 
ATOM     39  C   UNL A   1      42.408  29.698  28.912  1.00  0.00     0.074 A 
ATOM     40  C   UNL A   1      41.578  27.406  28.505  1.00  0.00     0.049 A 
ATOM     41  N   UNL A   1      43.681  29.560  28.642  1.00  0.00    -0.248 NA
ATOM     42  C   UNL A   1      42.047  31.023  29.438  1.00  0.00     0.031 C 
ATOM     43  C   UNL A   1      40.585  26.337  28.388  1.00  0.00     0.029 A 
ATOM     44  N   UNL A   1      42.775  26.779  28.275  1.00  0.00    -0.354 N 
ATOM     45  C   UNL A   1      44.270  30.784  28.940  1.00  0.00     0.074 A 
ATOM     46  C   UNL A   1      43.215  31.656  29.411  1.00  0.00     0.031 C 
ATOM     47  C   UNL A   1      41.211  25.187  28.105  1.00  0.00     0.029 A 
ATOM     48  C   UNL A   1      42.636  25.456  27.938  1.00  0.00     0.049 A 
ATOM     49  H   UNL A   1      43.647  27.231  28.346  1.00  0.00     0.167 HD
ATOM     50  C   UNL A   1      45.573  31.136  28.828  1.00  0.00     0.037 A 
ATOM     51  C   UNL A   1      43.535  24.566  27.478  1.00  0.00     0.037 A 
ATOM     52  C   UNL A   1      46.615  30.245  28.379  1.00  0.00     0.049 A 
ATOM     53  C   UNL A   1      44.951  25.002  27.269  1.00  0.00     0.074 A 
ATOM     54  C   UNL A   1      47.970  30.500  28.246  1.00  0.00     0.029 A 
ATOM     55  N   UNL A   1      46.419  28.926  27.996  1.00  0.00    -0.354 N 
ATOM     56  N   UNL A   1      45.486  26.179  27.488  1.00  0.00    -0.248 NA
ATOM     57  C   UNL A   1      45.881  24.004  26.726  1.00  0.00     0.031 C 
ATOM     58  C   UNL A   1      48.587  29.347  27.750  1.00  0.00     0.029 A 
ATOM     59  C   UNL A   1      47.623  28.362  27.605  1.00  0.00     0.049 A 
ATOM     60  H   UNL A   1      45.552  28.459  28.001  1.00  0.00     0.167 HD
ATOM     61  C   UNL A   1      46.816  26.066  27.110  1.00  0.00     0.074 A 
ATOM     62  C   UNL A   1      47.008  24.701  26.659  1.00  0.00     0.031 C 
ATOM     63  C   UNL A   1      47.789  27.009  27.136  1.00  0.00     0.037 A 
BRANCH  50  64
ATOM     64  C   UNL A   1      45.968  32.546  29.176  1.00  0.00     0.058 A 
ATOM     65  C   UNL A   1      46.377  32.865  30.481  1.00  0.00     0.135 A 
ATOM     66  C   UNL A   1      45.841  33.596  28.256  1.00  0.00     0.135 A 
ATOM     67  F   UNL A   1      46.520  31.897  31.400  1.00  0.00    -0.206 F 
ATOM     68  C   UNL A   1      46.623  34.178  30.868  1.00  0.00     0.059 A 
ATOM     69  C   UNL A   1      46.097  34.918  28.616  1.00  0.00     0.059 A 
ATOM     70  F   UNL A   1      45.466  33.344  26.990  1.00  0.00    -0.206 F 
ATOM     71  C   UNL A   1      46.472  35.201  29.930  1.00  0.00     0.060 A 
BRANCH  71  72
ATOM     72  S   UNL A   1      46.801  36.901  30.445  1.00  0.00     0.124 S 
ATOM     73  O   UNL A   1      47.876  37.289  29.538  1.00  0.00    -0.237 OA
ATOM     74  O   UNL A   1      45.512  37.549  30.217  1.00  0.00    -0.237 OA
ATOM     75  O   UNL A   1      47.180  36.762  31.848  1.00  0.00    -0.744 OA
ENDBRANCH  71  72
ENDBRANCH  50  64
BRANCH  51  76
ATOM     76  C   UNL A   1      43.072  23.198  27.142  1.00  0.00     0.058 A 
ATOM     77  C   UNL A   1      42.900  22.232  28.145  1.00  0.00     0.135 A 
ATOM     78  C   UNL A   1      42.924  22.798  25.808  1.00  0.00     0.135 A 
ATOM     79  F   UNL A   1      43.044  22.568  29.437  1.00  0.00    -0.206 F 
ATOM     80  C   UNL A   1      42.652  20.901  27.835  1.00  0.00     0.059 A 
ATOM     81  C   UNL A   1      42.653  21.475  25.473  1.00  0.00     0.059 A 
ATOM     82  F   UNL A   1      43.067  23.695  24.820  1.00  0.00    -0.206 F 
ATOM     83  C   UNL A   1      42.551  20.529  26.494  1.00  0.00     0.060 A 
BRANCH  83  84
ATOM     84  S   UNL A   1      42.303  18.785  26.101  1.00  0.00     0.124 S 
ATOM     85  O   UNL A   1      43.236  18.603  24.993  1.00  0.00    -0.237 OA
ATOM     86  O   UNL A   1      42.669  18.128  27.352  1.00  0.00    -0.237 OA
ATOM     87  O   UNL A   1      40.888  18.717  25.751  1.00  0.00    -0.744 OA
ENDBRANCH  83  84
ENDBRANCH  51  76
BRANCH  63  88
ATOM     88  C   UNL A   1      49.149  26.598  26.660  1.00  0.00     0.058 A 
ATOM     89  C   UNL A   1      49.522  26.776  25.319  1.00  0.00     0.135 A 
ATOM     90  C   UNL A   1      50.068  25.987  27.526  1.00  0.00     0.135 A 
ATOM     91  F   UNL A   1      48.675  27.355  24.453  1.00  0.00    -0.206 F 
ATOM     92  C   UNL A   1      50.759  26.353  24.849  1.00  0.00     0.059 A 
ATOM     93  C   UNL A   1      51.318  25.570  27.080  1.00  0.00     0.059 A 
ATOM     94  F   UNL A   1      49.761  25.811  28.820  1.00  0.00    -0.206 F 
ATOM     95  C   UNL A   1      51.650  25.746  25.736  1.00  0.00     0.060 A 
BRANCH  95  96
ATOM     96  S   UNL A   1      53.266  25.228  25.120  1.00  0.00     0.124 S 
ATOM     97  O   UNL A   1      53.191  25.627  23.719  1.00  0.00    -0.237 OA
ATOM     98  O   UNL A   1      54.181  26.002  25.953  1.00  0.00    -0.237 OA
ATOM     99  O   UNL A   1      53.274  23.789  25.365  1.00  0.00    -0.744 OA
ENDBRANCH  95  96
ENDBRANCH  63  88
ENDBRANCH  37  38
ENDBRANCH  30  32
ENDBRANCH  29  30
ENDBRANCH   1  29
TORSDOF 18
ENDMDL
MODEL 3
REMARK VINA RESULT:     -11.8      2.927      4.576
REMARK SMILES Cc1[nH]cnc1C[NH+]1CCC(Oc2cccc(F)c2)(C(=O)OCCOC(=O)c2ccc(-c3c4nc(c(-c5c(F)cc(S(=O)(=O)[O-])cc5F)c5ccc([nH]5)c(-c5c(F)cc(S(=O)(=O)[O-])cc5F)c5nc(c(-c6c(F)cc(S(=O)(=O)[O-])cc6F)c6ccc3[nH]6)C=C5)C=C4)cc2)CC1
REMARK SMILES IDX 24 1 23 2 22 3 20 4 21 5 11 6 8 7 9 8 95 9 10 11 94 12 7 13
REMARK SMILES IDX 6 14 1 15 2 16 3 17 4 18 5 20 12 21 13 22 14 23 19 24 15 25
REMARK SMILES IDX 17 26 16 27 18 28 25 29 26 30 27 31 28 32 29 33 93 34 30 35
REMARK SMILES IDX 92 36 31 37 32 38 33 39 86 40 34 41 91 42 85 43 87 44 35 45
REMARK SMILES IDX 90 46 84 47 83 48 36 50 70 51 49 52 69 53 50 54 53 55 68 56
REMARK SMILES IDX 88 57 51 58 52 59 67 61 89 62 54 63 37 64 38 65 47 66 39 67
REMARK SMILES IDX 40 68 46 69 48 70 41 71 42 72 43 73 44 74 45 75 71 76 72 77
REMARK SMILES IDX 81 78 73 79 74 80 80 81 82 82 75 83 76 84 77 85 78 86 79 87
REMARK SMILES IDX 55 88 56 89 65 90 57 91 58 92 64 93 66 94 59 95 60 96 61 97
REMARK SMILES IDX 62 98 63 99
REMARK H PARENT 8 10 3 19 87 49 53 60
REMARK Flexibility Score: inf
ROOT
ATOM      1  C   UNL A   1      34.127  28.614  26.408  1.00  0.00     0.275 C 
ENDROOT
BRANCH   1   2
ATOM      2  C   UNL A   1      33.321  27.323  26.333  1.00  0.00     0.274 C 
BRANCH   2   3
ATOM      3  O   UNL A   1      34.175  26.181  26.120  1.00  0.00    -0.459 OA
BRANCH   3   4
ATOM      4  C   UNL A   1      33.913  25.458  24.993  1.00  0.00     0.351 C 
ATOM      5  O   UNL A   1      33.099  25.807  24.139  1.00  0.00    -0.247 OA
BRANCH   4   6
ATOM      6  C   UNL A   1      34.625  24.095  24.958  1.00  0.00     0.216 C 
ATOM      7  N   UNL A   1      32.982  21.767  24.376  1.00  0.00    -0.330 N 
ATOM      8  C   UNL A   1      33.300  22.680  23.280  1.00  0.00     0.267 C 
ATOM      9  C   UNL A   1      32.725  22.515  25.604  1.00  0.00     0.267 C 
ATOM     10  H   UNL A   1      33.808  21.184  24.514  1.00  0.00     0.348 HD
ATOM     11  C   UNL A   1      34.615  23.393  23.590  1.00  0.00     0.122 C 
ATOM     12  C   UNL A   1      34.021  23.189  26.057  1.00  0.00     0.122 C 
BRANCH   7  13
ATOM     13  C   UNL A   1      31.902  20.805  24.074  1.00  0.00     0.321 C 
BRANCH  13  14
ATOM     14  C   UNL A   1      32.245  19.367  24.322  1.00  0.00     0.115 A 
ATOM     15  C   UNL A   1      32.352  18.286  21.932  1.00  0.00     0.066 C 
ATOM     16  C   UNL A   1      32.432  18.343  23.406  1.00  0.00     0.040 A 
ATOM     17  N   UNL A   1      32.766  17.248  24.162  1.00  0.00    -0.348 N 
ATOM     18  C   UNL A   1      32.826  17.646  25.463  1.00  0.00     0.197 A 
ATOM     19  H   UNL A   1      32.933  16.339  23.824  1.00  0.00     0.167 HD
ATOM     20  N   UNL A   1      32.495  18.908  25.598  1.00  0.00    -0.236 NA
ENDBRANCH  13  14
ENDBRANCH   7  13
BRANCH   6  21
ATOM     21  O   UNL A   1      35.981  24.597  25.191  1.00  0.00    -0.475 OA
BRANCH  21  22
ATOM     22  C   UNL A   1      36.956  23.667  25.383  1.00  0.00     0.123 A 
ATOM     23  C   UNL A   1      37.988  23.933  26.282  1.00  0.00     0.047 A 
ATOM     24  C   UNL A   1      36.857  22.427  24.759  1.00  0.00     0.085 A 
ATOM     25  C   UNL A   1      38.969  22.970  26.514  1.00  0.00     0.007 A 
ATOM     26  C   UNL A   1      37.840  21.475  25.000  1.00  0.00     0.126 A 
ATOM     27  C   UNL A   1      38.899  21.738  25.865  1.00  0.00     0.039 A 
ATOM     28  F   UNL A   1      37.769  20.282  24.396  1.00  0.00    -0.207 F 
ENDBRANCH  21  22
ENDBRANCH   6  21
ENDBRANCH   4   6
ENDBRANCH   3   4
ENDBRANCH   2   3
ENDBRANCH   1   2
BRANCH   1  29
ATOM     29  O   UNL A   1      33.741  29.356  27.575  1.00  0.00    -0.458 OA
BRANCH  29  30
ATOM     30  C   UNL A   1      34.577  30.351  27.940  1.00  0.00     0.338 C 
ATOM     31  O   UNL A   1      34.292  31.540  28.030  1.00  0.00    -0.246 OA
BRANCH  30  32
ATOM     32  C   UNL A   1      35.932  29.824  28.209  1.00  0.00     0.060 A 
ATOM     33  C   UNL A   1      36.301  29.346  29.469  1.00  0.00     0.016 A 
ATOM     34  C   UNL A   1      36.892  29.936  27.201  1.00  0.00     0.016 A 
ATOM     35  C   UNL A   1      37.646  29.112  29.760  1.00  0.00     0.010 A 
ATOM     36  C   UNL A   1      38.227  29.633  27.471  1.00  0.00     0.010 A 
ATOM     37  C   UNL A   1      38.621  29.253  28.762  1.00  0.00    -0.014 A 
BRANCH  37  38
ATOM     38  C   UNL A   1      40.046  28.939  29.024  1.00  0.00     0.031 A 
ATOM     39  C   UNL A   1      40.998  29.999  29.497  1.00  0.00     0.074 A 
ATOM     40  C   UNL A   1      40.489  27.694  28.768  1.00  0.00     0.049 A 
ATOM     41  N   UNL A   1      42.307  29.974  29.530  1.00  0.00    -0.248 NA
ATOM     42  C   UNL A   1      40.410  31.250  29.999  1.00  0.00     0.031 C 
ATOM     43  C   UNL A   1      39.647  26.569  28.354  1.00  0.00     0.029 A 
ATOM     44  N   UNL A   1      41.757  27.173  28.794  1.00  0.00    -0.354 N 
ATOM     45  C   UNL A   1      42.701  31.209  30.032  1.00  0.00     0.074 A 
ATOM     46  C   UNL A   1      41.493  31.965  30.288  1.00  0.00     0.031 C 
ATOM     47  C   UNL A   1      40.420  25.492  28.161  1.00  0.00     0.029 A 
ATOM     48  C   UNL A   1      41.815  25.873  28.355  1.00  0.00     0.049 A 
ATOM     49  H   UNL A   1      42.545  27.678  29.097  1.00  0.00     0.167 HD
ATOM     50  C   UNL A   1      43.959  31.660  30.255  1.00  0.00     0.037 A 
ATOM     51  C   UNL A   1      42.871  25.088  28.071  1.00  0.00     0.037 A 
ATOM     52  C   UNL A   1      45.150  30.882  30.015  1.00  0.00     0.049 A 
ATOM     53  C   UNL A   1      44.253  25.638  28.231  1.00  0.00     0.074 A 
ATOM     54  C   UNL A   1      46.470  31.242  30.224  1.00  0.00     0.029 A 
ATOM     55  N   UNL A   1      45.164  29.587  29.519  1.00  0.00    -0.354 N 
ATOM     56  N   UNL A   1      44.618  26.829  28.642  1.00  0.00    -0.248 NA
ATOM     57  C   UNL A   1      45.367  24.754  27.867  1.00  0.00     0.031 C 
ATOM     58  C   UNL A   1      47.284  30.178  29.822  1.00  0.00     0.029 A 
ATOM     59  C   UNL A   1      46.470  29.141  29.394  1.00  0.00     0.049 A 
ATOM     60  H   UNL A   1      44.364  29.061  29.289  1.00  0.00     0.167 HD
ATOM     61  C   UNL A   1      46.004  26.840  28.585  1.00  0.00     0.074 A 
ATOM     62  C   UNL A   1      46.414  25.532  28.112  1.00  0.00     0.031 C 
ATOM     63  C   UNL A   1      46.858  27.845  28.898  1.00  0.00     0.037 A 
BRANCH  50  64
ATOM     64  C   UNL A   1      44.137  33.062  30.770  1.00  0.00     0.058 A 
ATOM     65  C   UNL A   1      44.063  33.325  32.147  1.00  0.00     0.135 A 
ATOM     66  C   UNL A   1      44.273  34.155  29.902  1.00  0.00     0.135 A 
ATOM     67  F   UNL A   1      43.938  32.315  33.023  1.00  0.00    -0.206 F 
ATOM     68  C   UNL A   1      44.094  34.624  32.645  1.00  0.00     0.059 A 
ATOM     69  C   UNL A   1      44.321  35.464  30.379  1.00  0.00     0.059 A 
ATOM     70  F   UNL A   1      44.362  33.959  28.576  1.00  0.00    -0.206 F 
ATOM     71  C   UNL A   1      44.215  35.690  31.752  1.00  0.00     0.060 A 
BRANCH  71  72
ATOM     72  S   UNL A   1      44.260  37.370  32.412  1.00  0.00     0.124 S 
ATOM     73  O   UNL A   1      43.273  37.300  33.484  1.00  0.00    -0.237 OA
ATOM     74  O   UNL A   1      45.651  37.500  32.835  1.00  0.00    -0.237 OA
ATOM     75  O   UNL A   1      43.886  38.194  31.265  1.00  0.00    -0.744 OA
ENDBRANCH  71  72
ENDBRANCH  50  64
BRANCH  51  76
ATOM     76  C   UNL A   1      42.620  23.721  27.553  1.00  0.00     0.058 A 
ATOM     77  C   UNL A   1      42.502  22.632  28.431  1.00  0.00     0.135 A 
ATOM     78  C   UNL A   1      42.627  23.462  26.177  1.00  0.00     0.135 A 
ATOM     79  F   UNL A   1      42.501  22.833  29.758  1.00  0.00    -0.206 F 
ATOM     80  C   UNL A   1      42.456  21.325  27.963  1.00  0.00     0.059 A 
ATOM     81  C   UNL A   1      42.561  22.163  25.683  1.00  0.00     0.059 A 
ATOM     82  F   UNL A   1      42.726  24.477  25.305  1.00  0.00    -0.206 F 
ATOM     83  C   UNL A   1      42.507  21.100  26.587  1.00  0.00     0.060 A 
BRANCH  83  84
ATOM     84  S   UNL A   1      42.524  19.396  25.993  1.00  0.00     0.124 S 
ATOM     85  O   UNL A   1      41.117  19.192  25.660  1.00  0.00    -0.237 OA
ATOM     86  O   UNL A   1      43.440  19.469  24.859  1.00  0.00    -0.237 OA
ATOM     87  O   UNL A   1      43.014  18.644  27.144  1.00  0.00    -0.744 OA
ENDBRANCH  83  84
ENDBRANCH  51  76
BRANCH  63  88
ATOM     88  C   UNL A   1      48.323  27.569  28.736  1.00  0.00     0.058 A 
ATOM     89  C   UNL A   1      49.088  27.108  29.818  1.00  0.00     0.135 A 
ATOM     90  C   UNL A   1      48.975  27.802  27.517  1.00  0.00     0.135 A 
ATOM     91  F   UNL A   1      48.507  26.870  31.004  1.00  0.00    -0.206 F 
ATOM     92  C   UNL A   1      50.456  26.896  29.698  1.00  0.00     0.059 A 
ATOM     93  C   UNL A   1      50.341  27.583  27.370  1.00  0.00     0.059 A 
ATOM     94  F   UNL A   1      48.280  28.229  26.450  1.00  0.00    -0.206 F 
ATOM     95  C   UNL A   1      51.075  27.141  28.471  1.00  0.00     0.060 A 
BRANCH  95  96
ATOM     96  S   UNL A   1      52.848  26.834  28.322  1.00  0.00     0.124 S 
ATOM     97  O   UNL A   1      53.362  28.174  28.064  1.00  0.00    -0.237 OA
ATOM     98  O   UNL A   1      53.178  26.267  29.627  1.00  0.00    -0.237 OA
ATOM     99  O   UNL A   1      52.934  25.899  27.203  1.00  0.00    -0.744 OA
ENDBRANCH  95  96
ENDBRANCH  63  88
ENDBRANCH  37  38
ENDBRANCH  30  32
ENDBRANCH  29  30
ENDBRANCH   1  29
TORSDOF 18
ENDMDL
