MODEL 1
REMARK VINA RESULT:     -10.9      0.000      0.000
REMARK SMILES COCC[C@H]([NH3+])C(=O)N1CC(n2cc(C(=O)OCCOC(=O)c3ccc(-c4c5nc(c(-c6c(F)cc(S(=O)(=O)[O-])cc6F)c6ccc([nH]6)c(-c6c(F)cc(S(=O)(=O)[O-])cc6F)c6nc(c(-c7c(F)cc(S(=O)(=O)[O-])cc7F)c7ccc4[nH]7)C=C6)C=C5)cc3)nn2)C1
REMARK SMILES IDX 18 1 17 2 15 3 16 4 14 5 12 6 13 7 90 8 89 9 11 10 7 11 8 12
REMARK SMILES IDX 9 13 10 14 91 15 5 16 4 17 3 18 2 19 1 20 6 21 19 25 20 26
REMARK SMILES IDX 21 27 22 28 23 29 24 30 88 31 25 32 87 33 26 34 27 35 28 36
REMARK SMILES IDX 81 37 29 38 86 39 80 40 82 41 30 42 85 43 79 44 78 45 31 47
REMARK SMILES IDX 65 48 44 49 64 50 45 51 48 52 63 53 83 54 46 55 47 56 62 58
REMARK SMILES IDX 84 59 49 60 32 61 33 62 42 63 34 64 35 65 41 66 43 67 36 68
REMARK SMILES IDX 37 69 38 70 39 71 40 72 66 73 67 74 76 75 68 76 69 77 75 78
REMARK SMILES IDX 77 79 70 80 71 81 72 82 73 83 74 84 50 85 51 86 60 87 52 88
REMARK SMILES IDX 53 89 59 90 61 91 54 92 55 93 56 94 57 95 58 96
REMARK H PARENT 6 22 6 23 6 24 82 46 48 57
REMARK Flexibility Score: inf
ROOT
ATOM      1  C   UNL A   1      41.713  19.547  26.466  1.00  0.00     0.275 C 
ENDROOT
BRANCH   1   2
ATOM      2  O   UNL A   1      42.420  19.562  25.216  1.00  0.00    -0.457 OA
BRANCH   2   3
ATOM      3  C   UNL A   1      43.705  19.086  25.252  1.00  0.00     0.360 C 
ATOM      4  O   UNL A   1      43.994  17.894  25.327  1.00  0.00    -0.244 OA
BRANCH   3   5
ATOM      5  C   UNL A   1      44.688  20.148  25.157  1.00  0.00     0.190 A 
ATOM      6  N   UNL A   1      45.778  22.009  25.307  1.00  0.00    -0.245 N 
ATOM      7  C   UNL A   1      44.571  21.450  25.600  1.00  0.00     0.147 A 
ATOM      8  N   UNL A   1      46.590  21.134  24.695  1.00  0.00    -0.066 NA
ATOM      9  N   UNL A   1      45.923  19.993  24.572  1.00  0.00    -0.123 NA
BRANCH   6  10
ATOM     10  C   UNL A   1      46.181  23.273  25.829  1.00  0.00     0.148 C 
ATOM     11  C   UNL A   1      46.308  26.517  25.545  1.00  0.00     0.280 C 
ATOM     12  O   UNL A   1      46.064  27.062  26.622  1.00  0.00    -0.268 OA
ATOM     13  N   UNL A   1      45.944  25.227  25.283  1.00  0.00    -0.333 N 
ATOM     14  C   UNL A   1      45.092  24.323  26.048  1.00  0.00     0.149 C 
ATOM     15  C   UNL A   1      46.702  24.154  24.671  1.00  0.00     0.149 C 
BRANCH  11  16
ATOM     16  C   UNL A   1      46.882  27.330  24.366  1.00  0.00     0.273 C 
BRANCH  16  17
ATOM     17  C   UNL A   1      48.414  27.204  24.330  1.00  0.00     0.104 C 
BRANCH  17  18
ATOM     18  C   UNL A   1      49.052  27.543  22.975  1.00  0.00     0.166 C 
BRANCH  18  19
ATOM     19  O   UNL A   1      48.123  27.503  21.895  1.00  0.00    -0.384 OA
ATOM     20  C   UNL A   1      48.690  27.137  20.645  1.00  0.00     0.194 C 
ENDBRANCH  18  19
ENDBRANCH  17  18
ENDBRANCH  16  17
BRANCH  16  21
ATOM     21  N   UNL A   1      46.482  28.755  24.418  1.00  0.00    -0.347 N 
ATOM     22  H   UNL A   1      46.740  29.212  23.543  1.00  0.00     0.345 HD
ATOM     23  H   UNL A   1      46.957  29.213  25.194  1.00  0.00     0.345 HD
ATOM     24  H   UNL A   1      45.472  28.819  24.550  1.00  0.00     0.345 HD
ENDBRANCH  16  21
ENDBRANCH  11  16
ENDBRANCH   6  10
ENDBRANCH   3   5
ENDBRANCH   2   3
ENDBRANCH   1   2
BRANCH   1  25
ATOM     25  C   UNL A   1      40.461  20.409  26.388  1.00  0.00     0.275 C 
BRANCH  25  26
ATOM     26  O   UNL A   1      40.747  21.762  26.732  1.00  0.00    -0.458 OA
BRANCH  26  27
ATOM     27  C   UNL A   1      39.725  22.632  26.550  1.00  0.00     0.338 C 
ATOM     28  O   UNL A   1      38.638  22.388  26.054  1.00  0.00    -0.246 OA
BRANCH  27  29
ATOM     29  C   UNL A   1      40.206  23.989  26.816  1.00  0.00     0.060 A 
ATOM     30  C   UNL A   1      41.500  24.137  27.325  1.00  0.00     0.016 A 
ATOM     31  C   UNL A   1      39.269  25.031  26.851  1.00  0.00     0.016 A 
ATOM     32  C   UNL A   1      41.801  25.284  28.030  1.00  0.00     0.010 A 
ATOM     33  C   UNL A   1      39.559  26.154  27.579  1.00  0.00     0.010 A 
ATOM     34  C   UNL A   1      40.795  26.235  28.219  1.00  0.00    -0.014 A 
BRANCH  34  35
ATOM     35  C   UNL A   1      41.075  27.422  28.997  1.00  0.00     0.031 A 
ATOM     36  C   UNL A   1      42.160  28.236  28.395  1.00  0.00     0.074 A 
ATOM     37  C   UNL A   1      40.278  27.797  30.017  1.00  0.00     0.049 A 
ATOM     38  N   UNL A   1      43.348  28.441  28.858  1.00  0.00    -0.248 NA
ATOM     39  C   UNL A   1      41.982  28.686  27.001  1.00  0.00     0.031 C 
ATOM     40  C   UNL A   1      39.024  27.173  30.455  1.00  0.00     0.029 A 
ATOM     41  N   UNL A   1      40.355  28.897  30.811  1.00  0.00    -0.354 N 
ATOM     42  C   UNL A   1      43.960  29.278  27.929  1.00  0.00     0.074 A 
ATOM     43  C   UNL A   1      43.196  29.159  26.722  1.00  0.00     0.031 C 
ATOM     44  C   UNL A   1      38.353  28.030  31.260  1.00  0.00     0.029 A 
ATOM     45  C   UNL A   1      39.177  29.202  31.493  1.00  0.00     0.049 A 
ATOM     46  H   UNL A   1      41.175  29.435  30.898  1.00  0.00     0.167 HD
ATOM     47  C   UNL A   1      44.830  30.244  28.333  1.00  0.00     0.037 A 
ATOM     48  C   UNL A   1      38.897  30.379  32.114  1.00  0.00     0.037 A 
ATOM     49  C   UNL A   1      45.311  29.963  29.666  1.00  0.00     0.049 A 
ATOM     50  C   UNL A   1      40.202  31.065  32.339  1.00  0.00     0.074 A 
ATOM     51  C   UNL A   1      45.987  28.913  30.256  1.00  0.00     0.029 A 
ATOM     52  N   UNL A   1      44.756  30.683  30.698  1.00  0.00    -0.354 N 
ATOM     53  N   UNL A   1      41.129  30.606  33.137  1.00  0.00    -0.248 NA
ATOM     54  C   UNL A   1      40.669  31.971  31.300  1.00  0.00     0.031 C 
ATOM     55  C   UNL A   1      45.419  28.791  31.558  1.00  0.00     0.029 A 
ATOM     56  C   UNL A   1      44.486  29.816  31.723  1.00  0.00     0.049 A 
ATOM     57  H   UNL A   1      44.584  31.652  30.700  1.00  0.00     0.167 HD
ATOM     58  C   UNL A   1      42.322  30.811  32.454  1.00  0.00     0.074 A 
ATOM     59  C   UNL A   1      41.980  31.715  31.357  1.00  0.00     0.031 C 
ATOM     60  C   UNL A   1      43.402  30.000  32.663  1.00  0.00     0.037 A 
BRANCH  47  61
ATOM     61  C   UNL A   1      44.884  31.642  27.739  1.00  0.00     0.058 A 
ATOM     62  C   UNL A   1      46.061  32.033  27.065  1.00  0.00     0.135 A 
ATOM     63  C   UNL A   1      43.997  32.697  28.058  1.00  0.00     0.135 A 
ATOM     64  F   UNL A   1      46.964  31.118  26.677  1.00  0.00    -0.206 F 
ATOM     65  C   UNL A   1      46.394  33.371  26.854  1.00  0.00     0.059 A 
ATOM     66  C   UNL A   1      44.288  34.033  27.811  1.00  0.00     0.059 A 
ATOM     67  F   UNL A   1      42.840  32.516  28.700  1.00  0.00    -0.206 F 
ATOM     68  C   UNL A   1      45.510  34.364  27.258  1.00  0.00     0.060 A 
BRANCH  68  69
ATOM     69  S   UNL A   1      45.988  36.091  27.107  1.00  0.00     0.124 S 
ATOM     70  O   UNL A   1      46.563  36.115  25.768  1.00  0.00    -0.237 OA
ATOM     71  O   UNL A   1      44.708  36.770  27.269  1.00  0.00    -0.237 OA
ATOM     72  O   UNL A   1      46.934  36.274  28.205  1.00  0.00    -0.744 OA
ENDBRANCH  68  69
ENDBRANCH  47  61
BRANCH  48  73
ATOM     73  C   UNL A   1      37.595  31.106  32.152  1.00  0.00     0.058 A 
ATOM     74  C   UNL A   1      37.053  31.590  33.358  1.00  0.00     0.135 A 
ATOM     75  C   UNL A   1      36.987  31.583  30.972  1.00  0.00     0.135 A 
ATOM     76  F   UNL A   1      37.582  31.213  34.532  1.00  0.00    -0.206 F 
ATOM     77  C   UNL A   1      36.003  32.519  33.391  1.00  0.00     0.059 A 
ATOM     78  C   UNL A   1      35.935  32.499  30.980  1.00  0.00     0.059 A 
ATOM     79  F   UNL A   1      37.457  31.241  29.764  1.00  0.00    -0.206 F 
ATOM     80  C   UNL A   1      35.461  32.983  32.193  1.00  0.00     0.060 A 
BRANCH  80  81
ATOM     81  S   UNL A   1      34.215  34.296  32.215  1.00  0.00     0.124 S 
ATOM     82  O   UNL A   1      33.834  34.376  30.809  1.00  0.00    -0.237 OA
ATOM     83  O   UNL A   1      33.208  33.754  33.119  1.00  0.00    -0.237 OA
ATOM     84  O   UNL A   1      34.949  35.452  32.726  1.00  0.00    -0.744 OA
ENDBRANCH  80  81
ENDBRANCH  48  73
BRANCH  60  85
ATOM     85  C   UNL A   1      43.387  29.076  33.852  1.00  0.00     0.058 A 
ATOM     86  C   UNL A   1      43.691  29.459  35.171  1.00  0.00     0.135 A 
ATOM     87  C   UNL A   1      42.874  27.785  33.663  1.00  0.00     0.135 A 
ATOM     88  F   UNL A   1      44.091  30.708  35.451  1.00  0.00    -0.206 F 
ATOM     89  C   UNL A   1      43.525  28.583  36.247  1.00  0.00     0.059 A 
ATOM     90  C   UNL A   1      42.669  26.908  34.722  1.00  0.00     0.059 A 
ATOM     91  F   UNL A   1      42.506  27.382  32.435  1.00  0.00    -0.206 F 
ATOM     92  C   UNL A   1      43.008  27.308  36.011  1.00  0.00     0.060 A 
BRANCH  92  93
ATOM     93  S   UNL A   1      42.721  26.198  37.406  1.00  0.00     0.124 S 
ATOM     94  O   UNL A   1      41.293  26.372  37.649  1.00  0.00    -0.237 OA
ATOM     95  O   UNL A   1      43.118  24.901  36.865  1.00  0.00    -0.237 OA
ATOM     96  O   UNL A   1      43.600  26.723  38.448  1.00  0.00    -0.744 OA
ENDBRANCH  92  93
ENDBRANCH  60  85
ENDBRANCH  34  35
ENDBRANCH  27  29
ENDBRANCH  26  27
ENDBRANCH  25  26
ENDBRANCH   1  25
TORSDOF 20
ENDMDL
MODEL 2
REMARK VINA RESULT:     -10.8      4.700     11.380
REMARK SMILES COCC[C@H]([NH3+])C(=O)N1CC(n2cc(C(=O)OCCOC(=O)c3ccc(-c4c5nc(c(-c6c(F)cc(S(=O)(=O)[O-])cc6F)c6ccc([nH]6)c(-c6c(F)cc(S(=O)(=O)[O-])cc6F)c6nc(c(-c7c(F)cc(S(=O)(=O)[O-])cc7F)c7ccc4[nH]7)C=C6)C=C5)cc3)nn2)C1
REMARK SMILES IDX 18 1 17 2 15 3 16 4 14 5 12 6 13 7 90 8 89 9 11 10 7 11 8 12
REMARK SMILES IDX 9 13 10 14 91 15 5 16 4 17 3 18 2 19 1 20 6 21 19 25 20 26
REMARK SMILES IDX 21 27 22 28 23 29 24 30 88 31 25 32 87 33 26 34 27 35 28 36
REMARK SMILES IDX 81 37 29 38 86 39 80 40 82 41 30 42 85 43 79 44 78 45 31 47
REMARK SMILES IDX 65 48 44 49 64 50 45 51 48 52 63 53 83 54 46 55 47 56 62 58
REMARK SMILES IDX 84 59 49 60 32 61 33 62 42 63 34 64 35 65 41 66 43 67 36 68
REMARK SMILES IDX 37 69 38 70 39 71 40 72 66 73 67 74 76 75 68 76 69 77 75 78
REMARK SMILES IDX 77 79 70 80 71 81 72 82 73 83 74 84 50 85 51 86 60 87 52 88
REMARK SMILES IDX 53 89 59 90 61 91 54 92 55 93 56 94 57 95 58 96
REMARK H PARENT 6 22 6 23 6 24 82 46 48 57
REMARK Flexibility Score: inf
ROOT
ATOM      1  C   UNL A   1      32.489  29.452  25.765  1.00  0.00     0.275 C 
ENDROOT
BRANCH   1   2
ATOM      2  O   UNL A   1      33.179  28.212  25.986  1.00  0.00    -0.457 OA
BRANCH   2   3
ATOM      3  C   UNL A   1      32.421  27.189  26.494  1.00  0.00     0.360 C 
ATOM      4  O   UNL A   1      31.492  27.348  27.283  1.00  0.00    -0.244 OA
BRANCH   3   5
ATOM      5  C   UNL A   1      32.817  25.896  25.967  1.00  0.00     0.190 A 
ATOM      6  N   UNL A   1      32.934  23.809  25.417  1.00  0.00    -0.245 N 
ATOM      7  C   UNL A   1      32.186  24.682  26.149  1.00  0.00     0.147 A 
ATOM      8  N   UNL A   1      33.978  24.420  24.840  1.00  0.00    -0.066 NA
ATOM      9  N   UNL A   1      33.934  25.699  25.191  1.00  0.00    -0.123 NA
BRANCH   6  10
ATOM     10  C   UNL A   1      32.488  22.489  25.116  1.00  0.00     0.148 C 
ATOM     11  C   UNL A   1      33.078  19.286  24.989  1.00  0.00     0.280 C 
ATOM     12  O   UNL A   1      32.111  18.645  25.403  1.00  0.00    -0.268 OA
ATOM     13  N   UNL A   1      33.259  20.605  25.292  1.00  0.00    -0.333 N 
ATOM     14  C   UNL A   1      32.544  21.454  26.239  1.00  0.00     0.149 C 
ATOM     15  C   UNL A   1      33.637  21.711  24.435  1.00  0.00     0.149 C 
BRANCH  11  16
ATOM     16  C   UNL A   1      34.233  18.577  24.253  1.00  0.00     0.273 C 
BRANCH  16  17
ATOM     17  C   UNL A   1      33.924  17.079  24.098  1.00  0.00     0.104 C 
BRANCH  17  18
ATOM     18  C   UNL A   1      34.836  16.151  24.911  1.00  0.00     0.166 C 
BRANCH  18  19
ATOM     19  O   UNL A   1      34.166  14.985  25.387  1.00  0.00    -0.384 OA
ATOM     20  C   UNL A   1      32.751  15.100  25.435  1.00  0.00     0.194 C 
ENDBRANCH  18  19
ENDBRANCH  17  18
ENDBRANCH  16  17
BRANCH  16  21
ATOM     21  N   UNL A   1      35.535  18.769  24.932  1.00  0.00    -0.347 N 
ATOM     22  H   UNL A   1      36.274  18.850  24.234  1.00  0.00     0.345 HD
ATOM     23  H   UNL A   1      35.724  17.969  25.536  1.00  0.00     0.345 HD
ATOM     24  H   UNL A   1      35.503  19.620  25.494  1.00  0.00     0.345 HD
ENDBRANCH  16  21
ENDBRANCH  11  16
ENDBRANCH   6  10
ENDBRANCH   3   5
ENDBRANCH   2   3
ENDBRANCH   1   2
BRANCH   1  25
ATOM     25  C   UNL A   1      32.938  30.505  26.767  1.00  0.00     0.275 C 
BRANCH  25  26
ATOM     26  O   UNL A   1      34.208  30.176  27.323  1.00  0.00    -0.458 OA
BRANCH  26  27
ATOM     27  C   UNL A   1      34.913  31.225  27.811  1.00  0.00     0.338 C 
ATOM     28  O   UNL A   1      34.759  32.402  27.533  1.00  0.00    -0.246 OA
BRANCH  27  29
ATOM     29  C   UNL A   1      36.069  30.714  28.550  1.00  0.00     0.060 A 
ATOM     30  C   UNL A   1      36.927  31.644  29.147  1.00  0.00     0.016 A 
ATOM     31  C   UNL A   1      36.436  29.374  28.368  1.00  0.00     0.016 A 
ATOM     32  C   UNL A   1      38.228  31.265  29.406  1.00  0.00     0.010 A 
ATOM     33  C   UNL A   1      37.736  29.009  28.594  1.00  0.00     0.010 A 
ATOM     34  C   UNL A   1      38.633  29.977  29.042  1.00  0.00    -0.014 A 
BRANCH  34  35
ATOM     35  C   UNL A   1      40.007  29.576  29.259  1.00  0.00     0.031 A 
ATOM     36  C   UNL A   1      40.310  29.395  30.700  1.00  0.00     0.074 A 
ATOM     37  C   UNL A   1      40.805  29.224  28.232  1.00  0.00     0.049 A 
ATOM     38  N   UNL A   1      41.084  30.112  31.444  1.00  0.00    -0.248 NA
ATOM     39  C   UNL A   1      39.475  28.443  31.458  1.00  0.00     0.031 C 
ATOM     40  C   UNL A   1      40.448  29.109  26.813  1.00  0.00     0.029 A 
ATOM     41  N   UNL A   1      42.086  28.773  28.253  1.00  0.00    -0.354 N 
ATOM     42  C   UNL A   1      41.034  29.516  32.701  1.00  0.00     0.074 A 
ATOM     43  C   UNL A   1      39.852  28.704  32.709  1.00  0.00     0.031 C 
ATOM     44  C   UNL A   1      41.404  28.402  26.166  1.00  0.00     0.029 A 
ATOM     45  C   UNL A   1      42.490  28.123  27.087  1.00  0.00     0.049 A 
ATOM     46  H   UNL A   1      42.682  28.895  29.027  1.00  0.00     0.167 HD
ATOM     47  C   UNL A   1      42.139  29.477  33.496  1.00  0.00     0.037 A 
ATOM     48  C   UNL A   1      43.597  27.344  26.950  1.00  0.00     0.037 A 
ATOM     49  C   UNL A   1      43.105  30.460  33.062  1.00  0.00     0.049 A 
ATOM     50  C   UNL A   1      44.507  27.693  28.078  1.00  0.00     0.074 A 
ATOM     51  C   UNL A   1      43.095  31.832  32.906  1.00  0.00     0.029 A 
ATOM     52  N   UNL A   1      44.181  30.004  32.336  1.00  0.00    -0.354 N 
ATOM     53  N   UNL A   1      45.074  28.863  28.212  1.00  0.00    -0.248 NA
ATOM     54  C   UNL A   1      44.378  26.922  29.306  1.00  0.00     0.031 C 
ATOM     55  C   UNL A   1      43.869  32.078  31.734  1.00  0.00     0.029 A 
ATOM     56  C   UNL A   1      44.372  30.857  31.282  1.00  0.00     0.049 A 
ATOM     57  H   UNL A   1      44.718  29.206  32.539  1.00  0.00     0.167 HD
ATOM     58  C   UNL A   1      44.978  29.154  29.567  1.00  0.00     0.074 A 
ATOM     59  C   UNL A   1      44.599  27.891  30.199  1.00  0.00     0.031 C 
ATOM     60  C   UNL A   1      44.924  30.445  30.009  1.00  0.00     0.037 A 
BRANCH  47  61
ATOM     61  C   UNL A   1      42.538  28.277  34.339  1.00  0.00     0.058 A 
ATOM     62  C   UNL A   1      42.674  28.459  35.732  1.00  0.00     0.135 A 
ATOM     63  C   UNL A   1      43.085  27.073  33.835  1.00  0.00     0.135 A 
ATOM     64  F   UNL A   1      42.164  29.545  36.333  1.00  0.00    -0.206 F 
ATOM     65  C   UNL A   1      43.415  27.590  36.532  1.00  0.00     0.059 A 
ATOM     66  C   UNL A   1      43.784  26.169  34.624  1.00  0.00     0.059 A 
ATOM     67  F   UNL A   1      43.054  26.737  32.543  1.00  0.00    -0.206 F 
ATOM     68  C   UNL A   1      43.990  26.461  35.959  1.00  0.00     0.060 A 
BRANCH  68  69
ATOM     69  S   UNL A   1      45.053  25.406  36.955  1.00  0.00     0.124 S 
ATOM     70  O   UNL A   1      46.200  26.279  37.177  1.00  0.00    -0.237 OA
ATOM     71  O   UNL A   1      44.210  25.143  38.116  1.00  0.00    -0.237 OA
ATOM     72  O   UNL A   1      45.292  24.257  36.086  1.00  0.00    -0.744 OA
ENDBRANCH  68  69
ENDBRANCH  47  61
BRANCH  48  73
ATOM     73  C   UNL A   1      43.732  26.076  26.176  1.00  0.00     0.058 A 
ATOM     74  C   UNL A   1      44.889  25.786  25.429  1.00  0.00     0.135 A 
ATOM     75  C   UNL A   1      42.845  24.998  26.375  1.00  0.00     0.135 A 
ATOM     76  F   UNL A   1      45.805  26.742  25.210  1.00  0.00    -0.206 F 
ATOM     77  C   UNL A   1      45.169  24.499  24.944  1.00  0.00     0.059 A 
ATOM     78  C   UNL A   1      43.096  23.712  25.894  1.00  0.00     0.059 A 
ATOM     79  F   UNL A   1      41.741  25.138  27.123  1.00  0.00    -0.206 F 
ATOM     80  C   UNL A   1      44.272  23.463  25.198  1.00  0.00     0.060 A 
BRANCH  80  81
ATOM     81  S   UNL A   1      44.692  21.769  24.716  1.00  0.00     0.124 S 
ATOM     82  O   UNL A   1      46.025  21.612  25.287  1.00  0.00    -0.237 OA
ATOM     83  O   UNL A   1      43.632  20.993  25.348  1.00  0.00    -0.237 OA
ATOM     84  O   UNL A   1      44.643  21.809  23.256  1.00  0.00    -0.744 OA
ENDBRANCH  80  81
ENDBRANCH  48  73
BRANCH  60  85
ATOM     85  C   UNL A   1      45.271  31.550  29.045  1.00  0.00     0.058 A 
ATOM     86  C   UNL A   1      46.579  31.946  28.716  1.00  0.00     0.135 A 
ATOM     87  C   UNL A   1      44.224  32.111  28.299  1.00  0.00     0.135 A 
ATOM     88  F   UNL A   1      47.641  31.384  29.311  1.00  0.00    -0.206 F 
ATOM     89  C   UNL A   1      46.830  32.885  27.711  1.00  0.00     0.059 A 
ATOM     90  C   UNL A   1      44.453  33.021  27.274  1.00  0.00     0.059 A 
ATOM     91  F   UNL A   1      42.957  31.725  28.525  1.00  0.00    -0.206 F 
ATOM     92  C   UNL A   1      45.758  33.414  26.992  1.00  0.00     0.060 A 
BRANCH  92  93
ATOM     93  S   UNL A   1      46.081  34.571  25.644  1.00  0.00     0.124 S 
ATOM     94  O   UNL A   1      45.157  34.110  24.614  1.00  0.00    -0.237 OA
ATOM     95  O   UNL A   1      45.762  35.861  26.250  1.00  0.00    -0.237 OA
ATOM     96  O   UNL A   1      47.497  34.366  25.348  1.00  0.00    -0.744 OA
ENDBRANCH  92  93
ENDBRANCH  60  85
ENDBRANCH  34  35
ENDBRANCH  27  29
ENDBRANCH  26  27
ENDBRANCH  25  26
ENDBRANCH   1  25
TORSDOF 20
ENDMDL
MODEL 3
REMARK VINA RESULT:     -10.7      3.316      6.032
REMARK SMILES COCC[C@H]([NH3+])C(=O)N1CC(n2cc(C(=O)OCCOC(=O)c3ccc(-c4c5nc(c(-c6c(F)cc(S(=O)(=O)[O-])cc6F)c6ccc([nH]6)c(-c6c(F)cc(S(=O)(=O)[O-])cc6F)c6nc(c(-c7c(F)cc(S(=O)(=O)[O-])cc7F)c7ccc4[nH]7)C=C6)C=C5)cc3)nn2)C1
REMARK SMILES IDX 18 1 17 2 15 3 16 4 14 5 12 6 13 7 90 8 89 9 11 10 7 11 8 12
REMARK SMILES IDX 9 13 10 14 91 15 5 16 4 17 3 18 2 19 1 20 6 21 19 25 20 26
REMARK SMILES IDX 21 27 22 28 23 29 24 30 88 31 25 32 87 33 26 34 27 35 28 36
REMARK SMILES IDX 81 37 29 38 86 39 80 40 82 41 30 42 85 43 79 44 78 45 31 47
REMARK SMILES IDX 65 48 44 49 64 50 45 51 48 52 63 53 83 54 46 55 47 56 62 58
REMARK SMILES IDX 84 59 49 60 32 61 33 62 42 63 34 64 35 65 41 66 43 67 36 68
REMARK SMILES IDX 37 69 38 70 39 71 40 72 66 73 67 74 76 75 68 76 69 77 75 78
REMARK SMILES IDX 77 79 70 80 71 81 72 82 73 83 74 84 50 85 51 86 60 87 52 88
REMARK SMILES IDX 53 89 59 90 61 91 54 92 55 93 56 94 57 95 58 96
REMARK H PARENT 6 22 6 23 6 24 82 46 48 57
REMARK Flexibility Score: inf
ROOT
ATOM      1  C   UNL A   1      43.480  18.704  25.706  1.00  0.00     0.275 C 
ENDROOT
BRANCH   1   2
ATOM      2  O   UNL A   1      42.273  19.370  25.300  1.00  0.00    -0.457 OA
BRANCH   2   3
ATOM      3  C   UNL A   1      41.508  19.886  26.313  1.00  0.00     0.360 C 
ATOM      4  O   UNL A   1      41.937  20.149  27.434  1.00  0.00    -0.244 OA
BRANCH   3   5
ATOM      5  C   UNL A   1      40.136  20.120  25.901  1.00  0.00     0.190 A 
ATOM      6  N   UNL A   1      38.228  20.994  25.381  1.00  0.00    -0.245 N 
ATOM      7  C   UNL A   1      39.451  21.318  25.888  1.00  0.00     0.147 A 
ATOM      8  N   UNL A   1      38.136  19.682  25.121  1.00  0.00    -0.066 NA
ATOM      9  N   UNL A   1      39.292  19.127  25.461  1.00  0.00    -0.123 NA
BRANCH   6  10
ATOM     10  C   UNL A   1      37.294  21.981  24.954  1.00  0.00     0.148 C 
ATOM     11  C   UNL A   1      34.709  23.863  25.590  1.00  0.00     0.280 C 
ATOM     12  O   UNL A   1      34.878  25.003  25.156  1.00  0.00    -0.268 OA
ATOM     13  N   UNL A   1      35.750  23.008  25.814  1.00  0.00    -0.333 N 
ATOM     14  C   UNL A   1      37.187  23.257  25.789  1.00  0.00     0.149 C 
ATOM     15  C   UNL A   1      35.888  21.605  25.476  1.00  0.00     0.149 C 
BRANCH  11  16
ATOM     16  C   UNL A   1      33.318  23.407  26.075  1.00  0.00     0.273 C 
BRANCH  16  17
ATOM     17  C   UNL A   1      32.542  22.751  24.922  1.00  0.00     0.104 C 
BRANCH  17  18
ATOM     18  C   UNL A   1      31.772  21.480  25.309  1.00  0.00     0.166 C 
BRANCH  18  19
ATOM     19  O   UNL A   1      32.518  20.286  25.084  1.00  0.00    -0.384 OA
ATOM     20  C   UNL A   1      32.579  19.877  23.726  1.00  0.00     0.194 C 
ENDBRANCH  18  19
ENDBRANCH  17  18
ENDBRANCH  16  17
BRANCH  16  21
ATOM     21  N   UNL A   1      32.534  24.518  26.660  1.00  0.00    -0.347 N 
ATOM     22  H   UNL A   1      32.974  24.826  27.527  1.00  0.00     0.345 HD
ATOM     23  H   UNL A   1      31.585  24.199  26.855  1.00  0.00     0.345 HD
ATOM     24  H   UNL A   1      32.502  25.296  26.000  1.00  0.00     0.345 HD
ENDBRANCH  16  21
ENDBRANCH  11  16
ENDBRANCH   6  10
ENDBRANCH   3   5
ENDBRANCH   2   3
ENDBRANCH   1   2
BRANCH   1  25
ATOM     25  C   UNL A   1      44.645  19.107  24.814  1.00  0.00     0.275 C 
BRANCH  25  26
ATOM     26  O   UNL A   1      45.133  20.400  25.161  1.00  0.00    -0.458 OA
BRANCH  26  27
ATOM     27  C   UNL A   1      44.557  21.430  24.495  1.00  0.00     0.338 C 
ATOM     28  O   UNL A   1      44.656  21.677  23.305  1.00  0.00    -0.246 OA
BRANCH  27  29
ATOM     29  C   UNL A   1      43.988  22.363  25.469  1.00  0.00     0.060 A 
ATOM     30  C   UNL A   1      43.004  23.253  25.025  1.00  0.00     0.016 A 
ATOM     31  C   UNL A   1      44.653  22.538  26.690  1.00  0.00     0.016 A 
ATOM     32  C   UNL A   1      42.811  24.422  25.731  1.00  0.00     0.010 A 
ATOM     33  C   UNL A   1      44.483  23.714  27.371  1.00  0.00     0.010 A 
ATOM     34  C   UNL A   1      43.617  24.672  26.845  1.00  0.00    -0.014 A 
BRANCH  34  35
ATOM     35  C   UNL A   1      43.465  25.914  27.571  1.00  0.00     0.031 A 
ATOM     36  C   UNL A   1      44.532  26.888  27.232  1.00  0.00     0.074 A 
ATOM     37  C   UNL A   1      42.356  26.174  28.291  1.00  0.00     0.049 A 
ATOM     38  N   UNL A   1      45.486  27.315  27.991  1.00  0.00    -0.248 NA
ATOM     39  C   UNL A   1      44.697  27.254  25.812  1.00  0.00     0.031 C 
ATOM     40  C   UNL A   1      41.146  25.352  28.410  1.00  0.00     0.029 A 
ATOM     41  N   UNL A   1      42.022  27.296  28.981  1.00  0.00    -0.354 N 
ATOM     42  C   UNL A   1      46.198  28.217  27.205  1.00  0.00     0.074 A 
ATOM     43  C   UNL A   1      45.847  27.925  25.846  1.00  0.00     0.031 C 
ATOM     44  C   UNL A   1      40.143  26.102  28.921  1.00  0.00     0.029 A 
ATOM     45  C   UNL A   1      40.664  27.409  29.278  1.00  0.00     0.049 A 
ATOM     46  H   UNL A   1      42.683  27.973  29.251  1.00  0.00     0.167 HD
ATOM     47  C   UNL A   1      46.747  29.335  27.756  1.00  0.00     0.037 A 
ATOM     48  C   UNL A   1      40.030  28.537  29.698  1.00  0.00     0.037 A 
ATOM     49  C   UNL A   1      46.858  29.187  29.189  1.00  0.00     0.049 A 
ATOM     50  C   UNL A   1      41.086  29.450  30.222  1.00  0.00     0.074 A 
ATOM     51  C   UNL A   1      47.493  28.294  30.029  1.00  0.00     0.029 A 
ATOM     52  N   UNL A   1      45.920  29.831  29.961  1.00  0.00    -0.354 N 
ATOM     53  N   UNL A   1      41.802  29.190  31.283  1.00  0.00    -0.248 NA
ATOM     54  C   UNL A   1      41.682  30.391  29.285  1.00  0.00     0.031 C 
ATOM     55  C   UNL A   1      46.599  28.115  31.125  1.00  0.00     0.029 A 
ATOM     56  C   UNL A   1      45.506  28.963  30.936  1.00  0.00     0.049 A 
ATOM     57  H   UNL A   1      45.600  30.753  29.835  1.00  0.00     0.167 HD
ATOM     58  C   UNL A   1      43.093  29.581  30.948  1.00  0.00     0.074 A 
ATOM     59  C   UNL A   1      42.943  30.374  29.728  1.00  0.00     0.031 C 
ATOM     60  C   UNL A   1      44.181  28.983  31.517  1.00  0.00     0.037 A 
BRANCH  47  61
ATOM     61  C   UNL A   1      46.745  30.700  27.088  1.00  0.00     0.058 A 
ATOM     62  C   UNL A   1      47.948  31.439  27.084  1.00  0.00     0.135 A 
ATOM     63  C   UNL A   1      45.587  31.437  26.742  1.00  0.00     0.135 A 
ATOM     64  F   UNL A   1      49.118  30.843  27.359  1.00  0.00    -0.206 F 
ATOM     65  C   UNL A   1      47.978  32.820  26.892  1.00  0.00     0.059 A 
ATOM     66  C   UNL A   1      45.603  32.804  26.499  1.00  0.00     0.059 A 
ATOM     67  F   UNL A   1      44.363  30.905  26.701  1.00  0.00    -0.206 F 
ATOM     68  C   UNL A   1      46.792  33.496  26.628  1.00  0.00     0.060 A 
BRANCH  68  69
ATOM     69  S   UNL A   1      46.803  35.291  26.508  1.00  0.00     0.124 S 
ATOM     70  O   UNL A   1      47.412  35.661  27.780  1.00  0.00    -0.237 OA
ATOM     71  O   UNL A   1      47.618  35.506  25.318  1.00  0.00    -0.237 OA
ATOM     72  O   UNL A   1      45.389  35.625  26.363  1.00  0.00    -0.744 OA
ENDBRANCH  68  69
ENDBRANCH  47  61
BRANCH  48  73
ATOM     73  C   UNL A   1      38.674  29.022  29.309  1.00  0.00     0.058 A 
ATOM     74  C   UNL A   1      37.680  29.288  30.270  1.00  0.00     0.135 A 
ATOM     75  C   UNL A   1      38.410  29.497  28.008  1.00  0.00     0.135 A 
ATOM     76  F   UNL A   1      37.853  28.897  31.542  1.00  0.00    -0.206 F 
ATOM     77  C   UNL A   1      36.519  30.015  29.969  1.00  0.00     0.059 A 
ATOM     78  C   UNL A   1      37.258  30.214  27.682  1.00  0.00     0.059 A 
ATOM     79  F   UNL A   1      39.311  29.358  27.023  1.00  0.00    -0.206 F 
ATOM     80  C   UNL A   1      36.325  30.491  28.673  1.00  0.00     0.060 A 
BRANCH  80  81
ATOM     81  S   UNL A   1      34.912  31.562  28.307  1.00  0.00     0.124 S 
ATOM     82  O   UNL A   1      34.490  31.974  29.642  1.00  0.00    -0.237 OA
ATOM     83  O   UNL A   1      35.514  32.600  27.479  1.00  0.00    -0.237 OA
ATOM     84  O   UNL A   1      33.985  30.673  27.610  1.00  0.00    -0.744 OA
ENDBRANCH  80  81
ENDBRANCH  48  73
BRANCH  60  85
ATOM     85  C   UNL A   1      43.970  28.109  32.726  1.00  0.00     0.058 A 
ATOM     86  C   UNL A   1      43.775  28.584  34.035  1.00  0.00     0.135 A 
ATOM     87  C   UNL A   1      43.789  26.735  32.510  1.00  0.00     0.135 A 
ATOM     88  F   UNL A   1      43.830  29.896  34.308  1.00  0.00    -0.206 F 
ATOM     89  C   UNL A   1      43.449  27.724  35.087  1.00  0.00     0.059 A 
ATOM     90  C   UNL A   1      43.433  25.866  33.534  1.00  0.00     0.059 A 
ATOM     91  F   UNL A   1      43.900  26.231  31.269  1.00  0.00    -0.206 F 
ATOM     92  C   UNL A   1      43.276  26.365  34.824  1.00  0.00     0.060 A 
BRANCH  92  93
ATOM     93  S   UNL A   1      42.782  25.260  36.165  1.00  0.00     0.124 S 
ATOM     94  O   UNL A   1      42.254  26.194  37.154  1.00  0.00    -0.237 OA
ATOM     95  O   UNL A   1      41.797  24.398  35.518  1.00  0.00    -0.237 OA
ATOM     96  O   UNL A   1      44.029  24.595  36.537  1.00  0.00    -0.744 OA
ENDBRANCH  92  93
ENDBRANCH  60  85
ENDBRANCH  34  35
ENDBRANCH  27  29
ENDBRANCH  26  27
ENDBRANCH  25  26
ENDBRANCH   1  25
TORSDOF 20
ENDMDL
