MODEL 1
REMARK VINA RESULT:     -13.1      0.000      0.000
REMARK SMILES CCCC1CN(c2cc(C(=O)OCCOC(=O)c3ccc(-c4c5nc(c(-c6c(F)cc(S(=O)(=O)[O-])cc6F)c6ccc([nH]6)c(-c6c(F)cc(S(=O)(=O)[O-])cc6F)c6nc(c(-c7c(F)cc(S(=O)(=O)[O-])cc7F)c7ccc4[nH]7)C=C6)C=C5)cc3)ccc2C)C1
REMARK SMILES IDX 13 1 12 2 10 3 11 4 9 5 7 6 8 7 86 8 85 9 87 10 84 11 6 12
REMARK SMILES IDX 4 13 5 14 88 15 3 16 2 17 1 18 14 19 15 20 16 21 17 22 18 23
REMARK SMILES IDX 19 24 83 25 20 26 82 27 21 28 22 29 23 30 76 31 24 32 81 33
REMARK SMILES IDX 75 34 77 35 25 36 80 37 74 38 73 39 26 41 60 42 39 43 59 44
REMARK SMILES IDX 40 45 43 46 58 47 78 48 41 49 42 50 57 52 79 53 44 54 27 55
REMARK SMILES IDX 28 56 37 57 29 58 30 59 36 60 38 61 31 62 32 63 33 64 34 65
REMARK SMILES IDX 35 66 61 67 62 68 71 69 63 70 64 71 70 72 72 73 65 74 66 75
REMARK SMILES IDX 67 76 68 77 69 78 45 79 46 80 55 81 47 82 48 83 54 84 56 85
REMARK SMILES IDX 49 86 50 87 51 88 52 89 53 90
REMARK H PARENT 77 40 43 51
REMARK Flexibility Score: inf
ROOT
ATOM      1  C   UNL A   1      33.232  30.207  27.075  1.00  0.00     0.275 C 
ENDROOT
BRANCH   1   2
ATOM      2  O   UNL A   1      33.283  28.896  27.660  1.00  0.00    -0.458 OA
BRANCH   2   3
ATOM      3  C   UNL A   1      32.235  28.125  27.269  1.00  0.00     0.338 C 
ATOM      4  O   UNL A   1      31.252  27.892  27.937  1.00  0.00    -0.246 OA
BRANCH   3   5
ATOM      5  C   UNL A   1      32.454  27.454  25.965  1.00  0.00     0.062 A 
ATOM      6  C   UNL A   1      31.596  27.318  23.681  1.00  0.00     0.040 A 
ATOM      7  C   UNL A   1      31.490  27.751  25.008  1.00  0.00     0.041 A 
ATOM      8  C   UNL A   1      32.743  26.613  23.291  1.00  0.00    -0.028 A 
ATOM      9  C   UNL A   1      33.711  26.296  24.265  1.00  0.00     0.006 A 
ATOM     10  C   UNL A   1      33.017  26.272  21.852  1.00  0.00     0.046 C 
ATOM     11  C   UNL A   1      33.550  26.677  25.606  1.00  0.00     0.016 A 
BRANCH   6  12
ATOM     12  N   UNL A   1      30.534  27.594  22.777  1.00  0.00    -0.371 N 
ATOM     13  C   UNL A   1      29.089  29.045  23.165  1.00  0.00     0.028 C 
ATOM     14  C   UNL A   1      29.151  27.510  23.217  1.00  0.00     0.122 C 
ATOM     15  C   UNL A   1      30.299  28.913  22.222  1.00  0.00     0.122 C 
BRANCH  13  16
ATOM     16  C   UNL A   1      27.819  29.694  22.645  1.00  0.00     0.007 C 
BRANCH  16  17
ATOM     17  C   UNL A   1      27.666  31.128  23.161  1.00  0.00    -0.003 C 
ATOM     18  C   UNL A   1      28.908  31.669  23.856  1.00  0.00     0.004 C 
ENDBRANCH  16  17
ENDBRANCH  13  16
ENDBRANCH   6  12
ENDBRANCH   3   5
ENDBRANCH   2   3
ENDBRANCH   1   2
BRANCH   1  19
ATOM     19  C   UNL A   1      34.385  31.108  27.546  1.00  0.00     0.275 C 
BRANCH  19  20
ATOM     20  O   UNL A   1      35.731  30.579  27.560  1.00  0.00    -0.458 OA
BRANCH  20  21
ATOM     21  C   UNL A   1      36.387  30.569  28.752  1.00  0.00     0.338 C 
ATOM     22  O   UNL A   1      35.938  31.074  29.770  1.00  0.00    -0.246 OA
BRANCH  21  23
ATOM     23  C   UNL A   1      37.522  29.606  28.665  1.00  0.00     0.060 A 
ATOM     24  C   UNL A   1      38.402  29.660  27.575  1.00  0.00     0.016 A 
ATOM     25  C   UNL A   1      37.868  28.887  29.813  1.00  0.00     0.016 A 
ATOM     26  C   UNL A   1      39.677  29.106  27.679  1.00  0.00     0.010 A 
ATOM     27  C   UNL A   1      39.158  28.448  29.966  1.00  0.00     0.010 A 
ATOM     28  C   UNL A   1      40.054  28.532  28.892  1.00  0.00    -0.014 A 
BRANCH  28  29
ATOM     29  C   UNL A   1      41.225  27.688  29.049  1.00  0.00     0.031 A 
ATOM     30  C   UNL A   1      41.266  26.269  28.668  1.00  0.00     0.074 A 
ATOM     31  C   UNL A   1      42.292  28.395  29.477  1.00  0.00     0.049 A 
ATOM     32  N   UNL A   1      42.119  25.427  29.138  1.00  0.00    -0.248 NA
ATOM     33  C   UNL A   1      40.333  25.665  27.723  1.00  0.00     0.031 C 
ATOM     34  C   UNL A   1      43.695  28.049  29.568  1.00  0.00     0.029 A 
ATOM     35  N   UNL A   1      42.199  29.629  30.136  1.00  0.00    -0.354 N 
ATOM     36  C   UNL A   1      42.066  24.293  28.351  1.00  0.00     0.074 A 
ATOM     37  C   UNL A   1      40.868  24.446  27.561  1.00  0.00     0.031 C 
ATOM     38  C   UNL A   1      44.260  28.850  30.494  1.00  0.00     0.029 A 
ATOM     39  C   UNL A   1      43.186  29.624  31.115  1.00  0.00     0.049 A 
ATOM     40  H   UNL A   1      41.561  30.353  29.945  1.00  0.00     0.167 HD
ATOM     41  C   UNL A   1      43.148  23.459  28.329  1.00  0.00     0.037 A 
ATOM     42  C   UNL A   1      42.781  29.534  32.417  1.00  0.00     0.037 A 
ATOM     43  C   UNL A   1      44.153  23.928  29.286  1.00  0.00     0.049 A 
ATOM     44  C   UNL A   1      43.293  28.255  33.032  1.00  0.00     0.074 A 
ATOM     45  C   UNL A   1      45.258  24.748  29.117  1.00  0.00     0.029 A 
ATOM     46  N   UNL A   1      43.872  23.922  30.650  1.00  0.00    -0.354 N 
ATOM     47  N   UNL A   1      43.429  27.126  32.389  1.00  0.00    -0.248 NA
ATOM     48  C   UNL A   1      43.813  28.206  34.392  1.00  0.00     0.031 C 
ATOM     49  C   UNL A   1      45.569  25.327  30.370  1.00  0.00     0.029 A 
ATOM     50  C   UNL A   1      44.671  24.842  31.308  1.00  0.00     0.049 A 
ATOM     51  H   UNL A   1      43.203  23.346  31.085  1.00  0.00     0.167 HD
ATOM     52  C   UNL A   1      44.133  26.250  33.177  1.00  0.00     0.074 A 
ATOM     53  C   UNL A   1      44.324  26.965  34.429  1.00  0.00     0.031 C 
ATOM     54  C   UNL A   1      44.584  25.033  32.746  1.00  0.00     0.037 A 
BRANCH  41  55
ATOM     55  C   UNL A   1      43.444  22.494  27.190  1.00  0.00     0.058 A 
ATOM     56  C   UNL A   1      42.715  21.287  27.059  1.00  0.00     0.135 A 
ATOM     57  C   UNL A   1      44.471  22.656  26.239  1.00  0.00     0.135 A 
ATOM     58  F   UNL A   1      41.642  21.027  27.816  1.00  0.00    -0.206 F 
ATOM     59  C   UNL A   1      43.053  20.279  26.153  1.00  0.00     0.059 A 
ATOM     60  C   UNL A   1      44.853  21.645  25.341  1.00  0.00     0.059 A 
ATOM     61  F   UNL A   1      45.123  23.822  26.120  1.00  0.00    -0.206 F 
ATOM     62  C   UNL A   1      44.147  20.449  25.318  1.00  0.00     0.060 A 
BRANCH  62  63
ATOM     63  S   UNL A   1      44.601  19.099  24.210  1.00  0.00     0.124 S 
ATOM     64  O   UNL A   1      45.993  18.857  24.574  1.00  0.00    -0.237 OA
ATOM     65  O   UNL A   1      43.655  18.056  24.595  1.00  0.00    -0.237 OA
ATOM     66  O   UNL A   1      44.397  19.666  22.880  1.00  0.00    -0.744 OA
ENDBRANCH  62  63
ENDBRANCH  41  55
BRANCH  42  67
ATOM     67  C   UNL A   1      41.480  30.219  32.738  1.00  0.00     0.058 A 
ATOM     68  C   UNL A   1      40.377  29.428  33.139  1.00  0.00     0.135 A 
ATOM     69  C   UNL A   1      41.332  31.605  32.890  1.00  0.00     0.135 A 
ATOM     70  F   UNL A   1      40.427  28.090  33.014  1.00  0.00    -0.206 F 
ATOM     71  C   UNL A   1      39.242  29.963  33.749  1.00  0.00     0.059 A 
ATOM     72  C   UNL A   1      40.189  32.170  33.484  1.00  0.00     0.059 A 
ATOM     73  F   UNL A   1      42.317  32.436  32.523  1.00  0.00    -0.206 F 
ATOM     74  C   UNL A   1      39.163  31.338  33.936  1.00  0.00     0.060 A 
BRANCH  74  75
ATOM     75  S   UNL A   1      37.788  31.996  34.918  1.00  0.00     0.124 S 
ATOM     76  O   UNL A   1      37.769  31.081  36.055  1.00  0.00    -0.237 OA
ATOM     77  O   UNL A   1      38.243  33.353  35.209  1.00  0.00    -0.237 OA
ATOM     78  O   UNL A   1      36.655  31.895  34.005  1.00  0.00    -0.744 OA
ENDBRANCH  74  75
ENDBRANCH  42  67
BRANCH  54  79
ATOM     79  C   UNL A   1      45.145  23.954  33.638  1.00  0.00     0.058 A 
ATOM     80  C   UNL A   1      46.479  23.932  34.078  1.00  0.00     0.135 A 
ATOM     81  C   UNL A   1      44.295  22.976  34.211  1.00  0.00     0.135 A 
ATOM     82  F   UNL A   1      47.353  24.878  33.708  1.00  0.00    -0.206 F 
ATOM     83  C   UNL A   1      46.958  22.962  34.955  1.00  0.00     0.059 A 
ATOM     84  C   UNL A   1      44.738  22.040  35.138  1.00  0.00     0.059 A 
ATOM     85  F   UNL A   1      42.992  22.903  33.905  1.00  0.00    -0.206 F 
ATOM     86  C   UNL A   1      46.081  22.020  35.481  1.00  0.00     0.060 A 
BRANCH  86  87
ATOM     87  S   UNL A   1      46.677  20.804  36.663  1.00  0.00     0.124 S 
ATOM     88  O   UNL A   1      45.852  21.107  37.829  1.00  0.00    -0.237 OA
ATOM     89  O   UNL A   1      46.389  19.536  35.998  1.00  0.00    -0.237 OA
ATOM     90  O   UNL A   1      48.095  21.129  36.788  1.00  0.00    -0.744 OA
ENDBRANCH  86  87
ENDBRANCH  54  79
ENDBRANCH  28  29
ENDBRANCH  21  23
ENDBRANCH  20  21
ENDBRANCH  19  20
ENDBRANCH   1  19
TORSDOF 17
ENDMDL
MODEL 2
REMARK VINA RESULT:     -12.5      1.075      2.940
REMARK SMILES CCCC1CN(c2cc(C(=O)OCCOC(=O)c3ccc(-c4c5nc(c(-c6c(F)cc(S(=O)(=O)[O-])cc6F)c6ccc([nH]6)c(-c6c(F)cc(S(=O)(=O)[O-])cc6F)c6nc(c(-c7c(F)cc(S(=O)(=O)[O-])cc7F)c7ccc4[nH]7)C=C6)C=C5)cc3)ccc2C)C1
REMARK SMILES IDX 13 1 12 2 10 3 11 4 9 5 7 6 8 7 86 8 85 9 87 10 84 11 6 12
REMARK SMILES IDX 4 13 5 14 88 15 3 16 2 17 1 18 14 19 15 20 16 21 17 22 18 23
REMARK SMILES IDX 19 24 83 25 20 26 82 27 21 28 22 29 23 30 76 31 24 32 81 33
REMARK SMILES IDX 75 34 77 35 25 36 80 37 74 38 73 39 26 41 60 42 39 43 59 44
REMARK SMILES IDX 40 45 43 46 58 47 78 48 41 49 42 50 57 52 79 53 44 54 27 55
REMARK SMILES IDX 28 56 37 57 29 58 30 59 36 60 38 61 31 62 32 63 33 64 34 65
REMARK SMILES IDX 35 66 61 67 62 68 71 69 63 70 64 71 70 72 72 73 65 74 66 75
REMARK SMILES IDX 67 76 68 77 69 78 45 79 46 80 55 81 47 82 48 83 54 84 56 85
REMARK SMILES IDX 49 86 50 87 51 88 52 89 53 90
REMARK H PARENT 77 40 43 51
REMARK Flexibility Score: inf
ROOT
ATOM      1  C   UNL A   1      33.598  29.675  26.905  1.00  0.00     0.275 C 
ENDROOT
BRANCH   1   2
ATOM      2  O   UNL A   1      32.206  29.723  27.256  1.00  0.00    -0.458 OA
BRANCH   2   3
ATOM      3  C   UNL A   1      31.611  28.507  27.139  1.00  0.00     0.338 C 
ATOM      4  O   UNL A   1      31.138  27.871  28.054  1.00  0.00    -0.246 OA
BRANCH   3   5
ATOM      5  C   UNL A   1      31.708  27.936  25.774  1.00  0.00     0.062 A 
ATOM      6  C   UNL A   1      32.294  25.899  24.558  1.00  0.00     0.040 A 
ATOM      7  C   UNL A   1      32.243  26.653  25.737  1.00  0.00     0.041 A 
ATOM      8  C   UNL A   1      31.732  26.433  23.390  1.00  0.00    -0.028 A 
ATOM      9  C   UNL A   1      31.207  27.741  23.425  1.00  0.00     0.006 A 
ATOM     10  C   UNL A   1      31.585  25.620  22.134  1.00  0.00     0.046 C 
ATOM     11  C   UNL A   1      31.232  28.507  24.600  1.00  0.00     0.016 A 
BRANCH   6  12
ATOM     12  N   UNL A   1      32.926  24.625  24.580  1.00  0.00    -0.371 N 
ATOM     13  C   UNL A   1      34.658  24.259  25.678  1.00  0.00     0.028 C 
ATOM     14  C   UNL A   1      34.321  24.488  24.196  1.00  0.00     0.122 C 
ATOM     15  C   UNL A   1      33.169  23.890  25.806  1.00  0.00     0.122 C 
BRANCH  13  16
ATOM     16  C   UNL A   1      35.706  23.215  26.022  1.00  0.00     0.007 C 
BRANCH  16  17
ATOM     17  C   UNL A   1      37.098  23.633  25.539  1.00  0.00    -0.003 C 
ATOM     18  C   UNL A   1      38.195  22.634  25.880  1.00  0.00     0.004 C 
ENDBRANCH  16  17
ENDBRANCH  13  16
ENDBRANCH   6  12
ENDBRANCH   3   5
ENDBRANCH   2   3
ENDBRANCH   1   2
BRANCH   1  19
ATOM     19  C   UNL A   1      34.410  30.805  27.558  1.00  0.00     0.275 C 
BRANCH  19  20
ATOM     20  O   UNL A   1      35.855  30.735  27.536  1.00  0.00    -0.458 OA
BRANCH  20  21
ATOM     21  C   UNL A   1      36.498  30.725  28.735  1.00  0.00     0.338 C 
ATOM     22  O   UNL A   1      36.050  31.250  29.743  1.00  0.00    -0.246 OA
BRANCH  21  23
ATOM     23  C   UNL A   1      37.613  29.737  28.670  1.00  0.00     0.060 A 
ATOM     24  C   UNL A   1      38.497  29.751  27.582  1.00  0.00     0.016 A 
ATOM     25  C   UNL A   1      37.942  29.034  29.834  1.00  0.00     0.016 A 
ATOM     26  C   UNL A   1      39.760  29.173  27.700  1.00  0.00     0.010 A 
ATOM     27  C   UNL A   1      39.223  28.572  29.998  1.00  0.00     0.010 A 
ATOM     28  C   UNL A   1      40.122  28.617  28.925  1.00  0.00    -0.014 A 
BRANCH  28  29
ATOM     29  C   UNL A   1      41.275  27.752  29.103  1.00  0.00     0.031 A 
ATOM     30  C   UNL A   1      41.302  26.336  28.710  1.00  0.00     0.074 A 
ATOM     31  C   UNL A   1      42.343  28.437  29.563  1.00  0.00     0.049 A 
ATOM     32  N   UNL A   1      42.130  25.476  29.192  1.00  0.00    -0.248 NA
ATOM     33  C   UNL A   1      40.383  25.755  27.737  1.00  0.00     0.031 C 
ATOM     34  C   UNL A   1      43.737  28.067  29.685  1.00  0.00     0.029 A 
ATOM     35  N   UNL A   1      42.254  29.666  30.232  1.00  0.00    -0.354 N 
ATOM     36  C   UNL A   1      42.078  24.350  28.393  1.00  0.00     0.074 A 
ATOM     37  C   UNL A   1      40.902  24.530  27.576  1.00  0.00     0.031 C 
ATOM     38  C   UNL A   1      44.294  28.850  30.631  1.00  0.00     0.029 A 
ATOM     39  C   UNL A   1      43.217  29.636  31.233  1.00  0.00     0.049 A 
ATOM     40  H   UNL A   1      41.633  30.403  30.032  1.00  0.00     0.167 HD
ATOM     41  C   UNL A   1      43.147  23.498  28.388  1.00  0.00     0.037 A 
ATOM     42  C   UNL A   1      42.780  29.541  32.525  1.00  0.00     0.037 A 
ATOM     43  C   UNL A   1      44.136  23.942  29.374  1.00  0.00     0.049 A 
ATOM     44  C   UNL A   1      43.256  28.249  33.140  1.00  0.00     0.074 A 
ATOM     45  C   UNL A   1      45.257  24.746  29.239  1.00  0.00     0.029 A 
ATOM     46  N   UNL A   1      43.822  23.928  30.731  1.00  0.00    -0.354 N 
ATOM     47  N   UNL A   1      43.388  27.123  32.489  1.00  0.00    -0.248 NA
ATOM     48  C   UNL A   1      43.742  28.179  34.511  1.00  0.00     0.031 C 
ATOM     49  C   UNL A   1      45.547  25.308  30.505  1.00  0.00     0.029 A 
ATOM     50  C   UNL A   1      44.619  24.829  31.416  1.00  0.00     0.049 A 
ATOM     51  H   UNL A   1      43.133  23.359  31.144  1.00  0.00     0.167 HD
ATOM     52  C   UNL A   1      44.060  26.229  33.285  1.00  0.00     0.074 A 
ATOM     53  C   UNL A   1      44.232  26.929  34.548  1.00  0.00     0.031 C 
ATOM     54  C   UNL A   1      44.501  25.008  32.854  1.00  0.00     0.037 A 
BRANCH  41  55
ATOM     55  C   UNL A   1      43.454  22.539  27.248  1.00  0.00     0.058 A 
ATOM     56  C   UNL A   1      42.682  21.367  27.063  1.00  0.00     0.135 A 
ATOM     57  C   UNL A   1      44.530  22.672  26.348  1.00  0.00     0.135 A 
ATOM     58  F   UNL A   1      41.565  21.141  27.766  1.00  0.00    -0.206 F 
ATOM     59  C   UNL A   1      43.019  20.359  26.156  1.00  0.00     0.059 A 
ATOM     60  C   UNL A   1      44.910  21.659  25.451  1.00  0.00     0.059 A 
ATOM     61  F   UNL A   1      45.235  23.810  26.279  1.00  0.00    -0.206 F 
ATOM     62  C   UNL A   1      44.156  20.495  25.375  1.00  0.00     0.060 A 
BRANCH  62  63
ATOM     63  S   UNL A   1      44.604  19.143  24.266  1.00  0.00     0.124 S 
ATOM     64  O   UNL A   1      44.417  19.749  22.952  1.00  0.00    -0.237 OA
ATOM     65  O   UNL A   1      45.987  18.879  24.650  1.00  0.00    -0.237 OA
ATOM     66  O   UNL A   1      43.649  18.092  24.607  1.00  0.00    -0.744 OA
ENDBRANCH  62  63
ENDBRANCH  41  55
BRANCH  42  67
ATOM     67  C   UNL A   1      41.482  30.245  32.821  1.00  0.00     0.058 A 
ATOM     68  C   UNL A   1      40.360  29.469  33.197  1.00  0.00     0.135 A 
ATOM     69  C   UNL A   1      41.352  31.632  32.974  1.00  0.00     0.135 A 
ATOM     70  F   UNL A   1      40.393  28.131  33.069  1.00  0.00    -0.206 F 
ATOM     71  C   UNL A   1      39.221  30.019  33.785  1.00  0.00     0.059 A 
ATOM     72  C   UNL A   1      40.206  32.213  33.546  1.00  0.00     0.059 A 
ATOM     73  F   UNL A   1      42.357  32.450  32.629  1.00  0.00    -0.206 F 
ATOM     74  C   UNL A   1      39.158  31.394  33.975  1.00  0.00     0.060 A 
BRANCH  74  75
ATOM     75  S   UNL A   1      37.773  32.070  34.930  1.00  0.00     0.124 S 
ATOM     76  O   UNL A   1      36.666  31.933  33.989  1.00  0.00    -0.237 OA
ATOM     77  O   UNL A   1      37.733  31.176  36.084  1.00  0.00    -0.237 OA
ATOM     78  O   UNL A   1      38.203  33.437  35.208  1.00  0.00    -0.744 OA
ENDBRANCH  74  75
ENDBRANCH  42  67
BRANCH  54  79
ATOM     79  C   UNL A   1      45.023  23.912  33.749  1.00  0.00     0.058 A 
ATOM     80  C   UNL A   1      44.224  22.859  34.225  1.00  0.00     0.135 A 
ATOM     81  C   UNL A   1      46.407  23.806  34.030  1.00  0.00     0.135 A 
ATOM     82  F   UNL A   1      42.922  22.776  33.921  1.00  0.00    -0.206 F 
ATOM     83  C   UNL A   1      44.743  21.822  34.996  1.00  0.00     0.059 A 
ATOM     84  C   UNL A   1      46.954  22.745  34.741  1.00  0.00     0.059 A 
ATOM     85  F   UNL A   1      47.289  24.724  33.607  1.00  0.00    -0.206 F 
ATOM     86  C   UNL A   1      46.110  21.771  35.249  1.00  0.00     0.060 A 
BRANCH  86  87
ATOM     87  S   UNL A   1      46.796  20.401  36.187  1.00  0.00     0.124 S 
ATOM     88  O   UNL A   1      48.213  20.500  35.850  1.00  0.00    -0.237 OA
ATOM     89  O   UNL A   1      46.449  20.745  37.564  1.00  0.00    -0.237 OA
ATOM     90  O   UNL A   1      46.095  19.242  35.644  1.00  0.00    -0.744 OA
ENDBRANCH  86  87
ENDBRANCH  54  79
ENDBRANCH  28  29
ENDBRANCH  21  23
ENDBRANCH  20  21
ENDBRANCH  19  20
ENDBRANCH   1  19
TORSDOF 17
ENDMDL
MODEL 3
REMARK VINA RESULT:     -12.3      1.891      3.402
REMARK SMILES CCCC1CN(c2cc(C(=O)OCCOC(=O)c3ccc(-c4c5nc(c(-c6c(F)cc(S(=O)(=O)[O-])cc6F)c6ccc([nH]6)c(-c6c(F)cc(S(=O)(=O)[O-])cc6F)c6nc(c(-c7c(F)cc(S(=O)(=O)[O-])cc7F)c7ccc4[nH]7)C=C6)C=C5)cc3)ccc2C)C1
REMARK SMILES IDX 13 1 12 2 10 3 11 4 9 5 7 6 8 7 86 8 85 9 87 10 84 11 6 12
REMARK SMILES IDX 4 13 5 14 88 15 3 16 2 17 1 18 14 19 15 20 16 21 17 22 18 23
REMARK SMILES IDX 19 24 83 25 20 26 82 27 21 28 22 29 23 30 76 31 24 32 81 33
REMARK SMILES IDX 75 34 77 35 25 36 80 37 74 38 73 39 26 41 60 42 39 43 59 44
REMARK SMILES IDX 40 45 43 46 58 47 78 48 41 49 42 50 57 52 79 53 44 54 27 55
REMARK SMILES IDX 28 56 37 57 29 58 30 59 36 60 38 61 31 62 32 63 33 64 34 65
REMARK SMILES IDX 35 66 61 67 62 68 71 69 63 70 64 71 70 72 72 73 65 74 66 75
REMARK SMILES IDX 67 76 68 77 69 78 45 79 46 80 55 81 47 82 48 83 54 84 56 85
REMARK SMILES IDX 49 86 50 87 51 88 52 89 53 90
REMARK H PARENT 77 40 43 51
REMARK Flexibility Score: inf
ROOT
ATOM      1  C   UNL A   1      33.714  29.392  26.240  1.00  0.00     0.275 C 
ENDROOT
BRANCH   1   2
ATOM      2  O   UNL A   1      32.732  28.351  26.356  1.00  0.00    -0.458 OA
BRANCH   2   3
ATOM      3  C   UNL A   1      32.875  27.408  25.388  1.00  0.00     0.338 C 
ATOM      4  O   UNL A   1      33.530  27.538  24.378  1.00  0.00    -0.246 OA
BRANCH   3   5
ATOM      5  C   UNL A   1      32.028  26.210  25.606  1.00  0.00     0.062 A 
ATOM      6  C   UNL A   1      32.119  23.862  26.274  1.00  0.00     0.040 A 
ATOM      7  C   UNL A   1      32.746  25.058  25.909  1.00  0.00     0.041 A 
ATOM      8  C   UNL A   1      30.722  23.841  26.397  1.00  0.00    -0.028 A 
ATOM      9  C   UNL A   1      29.994  25.004  26.072  1.00  0.00     0.006 A 
ATOM     10  C   UNL A   1      29.989  22.653  26.956  1.00  0.00     0.046 C 
ATOM     11  C   UNL A   1      30.639  26.172  25.638  1.00  0.00     0.016 A 
BRANCH   6  12
ATOM     12  N   UNL A   1      32.914  22.703  26.493  1.00  0.00    -0.371 N 
ATOM     13  C   UNL A   1      34.606  22.281  25.352  1.00  0.00     0.028 C 
ATOM     14  C   UNL A   1      33.160  21.763  25.413  1.00  0.00     0.122 C 
ATOM     15  C   UNL A   1      34.333  22.770  26.787  1.00  0.00     0.122 C 
BRANCH  13  16
ATOM     16  C   UNL A   1      35.719  21.275  25.118  1.00  0.00     0.007 C 
BRANCH  16  17
ATOM     17  C   UNL A   1      36.892  21.900  24.356  1.00  0.00    -0.003 C 
ATOM     18  C   UNL A   1      36.477  22.952  23.339  1.00  0.00     0.004 C 
ENDBRANCH  16  17
ENDBRANCH  13  16
ENDBRANCH   6  12
ENDBRANCH   3   5
ENDBRANCH   2   3
ENDBRANCH   1   2
BRANCH   1  19
ATOM     19  C   UNL A   1      34.872  29.226  27.236  1.00  0.00     0.275 C 
BRANCH  19  20
ATOM     20  O   UNL A   1      35.874  30.266  27.330  1.00  0.00    -0.458 OA
BRANCH  20  21
ATOM     21  C   UNL A   1      36.234  30.675  28.577  1.00  0.00     0.338 C 
ATOM     22  O   UNL A   1      35.491  31.295  29.323  1.00  0.00    -0.246 OA
BRANCH  21  23
ATOM     23  C   UNL A   1      37.500  29.985  28.958  1.00  0.00     0.060 A 
ATOM     24  C   UNL A   1      37.474  28.943  29.895  1.00  0.00     0.016 A 
ATOM     25  C   UNL A   1      38.625  30.174  28.148  1.00  0.00     0.016 A 
ATOM     26  C   UNL A   1      38.513  28.015  29.937  1.00  0.00     0.010 A 
ATOM     27  C   UNL A   1      39.588  29.199  28.101  1.00  0.00     0.010 A 
ATOM     28  C   UNL A   1      39.547  28.135  29.012  1.00  0.00    -0.014 A 
BRANCH  28  29
ATOM     29  C   UNL A   1      40.806  27.419  29.120  1.00  0.00     0.031 A 
ATOM     30  C   UNL A   1      40.988  26.021  28.704  1.00  0.00     0.074 A 
ATOM     31  C   UNL A   1      41.803  28.227  29.539  1.00  0.00     0.049 A 
ATOM     32  N   UNL A   1      41.939  25.266  29.132  1.00  0.00    -0.248 NA
ATOM     33  C   UNL A   1      40.101  25.340  27.767  1.00  0.00     0.031 C 
ATOM     34  C   UNL A   1      43.236  28.032  29.587  1.00  0.00     0.029 A 
ATOM     35  N   UNL A   1      41.596  29.429  30.230  1.00  0.00    -0.354 N 
ATOM     36  C   UNL A   1      41.987  24.150  28.319  1.00  0.00     0.074 A 
ATOM     37  C   UNL A   1      40.759  24.190  27.562  1.00  0.00     0.031 C 
ATOM     38  C   UNL A   1      43.738  28.870  30.517  1.00  0.00     0.029 A 
ATOM     39  C   UNL A   1      42.603  29.510  31.183  1.00  0.00     0.049 A 
ATOM     40  H   UNL A   1      40.879  30.085  30.071  1.00  0.00     0.167 HD
ATOM     41  C   UNL A   1      43.151  23.438  28.249  1.00  0.00     0.037 A 
ATOM     42  C   UNL A   1      42.247  29.349  32.492  1.00  0.00     0.037 A 
ATOM     43  C   UNL A   1      44.126  23.992  29.193  1.00  0.00     0.049 A 
ATOM     44  C   UNL A   1      42.909  28.120  33.064  1.00  0.00     0.074 A 
ATOM     45  C   UNL A   1      45.131  24.930  29.016  1.00  0.00     0.029 A 
ATOM     46  N   UNL A   1      43.885  23.926  30.563  1.00  0.00    -0.354 N 
ATOM     47  N   UNL A   1      43.147  27.025  32.390  1.00  0.00    -0.248 NA
ATOM     48  C   UNL A   1      43.468  28.098  34.408  1.00  0.00     0.031 C 
ATOM     49  C   UNL A   1      45.412  25.512  30.276  1.00  0.00     0.029 A 
ATOM     50  C   UNL A   1      44.597  24.913  31.223  1.00  0.00     0.049 A 
ATOM     51  H   UNL A   1      43.293  23.272  31.000  1.00  0.00     0.167 HD
ATOM     52  C   UNL A   1      43.963  26.214  33.138  1.00  0.00     0.074 A 
ATOM     53  C   UNL A   1      44.110  26.919  34.403  1.00  0.00     0.031 C 
ATOM     54  C   UNL A   1      44.530  25.062  32.667  1.00  0.00     0.037 A 
BRANCH  41  55
ATOM     55  C   UNL A   1      43.518  22.535  27.081  1.00  0.00     0.058 A 
ATOM     56  C   UNL A   1      42.905  21.268  26.928  1.00  0.00     0.135 A 
ATOM     57  C   UNL A   1      44.507  22.820  26.119  1.00  0.00     0.135 A 
ATOM     58  F   UNL A   1      41.875  20.886  27.695  1.00  0.00    -0.206 F 
ATOM     59  C   UNL A   1      43.322  20.320  25.990  1.00  0.00     0.059 A 
ATOM     60  C   UNL A   1      44.968  21.873  25.189  1.00  0.00     0.059 A 
ATOM     61  F   UNL A   1      45.043  24.045  26.022  1.00  0.00    -0.206 F 
ATOM     62  C   UNL A   1      44.379  20.616  25.144  1.00  0.00     0.060 A 
BRANCH  62  63
ATOM     63  S   UNL A   1      44.941  19.344  23.993  1.00  0.00     0.124 S 
ATOM     64  O   UNL A   1      46.388  19.379  24.177  1.00  0.00    -0.237 OA
ATOM     65  O   UNL A   1      44.267  18.153  24.501  1.00  0.00    -0.237 OA
ATOM     66  O   UNL A   1      44.469  19.824  22.697  1.00  0.00    -0.744 OA
ENDBRANCH  62  63
ENDBRANCH  41  55
BRANCH  42  67
ATOM     67  C   UNL A   1      40.888  29.883  32.862  1.00  0.00     0.058 A 
ATOM     68  C   UNL A   1      40.679  31.283  32.834  1.00  0.00     0.135 A 
ATOM     69  C   UNL A   1      39.742  29.091  33.016  1.00  0.00     0.135 A 
ATOM     70  F   UNL A   1      41.725  32.117  32.704  1.00  0.00    -0.206 F 
ATOM     71  C   UNL A   1      39.409  31.860  32.851  1.00  0.00     0.059 A 
ATOM     72  C   UNL A   1      38.452  29.650  33.055  1.00  0.00     0.059 A 
ATOM     73  F   UNL A   1      39.842  27.755  33.069  1.00  0.00    -0.206 F 
ATOM     74  C   UNL A   1      38.295  31.034  32.943  1.00  0.00     0.060 A 
BRANCH  74  75
ATOM     75  S   UNL A   1      36.653  31.777  32.747  1.00  0.00     0.124 S 
ATOM     76  O   UNL A   1      36.895  32.763  31.699  1.00  0.00    -0.237 OA
ATOM     77  O   UNL A   1      35.842  30.627  32.356  1.00  0.00    -0.237 OA
ATOM     78  O   UNL A   1      36.378  32.317  34.075  1.00  0.00    -0.744 OA
ENDBRANCH  74  75
ENDBRANCH  42  67
BRANCH  54  79
ATOM     79  C   UNL A   1      45.227  24.031  33.519  1.00  0.00     0.058 A 
ATOM     80  C   UNL A   1      46.570  24.138  33.916  1.00  0.00     0.135 A 
ATOM     81  C   UNL A   1      44.501  22.961  34.097  1.00  0.00     0.135 A 
ATOM     82  F   UNL A   1      47.330  25.175  33.539  1.00  0.00    -0.206 F 
ATOM     83  C   UNL A   1      47.174  23.207  34.757  1.00  0.00     0.059 A 
ATOM     84  C   UNL A   1      45.068  22.060  34.990  1.00  0.00     0.059 A 
ATOM     85  F   UNL A   1      43.202  22.760  33.831  1.00  0.00    -0.206 F 
ATOM     86  C   UNL A   1      46.415  22.171  35.291  1.00  0.00     0.060 A 
BRANCH  86  87
ATOM     87  S   UNL A   1      47.171  21.003  36.428  1.00  0.00     0.124 S 
ATOM     88  O   UNL A   1      47.572  21.882  37.522  1.00  0.00    -0.237 OA
ATOM     89  O   UNL A   1      46.076  20.084  36.726  1.00  0.00    -0.237 OA
ATOM     90  O   UNL A   1      48.261  20.431  35.643  1.00  0.00    -0.744 OA
ENDBRANCH  86  87
ENDBRANCH  54  79
ENDBRANCH  28  29
ENDBRANCH  21  23
ENDBRANCH  20  21
ENDBRANCH  19  20
ENDBRANCH   1  19
TORSDOF 17
ENDMDL
