MODEL 1
REMARK VINA RESULT:     -11.4      0.000      0.000
REMARK SMILES C[C@H]([C@@H]1CCCO1)n1c(SCC(=O)OCCOC(=O)c2ccc(-c3c4nc(c(-c5c(F)cc(S(=O)(=O)[O-])cc5F)c5ccc([nH]5)c(-c5c(F)cc(S(=O)(=O)[O-])cc5F)c5nc(c(-c6c(F)cc(S(=O)(=O)[O-])cc6F)c6ccc3[nH]6)C=C5)C=C4)cc2)nc2cnccc21
REMARK SMILES IDX 15 1 14 2 12 3 13 4 11 5 10 6 9 7 8 8 92 9 86 10 87 11 91 12
REMARK SMILES IDX 88 13 90 14 89 15 2 16 1 17 3 18 4 19 7 20 5 21 6 22 16 23
REMARK SMILES IDX 17 24 18 25 19 26 20 27 21 28 85 29 22 30 84 31 23 32 24 33
REMARK SMILES IDX 25 34 78 35 26 36 83 37 77 38 79 39 27 40 82 41 76 42 75 43
REMARK SMILES IDX 28 45 62 46 41 47 61 48 42 49 45 50 60 51 80 52 43 53 44 54
REMARK SMILES IDX 59 56 81 57 46 58 29 59 30 60 39 61 31 62 32 63 38 64 40 65
REMARK SMILES IDX 33 66 34 67 35 68 36 69 37 70 63 71 64 72 73 73 65 74 66 75
REMARK SMILES IDX 72 76 74 77 67 78 68 79 69 80 70 81 71 82 47 83 48 84 57 85
REMARK SMILES IDX 49 86 50 87 56 88 58 89 51 90 52 91 53 92 54 93 55 94
REMARK H PARENT 79 44 45 55
REMARK Flexibility Score: inf
ROOT
ATOM      1  C   UNL A   1      35.049  31.444  27.801  1.00  0.00     0.274 C 
ENDROOT
BRANCH   1   2
ATOM      2  O   UNL A   1      34.094  30.685  27.011  1.00  0.00    -0.461 OA
BRANCH   2   3
ATOM      3  C   UNL A   1      34.377  29.374  26.753  1.00  0.00     0.316 C 
ATOM      4  O   UNL A   1      35.277  28.751  27.311  1.00  0.00    -0.251 OA
BRANCH   3   5
ATOM      5  C   UNL A   1      33.415  28.683  25.783  1.00  0.00     0.200 C 
BRANCH   5   6
ATOM      6  S   UNL A   1      31.718  28.556  26.315  1.00  0.00    -0.076 SA
BRANCH   6   7
ATOM      7  C   UNL A   1      30.816  27.189  25.709  1.00  0.00     0.170 A 
ATOM      8  N   UNL A   1      30.652  26.675  24.433  1.00  0.00    -0.313 N 
ATOM      9  C   UNL A   1      30.831  25.294  24.554  1.00  0.00     0.072 A 
ATOM     10  N   UNL A   1      30.599  26.231  26.597  1.00  0.00    -0.221 NA
ATOM     11  C   UNL A   1      30.711  25.051  25.914  1.00  0.00     0.108 A 
ATOM     12  C   UNL A   1      31.078  24.258  23.644  1.00  0.00     0.049 A 
ATOM     13  C   UNL A   1      30.787  23.734  26.379  1.00  0.00     0.141 A 
ATOM     14  C   UNL A   1      31.181  22.993  24.205  1.00  0.00     0.113 A 
ATOM     15  N   UNL A   1      31.031  22.709  25.519  1.00  0.00    -0.262 NA
BRANCH   8  16
ATOM     16  C   UNL A   1      30.413  27.285  23.132  1.00  0.00     0.116 C 
ATOM     17  C   UNL A   1      31.679  27.514  22.369  1.00  0.00     0.034 C 
BRANCH  16  18
ATOM     18  C   UNL A   1      29.467  28.492  23.042  1.00  0.00     0.141 C 
ATOM     19  C   UNL A   1      27.977  28.265  23.173  1.00  0.00     0.036 C 
ATOM     20  O   UNL A   1      29.629  29.256  21.842  1.00  0.00    -0.376 OA
ATOM     21  C   UNL A   1      27.451  29.617  22.756  1.00  0.00     0.031 C 
ATOM     22  C   UNL A   1      28.444  30.062  21.693  1.00  0.00     0.160 C 
ENDBRANCH  16  18
ENDBRANCH   8  16
ENDBRANCH   6   7
ENDBRANCH   5   6
ENDBRANCH   3   5
ENDBRANCH   2   3
ENDBRANCH   1   2
BRANCH   1  23
ATOM     23  C   UNL A   1      34.390  32.710  28.406  1.00  0.00     0.275 C 
BRANCH  23  24
ATOM     24  O   UNL A   1      35.371  33.367  29.240  1.00  0.00    -0.458 OA
BRANCH  24  25
ATOM     25  C   UNL A   1      35.397  33.128  30.577  1.00  0.00     0.338 C 
ATOM     26  O   UNL A   1      34.435  32.982  31.313  1.00  0.00    -0.246 OA
BRANCH  25  27
ATOM     27  C   UNL A   1      36.791  32.682  30.884  1.00  0.00     0.060 A 
ATOM     28  C   UNL A   1      37.811  32.897  29.946  1.00  0.00     0.016 A 
ATOM     29  C   UNL A   1      36.927  31.666  31.833  1.00  0.00     0.016 A 
ATOM     30  C   UNL A   1      38.791  31.922  29.747  1.00  0.00     0.010 A 
ATOM     31  C   UNL A   1      37.911  30.700  31.626  1.00  0.00     0.010 A 
ATOM     32  C   UNL A   1      38.771  30.752  30.505  1.00  0.00    -0.014 A 
BRANCH  32  33
ATOM     33  C   UNL A   1      39.775  29.696  30.292  1.00  0.00     0.031 A 
ATOM     34  C   UNL A   1      40.360  29.215  31.558  1.00  0.00     0.074 A 
ATOM     35  C   UNL A   1      40.244  29.074  29.185  1.00  0.00     0.049 A 
ATOM     36  N   UNL A   1      41.257  29.838  32.243  1.00  0.00    -0.248 NA
ATOM     37  C   UNL A   1      39.764  28.059  32.234  1.00  0.00     0.031 C 
ATOM     38  C   UNL A   1      39.735  29.001  27.817  1.00  0.00     0.029 A 
ATOM     39  N   UNL A   1      41.382  28.307  29.123  1.00  0.00    -0.354 N 
ATOM     40  C   UNL A   1      41.505  29.036  33.340  1.00  0.00     0.074 A 
ATOM     41  C   UNL A   1      40.389  28.126  33.412  1.00  0.00     0.031 C 
ATOM     42  C   UNL A   1      40.480  28.111  27.104  1.00  0.00     0.029 A 
ATOM     43  C   UNL A   1      41.621  27.685  27.904  1.00  0.00     0.049 A 
ATOM     44  H   UNL A   1      41.988  28.204  29.893  1.00  0.00     0.167 HD
ATOM     45  C   UNL A   1      42.722  29.036  33.950  1.00  0.00     0.037 A 
ATOM     46  C   UNL A   1      42.700  26.912  27.598  1.00  0.00     0.037 A 
ATOM     47  C   UNL A   1      43.574  30.084  33.422  1.00  0.00     0.049 A 
ATOM     48  C   UNL A   1      43.811  27.350  28.486  1.00  0.00     0.074 A 
ATOM     49  C   UNL A   1      43.464  31.455  33.276  1.00  0.00     0.029 A 
ATOM     50  N   UNL A   1      44.595  29.712  32.576  1.00  0.00    -0.354 N 
ATOM     51  N   UNL A   1      44.400  28.512  28.406  1.00  0.00    -0.248 NA
ATOM     52  C   UNL A   1      44.059  26.614  29.716  1.00  0.00     0.031 C 
ATOM     53  C   UNL A   1      44.066  31.748  32.014  1.00  0.00     0.029 A 
ATOM     54  C   UNL A   1      44.546  30.548  31.487  1.00  0.00     0.049 A 
ATOM     55  H   UNL A   1      45.239  28.982  32.722  1.00  0.00     0.167 HD
ATOM     56  C   UNL A   1      44.733  28.833  29.711  1.00  0.00     0.074 A 
ATOM     57  C   UNL A   1      44.612  27.582  30.450  1.00  0.00     0.031 C 
ATOM     58  C   UNL A   1      44.810  30.133  30.124  1.00  0.00     0.037 A 
BRANCH  45  59
ATOM     59  C   UNL A   1      43.271  27.897  34.774  1.00  0.00     0.058 A 
ATOM     60  C   UNL A   1      43.687  28.157  36.097  1.00  0.00     0.135 A 
ATOM     61  C   UNL A   1      43.620  26.627  34.268  1.00  0.00     0.135 A 
ATOM     62  F   UNL A   1      43.412  29.333  36.683  1.00  0.00    -0.206 F 
ATOM     63  C   UNL A   1      44.459  27.257  36.827  1.00  0.00     0.059 A 
ATOM     64  C   UNL A   1      44.330  25.687  35.003  1.00  0.00     0.059 A 
ATOM     65  F   UNL A   1      43.389  26.263  33.001  1.00  0.00    -0.206 F 
ATOM     66  C   UNL A   1      44.789  26.030  36.262  1.00  0.00     0.060 A 
BRANCH  66  67
ATOM     67  S   UNL A   1      45.893  24.919  37.145  1.00  0.00     0.124 S 
ATOM     68  O   UNL A   1      44.944  24.149  37.941  1.00  0.00    -0.237 OA
ATOM     69  O   UNL A   1      46.542  24.204  36.052  1.00  0.00    -0.237 OA
ATOM     70  O   UNL A   1      46.755  25.829  37.893  1.00  0.00    -0.744 OA
ENDBRANCH  66  67
ENDBRANCH  45  59
BRANCH  46  71
ATOM     71  C   UNL A   1      42.839  25.701  26.742  1.00  0.00     0.058 A 
ATOM     72  C   UNL A   1      43.658  25.710  25.590  1.00  0.00     0.135 A 
ATOM     73  C   UNL A   1      42.448  24.432  27.207  1.00  0.00     0.135 A 
ATOM     74  F   UNL A   1      44.091  26.870  25.075  1.00  0.00    -0.206 F 
ATOM     75  C   UNL A   1      44.127  24.536  24.990  1.00  0.00     0.059 A 
ATOM     76  C   UNL A   1      42.897  23.246  26.618  1.00  0.00     0.059 A 
ATOM     77  F   UNL A   1      41.699  24.309  28.313  1.00  0.00    -0.206 F 
ATOM     78  C   UNL A   1      43.764  23.305  25.531  1.00  0.00     0.060 A 
BRANCH  78  79
ATOM     79  S   UNL A   1      44.536  21.797  24.889  1.00  0.00     0.124 S 
ATOM     80  O   UNL A   1      44.610  22.078  23.460  1.00  0.00    -0.237 OA
ATOM     81  O   UNL A   1      45.808  21.775  25.602  1.00  0.00    -0.237 OA
ATOM     82  O   UNL A   1      43.593  20.748  25.272  1.00  0.00    -0.744 OA
ENDBRANCH  78  79
ENDBRANCH  46  71
BRANCH  58  83
ATOM     83  C   UNL A   1      44.886  31.224  29.082  1.00  0.00     0.058 A 
ATOM     84  C   UNL A   1      46.073  31.652  28.464  1.00  0.00     0.135 A 
ATOM     85  C   UNL A   1      43.681  31.733  28.567  1.00  0.00     0.135 A 
ATOM     86  F   UNL A   1      47.263  31.148  28.823  1.00  0.00    -0.206 F 
ATOM     87  C   UNL A   1      46.065  32.555  27.399  1.00  0.00     0.059 A 
ATOM     88  C   UNL A   1      43.647  32.606  27.482  1.00  0.00     0.059 A 
ATOM     89  F   UNL A   1      42.507  31.332  29.083  1.00  0.00    -0.206 F 
ATOM     90  C   UNL A   1      44.846  33.014  26.901  1.00  0.00     0.060 A 
BRANCH  90  91
ATOM     91  S   UNL A   1      44.843  34.052  25.423  1.00  0.00     0.124 S 
ATOM     92  O   UNL A   1      44.314  33.145  24.410  1.00  0.00    -0.237 OA
ATOM     93  O   UNL A   1      43.963  35.150  25.813  1.00  0.00    -0.237 OA
ATOM     94  O   UNL A   1      46.247  34.420  25.260  1.00  0.00    -0.744 OA
ENDBRANCH  90  91
ENDBRANCH  58  83
ENDBRANCH  32  33
ENDBRANCH  25  27
ENDBRANCH  24  25
ENDBRANCH  23  24
ENDBRANCH   1  23
TORSDOF 18
ENDMDL
MODEL 2
REMARK VINA RESULT:     -11.3      3.040      9.708
REMARK SMILES C[C@H]([C@@H]1CCCO1)n1c(SCC(=O)OCCOC(=O)c2ccc(-c3c4nc(c(-c5c(F)cc(S(=O)(=O)[O-])cc5F)c5ccc([nH]5)c(-c5c(F)cc(S(=O)(=O)[O-])cc5F)c5nc(c(-c6c(F)cc(S(=O)(=O)[O-])cc6F)c6ccc3[nH]6)C=C5)C=C4)cc2)nc2cnccc21
REMARK SMILES IDX 15 1 14 2 12 3 13 4 11 5 10 6 9 7 8 8 92 9 86 10 87 11 91 12
REMARK SMILES IDX 88 13 90 14 89 15 2 16 1 17 3 18 4 19 7 20 5 21 6 22 16 23
REMARK SMILES IDX 17 24 18 25 19 26 20 27 21 28 85 29 22 30 84 31 23 32 24 33
REMARK SMILES IDX 25 34 78 35 26 36 83 37 77 38 79 39 27 40 82 41 76 42 75 43
REMARK SMILES IDX 28 45 62 46 41 47 61 48 42 49 45 50 60 51 80 52 43 53 44 54
REMARK SMILES IDX 59 56 81 57 46 58 29 59 30 60 39 61 31 62 32 63 38 64 40 65
REMARK SMILES IDX 33 66 34 67 35 68 36 69 37 70 63 71 64 72 73 73 65 74 66 75
REMARK SMILES IDX 72 76 74 77 67 78 68 79 69 80 70 81 71 82 47 83 48 84 57 85
REMARK SMILES IDX 49 86 50 87 56 88 58 89 51 90 52 91 53 92 54 93 55 94
REMARK H PARENT 79 44 45 55
REMARK Flexibility Score: inf
ROOT
ATOM      1  C   UNL A   1      39.989  20.525  26.432  1.00  0.00     0.274 C 
ENDROOT
BRANCH   1   2
ATOM      2  O   UNL A   1      39.131  21.489  25.762  1.00  0.00    -0.461 OA
BRANCH   2   3
ATOM      3  C   UNL A   1      38.029  21.017  25.109  1.00  0.00     0.316 C 
ATOM      4  O   UNL A   1      37.777  19.822  24.977  1.00  0.00    -0.251 OA
BRANCH   3   5
ATOM      5  C   UNL A   1      37.048  22.092  24.634  1.00  0.00     0.200 C 
BRANCH   5   6
ATOM      6  S   UNL A   1      35.743  22.525  25.770  1.00  0.00    -0.076 SA
BRANCH   6   7
ATOM      7  C   UNL A   1      34.182  21.805  25.467  1.00  0.00     0.170 A 
ATOM      8  N   UNL A   1      33.392  21.744  24.331  1.00  0.00    -0.313 N 
ATOM      9  C   UNL A   1      32.962  20.417  24.238  1.00  0.00     0.072 A 
ATOM     10  N   UNL A   1      33.869  20.802  26.272  1.00  0.00    -0.221 NA
ATOM     11  C   UNL A   1      33.207  19.889  25.497  1.00  0.00     0.108 A 
ATOM     12  C   UNL A   1      32.401  19.642  23.216  1.00  0.00     0.049 A 
ATOM     13  C   UNL A   1      32.836  18.567  25.765  1.00  0.00     0.141 A 
ATOM     14  C   UNL A   1      32.107  18.330  23.563  1.00  0.00     0.113 A 
ATOM     15  N   UNL A   1      32.294  17.789  24.789  1.00  0.00    -0.262 NA
BRANCH   8  16
ATOM     16  C   UNL A   1      33.032  22.717  23.309  1.00  0.00     0.116 C 
ATOM     17  C   UNL A   1      34.219  23.470  22.797  1.00  0.00     0.034 C 
BRANCH  16  18
ATOM     18  C   UNL A   1      31.833  23.645  23.557  1.00  0.00     0.141 C 
ATOM     19  C   UNL A   1      31.720  24.924  22.759  1.00  0.00     0.036 C 
ATOM     20  O   UNL A   1      31.691  24.039  24.927  1.00  0.00    -0.376 OA
ATOM     21  C   UNL A   1      30.604  25.619  23.501  1.00  0.00     0.031 C 
ATOM     22  C   UNL A   1      30.832  25.196  24.944  1.00  0.00     0.160 C 
ENDBRANCH  16  18
ENDBRANCH   8  16
ENDBRANCH   6   7
ENDBRANCH   5   6
ENDBRANCH   3   5
ENDBRANCH   2   3
ENDBRANCH   1   2
BRANCH   1  23
ATOM     23  C   UNL A   1      41.484  20.811  26.138  1.00  0.00     0.275 C 
BRANCH  23  24
ATOM     24  O   UNL A   1      41.638  22.237  25.960  1.00  0.00    -0.458 OA
BRANCH  24  25
ATOM     25  C   UNL A   1      42.632  22.899  26.606  1.00  0.00     0.338 C 
ATOM     26  O   UNL A   1      43.786  23.032  26.232  1.00  0.00    -0.246 OA
BRANCH  25  27
ATOM     27  C   UNL A   1      41.955  23.757  27.628  1.00  0.00     0.060 A 
ATOM     28  C   UNL A   1      40.637  24.185  27.410  1.00  0.00     0.016 A 
ATOM     29  C   UNL A   1      42.786  24.481  28.484  1.00  0.00     0.016 A 
ATOM     30  C   UNL A   1      40.256  25.478  27.777  1.00  0.00     0.010 A 
ATOM     31  C   UNL A   1      42.394  25.770  28.845  1.00  0.00     0.010 A 
ATOM     32  C   UNL A   1      41.179  26.328  28.386  1.00  0.00    -0.014 A 
BRANCH  32  33
ATOM     33  C   UNL A   1      40.810  27.705  28.752  1.00  0.00     0.031 A 
ATOM     34  C   UNL A   1      41.791  28.696  28.269  1.00  0.00     0.074 A 
ATOM     35  C   UNL A   1      39.755  28.236  29.414  1.00  0.00     0.049 A 
ATOM     36  N   UNL A   1      42.936  28.928  28.812  1.00  0.00    -0.248 NA
ATOM     37  C   UNL A   1      41.587  29.334  26.966  1.00  0.00     0.031 C 
ATOM     38  C   UNL A   1      38.446  27.689  29.763  1.00  0.00     0.029 A 
ATOM     39  N   UNL A   1      39.693  29.512  29.921  1.00  0.00    -0.354 N 
ATOM     40  C   UNL A   1      43.516  29.915  28.038  1.00  0.00     0.074 A 
ATOM     41  C   UNL A   1      42.776  29.919  26.801  1.00  0.00     0.031 C 
ATOM     42  C   UNL A   1      37.669  28.677  30.289  1.00  0.00     0.029 A 
ATOM     43  C   UNL A   1      38.475  29.876  30.480  1.00  0.00     0.049 A 
ATOM     44  H   UNL A   1      40.461  30.127  29.890  1.00  0.00     0.167 HD
ATOM     45  C   UNL A   1      44.400  30.801  28.574  1.00  0.00     0.037 A 
ATOM     46  C   UNL A   1      38.192  31.068  31.076  1.00  0.00     0.037 A 
ATOM     47  C   UNL A   1      44.752  30.434  29.932  1.00  0.00     0.049 A 
ATOM     48  C   UNL A   1      39.481  31.616  31.579  1.00  0.00     0.074 A 
ATOM     49  C   UNL A   1      45.267  29.302  30.539  1.00  0.00     0.029 A 
ATOM     50  N   UNL A   1      44.207  31.175  30.957  1.00  0.00    -0.354 N 
ATOM     51  N   UNL A   1      40.170  31.092  32.556  1.00  0.00    -0.248 NA
ATOM     52  C   UNL A   1      40.201  32.581  30.762  1.00  0.00     0.031 C 
ATOM     53  C   UNL A   1      44.575  29.195  31.784  1.00  0.00     0.029 A 
ATOM     54  C   UNL A   1      43.714  30.289  31.883  1.00  0.00     0.049 A 
ATOM     55  H   UNL A   1      44.175  32.158  31.015  1.00  0.00     0.167 HD
ATOM     56  C   UNL A   1      41.493  31.329  32.226  1.00  0.00     0.074 A 
ATOM     57  C   UNL A   1      41.445  32.350  31.185  1.00  0.00     0.031 C 
ATOM     58  C   UNL A   1      42.488  30.484  32.630  1.00  0.00     0.037 A 
BRANCH  45  59
ATOM     59  C   UNL A   1      44.689  32.173  28.015  1.00  0.00     0.058 A 
ATOM     60  C   UNL A   1      45.954  32.417  27.442  1.00  0.00     0.135 A 
ATOM     61  C   UNL A   1      43.882  33.314  28.214  1.00  0.00     0.135 A 
ATOM     62  F   UNL A   1      46.807  31.408  27.208  1.00  0.00    -0.206 F 
ATOM     63  C   UNL A   1      46.412  33.703  27.166  1.00  0.00     0.059 A 
ATOM     64  C   UNL A   1      44.292  34.598  27.882  1.00  0.00     0.059 A 
ATOM     65  F   UNL A   1      42.699  33.266  28.837  1.00  0.00    -0.206 F 
ATOM     66  C   UNL A   1      45.577  34.789  27.405  1.00  0.00     0.060 A 
BRANCH  66  67
ATOM     67  S   UNL A   1      46.207  36.456  27.175  1.00  0.00     0.124 S 
ATOM     68  O   UNL A   1      46.849  36.698  28.462  1.00  0.00    -0.237 OA
ATOM     69  O   UNL A   1      47.100  36.288  26.034  1.00  0.00    -0.237 OA
ATOM     70  O   UNL A   1      45.002  37.236  26.913  1.00  0.00    -0.744 OA
ENDBRANCH  66  67
ENDBRANCH  45  59
BRANCH  46  71
ATOM     71  C   UNL A   1      36.949  31.890  31.106  1.00  0.00     0.058 A 
ATOM     72  C   UNL A   1      36.142  31.952  32.264  1.00  0.00     0.135 A 
ATOM     73  C   UNL A   1      36.707  32.878  30.135  1.00  0.00     0.135 A 
ATOM     74  F   UNL A   1      36.303  31.059  33.253  1.00  0.00    -0.206 F 
ATOM     75  C   UNL A   1      35.215  32.977  32.482  1.00  0.00     0.059 A 
ATOM     76  C   UNL A   1      35.779  33.907  30.326  1.00  0.00     0.059 A 
ATOM     77  F   UNL A   1      37.440  32.930  29.013  1.00  0.00    -0.206 F 
ATOM     78  C   UNL A   1      35.061  33.970  31.517  1.00  0.00     0.060 A 
BRANCH  78  79
ATOM     79  S   UNL A   1      34.021  35.406  31.887  1.00  0.00     0.124 S 
ATOM     80  O   UNL A   1      34.884  36.190  32.762  1.00  0.00    -0.237 OA
ATOM     81  O   UNL A   1      33.783  35.963  30.560  1.00  0.00    -0.237 OA
ATOM     82  O   UNL A   1      32.849  34.816  32.530  1.00  0.00    -0.744 OA
ENDBRANCH  78  79
ENDBRANCH  46  71
BRANCH  58  83
ATOM     83  C   UNL A   1      42.196  29.494  33.732  1.00  0.00     0.058 A 
ATOM     84  C   UNL A   1      41.641  28.218  33.529  1.00  0.00     0.135 A 
ATOM     85  C   UNL A   1      42.660  29.786  35.026  1.00  0.00     0.135 A 
ATOM     86  F   UNL A   1      41.259  27.814  32.309  1.00  0.00    -0.206 F 
ATOM     87  C   UNL A   1      41.536  27.287  34.564  1.00  0.00     0.059 A 
ATOM     88  C   UNL A   1      42.600  28.859  36.065  1.00  0.00     0.059 A 
ATOM     89  F   UNL A   1      43.242  30.971  35.280  1.00  0.00    -0.206 F 
ATOM     90  C   UNL A   1      42.035  27.609  35.826  1.00  0.00     0.060 A 
BRANCH  90  91
ATOM     91  S   UNL A   1      42.040  26.339  37.112  1.00  0.00     0.124 S 
ATOM     92  O   UNL A   1      43.155  26.758  37.954  1.00  0.00    -0.237 OA
ATOM     93  O   UNL A   1      40.712  26.483  37.700  1.00  0.00    -0.237 OA
ATOM     94  O   UNL A   1      42.251  25.100  36.367  1.00  0.00    -0.744 OA
ENDBRANCH  90  91
ENDBRANCH  58  83
ENDBRANCH  32  33
ENDBRANCH  25  27
ENDBRANCH  24  25
ENDBRANCH  23  24
ENDBRANCH   1  23
TORSDOF 18
ENDMDL
MODEL 3
REMARK VINA RESULT:     -11.2      2.839      9.456
REMARK SMILES C[C@H]([C@@H]1CCCO1)n1c(SCC(=O)OCCOC(=O)c2ccc(-c3c4nc(c(-c5c(F)cc(S(=O)(=O)[O-])cc5F)c5ccc([nH]5)c(-c5c(F)cc(S(=O)(=O)[O-])cc5F)c5nc(c(-c6c(F)cc(S(=O)(=O)[O-])cc6F)c6ccc3[nH]6)C=C5)C=C4)cc2)nc2cnccc21
REMARK SMILES IDX 15 1 14 2 12 3 13 4 11 5 10 6 9 7 8 8 92 9 86 10 87 11 91 12
REMARK SMILES IDX 88 13 90 14 89 15 2 16 1 17 3 18 4 19 7 20 5 21 6 22 16 23
REMARK SMILES IDX 17 24 18 25 19 26 20 27 21 28 85 29 22 30 84 31 23 32 24 33
REMARK SMILES IDX 25 34 78 35 26 36 83 37 77 38 79 39 27 40 82 41 76 42 75 43
REMARK SMILES IDX 28 45 62 46 41 47 61 48 42 49 45 50 60 51 80 52 43 53 44 54
REMARK SMILES IDX 59 56 81 57 46 58 29 59 30 60 39 61 31 62 32 63 38 64 40 65
REMARK SMILES IDX 33 66 34 67 35 68 36 69 37 70 63 71 64 72 73 73 65 74 66 75
REMARK SMILES IDX 72 76 74 77 67 78 68 79 69 80 70 81 71 82 47 83 48 84 57 85
REMARK SMILES IDX 49 86 50 87 56 88 58 89 51 90 52 91 53 92 54 93 55 94
REMARK H PARENT 79 44 45 55
REMARK Flexibility Score: inf
ROOT
ATOM      1  C   UNL A   1      38.634  22.000  25.881  1.00  0.00     0.274 C 
ENDROOT
BRANCH   1   2
ATOM      2  O   UNL A   1      37.647  21.041  25.414  1.00  0.00    -0.461 OA
BRANCH   2   3
ATOM      3  C   UNL A   1      36.583  21.515  24.701  1.00  0.00     0.316 C 
ATOM      4  O   UNL A   1      35.521  20.909  24.582  1.00  0.00    -0.251 OA
BRANCH   3   5
ATOM      5  C   UNL A   1      36.758  22.926  24.136  1.00  0.00     0.200 C 
BRANCH   5   6
ATOM      6  S   UNL A   1      35.272  23.744  23.585  1.00  0.00    -0.076 SA
BRANCH   6   7
ATOM      7  C   UNL A   1      34.231  24.383  24.833  1.00  0.00     0.170 A 
ATOM      8  N   UNL A   1      33.191  25.296  24.797  1.00  0.00    -0.313 N 
ATOM      9  C   UNL A   1      32.161  24.729  25.554  1.00  0.00     0.072 A 
ATOM     10  N   UNL A   1      34.089  23.599  25.890  1.00  0.00    -0.221 NA
ATOM     11  C   UNL A   1      32.783  23.725  26.280  1.00  0.00     0.108 A 
ATOM     12  C   UNL A   1      30.789  24.980  25.679  1.00  0.00     0.049 A 
ATOM     13  C   UNL A   1      32.032  22.980  27.195  1.00  0.00     0.141 A 
ATOM     14  C   UNL A   1      30.119  24.161  26.578  1.00  0.00     0.113 A 
ATOM     15  N   UNL A   1      30.696  23.198  27.334  1.00  0.00    -0.262 NA
BRANCH   8  16
ATOM     16  C   UNL A   1      33.003  26.574  24.124  1.00  0.00     0.116 C 
ATOM     17  C   UNL A   1      33.425  26.529  22.690  1.00  0.00     0.034 C 
BRANCH  16  18
ATOM     18  C   UNL A   1      33.486  27.856  24.820  1.00  0.00     0.141 C 
ATOM     19  C   UNL A   1      33.978  27.772  26.248  1.00  0.00     0.036 C 
ATOM     20  O   UNL A   1      32.515  28.909  24.815  1.00  0.00    -0.376 OA
ATOM     21  C   UNL A   1      34.072  29.238  26.597  1.00  0.00     0.031 C 
ATOM     22  C   UNL A   1      32.913  29.852  25.829  1.00  0.00     0.160 C 
ENDBRANCH  16  18
ENDBRANCH   8  16
ENDBRANCH   6   7
ENDBRANCH   5   6
ENDBRANCH   3   5
ENDBRANCH   2   3
ENDBRANCH   1   2
BRANCH   1  23
ATOM     23  C   UNL A   1      39.871  21.281  26.477  1.00  0.00     0.275 C 
BRANCH  23  24
ATOM     24  O   UNL A   1      40.997  22.183  26.388  1.00  0.00    -0.458 OA
BRANCH  24  25
ATOM     25  C   UNL A   1      41.847  22.316  27.438  1.00  0.00     0.338 C 
ATOM     26  O   UNL A   1      42.429  21.420  28.026  1.00  0.00    -0.246 OA
BRANCH  25  27
ATOM     27  C   UNL A   1      42.238  23.760  27.467  1.00  0.00     0.060 A 
ATOM     28  C   UNL A   1      42.745  24.317  28.650  1.00  0.00     0.016 A 
ATOM     29  C   UNL A   1      41.646  24.586  26.510  1.00  0.00     0.016 A 
ATOM     30  C   UNL A   1      42.381  25.615  29.019  1.00  0.00     0.010 A 
ATOM     31  C   UNL A   1      41.290  25.881  26.889  1.00  0.00     0.010 A 
ATOM     32  C   UNL A   1      41.541  26.362  28.194  1.00  0.00    -0.014 A 
BRANCH  32  33
ATOM     33  C   UNL A   1      41.119  27.719  28.577  1.00  0.00     0.031 A 
ATOM     34  C   UNL A   1      42.082  28.750  28.144  1.00  0.00     0.074 A 
ATOM     35  C   UNL A   1      40.030  28.204  29.218  1.00  0.00     0.049 A 
ATOM     36  N   UNL A   1      43.204  29.006  28.726  1.00  0.00    -0.248 NA
ATOM     37  C   UNL A   1      41.897  29.410  26.848  1.00  0.00     0.031 C 
ATOM     38  C   UNL A   1      38.728  27.610  29.516  1.00  0.00     0.029 A 
ATOM     39  N   UNL A   1      39.913  29.466  29.749  1.00  0.00    -0.354 N 
ATOM     40  C   UNL A   1      43.775  30.026  27.990  1.00  0.00     0.074 A 
ATOM     41  C   UNL A   1      43.071  30.034  26.731  1.00  0.00     0.031 C 
ATOM     42  C   UNL A   1      37.906  28.562  30.039  1.00  0.00     0.029 A 
ATOM     43  C   UNL A   1      38.668  29.781  30.278  1.00  0.00     0.049 A 
ATOM     44  H   UNL A   1      40.662  30.105  29.753  1.00  0.00     0.167 HD
ATOM     45  C   UNL A   1      44.614  30.927  28.570  1.00  0.00     0.037 A 
ATOM     46  C   UNL A   1      38.330  30.950  30.890  1.00  0.00     0.037 A 
ATOM     47  C   UNL A   1      44.938  30.542  29.930  1.00  0.00     0.049 A 
ATOM     48  C   UNL A   1      39.586  31.527  31.443  1.00  0.00     0.074 A 
ATOM     49  C   UNL A   1      45.470  29.414  30.529  1.00  0.00     0.029 A 
ATOM     50  N   UNL A   1      44.340  31.244  30.954  1.00  0.00    -0.354 N 
ATOM     51  N   UNL A   1      40.263  31.003  32.428  1.00  0.00    -0.248 NA
ATOM     52  C   UNL A   1      40.299  32.530  30.667  1.00  0.00     0.031 C 
ATOM     53  C   UNL A   1      44.745  29.259  31.751  1.00  0.00     0.029 A 
ATOM     54  C   UNL A   1      43.848  30.324  31.846  1.00  0.00     0.049 A 
ATOM     55  H   UNL A   1      44.276  32.224  31.030  1.00  0.00     0.167 HD
ATOM     56  C   UNL A   1      41.587  31.288  32.144  1.00  0.00     0.074 A 
ATOM     57  C   UNL A   1      41.538  32.328  31.122  1.00  0.00     0.031 C 
ATOM     58  C   UNL A   1      42.595  30.465  32.560  1.00  0.00     0.037 A 
BRANCH  45  59
ATOM     59  C   UNL A   1      44.877  32.318  28.048  1.00  0.00     0.058 A 
ATOM     60  C   UNL A   1      46.142  32.608  27.498  1.00  0.00     0.135 A 
ATOM     61  C   UNL A   1      44.040  33.435  28.265  1.00  0.00     0.135 A 
ATOM     62  F   UNL A   1      47.023  31.625  27.250  1.00  0.00    -0.206 F 
ATOM     63  C   UNL A   1      46.573  33.910  27.258  1.00  0.00     0.059 A 
ATOM     64  C   UNL A   1      44.422  34.736  27.968  1.00  0.00     0.059 A 
ATOM     65  F   UNL A   1      42.851  33.343  28.871  1.00  0.00    -0.206 F 
ATOM     66  C   UNL A   1      45.708  34.969  27.513  1.00  0.00     0.060 A 
BRANCH  66  67
ATOM     67  S   UNL A   1      46.301  36.657  27.331  1.00  0.00     0.124 S 
ATOM     68  O   UNL A   1      47.167  36.781  28.498  1.00  0.00    -0.237 OA
ATOM     69  O   UNL A   1      46.971  36.605  26.037  1.00  0.00    -0.237 OA
ATOM     70  O   UNL A   1      45.074  37.447  27.367  1.00  0.00    -0.744 OA
ENDBRANCH  66  67
ENDBRANCH  45  59
BRANCH  46  71
ATOM     71  C   UNL A   1      37.062  31.733  30.899  1.00  0.00     0.058 A 
ATOM     72  C   UNL A   1      36.169  31.664  31.992  1.00  0.00     0.135 A 
ATOM     73  C   UNL A   1      36.861  32.803  30.008  1.00  0.00     0.135 A 
ATOM     74  F   UNL A   1      36.286  30.686  32.903  1.00  0.00    -0.206 F 
ATOM     75  C   UNL A   1      35.195  32.639  32.231  1.00  0.00     0.059 A 
ATOM     76  C   UNL A   1      35.887  33.784  30.222  1.00  0.00     0.059 A 
ATOM     77  F   UNL A   1      37.674  32.980  28.957  1.00  0.00    -0.206 F 
ATOM     78  C   UNL A   1      35.081  33.715  31.354  1.00  0.00     0.060 A 
BRANCH  78  79
ATOM     79  S   UNL A   1      33.969  35.081  31.773  1.00  0.00     0.124 S 
ATOM     80  O   UNL A   1      33.568  35.562  30.456  1.00  0.00    -0.237 OA
ATOM     81  O   UNL A   1      32.933  34.409  32.549  1.00  0.00    -0.237 OA
ATOM     82  O   UNL A   1      34.823  35.989  32.536  1.00  0.00    -0.744 OA
ENDBRANCH  78  79
ENDBRANCH  46  71
BRANCH  58  83
ATOM     83  C   UNL A   1      42.302  29.443  33.632  1.00  0.00     0.058 A 
ATOM     84  C   UNL A   1      41.762  28.168  33.390  1.00  0.00     0.135 A 
ATOM     85  C   UNL A   1      42.751  29.706  34.938  1.00  0.00     0.135 A 
ATOM     86  F   UNL A   1      41.396  27.793  32.156  1.00  0.00    -0.206 F 
ATOM     87  C   UNL A   1      41.656  27.209  34.399  1.00  0.00     0.059 A 
ATOM     88  C   UNL A   1      42.689  28.751  35.951  1.00  0.00     0.059 A 
ATOM     89  F   UNL A   1      43.318  30.889  35.229  1.00  0.00    -0.206 F 
ATOM     90  C   UNL A   1      42.139  27.502  35.673  1.00  0.00     0.060 A 
BRANCH  90  91
ATOM     91  S   UNL A   1      42.144  26.198  36.925  1.00  0.00     0.124 S 
ATOM     92  O   UNL A   1      40.741  26.143  37.318  1.00  0.00    -0.237 OA
ATOM     93  O   UNL A   1      42.639  25.046  36.176  1.00  0.00    -0.237 OA
ATOM     94  O   UNL A   1      43.059  26.707  37.944  1.00  0.00    -0.744 OA
ENDBRANCH  90  91
ENDBRANCH  58  83
ENDBRANCH  32  33
ENDBRANCH  25  27
ENDBRANCH  24  25
ENDBRANCH  23  24
ENDBRANCH   1  23
TORSDOF 18
ENDMDL
