MODEL 1
REMARK VINA RESULT:      -9.5      0.000      0.000
REMARK SMILES CCc1c([N+](=O)[O-])cc(C(=O)OCCOC(=O)c2ccc(-c3c4nc(c(-c5c(F)cc(S(=O)(=O)[O-])cc5F)c5ccc([nH]5)c(-c5c(F)cc(S(=O)(=O)[O-])cc5F)c5nc(c(-c6c(F)cc(S(=O)(=O)[O-])cc6F)c6ccc3[nH]6)C=C5)C=C4)cc2)n1C
REMARK SMILES IDX 14 1 13 2 12 3 10 4 11 5 9 6 3 7 4 8 84 9 8 10 85 11 2 12
REMARK SMILES IDX 1 13 5 14 6 15 7 16 15 17 16 18 17 19 18 20 19 21 83 22
REMARK SMILES IDX 20 23 82 24 21 25 22 26 23 27 76 28 24 29 81 30 75 31 77 32
REMARK SMILES IDX 25 33 80 34 74 35 73 36 26 38 60 39 39 40 59 41 40 42 43 43
REMARK SMILES IDX 58 44 78 45 41 46 42 47 57 49 79 50 44 51 27 52 28 53 37 54
REMARK SMILES IDX 29 55 30 56 36 57 38 58 31 59 32 60 33 61 34 62 35 63 61 64
REMARK SMILES IDX 62 65 71 66 63 67 64 68 70 69 72 70 65 71 66 72 67 73 68 74
REMARK SMILES IDX 69 75 45 76 46 77 55 78 47 79 48 80 54 81 56 82 49 83 50 84
REMARK SMILES IDX 51 85 52 86 53 87
REMARK H PARENT 77 37 43 48
REMARK Flexibility Score: inf
ROOT
ATOM      1  C   UNL A   1      34.562  33.272  28.846  1.00  0.00     0.275 C 
ENDROOT
BRANCH   1   2
ATOM      2  C   UNL A   1      34.009  34.314  29.820  1.00  0.00     0.275 C 
BRANCH   2   3
ATOM      3  O   UNL A   1      34.103  33.872  31.191  1.00  0.00    -0.457 OA
BRANCH   3   4
ATOM      4  C   UNL A   1      34.645  34.764  32.065  1.00  0.00     0.355 C 
ATOM      5  O   UNL A   1      34.191  35.880  32.278  1.00  0.00    -0.244 OA
BRANCH   4   6
ATOM      6  C   UNL A   1      35.776  34.205  32.792  1.00  0.00     0.134 A 
ATOM      7  C   UNL A   1      37.830  33.440  33.432  1.00  0.00     0.096 A 
ATOM      8  C   UNL A   1      36.997  33.387  34.542  1.00  0.00     0.291 A 
ATOM      9  N   UNL A   1      37.053  33.883  32.359  1.00  0.00    -0.336 N 
ATOM     10  C   UNL A   1      35.758  33.939  34.155  1.00  0.00     0.121 A 
ATOM     11  C   UNL A   1      37.587  34.083  31.025  1.00  0.00     0.150 C 
BRANCH   7  12
ATOM     12  C   UNL A   1      39.303  33.145  33.333  1.00  0.00     0.058 C 
ATOM     13  C   UNL A   1      40.165  34.397  33.320  1.00  0.00     0.011 C 
ENDBRANCH   7  12
BRANCH   8  14
ATOM     14  N   UNL A   1      37.313  32.918  35.872  1.00  0.00     0.064 N 
ATOM     15  O   UNL A   1      37.463  31.700  36.031  1.00  0.00    -0.258 OA
ATOM     16  O   UNL A   1      37.416  33.786  36.749  1.00  0.00    -0.258 OA
ENDBRANCH   8  14
ENDBRANCH   4   6
ENDBRANCH   3   4
ENDBRANCH   2   3
ENDBRANCH   1   2
BRANCH   1  17
ATOM     17  O   UNL A   1      34.459  31.947  29.397  1.00  0.00    -0.458 OA
BRANCH  17  18
ATOM     18  C   UNL A   1      34.463  30.950  28.482  1.00  0.00     0.338 C 
ATOM     19  O   UNL A   1      33.586  30.683  27.678  1.00  0.00    -0.246 OA
BRANCH  18  20
ATOM     20  C   UNL A   1      35.762  30.264  28.493  1.00  0.00     0.060 A 
ATOM     21  C   UNL A   1      36.255  29.853  29.727  1.00  0.00     0.016 A 
ATOM     22  C   UNL A   1      36.562  30.187  27.357  1.00  0.00     0.016 A 
ATOM     23  C   UNL A   1      37.575  29.436  29.859  1.00  0.00     0.010 A 
ATOM     24  C   UNL A   1      37.876  29.709  27.477  1.00  0.00     0.010 A 
ATOM     25  C   UNL A   1      38.410  29.372  28.737  1.00  0.00    -0.014 A 
BRANCH  25  26
ATOM     26  C   UNL A   1      39.858  29.060  28.908  1.00  0.00     0.031 A 
ATOM     27  C   UNL A   1      40.783  30.101  29.488  1.00  0.00     0.074 A 
ATOM     28  C   UNL A   1      40.342  27.840  28.601  1.00  0.00     0.049 A 
ATOM     29  N   UNL A   1      42.086  30.087  29.596  1.00  0.00    -0.248 NA
ATOM     30  C   UNL A   1      40.155  31.329  30.002  1.00  0.00     0.031 C 
ATOM     31  C   UNL A   1      39.553  26.718  28.088  1.00  0.00     0.029 A 
ATOM     32  N   UNL A   1      41.617  27.336  28.686  1.00  0.00    -0.354 N 
ATOM     33  C   UNL A   1      42.439  31.318  30.139  1.00  0.00     0.074 A 
ATOM     34  C   UNL A   1      41.212  32.061  30.327  1.00  0.00     0.031 C 
ATOM     35  C   UNL A   1      40.353  25.652  27.932  1.00  0.00     0.029 A 
ATOM     36  C   UNL A   1      41.723  26.030  28.265  1.00  0.00     0.049 A 
ATOM     37  H   UNL A   1      42.383  27.858  29.016  1.00  0.00     0.167 HD
ATOM     38  C   UNL A   1      43.672  31.786  30.455  1.00  0.00     0.037 A 
ATOM     39  C   UNL A   1      42.804  25.235  28.131  1.00  0.00     0.037 A 
ATOM     40  C   UNL A   1      44.884  31.019  30.326  1.00  0.00     0.049 A 
ATOM     41  C   UNL A   1      44.162  25.778  28.482  1.00  0.00     0.074 A 
ATOM     42  C   UNL A   1      46.182  31.402  30.620  1.00  0.00     0.029 A 
ATOM     43  N   UNL A   1      44.947  29.705  29.886  1.00  0.00    -0.354 N 
ATOM     44  N   UNL A   1      44.487  26.968  28.928  1.00  0.00    -0.248 NA
ATOM     45  C   UNL A   1      45.305  24.872  28.302  1.00  0.00     0.031 C 
ATOM     46  C   UNL A   1      47.033  30.328  30.330  1.00  0.00     0.029 A 
ATOM     47  C   UNL A   1      46.261  29.263  29.898  1.00  0.00     0.049 A 
ATOM     48  H   UNL A   1      44.173  29.166  29.606  1.00  0.00     0.167 HD
ATOM     49  C   UNL A   1      45.866  26.947  29.103  1.00  0.00     0.074 A 
ATOM     50  C   UNL A   1      46.312  25.621  28.728  1.00  0.00     0.031 C 
ATOM     51  C   UNL A   1      46.689  27.936  29.532  1.00  0.00     0.037 A 
BRANCH  38  52
ATOM     52  C   UNL A   1      43.773  33.207  30.942  1.00  0.00     0.058 A 
ATOM     53  C   UNL A   1      43.979  34.285  30.068  1.00  0.00     0.135 A 
ATOM     54  C   UNL A   1      43.642  33.494  32.312  1.00  0.00     0.135 A 
ATOM     55  F   UNL A   1      44.129  34.069  28.752  1.00  0.00    -0.206 F 
ATOM     56  C   UNL A   1      44.083  35.593  30.536  1.00  0.00     0.059 A 
ATOM     57  C   UNL A   1      43.715  34.795  32.799  1.00  0.00     0.059 A 
ATOM     58  F   UNL A   1      43.442  32.501  33.194  1.00  0.00    -0.206 F 
ATOM     59  C   UNL A   1      43.954  35.837  31.904  1.00  0.00     0.060 A 
BRANCH  59  60
ATOM     60  S   UNL A   1      44.099  37.535  32.501  1.00  0.00     0.124 S 
ATOM     61  O   UNL A   1      45.497  37.579  32.918  1.00  0.00    -0.237 OA
ATOM     62  O   UNL A   1      43.768  38.315  31.313  1.00  0.00    -0.237 OA
ATOM     63  O   UNL A   1      43.120  37.601  33.582  1.00  0.00    -0.744 OA
ENDBRANCH  59  60
ENDBRANCH  38  52
BRANCH  39  64
ATOM     64  C   UNL A   1      42.646  23.848  27.617  1.00  0.00     0.058 A 
ATOM     65  C   UNL A   1      42.626  23.580  26.241  1.00  0.00     0.135 A 
ATOM     66  C   UNL A   1      42.517  22.759  28.495  1.00  0.00     0.135 A 
ATOM     67  F   UNL A   1      42.731  24.587  25.360  1.00  0.00    -0.206 F 
ATOM     68  C   UNL A   1      42.473  22.286  25.751  1.00  0.00     0.059 A 
ATOM     69  C   UNL A   1      42.391  21.454  28.031  1.00  0.00     0.059 A 
ATOM     70  F   UNL A   1      42.540  22.960  29.823  1.00  0.00    -0.206 F 
ATOM     71  C   UNL A   1      42.359  21.228  26.656  1.00  0.00     0.060 A 
BRANCH  71  72
ATOM     72  S   UNL A   1      42.211  19.546  26.016  1.00  0.00     0.124 S 
ATOM     73  O   UNL A   1      40.786  19.470  25.715  1.00  0.00    -0.237 OA
ATOM     74  O   UNL A   1      43.106  19.573  24.864  1.00  0.00    -0.237 OA
ATOM     75  O   UNL A   1      42.665  18.722  27.132  1.00  0.00    -0.744 OA
ENDBRANCH  71  72
ENDBRANCH  39  64
BRANCH  51  76
ATOM     76  C   UNL A   1      48.149  27.604  29.662  1.00  0.00     0.058 A 
ATOM     77  C   UNL A   1      49.056  27.821  28.613  1.00  0.00     0.135 A 
ATOM     78  C   UNL A   1      48.650  27.075  30.863  1.00  0.00     0.135 A 
ATOM     79  F   UNL A   1      48.627  28.321  27.442  1.00  0.00    -0.206 F 
ATOM     80  C   UNL A   1      50.402  27.490  28.736  1.00  0.00     0.059 A 
ATOM     81  C   UNL A   1      49.998  26.761  31.017  1.00  0.00     0.059 A 
ATOM     82  F   UNL A   1      47.829  26.861  31.903  1.00  0.00    -0.206 F 
ATOM     83  C   UNL A   1      50.862  26.955  29.940  1.00  0.00     0.060 A 
BRANCH  83  84
ATOM     84  S   UNL A   1      52.610  26.529  30.091  1.00  0.00     0.124 S 
ATOM     85  O   UNL A   1      52.571  25.479  31.103  1.00  0.00    -0.237 OA
ATOM     86  O   UNL A   1      52.946  26.094  28.738  1.00  0.00    -0.237 OA
ATOM     87  O   UNL A   1      53.229  27.783  30.511  1.00  0.00    -0.744 OA
ENDBRANCH  83  84
ENDBRANCH  51  76
ENDBRANCH  25  26
ENDBRANCH  18  20
ENDBRANCH  17  18
ENDBRANCH   1  17
TORSDOF 16
ENDMDL
MODEL 2
REMARK VINA RESULT:      -9.4      2.910      9.387
REMARK SMILES CCc1c([N+](=O)[O-])cc(C(=O)OCCOC(=O)c2ccc(-c3c4nc(c(-c5c(F)cc(S(=O)(=O)[O-])cc5F)c5ccc([nH]5)c(-c5c(F)cc(S(=O)(=O)[O-])cc5F)c5nc(c(-c6c(F)cc(S(=O)(=O)[O-])cc6F)c6ccc3[nH]6)C=C5)C=C4)cc2)n1C
REMARK SMILES IDX 14 1 13 2 12 3 10 4 11 5 9 6 3 7 4 8 84 9 8 10 85 11 2 12
REMARK SMILES IDX 1 13 5 14 6 15 7 16 15 17 16 18 17 19 18 20 19 21 83 22
REMARK SMILES IDX 20 23 82 24 21 25 22 26 23 27 76 28 24 29 81 30 75 31 77 32
REMARK SMILES IDX 25 33 80 34 74 35 73 36 26 38 60 39 39 40 59 41 40 42 43 43
REMARK SMILES IDX 58 44 78 45 41 46 42 47 57 49 79 50 44 51 27 52 28 53 37 54
REMARK SMILES IDX 29 55 30 56 36 57 38 58 31 59 32 60 33 61 34 62 35 63 61 64
REMARK SMILES IDX 62 65 71 66 63 67 64 68 70 69 72 70 65 71 66 72 67 73 68 74
REMARK SMILES IDX 69 75 45 76 46 77 55 78 47 79 48 80 54 81 56 82 49 83 50 84
REMARK SMILES IDX 51 85 52 86 53 87
REMARK H PARENT 77 37 43 48
REMARK Flexibility Score: inf
ROOT
ATOM      1  C   UNL A   1      37.782  31.574  33.276  1.00  0.00     0.275 C 
ENDROOT
BRANCH   1   2
ATOM      2  C   UNL A   1      37.451  32.174  34.644  1.00  0.00     0.275 C 
BRANCH   2   3
ATOM      3  O   UNL A   1      36.360  33.116  34.569  1.00  0.00    -0.457 OA
BRANCH   3   4
ATOM      4  C   UNL A   1      36.608  34.253  33.862  1.00  0.00     0.355 C 
ATOM      5  O   UNL A   1      37.620  34.930  33.982  1.00  0.00    -0.244 OA
BRANCH   4   6
ATOM      6  C   UNL A   1      35.573  34.524  32.875  1.00  0.00     0.134 A 
ATOM      7  C   UNL A   1      34.292  34.623  30.987  1.00  0.00     0.096 A 
ATOM      8  C   UNL A   1      33.588  35.252  32.007  1.00  0.00     0.291 A 
ATOM      9  N   UNL A   1      35.525  34.240  31.519  1.00  0.00    -0.336 N 
ATOM     10  C   UNL A   1      34.352  35.111  33.184  1.00  0.00     0.121 A 
ATOM     11  C   UNL A   1      36.532  33.532  30.751  1.00  0.00     0.150 C 
BRANCH   7  12
ATOM     12  C   UNL A   1      33.860  34.328  29.576  1.00  0.00     0.058 C 
ATOM     13  C   UNL A   1      33.863  35.556  28.680  1.00  0.00     0.011 C 
ENDBRANCH   7  12
BRANCH   8  14
ATOM     14  N   UNL A   1      32.293  35.891  31.934  1.00  0.00     0.064 N 
ATOM     15  O   UNL A   1      31.350  35.350  32.525  1.00  0.00    -0.258 OA
ATOM     16  O   UNL A   1      32.239  36.944  31.285  1.00  0.00    -0.258 OA
ENDBRANCH   8  14
ENDBRANCH   4   6
ENDBRANCH   3   4
ENDBRANCH   2   3
ENDBRANCH   1   2
BRANCH   1  17
ATOM     17  O   UNL A   1      37.104  30.319  33.086  1.00  0.00    -0.458 OA
BRANCH  17  18
ATOM     18  C   UNL A   1      37.202  29.803  31.840  1.00  0.00     0.338 C 
ATOM     19  O   UNL A   1      36.289  29.447  31.114  1.00  0.00    -0.246 OA
BRANCH  18  20
ATOM     20  C   UNL A   1      38.603  29.833  31.394  1.00  0.00     0.060 A 
ATOM     21  C   UNL A   1      38.859  30.355  30.131  1.00  0.00     0.016 A 
ATOM     22  C   UNL A   1      39.615  29.202  32.112  1.00  0.00     0.016 A 
ATOM     23  C   UNL A   1      40.103  30.185  29.533  1.00  0.00     0.010 A 
ATOM     24  C   UNL A   1      40.888  29.083  31.535  1.00  0.00     0.010 A 
ATOM     25  C   UNL A   1      41.133  29.533  30.223  1.00  0.00    -0.014 A 
BRANCH  25  26
ATOM     26  C   UNL A   1      42.416  29.231  29.524  1.00  0.00     0.031 A 
ATOM     27  C   UNL A   1      42.612  27.886  28.872  1.00  0.00     0.074 A 
ATOM     28  C   UNL A   1      43.382  30.165  29.423  1.00  0.00     0.049 A 
ATOM     29  N   UNL A   1      43.689  27.371  28.335  1.00  0.00    -0.248 NA
ATOM     30  C   UNL A   1      41.441  26.994  28.831  1.00  0.00     0.031 C 
ATOM     31  C   UNL A   1      43.305  31.528  29.953  1.00  0.00     0.029 A 
ATOM     32  N   UNL A   1      44.619  30.112  28.827  1.00  0.00    -0.354 N 
ATOM     33  C   UNL A   1      43.342  26.083  27.941  1.00  0.00     0.074 A 
ATOM     34  C   UNL A   1      41.958  25.888  28.314  1.00  0.00     0.031 C 
ATOM     35  C   UNL A   1      44.428  32.189  29.635  1.00  0.00     0.029 A 
ATOM     36  C   UNL A   1      45.337  31.280  28.941  1.00  0.00     0.049 A 
ATOM     37  H   UNL A   1      44.960  29.315  28.363  1.00  0.00     0.167 HD
ATOM     38  C   UNL A   1      44.107  25.149  27.325  1.00  0.00     0.037 A 
ATOM     39  C   UNL A   1      46.594  31.580  28.558  1.00  0.00     0.037 A 
ATOM     40  C   UNL A   1      45.466  25.369  26.899  1.00  0.00     0.049 A 
ATOM     41  C   UNL A   1      47.426  30.525  27.881  1.00  0.00     0.074 A 
ATOM     42  C   UNL A   1      46.325  24.487  26.266  1.00  0.00     0.029 A 
ATOM     43  N   UNL A   1      46.157  26.563  27.044  1.00  0.00    -0.354 N 
ATOM     44  N   UNL A   1      47.108  29.289  27.580  1.00  0.00    -0.248 NA
ATOM     45  C   UNL A   1      48.795  30.903  27.500  1.00  0.00     0.031 C 
ATOM     46  C   UNL A   1      47.545  25.139  26.053  1.00  0.00     0.029 A 
ATOM     47  C   UNL A   1      47.432  26.441  26.513  1.00  0.00     0.049 A 
ATOM     48  H   UNL A   1      45.796  27.378  27.461  1.00  0.00     0.167 HD
ATOM     49  C   UNL A   1      48.226  28.748  26.954  1.00  0.00     0.074 A 
ATOM     50  C   UNL A   1      49.224  29.797  26.908  1.00  0.00     0.031 C 
ATOM     51  C   UNL A   1      48.411  27.497  26.466  1.00  0.00     0.037 A 
BRANCH  38  52
ATOM     52  C   UNL A   1      43.500  23.789  27.102  1.00  0.00     0.058 A 
ATOM     53  C   UNL A   1      43.385  22.842  28.132  1.00  0.00     0.135 A 
ATOM     54  C   UNL A   1      43.007  23.436  25.834  1.00  0.00     0.135 A 
ATOM     55  F   UNL A   1      43.854  23.118  29.359  1.00  0.00    -0.206 F 
ATOM     56  C   UNL A   1      42.832  21.584  27.906  1.00  0.00     0.059 A 
ATOM     57  C   UNL A   1      42.426  22.195  25.592  1.00  0.00     0.059 A 
ATOM     58  F   UNL A   1      43.090  24.303  24.812  1.00  0.00    -0.206 F 
ATOM     59  C   UNL A   1      42.359  21.269  26.632  1.00  0.00     0.060 A 
BRANCH  59  60
ATOM     60  S   UNL A   1      41.652  19.631  26.348  1.00  0.00     0.124 S 
ATOM     61  O   UNL A   1      42.397  19.192  25.172  1.00  0.00    -0.237 OA
ATOM     62  O   UNL A   1      41.964  18.935  27.591  1.00  0.00    -0.237 OA
ATOM     63  O   UNL A   1      40.236  19.905  26.126  1.00  0.00    -0.744 OA
ENDBRANCH  59  60
ENDBRANCH  38  52
BRANCH  39  64
ATOM     64  C   UNL A   1      47.152  32.932  28.831  1.00  0.00     0.058 A 
ATOM     65  C   UNL A   1      47.804  33.220  30.038  1.00  0.00     0.135 A 
ATOM     66  C   UNL A   1      47.046  33.965  27.884  1.00  0.00     0.135 A 
ATOM     67  F   UNL A   1      47.919  32.272  30.981  1.00  0.00    -0.206 F 
ATOM     68  C   UNL A   1      48.323  34.484  30.304  1.00  0.00     0.059 A 
ATOM     69  C   UNL A   1      47.581  35.228  28.115  1.00  0.00     0.059 A 
ATOM     70  F   UNL A   1      46.438  33.739  26.708  1.00  0.00    -0.206 F 
ATOM     71  C   UNL A   1      48.208  35.482  29.333  1.00  0.00     0.060 A 
BRANCH  71  72
ATOM     72  S   UNL A   1      48.928  37.105  29.663  1.00  0.00     0.124 S 
ATOM     73  O   UNL A   1      50.206  37.007  28.968  1.00  0.00    -0.237 OA
ATOM     74  O   UNL A   1      47.945  38.006  29.069  1.00  0.00    -0.237 OA
ATOM     75  O   UNL A   1      49.003  37.147  31.121  1.00  0.00    -0.744 OA
ENDBRANCH  71  72
ENDBRANCH  39  64
BRANCH  51  76
ATOM     76  C   UNL A   1      49.727  27.210  25.797  1.00  0.00     0.058 A 
ATOM     77  C   UNL A   1      50.849  26.778  26.523  1.00  0.00     0.135 A 
ATOM     78  C   UNL A   1      49.861  27.356  24.407  1.00  0.00     0.135 A 
ATOM     79  F   UNL A   1      50.774  26.626  27.855  1.00  0.00    -0.206 F 
ATOM     80  C   UNL A   1      52.068  26.536  25.898  1.00  0.00     0.059 A 
ATOM     81  C   UNL A   1      51.065  27.094  23.758  1.00  0.00     0.059 A 
ATOM     82  F   UNL A   1      48.817  27.754  23.664  1.00  0.00    -0.206 F 
ATOM     83  C   UNL A   1      52.168  26.703  24.516  1.00  0.00     0.060 A 
BRANCH  83  84
ATOM     84  S   UNL A   1      53.754  26.386  23.714  1.00  0.00     0.124 S 
ATOM     85  O   UNL A   1      54.254  25.254  24.487  1.00  0.00    -0.237 OA
ATOM     86  O   UNL A   1      53.359  26.090  22.340  1.00  0.00    -0.237 OA
ATOM     87  O   UNL A   1      54.481  27.639  23.893  1.00  0.00    -0.744 OA
ENDBRANCH  83  84
ENDBRANCH  51  76
ENDBRANCH  25  26
ENDBRANCH  18  20
ENDBRANCH  17  18
ENDBRANCH   1  17
TORSDOF 16
ENDMDL
MODEL 3
REMARK VINA RESULT:      -9.4      5.188     12.300
REMARK SMILES CCc1c([N+](=O)[O-])cc(C(=O)OCCOC(=O)c2ccc(-c3c4nc(c(-c5c(F)cc(S(=O)(=O)[O-])cc5F)c5ccc([nH]5)c(-c5c(F)cc(S(=O)(=O)[O-])cc5F)c5nc(c(-c6c(F)cc(S(=O)(=O)[O-])cc6F)c6ccc3[nH]6)C=C5)C=C4)cc2)n1C
REMARK SMILES IDX 14 1 13 2 12 3 10 4 11 5 9 6 3 7 4 8 84 9 8 10 85 11 2 12
REMARK SMILES IDX 1 13 5 14 6 15 7 16 15 17 16 18 17 19 18 20 19 21 83 22
REMARK SMILES IDX 20 23 82 24 21 25 22 26 23 27 76 28 24 29 81 30 75 31 77 32
REMARK SMILES IDX 25 33 80 34 74 35 73 36 26 38 60 39 39 40 59 41 40 42 43 43
REMARK SMILES IDX 58 44 78 45 41 46 42 47 57 49 79 50 44 51 27 52 28 53 37 54
REMARK SMILES IDX 29 55 30 56 36 57 38 58 31 59 32 60 33 61 34 62 35 63 61 64
REMARK SMILES IDX 62 65 71 66 63 67 64 68 70 69 72 70 65 71 66 72 67 73 68 74
REMARK SMILES IDX 69 75 45 76 46 77 55 78 47 79 48 80 54 81 56 82 49 83 50 84
REMARK SMILES IDX 51 85 52 86 53 87
REMARK H PARENT 77 37 43 48
REMARK Flexibility Score: inf
ROOT
ATOM      1  C   UNL A   1      40.137  22.247  26.398  1.00  0.00     0.275 C 
ENDROOT
BRANCH   1   2
ATOM      2  C   UNL A   1      38.834  21.506  26.090  1.00  0.00     0.275 C 
BRANCH   2   3
ATOM      3  O   UNL A   1      37.879  22.355  25.419  1.00  0.00    -0.457 OA
BRANCH   3   4
ATOM      4  C   UNL A   1      36.819  21.717  24.850  1.00  0.00     0.355 C 
ATOM      5  O   UNL A   1      36.787  20.519  24.605  1.00  0.00    -0.244 OA
BRANCH   4   6
ATOM      6  C   UNL A   1      35.683  22.607  24.651  1.00  0.00     0.134 A 
ATOM      7  C   UNL A   1      33.900  24.007  24.922  1.00  0.00     0.096 A 
ATOM      8  C   UNL A   1      34.182  23.943  23.563  1.00  0.00     0.291 A 
ATOM      9  N   UNL A   1      34.785  23.139  25.564  1.00  0.00    -0.336 N 
ATOM     10  C   UNL A   1      35.334  23.142  23.418  1.00  0.00     0.121 A 
ATOM     11  C   UNL A   1      34.807  22.952  27.002  1.00  0.00     0.150 C 
BRANCH   7  12
ATOM     12  C   UNL A   1      32.891  24.858  25.644  1.00  0.00     0.058 C 
ATOM     13  C   UNL A   1      33.354  26.291  25.850  1.00  0.00     0.011 C 
ENDBRANCH   7  12
BRANCH   8  14
ATOM     14  N   UNL A   1      33.490  24.599  22.477  1.00  0.00     0.064 N 
ATOM     15  O   UNL A   1      34.018  25.603  21.981  1.00  0.00    -0.258 OA
ATOM     16  O   UNL A   1      32.419  24.090  22.125  1.00  0.00    -0.258 OA
ENDBRANCH   8  14
ENDBRANCH   4   6
ENDBRANCH   3   4
ENDBRANCH   2   3
ENDBRANCH   1   2
BRANCH   1  17
ATOM     17  O   UNL A   1      39.913  23.665  26.495  1.00  0.00    -0.458 OA
BRANCH  17  18
ATOM     18  C   UNL A   1      41.010  24.394  26.801  1.00  0.00     0.338 C 
ATOM     19  O   UNL A   1      42.150  24.214  26.406  1.00  0.00    -0.246 OA
BRANCH  18  20
ATOM     20  C   UNL A   1      40.629  25.556  27.616  1.00  0.00     0.060 A 
ATOM     21  C   UNL A   1      41.484  26.652  27.603  1.00  0.00     0.016 A 
ATOM     22  C   UNL A   1      39.563  25.508  28.510  1.00  0.00     0.016 A 
ATOM     23  C   UNL A   1      41.338  27.677  28.532  1.00  0.00     0.010 A 
ATOM     24  C   UNL A   1      39.377  26.569  29.409  1.00  0.00     0.010 A 
ATOM     25  C   UNL A   1      40.289  27.642  29.459  1.00  0.00    -0.014 A 
BRANCH  25  26
ATOM     26  C   UNL A   1      40.221  28.669  30.539  1.00  0.00     0.031 A 
ATOM     27  C   UNL A   1      41.192  28.604  31.692  1.00  0.00     0.074 A 
ATOM     28  C   UNL A   1      39.339  29.685  30.470  1.00  0.00     0.049 A 
ATOM     29  N   UNL A   1      41.221  29.308  32.794  1.00  0.00    -0.248 NA
ATOM     30  C   UNL A   1      42.265  27.601  31.596  1.00  0.00     0.031 C 
ATOM     31  C   UNL A   1      38.383  29.907  29.384  1.00  0.00     0.029 A 
ATOM     32  N   UNL A   1      39.111  30.731  31.331  1.00  0.00    -0.354 N 
ATOM     33  C   UNL A   1      42.277  28.801  33.544  1.00  0.00     0.074 A 
ATOM     34  C   UNL A   1      42.856  27.721  32.777  1.00  0.00     0.031 C 
ATOM     35  C   UNL A   1      37.692  31.032  29.628  1.00  0.00     0.029 A 
ATOM     36  C   UNL A   1      38.105  31.575  30.920  1.00  0.00     0.049 A 
ATOM     37  H   UNL A   1      39.619  30.866  32.163  1.00  0.00     0.167 HD
ATOM     38  C   UNL A   1      42.724  29.202  34.760  1.00  0.00     0.037 A 
ATOM     39  C   UNL A   1      37.554  32.646  31.525  1.00  0.00     0.037 A 
ATOM     40  C   UNL A   1      42.184  30.319  35.492  1.00  0.00     0.049 A 
ATOM     41  C   UNL A   1      38.062  33.068  32.877  1.00  0.00     0.074 A 
ATOM     42  C   UNL A   1      42.569  30.805  36.730  1.00  0.00     0.029 A 
ATOM     43  N   UNL A   1      41.159  31.138  35.043  1.00  0.00    -0.354 N 
ATOM     44  N   UNL A   1      39.015  32.535  33.604  1.00  0.00    -0.248 NA
ATOM     45  C   UNL A   1      37.413  34.232  33.496  1.00  0.00     0.031 C 
ATOM     46  C   UNL A   1      41.756  31.902  37.043  1.00  0.00     0.029 A 
ATOM     47  C   UNL A   1      40.896  32.126  35.980  1.00  0.00     0.049 A 
ATOM     48  H   UNL A   1      40.688  31.035  34.186  1.00  0.00     0.167 HD
ATOM     49  C   UNL A   1      39.095  33.311  34.755  1.00  0.00     0.074 A 
ATOM     50  C   UNL A   1      38.104  34.359  34.620  1.00  0.00     0.031 C 
ATOM     51  C   UNL A   1      39.913  33.168  35.827  1.00  0.00     0.037 A 
BRANCH  38  52
ATOM     52  C   UNL A   1      43.835  28.404  35.390  1.00  0.00     0.058 A 
ATOM     53  C   UNL A   1      45.189  28.683  35.147  1.00  0.00     0.135 A 
ATOM     54  C   UNL A   1      43.534  27.351  36.271  1.00  0.00     0.135 A 
ATOM     55  F   UNL A   1      45.535  29.666  34.301  1.00  0.00    -0.206 F 
ATOM     56  C   UNL A   1      46.204  27.927  35.728  1.00  0.00     0.059 A 
ATOM     57  C   UNL A   1      44.533  26.600  36.885  1.00  0.00     0.059 A 
ATOM     58  F   UNL A   1      42.257  27.040  36.542  1.00  0.00    -0.206 F 
ATOM     59  C   UNL A   1      45.866  26.885  36.592  1.00  0.00     0.060 A 
BRANCH  59  60
ATOM     60  S   UNL A   1      47.190  25.906  37.334  1.00  0.00     0.124 S 
ATOM     61  O   UNL A   1      47.636  25.110  36.195  1.00  0.00    -0.237 OA
ATOM     62  O   UNL A   1      48.120  26.933  37.792  1.00  0.00    -0.237 OA
ATOM     63  O   UNL A   1      46.513  25.162  38.392  1.00  0.00    -0.744 OA
ENDBRANCH  59  60
ENDBRANCH  38  52
BRANCH  39  64
ATOM     64  C   UNL A   1      36.438  33.379  30.867  1.00  0.00     0.058 A 
ATOM     65  C   UNL A   1      36.667  34.213  29.763  1.00  0.00     0.135 A 
ATOM     66  C   UNL A   1      35.117  33.256  31.329  1.00  0.00     0.135 A 
ATOM     67  F   UNL A   1      37.913  34.375  29.292  1.00  0.00    -0.206 F 
ATOM     68  C   UNL A   1      35.630  34.907  29.146  1.00  0.00     0.059 A 
ATOM     69  C   UNL A   1      34.061  33.917  30.712  1.00  0.00     0.059 A 
ATOM     70  F   UNL A   1      34.843  32.463  32.377  1.00  0.00    -0.206 F 
ATOM     71  C   UNL A   1      34.329  34.750  29.627  1.00  0.00     0.060 A 
BRANCH  71  72
ATOM     72  S   UNL A   1      32.981  35.614  28.791  1.00  0.00     0.124 S 
ATOM     73  O   UNL A   1      32.398  34.543  27.990  1.00  0.00    -0.237 OA
ATOM     74  O   UNL A   1      32.173  36.086  29.911  1.00  0.00    -0.237 OA
ATOM     75  O   UNL A   1      33.669  36.661  28.041  1.00  0.00    -0.744 OA
ENDBRANCH  71  72
ENDBRANCH  39  64
BRANCH  51  76
ATOM     76  C   UNL A   1      39.800  34.198  36.917  1.00  0.00     0.058 A 
ATOM     77  C   UNL A   1      39.020  33.981  38.064  1.00  0.00     0.135 A 
ATOM     78  C   UNL A   1      40.497  35.413  36.818  1.00  0.00     0.135 A 
ATOM     79  F   UNL A   1      38.331  32.838  38.206  1.00  0.00    -0.206 F 
ATOM     80  C   UNL A   1      38.905  34.949  39.057  1.00  0.00     0.059 A 
ATOM     81  C   UNL A   1      40.417  36.385  37.811  1.00  0.00     0.059 A 
ATOM     82  F   UNL A   1      41.268  35.666  35.748  1.00  0.00    -0.206 F 
ATOM     83  C   UNL A   1      39.602  36.151  38.918  1.00  0.00     0.060 A 
BRANCH  83  84
ATOM     84  S   UNL A   1      39.447  37.400  40.212  1.00  0.00     0.124 S 
ATOM     85  O   UNL A   1      38.929  36.610  41.324  1.00  0.00    -0.237 OA
ATOM     86  O   UNL A   1      40.820  37.876  40.357  1.00  0.00    -0.237 OA
ATOM     87  O   UNL A   1      38.513  38.366  39.640  1.00  0.00    -0.744 OA
ENDBRANCH  83  84
ENDBRANCH  51  76
ENDBRANCH  25  26
ENDBRANCH  18  20
ENDBRANCH  17  18
ENDBRANCH   1  17
TORSDOF 16
ENDMDL
