MODEL 1
REMARK VINA RESULT:     -11.1      0.000      0.000
REMARK SMILES Cc1cc(C(=O)N2CCC[C@@H]2C)sc1/C=C/C(=O)OCCOC(=O)c1ccc(-c2c3nc(c(-c4c(F)cc(S(=O)(=O)[O-])cc4F)c4ccc([nH]4)c(-c4c(F)cc(S(=O)(=O)[O-])cc4F)c4nc(c(-c5c(F)cc(S(=O)(=O)[O-])cc5F)c5ccc2[nH]5)C=C4)C=C3)cc1
REMARK SMILES IDX 20 1 19 2 17 3 18 4 16 5 15 6 14 7 1 8 2 9 3 10 4 11 13 12
REMARK SMILES IDX 5 13 6 14 7 15 8 16 11 17 9 18 10 19 12 20 21 21 22 22 23 23
REMARK SMILES IDX 24 24 25 25 26 26 90 27 27 28 89 29 28 30 29 31 30 32 83 33
REMARK SMILES IDX 31 34 88 35 82 36 84 37 32 38 87 39 81 40 80 41 33 43 67 44
REMARK SMILES IDX 46 45 66 46 47 47 50 48 65 49 85 50 48 51 49 52 64 54 86 55
REMARK SMILES IDX 51 56 34 57 35 58 44 59 36 60 37 61 43 62 45 63 38 64 39 65
REMARK SMILES IDX 40 66 41 67 42 68 68 69 69 70 78 71 70 72 71 73 77 74 79 75
REMARK SMILES IDX 72 76 73 77 74 78 75 79 76 80 52 81 53 82 62 83 54 84 55 85
REMARK SMILES IDX 61 86 63 87 56 88 57 89 58 90 59 91 60 92
REMARK H PARENT 84 42 50 53
REMARK Flexibility Score: inf
ROOT
ATOM      1  C   UNL A   1      33.823  32.153  28.028  1.00  0.00     0.275 C 
ENDROOT
BRANCH   1   2
ATOM      2  O   UNL A   1      33.260  30.894  27.619  1.00  0.00    -0.459 OA
BRANCH   2   3
ATOM      3  C   UNL A   1      32.160  30.972  26.832  1.00  0.00     0.330 C 
ATOM      4  O   UNL A   1      31.377  31.910  26.785  1.00  0.00    -0.247 OA
BRANCH   3   5
ATOM      5  C   UNL A   1      31.988  29.793  25.962  1.00  0.00     0.095 C 
ATOM      6  C   UNL A   1      32.358  29.713  24.674  1.00  0.00     0.027 C 
BRANCH   6   7
ATOM      7  C   UNL A   1      32.117  28.546  23.878  1.00  0.00     0.031 A 
ATOM      8  C   UNL A   1      29.850  29.147  22.812  1.00  0.00     0.046 C 
ATOM      9  C   UNL A   1      31.016  28.250  23.081  1.00  0.00    -0.032 A 
ATOM     10  C   UNL A   1      31.150  26.962  22.454  1.00  0.00     0.029 A 
ATOM     11  C   UNL A   1      32.339  26.319  22.745  1.00  0.00     0.093 A 
ATOM     12  S   UNL A   1      33.258  27.252  23.832  1.00  0.00    -0.130 S 
BRANCH  11  13
ATOM     13  C   UNL A   1      32.861  25.141  22.054  1.00  0.00     0.264 C 
ATOM     14  O   UNL A   1      33.279  25.237  20.896  1.00  0.00    -0.268 OA
BRANCH  13  15
ATOM     15  N   UNL A   1      32.978  23.922  22.706  1.00  0.00    -0.335 N 
ATOM     16  C   UNL A   1      31.792  23.250  23.190  1.00  0.00     0.120 C 
ATOM     17  C   UNL A   1      34.182  23.196  23.128  1.00  0.00     0.082 C 
ATOM     18  C   UNL A   1      32.200  21.791  23.174  1.00  0.00     0.024 C 
ATOM     19  C   UNL A   1      33.657  21.835  23.623  1.00  0.00     0.026 C 
ATOM     20  C   UNL A   1      34.899  23.937  24.257  1.00  0.00     0.031 C 
ENDBRANCH  13  15
ENDBRANCH  11  13
ENDBRANCH   6   7
ENDBRANCH   3   5
ENDBRANCH   2   3
ENDBRANCH   1   2
BRANCH   1  21
ATOM     21  C   UNL A   1      34.808  31.978  29.188  1.00  0.00     0.275 C 
BRANCH  21  22
ATOM     22  O   UNL A   1      35.678  30.848  28.995  1.00  0.00    -0.458 OA
BRANCH  22  23
ATOM     23  C   UNL A   1      36.338  30.437  30.106  1.00  0.00     0.338 C 
ATOM     24  O   UNL A   1      35.858  30.228  31.206  1.00  0.00    -0.246 OA
BRANCH  23  25
ATOM     25  C   UNL A   1      37.745  30.150  29.775  1.00  0.00     0.060 A 
ATOM     26  C   UNL A   1      38.086  30.018  28.425  1.00  0.00     0.016 A 
ATOM     27  C   UNL A   1      38.705  29.948  30.771  1.00  0.00     0.016 A 
ATOM     28  C   UNL A   1      39.389  29.678  28.065  1.00  0.00     0.010 A 
ATOM     29  C   UNL A   1      40.012  29.604  30.407  1.00  0.00     0.010 A 
ATOM     30  C   UNL A   1      40.359  29.456  29.053  1.00  0.00    -0.014 A 
BRANCH  30  31
ATOM     31  C   UNL A   1      41.723  29.027  28.660  1.00  0.00     0.031 A 
ATOM     32  C   UNL A   1      42.848  30.023  28.641  1.00  0.00     0.074 A 
ATOM     33  C   UNL A   1      41.955  27.739  28.345  1.00  0.00     0.049 A 
ATOM     34  N   UNL A   1      44.102  29.849  28.310  1.00  0.00    -0.248 NA
ATOM     35  C   UNL A   1      42.518  31.398  29.051  1.00  0.00     0.031 C 
ATOM     36  C   UNL A   1      40.948  26.677  28.350  1.00  0.00     0.029 A 
ATOM     37  N   UNL A   1      43.109  27.106  27.958  1.00  0.00    -0.354 N 
ATOM     38  C   UNL A   1      44.711  31.089  28.464  1.00  0.00     0.074 A 
ATOM     39  C   UNL A   1      43.683  32.013  28.896  1.00  0.00     0.031 C 
ATOM     40  C   UNL A   1      41.529  25.523  27.981  1.00  0.00     0.029 A 
ATOM     41  C   UNL A   1      42.938  25.770  27.684  1.00  0.00     0.049 A 
ATOM     42  H   UNL A   1      43.977  27.564  27.884  1.00  0.00     0.167 HD
ATOM     43  C   UNL A   1      46.010  31.422  28.269  1.00  0.00     0.037 A 
ATOM     44  C   UNL A   1      43.814  24.853  27.226  1.00  0.00     0.037 A 
ATOM     45  C   UNL A   1      47.028  30.498  27.840  1.00  0.00     0.049 A 
ATOM     46  C   UNL A   1      45.240  25.259  26.971  1.00  0.00     0.074 A 
ATOM     47  C   UNL A   1      48.375  30.739  27.628  1.00  0.00     0.029 A 
ATOM     48  N   UNL A   1      46.813  29.159  27.550  1.00  0.00    -0.354 N 
ATOM     49  N   UNL A   1      45.806  26.431  27.139  1.00  0.00    -0.248 NA
ATOM     50  C   UNL A   1      46.148  24.220  26.467  1.00  0.00     0.031 C 
ATOM     51  C   UNL A   1      48.966  29.554  27.173  1.00  0.00     0.029 A 
ATOM     52  C   UNL A   1      47.996  28.565  27.143  1.00  0.00     0.049 A 
ATOM     53  H   UNL A   1      45.946  28.699  27.623  1.00  0.00     0.167 HD
ATOM     54  C   UNL A   1      47.139  26.265  26.780  1.00  0.00     0.074 A 
ATOM     55  C   UNL A   1      47.298  24.877  26.398  1.00  0.00     0.031 C 
ATOM     56  C   UNL A   1      48.141  27.179  26.768  1.00  0.00     0.037 A 
BRANCH  43  57
ATOM     57  C   UNL A   1      46.399  32.856  28.501  1.00  0.00     0.058 A 
ATOM     58  C   UNL A   1      46.350  33.809  27.472  1.00  0.00     0.135 A 
ATOM     59  C   UNL A   1      46.798  33.289  29.777  1.00  0.00     0.135 A 
ATOM     60  F   UNL A   1      45.990  33.446  26.231  1.00  0.00    -0.206 F 
ATOM     61  C   UNL A   1      46.712  35.134  27.691  1.00  0.00     0.059 A 
ATOM     62  C   UNL A   1      47.141  34.614  30.024  1.00  0.00     0.059 A 
ATOM     63  F   UNL A   1      46.861  32.418  30.796  1.00  0.00    -0.206 F 
ATOM     64  C   UNL A   1      47.110  35.526  28.970  1.00  0.00     0.060 A 
BRANCH  64  65
ATOM     65  S   UNL A   1      47.583  37.249  29.239  1.00  0.00     0.124 S 
ATOM     66  O   UNL A   1      46.340  37.943  28.915  1.00  0.00    -0.237 OA
ATOM     67  O   UNL A   1      47.963  37.254  30.648  1.00  0.00    -0.237 OA
ATOM     68  O   UNL A   1      48.679  37.450  28.297  1.00  0.00    -0.744 OA
ENDBRANCH  64  65
ENDBRANCH  43  57
BRANCH  44  69
ATOM     69  C   UNL A   1      43.358  23.462  26.967  1.00  0.00     0.058 A 
ATOM     70  C   UNL A   1      43.143  22.999  25.663  1.00  0.00     0.135 A 
ATOM     71  C   UNL A   1      43.145  22.563  28.024  1.00  0.00     0.135 A 
ATOM     72  F   UNL A   1      43.323  23.825  24.620  1.00  0.00    -0.206 F 
ATOM     73  C   UNL A   1      42.722  21.697  25.412  1.00  0.00     0.059 A 
ATOM     74  C   UNL A   1      42.747  21.250  27.799  1.00  0.00     0.059 A 
ATOM     75  F   UNL A   1      43.348  22.956  29.293  1.00  0.00    -0.206 F 
ATOM     76  C   UNL A   1      42.529  20.828  26.488  1.00  0.00     0.060 A 
BRANCH  76  77
ATOM     77  S   UNL A   1      42.036  19.124  26.152  1.00  0.00     0.124 S 
ATOM     78  O   UNL A   1      40.608  19.278  25.894  1.00  0.00    -0.237 OA
ATOM     79  O   UNL A   1      42.861  18.786  24.997  1.00  0.00    -0.237 OA
ATOM     80  O   UNL A   1      42.383  18.426  27.386  1.00  0.00    -0.744 OA
ENDBRANCH  76  77
ENDBRANCH  44  69
BRANCH  56  81
ATOM     81  C   UNL A   1      49.505  26.704  26.355  1.00  0.00     0.058 A 
ATOM     82  C   UNL A   1      50.363  26.054  27.256  1.00  0.00     0.135 A 
ATOM     83  C   UNL A   1      49.940  26.856  25.029  1.00  0.00     0.135 A 
ATOM     84  F   UNL A   1      49.997  25.889  28.537  1.00  0.00    -0.206 F 
ATOM     85  C   UNL A   1      51.614  25.590  26.861  1.00  0.00     0.059 A 
ATOM     86  C   UNL A   1      51.177  26.379  24.606  1.00  0.00     0.059 A 
ATOM     87  F   UNL A   1      49.154  27.463  24.125  1.00  0.00    -0.206 F 
ATOM     88  C   UNL A   1      52.012  25.757  25.533  1.00  0.00     0.060 A 
BRANCH  88  89
ATOM     89  S   UNL A   1      53.623  25.120  25.023  1.00  0.00     0.124 S 
ATOM     90  O   UNL A   1      53.507  23.709  25.378  1.00  0.00    -0.237 OA
ATOM     91  O   UNL A   1      53.640  25.415  23.593  1.00  0.00    -0.237 OA
ATOM     92  O   UNL A   1      54.563  25.896  25.827  1.00  0.00    -0.744 OA
ENDBRANCH  88  89
ENDBRANCH  56  81
ENDBRANCH  30  31
ENDBRANCH  23  25
ENDBRANCH  22  23
ENDBRANCH  21  22
ENDBRANCH   1  21
TORSDOF 17
ENDMDL
MODEL 2
REMARK VINA RESULT:     -10.9      1.669      2.609
REMARK SMILES Cc1cc(C(=O)N2CCC[C@@H]2C)sc1/C=C/C(=O)OCCOC(=O)c1ccc(-c2c3nc(c(-c4c(F)cc(S(=O)(=O)[O-])cc4F)c4ccc([nH]4)c(-c4c(F)cc(S(=O)(=O)[O-])cc4F)c4nc(c(-c5c(F)cc(S(=O)(=O)[O-])cc5F)c5ccc2[nH]5)C=C4)C=C3)cc1
REMARK SMILES IDX 20 1 19 2 17 3 18 4 16 5 15 6 14 7 1 8 2 9 3 10 4 11 13 12
REMARK SMILES IDX 5 13 6 14 7 15 8 16 11 17 9 18 10 19 12 20 21 21 22 22 23 23
REMARK SMILES IDX 24 24 25 25 26 26 90 27 27 28 89 29 28 30 29 31 30 32 83 33
REMARK SMILES IDX 31 34 88 35 82 36 84 37 32 38 87 39 81 40 80 41 33 43 67 44
REMARK SMILES IDX 46 45 66 46 47 47 50 48 65 49 85 50 48 51 49 52 64 54 86 55
REMARK SMILES IDX 51 56 34 57 35 58 44 59 36 60 37 61 43 62 45 63 38 64 39 65
REMARK SMILES IDX 40 66 41 67 42 68 68 69 69 70 78 71 70 72 71 73 77 74 79 75
REMARK SMILES IDX 72 76 73 77 74 78 75 79 76 80 52 81 53 82 62 83 54 84 55 85
REMARK SMILES IDX 61 86 63 87 56 88 57 89 58 90 59 91 60 92
REMARK H PARENT 84 42 50 53
REMARK Flexibility Score: inf
ROOT
ATOM      1  C   UNL A   1      35.025  34.408  30.722  1.00  0.00     0.275 C 
ENDROOT
BRANCH   1   2
ATOM      2  O   UNL A   1      33.834  34.106  29.972  1.00  0.00    -0.459 OA
BRANCH   2   3
ATOM      3  C   UNL A   1      33.978  34.095  28.625  1.00  0.00     0.330 C 
ATOM      4  O   UNL A   1      34.384  35.022  27.939  1.00  0.00    -0.247 OA
BRANCH   3   5
ATOM      5  C   UNL A   1      33.623  32.799  28.018  1.00  0.00     0.095 C 
ATOM      6  C   UNL A   1      34.302  31.651  28.177  1.00  0.00     0.027 C 
BRANCH   6   7
ATOM      7  C   UNL A   1      33.920  30.437  27.517  1.00  0.00     0.031 A 
ATOM      8  C   UNL A   1      36.114  29.095  27.665  1.00  0.00     0.046 C 
ATOM      9  C   UNL A   1      34.696  29.315  27.245  1.00  0.00    -0.032 A 
ATOM     10  C   UNL A   1      33.941  28.309  26.547  1.00  0.00     0.029 A 
ATOM     11  C   UNL A   1      32.620  28.650  26.330  1.00  0.00     0.093 A 
ATOM     12  S   UNL A   1      32.318  30.221  26.914  1.00  0.00    -0.130 S 
BRANCH  11  13
ATOM     13  C   UNL A   1      31.565  27.737  25.892  1.00  0.00     0.264 C 
ATOM     14  O   UNL A   1      30.910  27.104  26.727  1.00  0.00    -0.268 OA
BRANCH  13  15
ATOM     15  N   UNL A   1      31.221  27.630  24.553  1.00  0.00    -0.335 N 
ATOM     16  C   UNL A   1      30.443  28.676  23.926  1.00  0.00     0.120 C 
ATOM     17  C   UNL A   1      31.416  26.513  23.621  1.00  0.00     0.082 C 
ATOM     18  C   UNL A   1      30.859  28.580  22.472  1.00  0.00     0.024 C 
ATOM     19  C   UNL A   1      30.995  27.077  22.250  1.00  0.00     0.026 C 
ATOM     20  C   UNL A   1      30.536  25.322  24.004  1.00  0.00     0.031 C 
ENDBRANCH  13  15
ENDBRANCH  11  13
ENDBRANCH   6   7
ENDBRANCH   3   5
ENDBRANCH   2   3
ENDBRANCH   1   2
BRANCH   1  21
ATOM     21  C   UNL A   1      35.528  33.184  31.494  1.00  0.00     0.275 C 
BRANCH  21  22
ATOM     22  O   UNL A   1      36.537  32.462  30.766  1.00  0.00    -0.458 OA
BRANCH  22  23
ATOM     23  C   UNL A   1      36.682  31.162  31.125  1.00  0.00     0.338 C 
ATOM     24  O   UNL A   1      35.876  30.476  31.728  1.00  0.00    -0.246 OA
BRANCH  23  25
ATOM     25  C   UNL A   1      37.937  30.625  30.569  1.00  0.00     0.060 A 
ATOM     26  C   UNL A   1      38.802  29.951  31.436  1.00  0.00     0.016 A 
ATOM     27  C   UNL A   1      38.295  30.834  29.233  1.00  0.00     0.016 A 
ATOM     28  C   UNL A   1      40.032  29.486  30.973  1.00  0.00     0.010 A 
ATOM     29  C   UNL A   1      39.531  30.370  28.771  1.00  0.00     0.010 A 
ATOM     30  C   UNL A   1      40.412  29.703  29.641  1.00  0.00    -0.014 A 
BRANCH  30  31
ATOM     31  C   UNL A   1      41.752  29.266  29.179  1.00  0.00     0.031 A 
ATOM     32  C   UNL A   1      42.893  30.243  29.154  1.00  0.00     0.074 A 
ATOM     33  C   UNL A   1      41.947  27.988  28.807  1.00  0.00     0.049 A 
ATOM     34  N   UNL A   1      44.130  30.060  28.768  1.00  0.00    -0.248 NA
ATOM     35  C   UNL A   1      42.605  31.606  29.629  1.00  0.00     0.031 C 
ATOM     36  C   UNL A   1      40.921  26.943  28.809  1.00  0.00     0.029 A 
ATOM     37  N   UNL A   1      43.073  27.350  28.351  1.00  0.00    -0.354 N 
ATOM     38  C   UNL A   1      44.767  31.282  28.945  1.00  0.00     0.074 A 
ATOM     39  C   UNL A   1      43.774  32.206  29.451  1.00  0.00     0.031 C 
ATOM     40  C   UNL A   1      41.466  25.795  28.375  1.00  0.00     0.029 A 
ATOM     41  C   UNL A   1      42.867  26.029  28.032  1.00  0.00     0.049 A 
ATOM     42  H   UNL A   1      43.946  27.796  28.260  1.00  0.00     0.167 HD
ATOM     43  C   UNL A   1      46.064  31.600  28.712  1.00  0.00     0.037 A 
ATOM     44  C   UNL A   1      43.707  25.116  27.506  1.00  0.00     0.037 A 
ATOM     45  C   UNL A   1      47.048  30.676  28.208  1.00  0.00     0.049 A 
ATOM     46  C   UNL A   1      45.129  25.507  27.211  1.00  0.00     0.074 A 
ATOM     47  C   UNL A   1      48.390  30.902  27.953  1.00  0.00     0.029 A 
ATOM     48  N   UNL A   1      46.796  29.354  27.876  1.00  0.00    -0.354 N 
ATOM     49  N   UNL A   1      45.724  26.662  27.401  1.00  0.00    -0.248 NA
ATOM     50  C   UNL A   1      45.998  24.472  26.633  1.00  0.00     0.031 C 
ATOM     51  C   UNL A   1      48.940  29.726  27.431  1.00  0.00     0.029 A 
ATOM     52  C   UNL A   1      47.952  28.755  27.401  1.00  0.00     0.049 A 
ATOM     53  H   UNL A   1      45.924  28.906  27.965  1.00  0.00     0.167 HD
ATOM     54  C   UNL A   1      47.039  26.487  26.984  1.00  0.00     0.074 A 
ATOM     55  C   UNL A   1      47.157  25.111  26.543  1.00  0.00     0.031 C 
ATOM     56  C   UNL A   1      48.056  27.383  26.968  1.00  0.00     0.037 A 
BRANCH  43  57
ATOM     57  C   UNL A   1      46.488  33.017  28.983  1.00  0.00     0.058 A 
ATOM     58  C   UNL A   1      46.414  34.011  27.996  1.00  0.00     0.135 A 
ATOM     59  C   UNL A   1      46.948  33.392  30.257  1.00  0.00     0.135 A 
ATOM     60  F   UNL A   1      45.996  33.704  26.758  1.00  0.00    -0.206 F 
ATOM     61  C   UNL A   1      46.808  35.320  28.250  1.00  0.00     0.059 A 
ATOM     62  C   UNL A   1      47.326  34.701  30.541  1.00  0.00     0.059 A 
ATOM     63  F   UNL A   1      47.039  32.480  31.237  1.00  0.00    -0.206 F 
ATOM     64  C   UNL A   1      47.267  35.655  29.526  1.00  0.00     0.060 A 
BRANCH  64  65
ATOM     65  S   UNL A   1      47.782  37.357  29.841  1.00  0.00     0.124 S 
ATOM     66  O   UNL A   1      48.717  37.584  28.743  1.00  0.00    -0.237 OA
ATOM     67  O   UNL A   1      46.521  38.087  29.760  1.00  0.00    -0.237 OA
ATOM     68  O   UNL A   1      48.379  37.290  31.171  1.00  0.00    -0.744 OA
ENDBRANCH  64  65
ENDBRANCH  43  57
BRANCH  44  69
ATOM     69  C   UNL A   1      43.216  23.744  27.212  1.00  0.00     0.058 A 
ATOM     70  C   UNL A   1      42.947  23.334  25.900  1.00  0.00     0.135 A 
ATOM     71  C   UNL A   1      43.021  22.810  28.242  1.00  0.00     0.135 A 
ATOM     72  F   UNL A   1      43.109  24.194  24.882  1.00  0.00    -0.206 F 
ATOM     73  C   UNL A   1      42.493  22.050  25.616  1.00  0.00     0.059 A 
ATOM     74  C   UNL A   1      42.590  21.514  27.983  1.00  0.00     0.059 A 
ATOM     75  F   UNL A   1      43.274  23.151  29.517  1.00  0.00    -0.206 F 
ATOM     76  C   UNL A   1      42.320  21.145  26.666  1.00  0.00     0.060 A 
BRANCH  76  77
ATOM     77  S   UNL A   1      41.782  19.464  26.284  1.00  0.00     0.124 S 
ATOM     78  O   UNL A   1      40.342  19.643  26.140  1.00  0.00    -0.237 OA
ATOM     79  O   UNL A   1      42.517  19.176  25.057  1.00  0.00    -0.237 OA
ATOM     80  O   UNL A   1      42.209  18.703  27.455  1.00  0.00    -0.744 OA
ENDBRANCH  76  77
ENDBRANCH  44  69
BRANCH  56  81
ATOM     81  C   UNL A   1      49.394  26.901  26.484  1.00  0.00     0.058 A 
ATOM     82  C   UNL A   1      50.283  26.221  27.331  1.00  0.00     0.135 A 
ATOM     83  C   UNL A   1      49.772  27.078  25.143  1.00  0.00     0.135 A 
ATOM     84  F   UNL A   1      49.972  26.031  28.623  1.00  0.00    -0.206 F 
ATOM     85  C   UNL A   1      51.508  25.750  26.871  1.00  0.00     0.059 A 
ATOM     86  C   UNL A   1      50.982  26.595  24.655  1.00  0.00     0.059 A 
ATOM     87  F   UNL A   1      48.954  27.714  24.289  1.00  0.00    -0.206 F 
ATOM     88  C   UNL A   1      51.850  25.942  25.530  1.00  0.00     0.060 A 
BRANCH  88  89
ATOM     89  S   UNL A   1      53.427  25.298  24.935  1.00  0.00     0.124 S 
ATOM     90  O   UNL A   1      53.343  25.585  23.506  1.00  0.00    -0.237 OA
ATOM     91  O   UNL A   1      54.396  26.092  25.685  1.00  0.00    -0.237 OA
ATOM     92  O   UNL A   1      53.373  23.883  25.296  1.00  0.00    -0.744 OA
ENDBRANCH  88  89
ENDBRANCH  56  81
ENDBRANCH  30  31
ENDBRANCH  23  25
ENDBRANCH  22  23
ENDBRANCH  21  22
ENDBRANCH   1  21
TORSDOF 17
ENDMDL
MODEL 3
REMARK VINA RESULT:     -10.8      1.047      2.154
REMARK SMILES Cc1cc(C(=O)N2CCC[C@@H]2C)sc1/C=C/C(=O)OCCOC(=O)c1ccc(-c2c3nc(c(-c4c(F)cc(S(=O)(=O)[O-])cc4F)c4ccc([nH]4)c(-c4c(F)cc(S(=O)(=O)[O-])cc4F)c4nc(c(-c5c(F)cc(S(=O)(=O)[O-])cc5F)c5ccc2[nH]5)C=C4)C=C3)cc1
REMARK SMILES IDX 20 1 19 2 17 3 18 4 16 5 15 6 14 7 1 8 2 9 3 10 4 11 13 12
REMARK SMILES IDX 5 13 6 14 7 15 8 16 11 17 9 18 10 19 12 20 21 21 22 22 23 23
REMARK SMILES IDX 24 24 25 25 26 26 90 27 27 28 89 29 28 30 29 31 30 32 83 33
REMARK SMILES IDX 31 34 88 35 82 36 84 37 32 38 87 39 81 40 80 41 33 43 67 44
REMARK SMILES IDX 46 45 66 46 47 47 50 48 65 49 85 50 48 51 49 52 64 54 86 55
REMARK SMILES IDX 51 56 34 57 35 58 44 59 36 60 37 61 43 62 45 63 38 64 39 65
REMARK SMILES IDX 40 66 41 67 42 68 68 69 69 70 78 71 70 72 71 73 77 74 79 75
REMARK SMILES IDX 72 76 73 77 74 78 75 79 76 80 52 81 53 82 62 83 54 84 55 85
REMARK SMILES IDX 61 86 63 87 56 88 57 89 58 90 59 91 60 92
REMARK H PARENT 84 42 50 53
REMARK Flexibility Score: inf
ROOT
ATOM      1  C   UNL A   1      33.985  32.479  28.091  1.00  0.00     0.275 C 
ENDROOT
BRANCH   1   2
ATOM      2  O   UNL A   1      33.859  31.214  27.416  1.00  0.00    -0.459 OA
BRANCH   2   3
ATOM      3  C   UNL A   1      32.659  30.978  26.834  1.00  0.00     0.330 C 
ATOM      4  O   UNL A   1      31.684  31.714  26.876  1.00  0.00    -0.247 OA
BRANCH   3   5
ATOM      5  C   UNL A   1      32.626  29.714  26.073  1.00  0.00     0.095 C 
ATOM      6  C   UNL A   1      33.643  28.844  25.962  1.00  0.00     0.027 C 
BRANCH   6   7
ATOM      7  C   UNL A   1      33.551  27.655  25.166  1.00  0.00     0.031 A 
ATOM      8  C   UNL A   1      33.966  28.616  22.813  1.00  0.00     0.046 C 
ATOM      9  C   UNL A   1      33.652  27.524  23.785  1.00  0.00    -0.032 A 
ATOM     10  C   UNL A   1      33.485  26.157  23.372  1.00  0.00     0.029 A 
ATOM     11  C   UNL A   1      33.298  25.274  24.419  1.00  0.00     0.093 A 
ATOM     12  S   UNL A   1      33.258  26.119  25.896  1.00  0.00    -0.130 S 
BRANCH  11  13
ATOM     13  C   UNL A   1      33.367  23.816  24.327  1.00  0.00     0.264 C 
ATOM     14  O   UNL A   1      32.338  23.159  24.137  1.00  0.00    -0.268 OA
BRANCH  13  15
ATOM     15  N   UNL A   1      34.585  23.153  24.363  1.00  0.00    -0.335 N 
ATOM     16  C   UNL A   1      35.233  22.777  23.125  1.00  0.00     0.120 C 
ATOM     17  C   UNL A   1      35.330  22.622  25.509  1.00  0.00     0.082 C 
ATOM     18  C   UNL A   1      36.700  22.753  23.506  1.00  0.00     0.024 C 
ATOM     19  C   UNL A   1      36.680  22.173  24.918  1.00  0.00     0.026 C 
ATOM     20  C   UNL A   1      34.598  21.434  26.134  1.00  0.00     0.031 C 
ENDBRANCH  13  15
ENDBRANCH  11  13
ENDBRANCH   6   7
ENDBRANCH   3   5
ENDBRANCH   2   3
ENDBRANCH   1   2
BRANCH   1  21
ATOM     21  C   UNL A   1      34.724  32.333  29.425  1.00  0.00     0.275 C 
BRANCH  21  22
ATOM     22  O   UNL A   1      36.085  31.904  29.247  1.00  0.00    -0.458 OA
BRANCH  22  23
ATOM     23  C   UNL A   1      36.545  31.049  30.193  1.00  0.00     0.338 C 
ATOM     24  O   UNL A   1      35.971  30.711  31.214  1.00  0.00    -0.246 OA
BRANCH  23  25
ATOM     25  C   UNL A   1      37.827  30.463  29.760  1.00  0.00     0.060 A 
ATOM     26  C   UNL A   1      38.825  30.290  30.723  1.00  0.00     0.016 A 
ATOM     27  C   UNL A   1      38.071  30.148  28.421  1.00  0.00     0.016 A 
ATOM     28  C   UNL A   1      40.077  29.805  30.349  1.00  0.00     0.010 A 
ATOM     29  C   UNL A   1      39.330  29.664  28.047  1.00  0.00     0.010 A 
ATOM     30  C   UNL A   1      40.344  29.501  29.007  1.00  0.00    -0.014 A 
BRANCH  30  31
ATOM     31  C   UNL A   1      41.701  29.052  28.611  1.00  0.00     0.031 A 
ATOM     32  C   UNL A   1      42.833  30.040  28.557  1.00  0.00     0.074 A 
ATOM     33  C   UNL A   1      41.921  27.756  28.324  1.00  0.00     0.049 A 
ATOM     34  N   UNL A   1      44.082  29.849  28.218  1.00  0.00    -0.248 NA
ATOM     35  C   UNL A   1      42.517  31.426  28.937  1.00  0.00     0.031 C 
ATOM     36  C   UNL A   1      40.906  26.701  28.364  1.00  0.00     0.029 A 
ATOM     37  N   UNL A   1      43.066  27.105  27.941  1.00  0.00    -0.354 N 
ATOM     38  C   UNL A   1      44.701  31.087  28.336  1.00  0.00     0.074 A 
ATOM     39  C   UNL A   1      43.684  32.028  28.756  1.00  0.00     0.031 C 
ATOM     40  C   UNL A   1      41.475  25.535  28.017  1.00  0.00     0.029 A 
ATOM     41  C   UNL A   1      42.883  25.764  27.700  1.00  0.00     0.049 A 
ATOM     42  H   UNL A   1      43.936  27.555  27.847  1.00  0.00     0.167 HD
ATOM     43  C   UNL A   1      46.000  31.406  28.121  1.00  0.00     0.037 A 
ATOM     44  C   UNL A   1      43.747  24.831  27.255  1.00  0.00     0.037 A 
ATOM     45  C   UNL A   1      47.008  30.465  27.703  1.00  0.00     0.049 A 
ATOM     46  C   UNL A   1      45.174  25.220  26.977  1.00  0.00     0.074 A 
ATOM     47  C   UNL A   1      48.354  30.690  27.472  1.00  0.00     0.029 A 
ATOM     48  N   UNL A   1      46.780  29.121  27.447  1.00  0.00    -0.354 N 
ATOM     49  N   UNL A   1      45.750  26.391  27.111  1.00  0.00    -0.248 NA
ATOM     50  C   UNL A   1      46.069  24.162  26.489  1.00  0.00     0.031 C 
ATOM     51  C   UNL A   1      48.932  29.491  27.040  1.00  0.00     0.029 A 
ATOM     52  C   UNL A   1      47.955  28.508  27.043  1.00  0.00     0.049 A 
ATOM     53  H   UNL A   1      45.911  28.668  27.539  1.00  0.00     0.167 HD
ATOM     54  C   UNL A   1      47.078  26.207  26.743  1.00  0.00     0.074 A 
ATOM     55  C   UNL A   1      47.224  24.809  26.393  1.00  0.00     0.031 C 
ATOM     56  C   UNL A   1      48.086  27.113  26.700  1.00  0.00     0.037 A 
BRANCH  43  57
ATOM     57  C   UNL A   1      46.402  32.842  28.315  1.00  0.00     0.058 A 
ATOM     58  C   UNL A   1      46.850  33.321  29.555  1.00  0.00     0.135 A 
ATOM     59  C   UNL A   1      46.366  33.744  27.238  1.00  0.00     0.135 A 
ATOM     60  F   UNL A   1      46.890  32.505  30.620  1.00  0.00    -0.206 F 
ATOM     61  C   UNL A   1      47.220  34.651  29.731  1.00  0.00     0.059 A 
ATOM     62  C   UNL A   1      46.754  35.072  27.385  1.00  0.00     0.059 A 
ATOM     63  F   UNL A   1      45.946  33.337  26.030  1.00  0.00    -0.206 F 
ATOM     64  C   UNL A   1      47.164  35.520  28.639  1.00  0.00     0.060 A 
BRANCH  64  65
ATOM     65  S   UNL A   1      47.641  37.245  28.883  1.00  0.00     0.124 S 
ATOM     66  O   UNL A   1      49.035  37.104  29.293  1.00  0.00    -0.237 OA
ATOM     67  O   UNL A   1      47.426  37.820  27.559  1.00  0.00    -0.237 OA
ATOM     68  O   UNL A   1      46.724  37.707  29.919  1.00  0.00    -0.744 OA
ENDBRANCH  64  65
ENDBRANCH  43  57
BRANCH  44  69
ATOM     69  C   UNL A   1      43.280  23.437  27.035  1.00  0.00     0.058 A 
ATOM     70  C   UNL A   1      43.064  22.565  28.110  1.00  0.00     0.135 A 
ATOM     71  C   UNL A   1      43.025  22.956  25.740  1.00  0.00     0.135 A 
ATOM     72  F   UNL A   1      43.303  22.976  29.365  1.00  0.00    -0.206 F 
ATOM     73  C   UNL A   1      42.621  21.260  27.913  1.00  0.00     0.059 A 
ATOM     74  C   UNL A   1      42.560  21.664  25.518  1.00  0.00     0.059 A 
ATOM     75  F   UNL A   1      43.207  23.756  24.677  1.00  0.00    -0.206 F 
ATOM     76  C   UNL A   1      42.370  20.820  26.611  1.00  0.00     0.060 A 
BRANCH  76  77
ATOM     77  S   UNL A   1      41.743  19.144  26.367  1.00  0.00     0.124 S 
ATOM     78  O   UNL A   1      41.860  18.589  27.711  1.00  0.00    -0.237 OA
ATOM     79  O   UNL A   1      40.385  19.388  25.891  1.00  0.00    -0.237 OA
ATOM     80  O   UNL A   1      42.657  18.588  25.373  1.00  0.00    -0.744 OA
ENDBRANCH  76  77
ENDBRANCH  44  69
BRANCH  56  81
ATOM     81  C   UNL A   1      49.443  26.619  26.284  1.00  0.00     0.058 A 
ATOM     82  C   UNL A   1      49.916  26.781  24.973  1.00  0.00     0.135 A 
ATOM     83  C   UNL A   1      50.300  26.019  27.221  1.00  0.00     0.135 A 
ATOM     84  F   UNL A   1      49.134  27.343  24.038  1.00  0.00    -0.206 F 
ATOM     85  C   UNL A   1      51.184  26.348  24.600  1.00  0.00     0.059 A 
ATOM     86  C   UNL A   1      51.581  25.600  26.876  1.00  0.00     0.059 A 
ATOM     87  F   UNL A   1      49.899  25.848  28.491  1.00  0.00    -0.206 F 
ATOM     88  C   UNL A   1      52.011  25.758  25.560  1.00  0.00     0.060 A 
BRANCH  88  89
ATOM     89  S   UNL A   1      53.667  25.231  25.073  1.00  0.00     0.124 S 
ATOM     90  O   UNL A   1      53.623  23.804  25.376  1.00  0.00    -0.237 OA
ATOM     91  O   UNL A   1      53.705  25.578  23.655  1.00  0.00    -0.237 OA
ATOM     92  O   UNL A   1      54.541  26.029  25.930  1.00  0.00    -0.744 OA
ENDBRANCH  88  89
ENDBRANCH  56  81
ENDBRANCH  30  31
ENDBRANCH  23  25
ENDBRANCH  22  23
ENDBRANCH  21  22
ENDBRANCH   1  21
TORSDOF 17
ENDMDL
