MODEL 1
REMARK VINA RESULT:     -10.9      0.000      0.000
REMARK SMILES Cc1cccc(/C=C(/F)C(=O)OCCOC(=O)c2ccc(-c3c4nc(c(-c5c(F)cc(S(=O)(=O)[O-])cc5F)c5ccc([nH]5)c(-c5c(F)cc(S(=O)(=O)[O-])cc5F)c5nc(c(-c6c(F)cc(S(=O)(=O)[O-])cc6F)c6ccc3[nH]6)C=C5)C=C4)cc2)c1C
REMARK SMILES IDX 14 1 13 2 12 3 10 4 11 5 8 6 7 7 9 8 6 9 1 10 2 11 3 12
REMARK SMILES IDX 84 13 4 14 85 15 5 16 15 17 16 18 17 19 18 20 19 21 83 22
REMARK SMILES IDX 20 23 82 24 21 25 22 26 23 27 76 28 24 29 81 30 75 31 77 32
REMARK SMILES IDX 25 33 80 34 74 35 73 36 26 38 60 39 39 40 59 41 40 42 43 43
REMARK SMILES IDX 58 44 78 45 41 46 42 47 57 49 79 50 44 51 27 52 28 53 37 54
REMARK SMILES IDX 29 55 30 56 36 57 38 58 31 59 32 60 33 61 34 62 35 63 61 64
REMARK SMILES IDX 62 65 71 66 63 67 64 68 70 69 72 70 65 71 66 72 67 73 68 74
REMARK SMILES IDX 69 75 45 76 46 77 55 78 47 79 48 80 54 81 56 82 49 83 50 84
REMARK SMILES IDX 51 85 52 86 53 87
REMARK H PARENT 77 37 43 48
REMARK Flexibility Score: inf
ROOT
ATOM      1  C   UNL A   1      39.023  22.935  26.596  1.00  0.00     0.275 C 
ENDROOT
BRANCH   1   2
ATOM      2  C   UNL A   1      38.106  22.112  25.682  1.00  0.00     0.275 C 
BRANCH   2   3
ATOM      3  O   UNL A   1      36.679  22.355  25.639  1.00  0.00    -0.457 OA
BRANCH   3   4
ATOM      4  C   UNL A   1      35.837  21.821  24.730  1.00  0.00     0.367 C 
ATOM      5  O   UNL A   1      35.218  20.768  24.801  1.00  0.00    -0.243 OA
BRANCH   4   6
ATOM      6  C   UNL A   1      35.755  22.747  23.582  1.00  0.00     0.208 C 
ATOM      7  C   UNL A   1      34.823  23.694  23.401  1.00  0.00     0.055 C 
ATOM      8  F   UNL A   1      36.736  22.594  22.666  1.00  0.00    -0.199 F 
BRANCH   7   9
ATOM      9  C   UNL A   1      33.748  24.017  24.343  1.00  0.00    -0.019 A 
ATOM     10  C   UNL A   1      30.682  22.562  26.119  1.00  0.00     0.044 C 
ATOM     11  C   UNL A   1      31.776  23.488  25.650  1.00  0.00    -0.048 A 
ATOM     12  C   UNL A   1      32.048  24.630  26.386  1.00  0.00     0.004 A 
ATOM     13  C   UNL A   1      32.585  23.231  24.542  1.00  0.00    -0.041 A 
ATOM     14  C   UNL A   1      33.083  25.506  26.116  1.00  0.00     0.001 A 
ATOM     15  C   UNL A   1      32.134  22.148  23.612  1.00  0.00     0.045 C 
ATOM     16  C   UNL A   1      33.961  25.176  25.109  1.00  0.00     0.008 A 
ENDBRANCH   7   9
ENDBRANCH   4   6
ENDBRANCH   3   4
ENDBRANCH   2   3
ENDBRANCH   1   2
BRANCH   1  17
ATOM     17  O   UNL A   1      39.065  24.333  26.252  1.00  0.00    -0.458 OA
BRANCH  17  18
ATOM     18  C   UNL A   1      40.272  24.927  26.488  1.00  0.00     0.338 C 
ATOM     19  O   UNL A   1      41.315  24.720  25.888  1.00  0.00    -0.246 OA
BRANCH  18  20
ATOM     20  C   UNL A   1      40.167  25.903  27.597  1.00  0.00     0.060 A 
ATOM     21  C   UNL A   1      40.971  27.042  27.590  1.00  0.00     0.016 A 
ATOM     22  C   UNL A   1      39.342  25.652  28.700  1.00  0.00     0.016 A 
ATOM     23  C   UNL A   1      40.903  27.953  28.659  1.00  0.00     0.010 A 
ATOM     24  C   UNL A   1      39.274  26.570  29.770  1.00  0.00     0.010 A 
ATOM     25  C   UNL A   1      40.036  27.747  29.758  1.00  0.00    -0.014 A 
BRANCH  25  26
ATOM     26  C   UNL A   1      40.110  28.685  30.935  1.00  0.00     0.031 A 
ATOM     27  C   UNL A   1      39.064  29.759  31.010  1.00  0.00     0.074 A 
ATOM     28  C   UNL A   1      41.005  28.602  31.949  1.00  0.00     0.049 A 
ATOM     29  N   UNL A   1      38.897  30.677  31.922  1.00  0.00    -0.248 NA
ATOM     30  C   UNL A   1      38.127  29.847  29.878  1.00  0.00     0.031 C 
ATOM     31  C   UNL A   1      42.179  27.749  31.981  1.00  0.00     0.029 A 
ATOM     32  N   UNL A   1      41.049  29.206  33.191  1.00  0.00    -0.354 N 
ATOM     33  C   UNL A   1      37.872  31.482  31.453  1.00  0.00     0.074 A 
ATOM     34  C   UNL A   1      37.431  30.927  30.193  1.00  0.00     0.031 C 
ATOM     35  C   UNL A   1      42.650  27.652  33.233  1.00  0.00     0.029 A 
ATOM     36  C   UNL A   1      42.017  28.687  34.036  1.00  0.00     0.049 A 
ATOM     37  H   UNL A   1      40.446  29.940  33.452  1.00  0.00     0.167 HD
ATOM     38  C   UNL A   1      37.378  32.616  31.999  1.00  0.00     0.037 A 
ATOM     39  C   UNL A   1      42.443  29.058  35.265  1.00  0.00     0.037 A 
ATOM     40  C   UNL A   1      37.856  33.204  33.221  1.00  0.00     0.049 A 
ATOM     41  C   UNL A   1      41.888  30.334  35.839  1.00  0.00     0.074 A 
ATOM     42  C   UNL A   1      37.434  34.372  33.829  1.00  0.00     0.029 A 
ATOM     43  N   UNL A   1      38.871  32.685  34.011  1.00  0.00    -0.354 N 
ATOM     44  N   UNL A   1      40.938  31.101  35.360  1.00  0.00    -0.248 NA
ATOM     45  C   UNL A   1      42.511  30.844  37.069  1.00  0.00     0.031 C 
ATOM     46  C   UNL A   1      38.228  34.588  34.959  1.00  0.00     0.029 A 
ATOM     47  C   UNL A   1      39.096  33.517  35.096  1.00  0.00     0.049 A 
ATOM     48  H   UNL A   1      39.359  31.849  33.828  1.00  0.00     0.167 HD
ATOM     49  C   UNL A   1      40.855  32.185  36.224  1.00  0.00     0.074 A 
ATOM     50  C   UNL A   1      41.825  31.959  37.275  1.00  0.00     0.031 C 
ATOM     51  C   UNL A   1      40.056  33.275  36.142  1.00  0.00     0.037 A 
BRANCH  38  52
ATOM     52  C   UNL A   1      36.318  33.334  31.220  1.00  0.00     0.058 A 
ATOM     53  C   UNL A   1      34.981  33.360  31.640  1.00  0.00     0.135 A 
ATOM     54  C   UNL A   1      36.651  34.006  30.032  1.00  0.00     0.135 A 
ATOM     55  F   UNL A   1      34.605  32.697  32.746  1.00  0.00    -0.206 F 
ATOM     56  C   UNL A   1      34.004  34.018  30.903  1.00  0.00     0.059 A 
ATOM     57  C   UNL A   1      35.698  34.697  29.297  1.00  0.00     0.059 A 
ATOM     58  F   UNL A   1      37.914  33.990  29.577  1.00  0.00    -0.206 F 
ATOM     59  C   UNL A   1      34.375  34.691  29.736  1.00  0.00     0.060 A 
BRANCH  59  60
ATOM     60  S   UNL A   1      33.102  35.572  28.811  1.00  0.00     0.124 S 
ATOM     61  O   UNL A   1      32.525  34.496  28.011  1.00  0.00    -0.237 OA
ATOM     62  O   UNL A   1      32.253  36.095  29.877  1.00  0.00    -0.237 OA
ATOM     63  O   UNL A   1      33.856  36.574  28.065  1.00  0.00    -0.744 OA
ENDBRANCH  59  60
ENDBRANCH  38  52
BRANCH  39  64
ATOM     64  C   UNL A   1      43.550  28.335  35.974  1.00  0.00     0.058 A 
ATOM     65  C   UNL A   1      44.899  28.683  35.782  1.00  0.00     0.135 A 
ATOM     66  C   UNL A   1      43.293  27.250  36.831  1.00  0.00     0.135 A 
ATOM     67  F   UNL A   1      45.221  29.679  34.941  1.00  0.00    -0.206 F 
ATOM     68  C   UNL A   1      45.938  27.995  36.411  1.00  0.00     0.059 A 
ATOM     69  C   UNL A   1      44.307  26.579  37.509  1.00  0.00     0.059 A 
ATOM     70  F   UNL A   1      42.032  26.839  37.038  1.00  0.00    -0.206 F 
ATOM     71  C   UNL A   1      45.630  26.951  37.284  1.00  0.00     0.060 A 
BRANCH  71  72
ATOM     72  S   UNL A   1      46.969  26.098  38.148  1.00  0.00     0.124 S 
ATOM     73  O   UNL A   1      48.107  26.960  37.851  1.00  0.00    -0.237 OA
ATOM     74  O   UNL A   1      46.502  26.108  39.530  1.00  0.00    -0.237 OA
ATOM     75  O   UNL A   1      46.992  24.783  37.513  1.00  0.00    -0.744 OA
ENDBRANCH  71  72
ENDBRANCH  39  64
BRANCH  51  76
ATOM     76  C   UNL A   1      40.146  34.279  37.255  1.00  0.00     0.058 A 
ATOM     77  C   UNL A   1      41.031  35.367  37.211  1.00  0.00     0.135 A 
ATOM     78  C   UNL A   1      39.296  34.165  38.366  1.00  0.00     0.135 A 
ATOM     79  F   UNL A   1      41.872  35.515  36.175  1.00  0.00    -0.206 F 
ATOM     80  C   UNL A   1      41.086  36.296  38.245  1.00  0.00     0.059 A 
ATOM     81  C   UNL A   1      39.312  35.098  39.395  1.00  0.00     0.059 A 
ATOM     82  F   UNL A   1      38.427  33.145  38.452  1.00  0.00    -0.206 F 
ATOM     83  C   UNL A   1      40.220  36.154  39.331  1.00  0.00     0.060 A 
BRANCH  83  84
ATOM     84  S   UNL A   1      40.279  37.382  40.652  1.00  0.00     0.124 S 
ATOM     85  O   UNL A   1      40.726  38.569  39.930  1.00  0.00    -0.237 OA
ATOM     86  O   UNL A   1      38.896  37.405  41.116  1.00  0.00    -0.237 OA
ATOM     87  O   UNL A   1      41.243  36.821  41.595  1.00  0.00    -0.744 OA
ENDBRANCH  83  84
ENDBRANCH  51  76
ENDBRANCH  25  26
ENDBRANCH  18  20
ENDBRANCH  17  18
ENDBRANCH   1  17
TORSDOF 15
ENDMDL
MODEL 2
REMARK VINA RESULT:     -10.8      7.372     12.559
REMARK SMILES Cc1cccc(/C=C(/F)C(=O)OCCOC(=O)c2ccc(-c3c4nc(c(-c5c(F)cc(S(=O)(=O)[O-])cc5F)c5ccc([nH]5)c(-c5c(F)cc(S(=O)(=O)[O-])cc5F)c5nc(c(-c6c(F)cc(S(=O)(=O)[O-])cc6F)c6ccc3[nH]6)C=C5)C=C4)cc2)c1C
REMARK SMILES IDX 14 1 13 2 12 3 10 4 11 5 8 6 7 7 9 8 6 9 1 10 2 11 3 12
REMARK SMILES IDX 84 13 4 14 85 15 5 16 15 17 16 18 17 19 18 20 19 21 83 22
REMARK SMILES IDX 20 23 82 24 21 25 22 26 23 27 76 28 24 29 81 30 75 31 77 32
REMARK SMILES IDX 25 33 80 34 74 35 73 36 26 38 60 39 39 40 59 41 40 42 43 43
REMARK SMILES IDX 58 44 78 45 41 46 42 47 57 49 79 50 44 51 27 52 28 53 37 54
REMARK SMILES IDX 29 55 30 56 36 57 38 58 31 59 32 60 33 61 34 62 35 63 61 64
REMARK SMILES IDX 62 65 71 66 63 67 64 68 70 69 72 70 65 71 66 72 67 73 68 74
REMARK SMILES IDX 69 75 45 76 46 77 55 78 47 79 48 80 54 81 56 82 49 83 50 84
REMARK SMILES IDX 51 85 52 86 53 87
REMARK H PARENT 77 37 43 48
REMARK Flexibility Score: inf
ROOT
ATOM      1  C   UNL A   1      34.684  30.614  27.904  1.00  0.00     0.275 C 
ENDROOT
BRANCH   1   2
ATOM      2  C   UNL A   1      33.676  29.947  26.959  1.00  0.00     0.275 C 
BRANCH   2   3
ATOM      3  O   UNL A   1      33.236  28.585  27.176  1.00  0.00    -0.457 OA
BRANCH   3   4
ATOM      4  C   UNL A   1      31.946  28.188  27.180  1.00  0.00     0.367 C 
ATOM      5  O   UNL A   1      31.235  27.945  28.147  1.00  0.00    -0.243 OA
BRANCH   4   6
ATOM      6  C   UNL A   1      31.488  28.098  25.779  1.00  0.00     0.208 C 
ATOM      7  C   UNL A   1      31.390  26.974  25.054  1.00  0.00     0.055 C 
ATOM      8  F   UNL A   1      31.136  29.280  25.227  1.00  0.00    -0.199 F 
BRANCH   7   9
ATOM      9  C   UNL A   1      31.668  25.622  25.545  1.00  0.00    -0.019 A 
ATOM     10  C   UNL A   1      34.478  23.300  26.721  1.00  0.00     0.044 C 
ATOM     11  C   UNL A   1      33.129  23.862  26.348  1.00  0.00    -0.048 A 
ATOM     12  C   UNL A   1      31.988  23.224  26.805  1.00  0.00     0.004 A 
ATOM     13  C   UNL A   1      32.958  25.037  25.613  1.00  0.00    -0.041 A 
ATOM     14  C   UNL A   1      30.701  23.691  26.612  1.00  0.00     0.001 A 
ATOM     15  C   UNL A   1      34.164  25.577  24.912  1.00  0.00     0.045 C 
ATOM     16  C   UNL A   1      30.544  24.918  26.009  1.00  0.00     0.008 A 
ENDBRANCH   7   9
ENDBRANCH   4   6
ENDBRANCH   3   4
ENDBRANCH   2   3
ENDBRANCH   1   2
BRANCH   1  17
ATOM     17  O   UNL A   1      35.484  29.671  28.641  1.00  0.00    -0.458 OA
BRANCH  17  18
ATOM     18  C   UNL A   1      36.389  30.250  29.484  1.00  0.00     0.338 C 
ATOM     19  O   UNL A   1      36.142  31.003  30.412  1.00  0.00    -0.246 OA
BRANCH  18  20
ATOM     20  C   UNL A   1      37.768  29.835  29.137  1.00  0.00     0.060 A 
ATOM     21  C   UNL A   1      38.708  29.653  30.151  1.00  0.00     0.016 A 
ATOM     22  C   UNL A   1      38.168  29.715  27.801  1.00  0.00     0.016 A 
ATOM     23  C   UNL A   1      40.028  29.296  29.826  1.00  0.00     0.010 A 
ATOM     24  C   UNL A   1      39.494  29.353  27.478  1.00  0.00     0.010 A 
ATOM     25  C   UNL A   1      40.441  29.116  28.484  1.00  0.00    -0.014 A 
BRANCH  25  26
ATOM     26  C   UNL A   1      41.899  28.870  28.193  1.00  0.00     0.031 A 
ATOM     27  C   UNL A   1      42.270  27.497  27.711  1.00  0.00     0.074 A 
ATOM     28  C   UNL A   1      42.883  29.797  28.278  1.00  0.00     0.049 A 
ATOM     29  N   UNL A   1      43.445  27.035  27.379  1.00  0.00    -0.248 NA
ATOM     30  C   UNL A   1      41.187  26.501  27.663  1.00  0.00     0.031 C 
ATOM     31  C   UNL A   1      42.761  31.117  28.869  1.00  0.00     0.029 A 
ATOM     32  N   UNL A   1      44.186  29.804  27.817  1.00  0.00    -0.354 N 
ATOM     33  C   UNL A   1      43.254  25.686  27.129  1.00  0.00     0.074 A 
ATOM     34  C   UNL A   1      41.848  25.409  27.315  1.00  0.00     0.031 C 
ATOM     35  C   UNL A   1      43.789  31.892  28.496  1.00  0.00     0.029 A 
ATOM     36  C   UNL A   1      44.810  31.038  27.908  1.00  0.00     0.049 A 
ATOM     37  H   UNL A   1      44.631  29.003  27.457  1.00  0.00     0.167 HD
ATOM     38  C   UNL A   1      44.180  24.750  26.825  1.00  0.00     0.037 A 
ATOM     39  C   UNL A   1      46.081  31.433  27.667  1.00  0.00     0.037 A 
ATOM     40  C   UNL A   1      45.588  25.012  26.699  1.00  0.00     0.049 A 
ATOM     41  C   UNL A   1      47.093  30.366  27.347  1.00  0.00     0.074 A 
ATOM     42  C   UNL A   1      46.603  24.113  26.425  1.00  0.00     0.029 A 
ATOM     43  N   UNL A   1      46.185  26.254  26.857  1.00  0.00    -0.354 N 
ATOM     44  N   UNL A   1      46.896  29.085  27.147  1.00  0.00    -0.248 NA
ATOM     45  C   UNL A   1      48.505  30.772  27.303  1.00  0.00     0.031 C 
ATOM     46  C   UNL A   1      47.819  24.801  26.468  1.00  0.00     0.029 A 
ATOM     47  C   UNL A   1      47.557  26.142  26.697  1.00  0.00     0.049 A 
ATOM     48  H   UNL A   1      45.705  27.091  27.053  1.00  0.00     0.167 HD
ATOM     49  C   UNL A   1      48.156  28.533  26.961  1.00  0.00     0.074 A 
ATOM     50  C   UNL A   1      49.107  29.622  27.035  1.00  0.00     0.031 C 
ATOM     51  C   UNL A   1      48.492  27.236  26.761  1.00  0.00     0.037 A 
BRANCH  38  52
ATOM     52  C   UNL A   1      43.695  23.338  26.693  1.00  0.00     0.058 A 
ATOM     53  C   UNL A   1      43.346  22.569  27.813  1.00  0.00     0.135 A 
ATOM     54  C   UNL A   1      43.580  22.749  25.424  1.00  0.00     0.135 A 
ATOM     55  F   UNL A   1      43.479  23.073  29.050  1.00  0.00    -0.206 F 
ATOM     56  C   UNL A   1      42.909  21.256  27.679  1.00  0.00     0.059 A 
ATOM     57  C   UNL A   1      43.116  21.451  25.264  1.00  0.00     0.059 A 
ATOM     58  F   UNL A   1      43.924  23.439  24.324  1.00  0.00    -0.206 F 
ATOM     59  C   UNL A   1      42.790  20.709  26.399  1.00  0.00     0.060 A 
BRANCH  59  60
ATOM     60  S   UNL A   1      42.186  19.017  26.241  1.00  0.00     0.124 S 
ATOM     61  O   UNL A   1      42.328  18.527  27.609  1.00  0.00    -0.237 OA
ATOM     62  O   UNL A   1      40.817  19.221  25.779  1.00  0.00    -0.237 OA
ATOM     63  O   UNL A   1      43.093  18.422  25.264  1.00  0.00    -0.744 OA
ENDBRANCH  59  60
ENDBRANCH  38  52
BRANCH  39  64
ATOM     64  C   UNL A   1      46.524  32.852  27.873  1.00  0.00     0.058 A 
ATOM     65  C   UNL A   1      46.396  33.818  26.860  1.00  0.00     0.135 A 
ATOM     66  C   UNL A   1      47.125  33.270  29.074  1.00  0.00     0.135 A 
ATOM     67  F   UNL A   1      45.874  33.478  25.670  1.00  0.00    -0.206 F 
ATOM     68  C   UNL A   1      46.835  35.132  27.030  1.00  0.00     0.059 A 
ATOM     69  C   UNL A   1      47.525  34.586  29.287  1.00  0.00     0.059 A 
ATOM     70  F   UNL A   1      47.310  32.396  30.075  1.00  0.00    -0.206 F 
ATOM     71  C   UNL A   1      47.388  35.509  28.255  1.00  0.00     0.060 A 
BRANCH  71  72
ATOM     72  S   UNL A   1      47.901  37.225  28.500  1.00  0.00     0.124 S 
ATOM     73  O   UNL A   1      49.352  37.116  28.408  1.00  0.00    -0.237 OA
ATOM     74  O   UNL A   1      47.239  37.907  27.393  1.00  0.00    -0.237 OA
ATOM     75  O   UNL A   1      47.375  37.545  29.825  1.00  0.00    -0.744 OA
ENDBRANCH  71  72
ENDBRANCH  39  64
BRANCH  51  76
ATOM     76  C   UNL A   1      49.945  26.929  26.539  1.00  0.00     0.058 A 
ATOM     77  C   UNL A   1      50.804  26.579  27.592  1.00  0.00     0.135 A 
ATOM     78  C   UNL A   1      50.470  26.947  25.238  1.00  0.00     0.135 A 
ATOM     79  F   UNL A   1      50.353  26.557  28.857  1.00  0.00    -0.206 F 
ATOM     80  C   UNL A   1      52.143  26.280  27.364  1.00  0.00     0.059 A 
ATOM     81  C   UNL A   1      51.796  26.621  24.983  1.00  0.00     0.059 A 
ATOM     82  F   UNL A   1      49.687  27.269  24.197  1.00  0.00    -0.206 F 
ATOM     83  C   UNL A   1      52.629  26.301  26.054  1.00  0.00     0.060 A 
BRANCH  83  84
ATOM     84  S   UNL A   1      54.360  25.883  25.766  1.00  0.00     0.124 S 
ATOM     85  O   UNL A   1      54.239  24.640  25.010  1.00  0.00    -0.237 OA
ATOM     86  O   UNL A   1      54.838  27.039  25.014  1.00  0.00    -0.237 OA
ATOM     87  O   UNL A   1      54.906  25.748  27.113  1.00  0.00    -0.744 OA
ENDBRANCH  83  84
ENDBRANCH  51  76
ENDBRANCH  25  26
ENDBRANCH  18  20
ENDBRANCH  17  18
ENDBRANCH   1  17
TORSDOF 15
ENDMDL
MODEL 3
REMARK VINA RESULT:     -10.7      6.970     13.132
REMARK SMILES Cc1cccc(/C=C(/F)C(=O)OCCOC(=O)c2ccc(-c3c4nc(c(-c5c(F)cc(S(=O)(=O)[O-])cc5F)c5ccc([nH]5)c(-c5c(F)cc(S(=O)(=O)[O-])cc5F)c5nc(c(-c6c(F)cc(S(=O)(=O)[O-])cc6F)c6ccc3[nH]6)C=C5)C=C4)cc2)c1C
REMARK SMILES IDX 14 1 13 2 12 3 10 4 11 5 8 6 7 7 9 8 6 9 1 10 2 11 3 12
REMARK SMILES IDX 84 13 4 14 85 15 5 16 15 17 16 18 17 19 18 20 19 21 83 22
REMARK SMILES IDX 20 23 82 24 21 25 22 26 23 27 76 28 24 29 81 30 75 31 77 32
REMARK SMILES IDX 25 33 80 34 74 35 73 36 26 38 60 39 39 40 59 41 40 42 43 43
REMARK SMILES IDX 58 44 78 45 41 46 42 47 57 49 79 50 44 51 27 52 28 53 37 54
REMARK SMILES IDX 29 55 30 56 36 57 38 58 31 59 32 60 33 61 34 62 35 63 61 64
REMARK SMILES IDX 62 65 71 66 63 67 64 68 70 69 72 70 65 71 66 72 67 73 68 74
REMARK SMILES IDX 69 75 45 76 46 77 55 78 47 79 48 80 54 81 56 82 49 83 50 84
REMARK SMILES IDX 51 85 52 86 53 87
REMARK H PARENT 77 37 43 48
REMARK Flexibility Score: inf
ROOT
ATOM      1  C   UNL A   1      34.721  32.195  30.102  1.00  0.00     0.275 C 
ENDROOT
BRANCH   1   2
ATOM      2  C   UNL A   1      34.532  33.718  30.089  1.00  0.00     0.275 C 
BRANCH   2   3
ATOM      3  O   UNL A   1      33.935  34.407  31.214  1.00  0.00    -0.457 OA
BRANCH   3   4
ATOM      4  C   UNL A   1      34.044  34.013  32.500  1.00  0.00     0.367 C 
ATOM      5  O   UNL A   1      33.626  32.983  33.012  1.00  0.00    -0.243 OA
BRANCH   4   6
ATOM      6  C   UNL A   1      34.795  35.052  33.235  1.00  0.00     0.208 C 
ATOM      7  C   UNL A   1      36.053  34.943  33.684  1.00  0.00     0.055 C 
ATOM      8  F   UNL A   1      34.112  36.199  33.438  1.00  0.00    -0.199 F 
BRANCH   7   9
ATOM      9  C   UNL A   1      36.932  33.789  33.472  1.00  0.00    -0.019 A 
ATOM     10  C   UNL A   1      40.072  32.623  31.615  1.00  0.00     0.044 C 
ATOM     11  C   UNL A   1      38.850  32.673  32.497  1.00  0.00    -0.048 A 
ATOM     12  C   UNL A   1      38.688  31.702  33.471  1.00  0.00     0.004 A 
ATOM     13  C   UNL A   1      37.891  33.685  32.433  1.00  0.00    -0.041 A 
ATOM     14  C   UNL A   1      37.664  31.691  34.401  1.00  0.00     0.001 A 
ATOM     15  C   UNL A   1      37.928  34.576  31.231  1.00  0.00     0.045 C 
ATOM     16  C   UNL A   1      36.802  32.763  34.423  1.00  0.00     0.008 A 
ENDBRANCH   7   9
ENDBRANCH   4   6
ENDBRANCH   3   4
ENDBRANCH   2   3
ENDBRANCH   1   2
BRANCH   1  17
ATOM     17  O   UNL A   1      36.075  31.786  29.831  1.00  0.00    -0.458 OA
BRANCH  17  18
ATOM     18  C   UNL A   1      36.489  30.713  30.567  1.00  0.00     0.338 C 
ATOM     19  O   UNL A   1      35.930  30.240  31.543  1.00  0.00    -0.246 OA
BRANCH  18  20
ATOM     20  C   UNL A   1      37.746  30.153  30.016  1.00  0.00     0.060 A 
ATOM     21  C   UNL A   1      38.586  29.406  30.841  1.00  0.00     0.016 A 
ATOM     22  C   UNL A   1      38.148  30.444  28.707  1.00  0.00     0.016 A 
ATOM     23  C   UNL A   1      39.798  28.905  30.334  1.00  0.00     0.010 A 
ATOM     24  C   UNL A   1      39.365  29.936  28.201  1.00  0.00     0.010 A 
ATOM     25  C   UNL A   1      40.200  29.140  28.998  1.00  0.00    -0.014 A 
BRANCH  25  26
ATOM     26  C   UNL A   1      41.570  28.696  28.556  1.00  0.00     0.031 A 
ATOM     27  C   UNL A   1      42.685  29.689  28.710  1.00  0.00     0.074 A 
ATOM     28  C   UNL A   1      41.881  27.464  28.086  1.00  0.00     0.049 A 
ATOM     29  N   UNL A   1      43.951  29.552  28.422  1.00  0.00    -0.248 NA
ATOM     30  C   UNL A   1      42.312  31.030  29.189  1.00  0.00     0.031 C 
ATOM     31  C   UNL A   1      40.934  26.429  27.715  1.00  0.00     0.029 A 
ATOM     32  N   UNL A   1      43.095  26.834  27.884  1.00  0.00    -0.354 N 
ATOM     33  C   UNL A   1      44.516  30.798  28.636  1.00  0.00     0.074 A 
ATOM     34  C   UNL A   1      43.466  31.671  29.110  1.00  0.00     0.031 C 
ATOM     35  C   UNL A   1      41.553  25.243  27.618  1.00  0.00     0.029 A 
ATOM     36  C   UNL A   1      42.988  25.482  27.599  1.00  0.00     0.049 A 
ATOM     37  H   UNL A   1      43.958  27.305  27.937  1.00  0.00     0.167 HD
ATOM     38  C   UNL A   1      45.788  31.193  28.406  1.00  0.00     0.037 A 
ATOM     39  C   UNL A   1      43.905  24.553  27.245  1.00  0.00     0.037 A 
ATOM     40  C   UNL A   1      46.819  30.342  27.877  1.00  0.00     0.049 A 
ATOM     41  C   UNL A   1      45.309  25.026  26.979  1.00  0.00     0.074 A 
ATOM     42  C   UNL A   1      48.130  30.671  27.581  1.00  0.00     0.029 A 
ATOM     43  N   UNL A   1      46.658  29.005  27.547  1.00  0.00    -0.354 N 
ATOM     44  N   UNL A   1      45.816  26.222  27.157  1.00  0.00    -0.248 NA
ATOM     45  C   UNL A   1      46.242  24.058  26.387  1.00  0.00     0.031 C 
ATOM     46  C   UNL A   1      48.746  29.548  27.023  1.00  0.00     0.029 A 
ATOM     47  C   UNL A   1      47.843  28.498  27.039  1.00  0.00     0.049 A 
ATOM     48  H   UNL A   1      45.824  28.492  27.657  1.00  0.00     0.167 HD
ATOM     49  C   UNL A   1      47.123  26.152  26.694  1.00  0.00     0.074 A 
ATOM     50  C   UNL A   1      47.342  24.788  26.260  1.00  0.00     0.031 C 
ATOM     51  C   UNL A   1      48.052  27.135  26.622  1.00  0.00     0.037 A 
BRANCH  38  52
ATOM     52  C   UNL A   1      46.100  32.638  28.649  1.00  0.00     0.058 A 
ATOM     53  C   UNL A   1      46.060  33.588  27.617  1.00  0.00     0.135 A 
ATOM     54  C   UNL A   1      46.445  33.077  29.938  1.00  0.00     0.135 A 
ATOM     55  F   UNL A   1      45.777  33.211  26.360  1.00  0.00    -0.206 F 
ATOM     56  C   UNL A   1      46.364  34.923  27.853  1.00  0.00     0.059 A 
ATOM     57  C   UNL A   1      46.721  34.411  30.202  1.00  0.00     0.059 A 
ATOM     58  F   UNL A   1      46.518  32.201  30.953  1.00  0.00    -0.206 F 
ATOM     59  C   UNL A   1      46.685  35.326  29.151  1.00  0.00     0.060 A 
BRANCH  59  60
ATOM     60  S   UNL A   1      47.041  37.069  29.447  1.00  0.00     0.124 S 
ATOM     61  O   UNL A   1      47.282  37.553  28.090  1.00  0.00    -0.237 OA
ATOM     62  O   UNL A   1      45.808  37.533  30.075  1.00  0.00    -0.237 OA
ATOM     63  O   UNL A   1      48.210  37.035  30.318  1.00  0.00    -0.744 OA
ENDBRANCH  59  60
ENDBRANCH  38  52
BRANCH  39  64
ATOM     64  C   UNL A   1      43.524  23.131  26.956  1.00  0.00     0.058 A 
ATOM     65  C   UNL A   1      43.434  22.645  25.640  1.00  0.00     0.135 A 
ATOM     66  C   UNL A   1      43.201  22.230  27.987  1.00  0.00     0.135 A 
ATOM     67  F   UNL A   1      43.684  23.462  24.604  1.00  0.00    -0.206 F 
ATOM     68  C   UNL A   1      43.049  21.332  25.360  1.00  0.00     0.059 A 
ATOM     69  C   UNL A   1      42.862  20.903  27.737  1.00  0.00     0.059 A 
ATOM     70  F   UNL A   1      43.233  22.631  29.267  1.00  0.00    -0.206 F 
ATOM     71  C   UNL A   1      42.777  20.465  26.419  1.00  0.00     0.060 A 
BRANCH  71  72
ATOM     72  S   UNL A   1      42.338  18.748  26.062  1.00  0.00     0.124 S 
ATOM     73  O   UNL A   1      42.614  18.101  27.339  1.00  0.00    -0.237 OA
ATOM     74  O   UNL A   1      40.930  18.859  25.692  1.00  0.00    -0.237 OA
ATOM     75  O   UNL A   1      43.238  18.393  24.968  1.00  0.00    -0.744 OA
ENDBRANCH  71  72
ENDBRANCH  39  64
BRANCH  51  76
ATOM     76  C   UNL A   1      49.414  26.759  26.116  1.00  0.00     0.058 A 
ATOM     77  C   UNL A   1      50.357  26.102  26.923  1.00  0.00     0.135 A 
ATOM     78  C   UNL A   1      49.762  27.028  24.783  1.00  0.00     0.135 A 
ATOM     79  F   UNL A   1      50.076  25.832  28.208  1.00  0.00    -0.206 F 
ATOM     80  C   UNL A   1      51.608  25.747  26.431  1.00  0.00     0.059 A 
ATOM     81  C   UNL A   1      50.994  26.654  24.262  1.00  0.00     0.059 A 
ATOM     82  F   UNL A   1      48.893  27.648  23.970  1.00  0.00    -0.206 F 
ATOM     83  C   UNL A   1      51.916  26.025  25.097  1.00  0.00     0.060 A 
BRANCH  83  84
ATOM     84  S   UNL A   1      53.530  25.532  24.460  1.00  0.00     0.124 S 
ATOM     85  O   UNL A   1      54.428  26.342  25.278  1.00  0.00    -0.237 OA
ATOM     86  O   UNL A   1      53.546  24.098  24.730  1.00  0.00    -0.237 OA
ATOM     87  O   UNL A   1      53.465  25.899  23.048  1.00  0.00    -0.744 OA
ENDBRANCH  83  84
ENDBRANCH  51  76
ENDBRANCH  25  26
ENDBRANCH  18  20
ENDBRANCH  17  18
ENDBRANCH   1  17
TORSDOF 15
ENDMDL
