MODEL 1
REMARK VINA RESULT:     -10.9      0.000      0.000
REMARK SMILES CCn1cc(CC(=O)OCCOC(=O)c2ccc(-c3c4nc(c(-c5c(F)cc(S(=O)(=O)[O-])cc5F)c5ccc([nH]5)c(-c5c(F)cc(S(=O)(=O)[O-])cc5F)c5nc(c(-c6c(F)cc(S(=O)(=O)[O-])cc6F)c6ccc3[nH]6)C=C5)C=C4)cc2)c2ccccc21
REMARK SMILES IDX 11 1 10 2 9 3 7 4 8 5 6 6 5 7 3 8 4 9 86 10 81 11 85 12
REMARK SMILES IDX 82 13 84 14 83 15 2 16 1 17 12 18 13 19 14 20 15 21 16 22
REMARK SMILES IDX 80 23 17 24 79 25 18 26 19 27 20 28 73 29 21 30 78 31 72 32
REMARK SMILES IDX 74 33 22 34 77 35 71 36 70 37 23 39 57 40 36 41 56 42 37 43
REMARK SMILES IDX 40 44 55 45 75 46 38 47 39 48 54 50 76 51 41 52 24 53 25 54
REMARK SMILES IDX 34 55 26 56 27 57 33 58 35 59 28 60 29 61 30 62 31 63 32 64
REMARK SMILES IDX 58 65 59 66 68 67 60 68 61 69 67 70 69 71 62 72 63 73 64 74
REMARK SMILES IDX 65 75 66 76 42 77 43 78 52 79 44 80 45 81 51 82 53 83 46 84
REMARK SMILES IDX 47 85 48 86 49 87 50 88
REMARK H PARENT 74 38 40 49
REMARK Flexibility Score: inf
ROOT
ATOM      1  C   UNL A   1      41.146  20.253  26.562  1.00  0.00     0.275 C 
ENDROOT
BRANCH   1   2
ATOM      2  C   UNL A   1      42.602  20.060  26.131  1.00  0.00     0.274 C 
BRANCH   2   3
ATOM      3  O   UNL A   1      43.059  21.197  25.367  1.00  0.00    -0.462 OA
BRANCH   3   4
ATOM      4  C   UNL A   1      44.293  21.077  24.818  1.00  0.00     0.310 C 
ATOM      5  O   UNL A   1      44.501  20.635  23.691  1.00  0.00    -0.252 OA
BRANCH   4   6
ATOM      6  C   UNL A   1      45.429  21.496  25.708  1.00  0.00     0.160 C 
BRANCH   6   7
ATOM      7  C   UNL A   1      45.401  22.824  26.401  1.00  0.00    -0.011 A 
ATOM      8  N   UNL A   1      45.234  24.209  28.148  1.00  0.00    -0.347 N 
ATOM      9  C   UNL A   1      44.890  22.975  27.675  1.00  0.00     0.091 A 
ATOM     10  C   UNL A   1      45.877  24.934  27.171  1.00  0.00     0.048 A 
ATOM     11  C   UNL A   1      45.982  24.095  26.052  1.00  0.00     0.003 A 
ATOM     12  C   UNL A   1      46.396  26.243  27.179  1.00  0.00     0.027 A 
ATOM     13  C   UNL A   1      46.620  24.622  24.910  1.00  0.00     0.010 A 
ATOM     14  C   UNL A   1      47.060  26.710  26.043  1.00  0.00     0.002 A 
ATOM     15  C   UNL A   1      47.177  25.907  24.918  1.00  0.00     0.001 A 
BRANCH   8  16
ATOM     16  C   UNL A   1      44.991  24.620  29.520  1.00  0.00     0.119 C 
ATOM     17  C   UNL A   1      44.258  23.552  30.317  1.00  0.00     0.027 C 
ENDBRANCH   8  16
ENDBRANCH   6   7
ENDBRANCH   4   6
ENDBRANCH   3   4
ENDBRANCH   2   3
ENDBRANCH   1   2
BRANCH   1  18
ATOM     18  O   UNL A   1      41.008  21.553  27.154  1.00  0.00    -0.458 OA
BRANCH  18  19
ATOM     19  C   UNL A   1      39.975  22.316  26.725  1.00  0.00     0.338 C 
ATOM     20  O   UNL A   1      38.882  21.937  26.339  1.00  0.00    -0.246 OA
BRANCH  19  21
ATOM     21  C   UNL A   1      40.299  23.697  27.128  1.00  0.00     0.060 A 
ATOM     22  C   UNL A   1      41.336  23.952  28.024  1.00  0.00     0.016 A 
ATOM     23  C   UNL A   1      39.410  24.712  26.754  1.00  0.00     0.016 A 
ATOM     24  C   UNL A   1      41.411  25.204  28.619  1.00  0.00     0.010 A 
ATOM     25  C   UNL A   1      39.452  25.942  27.388  1.00  0.00     0.010 A 
ATOM     26  C   UNL A   1      40.435  26.173  28.340  1.00  0.00    -0.014 A 
BRANCH  26  27
ATOM     27  C   UNL A   1      40.628  27.511  28.869  1.00  0.00     0.031 A 
ATOM     28  C   UNL A   1      41.759  28.226  28.240  1.00  0.00     0.074 A 
ATOM     29  C   UNL A   1      39.875  28.176  29.761  1.00  0.00     0.049 A 
ATOM     30  N   UNL A   1      42.942  28.379  28.730  1.00  0.00    -0.248 NA
ATOM     31  C   UNL A   1      41.597  28.717  26.868  1.00  0.00     0.031 C 
ATOM     32  C   UNL A   1      38.545  27.877  30.281  1.00  0.00     0.029 A 
ATOM     33  N   UNL A   1      40.196  29.357  30.361  1.00  0.00    -0.354 N 
ATOM     34  C   UNL A   1      43.643  29.134  27.803  1.00  0.00     0.074 A 
ATOM     35  C   UNL A   1      42.816  29.199  26.622  1.00  0.00     0.031 C 
ATOM     36  C   UNL A   1      38.105  28.942  30.996  1.00  0.00     0.029 A 
ATOM     37  C   UNL A   1      39.178  29.922  31.106  1.00  0.00     0.049 A 
ATOM     38  H   UNL A   1      41.083  29.775  30.272  1.00  0.00     0.167 HD
ATOM     39  C   UNL A   1      44.787  29.789  28.139  1.00  0.00     0.037 A 
ATOM     40  C   UNL A   1      39.230  31.123  31.735  1.00  0.00     0.037 A 
ATOM     41  C   UNL A   1      45.291  29.360  29.421  1.00  0.00     0.049 A 
ATOM     42  C   UNL A   1      40.665  31.436  31.985  1.00  0.00     0.074 A 
ATOM     43  C   UNL A   1      45.692  28.144  29.942  1.00  0.00     0.029 A 
ATOM     44  N   UNL A   1      45.079  30.176  30.508  1.00  0.00    -0.354 N 
ATOM     45  N   UNL A   1      41.428  30.781  32.818  1.00  0.00    -0.248 NA
ATOM     46  C   UNL A   1      41.378  32.256  31.014  1.00  0.00     0.031 C 
ATOM     47  C   UNL A   1      45.230  28.146  31.292  1.00  0.00     0.029 A 
ATOM     48  C   UNL A   1      44.607  29.375  31.520  1.00  0.00     0.049 A 
ATOM     49  H   UNL A   1      45.234  31.146  30.552  1.00  0.00     0.167 HD
ATOM     50  C   UNL A   1      42.684  30.773  32.230  1.00  0.00     0.074 A 
ATOM     51  C   UNL A   1      42.617  31.788  31.185  1.00  0.00     0.031 C 
ATOM     52  C   UNL A   1      43.582  29.769  32.465  1.00  0.00     0.037 A 
BRANCH  39  53
ATOM     53  C   UNL A   1      45.295  31.020  27.447  1.00  0.00     0.058 A 
ATOM     54  C   UNL A   1      46.600  31.030  26.920  1.00  0.00     0.135 A 
ATOM     55  C   UNL A   1      44.644  32.270  27.515  1.00  0.00     0.135 A 
ATOM     56  F   UNL A   1      47.306  29.893  26.821  1.00  0.00    -0.206 F 
ATOM     57  C   UNL A   1      47.241  32.211  26.551  1.00  0.00     0.059 A 
ATOM     58  C   UNL A   1      45.243  33.452  27.098  1.00  0.00     0.059 A 
ATOM     59  F   UNL A   1      43.437  32.412  28.080  1.00  0.00    -0.206 F 
ATOM     60  C   UNL A   1      46.559  33.419  26.665  1.00  0.00     0.060 A 
BRANCH  60  61
ATOM     61  S   UNL A   1      47.434  34.957  26.331  1.00  0.00     0.124 S 
ATOM     62  O   UNL A   1      48.323  35.038  27.485  1.00  0.00    -0.237 OA
ATOM     63  O   UNL A   1      48.074  34.673  25.049  1.00  0.00    -0.237 OA
ATOM     64  O   UNL A   1      46.365  35.949  26.285  1.00  0.00    -0.744 OA
ENDBRANCH  60  61
ENDBRANCH  39  53
BRANCH  40  65
ATOM     65  C   UNL A   1      38.148  32.125  31.904  1.00  0.00     0.058 A 
ATOM     66  C   UNL A   1      37.681  32.888  30.818  1.00  0.00     0.135 A 
ATOM     67  C   UNL A   1      37.359  32.160  33.071  1.00  0.00     0.135 A 
ATOM     68  F   UNL A   1      38.354  32.894  29.657  1.00  0.00    -0.206 F 
ATOM     69  C   UNL A   1      36.479  33.601  30.869  1.00  0.00     0.059 A 
ATOM     70  C   UNL A   1      36.163  32.873  33.150  1.00  0.00     0.059 A 
ATOM     71  F   UNL A   1      37.678  31.421  34.145  1.00  0.00    -0.206 F 
ATOM     72  C   UNL A   1      35.715  33.570  32.035  1.00  0.00     0.060 A 
BRANCH  72  73
ATOM     73  S   UNL A   1      34.084  34.349  32.048  1.00  0.00     0.124 S 
ATOM     74  O   UNL A   1      33.686  34.243  30.648  1.00  0.00    -0.237 OA
ATOM     75  O   UNL A   1      33.350  33.508  32.986  1.00  0.00    -0.237 OA
ATOM     76  O   UNL A   1      34.360  35.706  32.516  1.00  0.00    -0.744 OA
ENDBRANCH  72  73
ENDBRANCH  40  65
BRANCH  52  77
ATOM     77  C   UNL A   1      43.336  28.834  33.623  1.00  0.00     0.058 A 
ATOM     78  C   UNL A   1      43.794  29.059  34.932  1.00  0.00     0.135 A 
ATOM     79  C   UNL A   1      42.460  27.752  33.431  1.00  0.00     0.135 A 
ATOM     80  F   UNL A   1      44.548  30.128  35.226  1.00  0.00    -0.206 F 
ATOM     81  C   UNL A   1      43.426  28.229  35.994  1.00  0.00     0.059 A 
ATOM     82  C   UNL A   1      42.054  26.930  34.480  1.00  0.00     0.059 A 
ATOM     83  F   UNL A   1      41.940  27.515  32.214  1.00  0.00    -0.206 F 
ATOM     84  C   UNL A   1      42.548  27.171  35.760  1.00  0.00     0.060 A 
BRANCH  84  85
ATOM     85  S   UNL A   1      41.988  26.168  37.156  1.00  0.00     0.124 S 
ATOM     86  O   UNL A   1      41.926  24.833  36.570  1.00  0.00    -0.237 OA
ATOM     87  O   UNL A   1      43.044  26.378  38.143  1.00  0.00    -0.237 OA
ATOM     88  O   UNL A   1      40.698  26.756  37.504  1.00  0.00    -0.744 OA
ENDBRANCH  84  85
ENDBRANCH  52  77
ENDBRANCH  26  27
ENDBRANCH  19  21
ENDBRANCH  18  19
ENDBRANCH   1  18
TORSDOF 16
ENDMDL
MODEL 2
REMARK VINA RESULT:     -10.8      0.448      1.601
REMARK SMILES CCn1cc(CC(=O)OCCOC(=O)c2ccc(-c3c4nc(c(-c5c(F)cc(S(=O)(=O)[O-])cc5F)c5ccc([nH]5)c(-c5c(F)cc(S(=O)(=O)[O-])cc5F)c5nc(c(-c6c(F)cc(S(=O)(=O)[O-])cc6F)c6ccc3[nH]6)C=C5)C=C4)cc2)c2ccccc21
REMARK SMILES IDX 11 1 10 2 9 3 7 4 8 5 6 6 5 7 3 8 4 9 86 10 81 11 85 12
REMARK SMILES IDX 82 13 84 14 83 15 2 16 1 17 12 18 13 19 14 20 15 21 16 22
REMARK SMILES IDX 80 23 17 24 79 25 18 26 19 27 20 28 73 29 21 30 78 31 72 32
REMARK SMILES IDX 74 33 22 34 77 35 71 36 70 37 23 39 57 40 36 41 56 42 37 43
REMARK SMILES IDX 40 44 55 45 75 46 38 47 39 48 54 50 76 51 41 52 24 53 25 54
REMARK SMILES IDX 34 55 26 56 27 57 33 58 35 59 28 60 29 61 30 62 31 63 32 64
REMARK SMILES IDX 58 65 59 66 68 67 60 68 61 69 67 70 69 71 62 72 63 73 64 74
REMARK SMILES IDX 65 75 66 76 42 77 43 78 52 79 44 80 45 81 51 82 53 83 46 84
REMARK SMILES IDX 47 85 48 86 49 87 50 88
REMARK H PARENT 74 38 40 49
REMARK Flexibility Score: inf
ROOT
ATOM      1  C   UNL A   1      41.219  20.528  26.477  1.00  0.00     0.275 C 
ENDROOT
BRANCH   1   2
ATOM      2  C   UNL A   1      42.637  20.454  25.906  1.00  0.00     0.274 C 
BRANCH   2   3
ATOM      3  O   UNL A   1      43.084  21.762  25.489  1.00  0.00    -0.462 OA
BRANCH   3   4
ATOM      4  C   UNL A   1      44.283  21.797  24.855  1.00  0.00     0.310 C 
ATOM      5  O   UNL A   1      44.417  21.712  23.638  1.00  0.00    -0.252 OA
BRANCH   4   6
ATOM      6  C   UNL A   1      45.477  21.917  25.760  1.00  0.00     0.160 C 
BRANCH   6   7
ATOM      7  C   UNL A   1      45.631  23.103  26.662  1.00  0.00    -0.011 A 
ATOM      8  N   UNL A   1      45.994  25.252  27.162  1.00  0.00    -0.347 N 
ATOM      9  C   UNL A   1      46.231  24.272  26.241  1.00  0.00     0.091 A 
ATOM     10  C   UNL A   1      45.333  24.733  28.252  1.00  0.00     0.048 A 
ATOM     11  C   UNL A   1      45.106  23.377  27.976  1.00  0.00     0.003 A 
ATOM     12  C   UNL A   1      44.896  25.340  29.445  1.00  0.00     0.027 A 
ATOM     13  C   UNL A   1      44.427  22.626  28.958  1.00  0.00     0.010 A 
ATOM     14  C   UNL A   1      44.189  24.570  30.371  1.00  0.00     0.002 A 
ATOM     15  C   UNL A   1      43.951  23.226  30.130  1.00  0.00     0.001 A 
BRANCH   8  16
ATOM     16  C   UNL A   1      46.350  26.642  26.940  1.00  0.00     0.119 C 
ATOM     17  C   UNL A   1      47.637  26.784  26.141  1.00  0.00     0.027 C 
ENDBRANCH   8  16
ENDBRANCH   6   7
ENDBRANCH   4   6
ENDBRANCH   3   4
ENDBRANCH   2   3
ENDBRANCH   1   2
BRANCH   1  18
ATOM     18  O   UNL A   1      41.036  21.811  27.093  1.00  0.00    -0.458 OA
BRANCH  18  19
ATOM     19  C   UNL A   1      39.943  22.520  26.723  1.00  0.00     0.338 C 
ATOM     20  O   UNL A   1      38.853  22.084  26.391  1.00  0.00    -0.246 OA
BRANCH  19  21
ATOM     21  C   UNL A   1      40.214  23.914  27.117  1.00  0.00     0.060 A 
ATOM     22  C   UNL A   1      41.403  24.254  27.760  1.00  0.00     0.016 A 
ATOM     23  C   UNL A   1      39.164  24.836  27.019  1.00  0.00     0.016 A 
ATOM     24  C   UNL A   1      41.492  25.487  28.391  1.00  0.00     0.010 A 
ATOM     25  C   UNL A   1      39.232  26.042  27.694  1.00  0.00     0.010 A 
ATOM     26  C   UNL A   1      40.385  26.351  28.403  1.00  0.00    -0.014 A 
BRANCH  26  27
ATOM     27  C   UNL A   1      40.564  27.684  28.948  1.00  0.00     0.031 A 
ATOM     28  C   UNL A   1      41.681  28.422  28.320  1.00  0.00     0.074 A 
ATOM     29  C   UNL A   1      39.807  28.327  29.853  1.00  0.00     0.049 A 
ATOM     30  N   UNL A   1      42.865  28.586  28.804  1.00  0.00    -0.248 NA
ATOM     31  C   UNL A   1      41.502  28.928  26.956  1.00  0.00     0.031 C 
ATOM     32  C   UNL A   1      38.485  28.004  30.378  1.00  0.00     0.029 A 
ATOM     33  N   UNL A   1      40.116  29.505  30.466  1.00  0.00    -0.354 N 
ATOM     34  C   UNL A   1      43.549  29.362  27.882  1.00  0.00     0.074 A 
ATOM     35  C   UNL A   1      42.713  29.430  26.708  1.00  0.00     0.031 C 
ATOM     36  C   UNL A   1      38.035  29.054  31.109  1.00  0.00     0.029 A 
ATOM     37  C   UNL A   1      39.096  30.047  31.225  1.00  0.00     0.049 A 
ATOM     38  H   UNL A   1      40.996  29.936  30.376  1.00  0.00     0.167 HD
ATOM     39  C   UNL A   1      44.686  30.028  28.219  1.00  0.00     0.037 A 
ATOM     40  C   UNL A   1      39.135  31.241  31.868  1.00  0.00     0.037 A 
ATOM     41  C   UNL A   1      45.204  29.590  29.492  1.00  0.00     0.049 A 
ATOM     42  C   UNL A   1      40.567  31.570  32.112  1.00  0.00     0.074 A 
ATOM     43  C   UNL A   1      45.625  28.373  29.995  1.00  0.00     0.029 A 
ATOM     44  N   UNL A   1      44.988  30.389  30.591  1.00  0.00    -0.354 N 
ATOM     45  N   UNL A   1      41.345  30.915  32.932  1.00  0.00    -0.248 NA
ATOM     46  C   UNL A   1      41.262  32.412  31.148  1.00  0.00     0.031 C 
ATOM     47  C   UNL A   1      45.173  28.352  31.348  1.00  0.00     0.029 A 
ATOM     48  C   UNL A   1      44.534  29.569  31.596  1.00  0.00     0.049 A 
ATOM     49  H   UNL A   1      45.130  31.361  30.646  1.00  0.00     0.167 HD
ATOM     50  C   UNL A   1      42.597  30.932  32.336  1.00  0.00     0.074 A 
ATOM     51  C   UNL A   1      42.509  31.959  31.304  1.00  0.00     0.031 C 
ATOM     52  C   UNL A   1      43.510  29.937  32.553  1.00  0.00     0.037 A 
BRANCH  39  53
ATOM     53  C   UNL A   1      45.172  31.275  27.540  1.00  0.00     0.058 A 
ATOM     54  C   UNL A   1      46.450  31.289  26.950  1.00  0.00     0.135 A 
ATOM     55  C   UNL A   1      44.538  32.528  27.676  1.00  0.00     0.135 A 
ATOM     56  F   UNL A   1      47.139  30.149  26.783  1.00  0.00    -0.206 F 
ATOM     57  C   UNL A   1      47.084  32.474  26.585  1.00  0.00     0.059 A 
ATOM     58  C   UNL A   1      45.128  33.717  27.265  1.00  0.00     0.059 A 
ATOM     59  F   UNL A   1      43.362  32.664  28.303  1.00  0.00    -0.206 F 
ATOM     60  C   UNL A   1      46.421  33.685  26.767  1.00  0.00     0.060 A 
BRANCH  60  61
ATOM     61  S   UNL A   1      47.295  35.224  26.436  1.00  0.00     0.124 S 
ATOM     62  O   UNL A   1      46.186  36.161  26.302  1.00  0.00    -0.237 OA
ATOM     63  O   UNL A   1      48.118  35.373  27.633  1.00  0.00    -0.237 OA
ATOM     64  O   UNL A   1      48.031  34.935  25.209  1.00  0.00    -0.744 OA
ENDBRANCH  60  61
ENDBRANCH  39  53
BRANCH  40  65
ATOM     65  C   UNL A   1      38.040  32.225  32.057  1.00  0.00     0.058 A 
ATOM     66  C   UNL A   1      37.605  33.047  31.001  1.00  0.00     0.135 A 
ATOM     67  C   UNL A   1      37.212  32.188  33.196  1.00  0.00     0.135 A 
ATOM     68  F   UNL A   1      38.317  33.123  29.866  1.00  0.00    -0.206 F 
ATOM     69  C   UNL A   1      36.397  33.749  31.051  1.00  0.00     0.059 A 
ATOM     70  C   UNL A   1      36.009  32.890  33.274  1.00  0.00     0.059 A 
ATOM     71  F   UNL A   1      37.500  31.391  34.236  1.00  0.00    -0.206 F 
ATOM     72  C   UNL A   1      35.595  33.647  32.187  1.00  0.00     0.060 A 
BRANCH  72  73
ATOM     73  S   UNL A   1      33.958  34.415  32.188  1.00  0.00     0.124 S 
ATOM     74  O   UNL A   1      33.593  34.353  30.777  1.00  0.00    -0.237 OA
ATOM     75  O   UNL A   1      33.209  33.539  33.081  1.00  0.00    -0.237 OA
ATOM     76  O   UNL A   1      34.214  35.757  32.707  1.00  0.00    -0.744 OA
ENDBRANCH  72  73
ENDBRANCH  40  65
BRANCH  52  77
ATOM     77  C   UNL A   1      43.285  28.984  33.700  1.00  0.00     0.058 A 
ATOM     78  C   UNL A   1      43.648  29.250  35.032  1.00  0.00     0.135 A 
ATOM     79  C   UNL A   1      42.521  27.829  33.465  1.00  0.00     0.135 A 
ATOM     80  F   UNL A   1      44.286  30.382  35.361  1.00  0.00    -0.206 F 
ATOM     81  C   UNL A   1      43.296  28.391  36.076  1.00  0.00     0.059 A 
ATOM     82  C   UNL A   1      42.132  26.974  34.495  1.00  0.00     0.059 A 
ATOM     83  F   UNL A   1      42.092  27.545  32.223  1.00  0.00    -0.206 F 
ATOM     84  C   UNL A   1      42.531  27.258  35.799  1.00  0.00     0.060 A 
BRANCH  84  85
ATOM     85  S   UNL A   1      41.987  26.209  37.167  1.00  0.00     0.124 S 
ATOM     86  O   UNL A   1      43.046  26.410  38.149  1.00  0.00    -0.237 OA
ATOM     87  O   UNL A   1      40.688  26.782  37.510  1.00  0.00    -0.237 OA
ATOM     88  O   UNL A   1      41.930  24.876  36.574  1.00  0.00    -0.744 OA
ENDBRANCH  84  85
ENDBRANCH  52  77
ENDBRANCH  26  27
ENDBRANCH  19  21
ENDBRANCH  18  19
ENDBRANCH   1  18
TORSDOF 16
ENDMDL
MODEL 3
REMARK VINA RESULT:     -10.7      1.068      1.811
REMARK SMILES CCn1cc(CC(=O)OCCOC(=O)c2ccc(-c3c4nc(c(-c5c(F)cc(S(=O)(=O)[O-])cc5F)c5ccc([nH]5)c(-c5c(F)cc(S(=O)(=O)[O-])cc5F)c5nc(c(-c6c(F)cc(S(=O)(=O)[O-])cc6F)c6ccc3[nH]6)C=C5)C=C4)cc2)c2ccccc21
REMARK SMILES IDX 11 1 10 2 9 3 7 4 8 5 6 6 5 7 3 8 4 9 86 10 81 11 85 12
REMARK SMILES IDX 82 13 84 14 83 15 2 16 1 17 12 18 13 19 14 20 15 21 16 22
REMARK SMILES IDX 80 23 17 24 79 25 18 26 19 27 20 28 73 29 21 30 78 31 72 32
REMARK SMILES IDX 74 33 22 34 77 35 71 36 70 37 23 39 57 40 36 41 56 42 37 43
REMARK SMILES IDX 40 44 55 45 75 46 38 47 39 48 54 50 76 51 41 52 24 53 25 54
REMARK SMILES IDX 34 55 26 56 27 57 33 58 35 59 28 60 29 61 30 62 31 63 32 64
REMARK SMILES IDX 58 65 59 66 68 67 60 68 61 69 67 70 69 71 62 72 63 73 64 74
REMARK SMILES IDX 65 75 66 76 42 77 43 78 52 79 44 80 45 81 51 82 53 83 46 84
REMARK SMILES IDX 47 85 48 86 49 87 50 88
REMARK H PARENT 74 38 40 49
REMARK Flexibility Score: inf
ROOT
ATOM      1  C   UNL A   1      41.982  20.368  27.016  1.00  0.00     0.275 C 
ENDROOT
BRANCH   1   2
ATOM      2  C   UNL A   1      42.783  20.051  25.751  1.00  0.00     0.274 C 
BRANCH   2   3
ATOM      3  O   UNL A   1      44.109  20.615  25.836  1.00  0.00    -0.462 OA
BRANCH   3   4
ATOM      4  C   UNL A   1      44.774  20.732  24.660  1.00  0.00     0.310 C 
ATOM      5  O   UNL A   1      44.529  20.058  23.664  1.00  0.00    -0.252 OA
BRANCH   4   6
ATOM      6  C   UNL A   1      45.887  21.743  24.657  1.00  0.00     0.160 C 
BRANCH   6   7
ATOM      7  C   UNL A   1      45.748  23.028  25.415  1.00  0.00    -0.011 A 
ATOM      8  N   UNL A   1      46.471  24.835  26.515  1.00  0.00    -0.347 N 
ATOM      9  C   UNL A   1      46.782  23.552  26.164  1.00  0.00     0.091 A 
ATOM     10  C   UNL A   1      45.195  25.147  26.105  1.00  0.00     0.048 A 
ATOM     11  C   UNL A   1      44.706  24.022  25.424  1.00  0.00     0.003 A 
ATOM     12  C   UNL A   1      44.437  26.324  26.251  1.00  0.00     0.027 A 
ATOM     13  C   UNL A   1      43.400  24.107  24.898  1.00  0.00     0.010 A 
ATOM     14  C   UNL A   1      43.166  26.382  25.676  1.00  0.00     0.002 A 
ATOM     15  C   UNL A   1      42.651  25.286  25.000  1.00  0.00     0.001 A 
BRANCH   8  16
ATOM     16  C   UNL A   1      47.418  25.722  27.167  1.00  0.00     0.119 C 
ATOM     17  C   UNL A   1      48.845  25.203  27.080  1.00  0.00     0.027 C 
ENDBRANCH   8  16
ENDBRANCH   6   7
ENDBRANCH   4   6
ENDBRANCH   3   4
ENDBRANCH   2   3
ENDBRANCH   1   2
BRANCH   1  18
ATOM     18  O   UNL A   1      41.825  21.790  27.119  1.00  0.00    -0.458 OA
BRANCH  18  19
ATOM     19  C   UNL A   1      40.657  22.313  26.676  1.00  0.00     0.338 C 
ATOM     20  O   UNL A   1      39.782  21.744  26.045  1.00  0.00    -0.246 OA
BRANCH  19  21
ATOM     21  C   UNL A   1      40.494  23.595  27.386  1.00  0.00     0.060 A 
ATOM     22  C   UNL A   1      39.489  24.489  27.019  1.00  0.00     0.016 A 
ATOM     23  C   UNL A   1      41.497  23.975  28.286  1.00  0.00     0.016 A 
ATOM     24  C   UNL A   1      39.557  25.796  27.481  1.00  0.00     0.010 A 
ATOM     25  C   UNL A   1      41.595  25.292  28.703  1.00  0.00     0.010 A 
ATOM     26  C   UNL A   1      40.641  26.205  28.274  1.00  0.00    -0.014 A 
BRANCH  26  27
ATOM     27  C   UNL A   1      40.602  27.535  28.853  1.00  0.00     0.031 A 
ATOM     28  C   UNL A   1      41.617  28.446  28.284  1.00  0.00     0.074 A 
ATOM     29  C   UNL A   1      39.728  28.035  29.742  1.00  0.00     0.049 A 
ATOM     30  N   UNL A   1      42.747  28.770  28.815  1.00  0.00    -0.248 NA
ATOM     31  C   UNL A   1      41.412  28.956  26.924  1.00  0.00     0.031 C 
ATOM     32  C   UNL A   1      38.451  27.506  30.210  1.00  0.00     0.029 A 
ATOM     33  N   UNL A   1      39.837  29.229  30.391  1.00  0.00    -0.354 N 
ATOM     34  C   UNL A   1      43.339  29.663  27.937  1.00  0.00     0.074 A 
ATOM     35  C   UNL A   1      42.543  29.638  26.733  1.00  0.00     0.031 C 
ATOM     36  C   UNL A   1      37.825  28.458  30.946  1.00  0.00     0.029 A 
ATOM     37  C   UNL A   1      38.722  29.594  31.122  1.00  0.00     0.049 A 
ATOM     38  H   UNL A   1      40.646  29.787  30.343  1.00  0.00     0.167 HD
ATOM     39  C   UNL A   1      44.353  30.480  28.330  1.00  0.00     0.037 A 
ATOM     40  C   UNL A   1      38.561  30.763  31.792  1.00  0.00     0.037 A 
ATOM     41  C   UNL A   1      44.886  30.091  29.612  1.00  0.00     0.049 A 
ATOM     42  C   UNL A   1      39.920  31.294  32.097  1.00  0.00     0.074 A 
ATOM     43  C   UNL A   1      45.466  28.936  30.105  1.00  0.00     0.029 A 
ATOM     44  N   UNL A   1      44.516  30.820  30.718  1.00  0.00    -0.354 N 
ATOM     45  N   UNL A   1      40.758  30.739  32.931  1.00  0.00    -0.248 NA
ATOM     46  C   UNL A   1      40.515  32.254  31.177  1.00  0.00     0.031 C 
ATOM     47  C   UNL A   1      44.975  28.813  31.439  1.00  0.00     0.029 A 
ATOM     48  C   UNL A   1      44.155  29.915  31.688  1.00  0.00     0.049 A 
ATOM     49  H   UNL A   1      44.510  31.800  30.799  1.00  0.00     0.167 HD
ATOM     50  C   UNL A   1      42.013  30.957  32.384  1.00  0.00     0.074 A 
ATOM     51  C   UNL A   1      41.809  31.987  31.371  1.00  0.00     0.031 C 
ATOM     52  C   UNL A   1      43.055  30.102  32.613  1.00  0.00     0.037 A 
BRANCH  39  53
ATOM     53  C   UNL A   1      44.671  31.803  27.696  1.00  0.00     0.058 A 
ATOM     54  C   UNL A   1      45.853  31.943  26.944  1.00  0.00     0.135 A 
ATOM     55  C   UNL A   1      43.994  32.998  28.017  1.00  0.00     0.135 A 
ATOM     56  F   UNL A   1      46.573  30.866  26.595  1.00  0.00    -0.206 F 
ATOM     57  C   UNL A   1      46.364  33.191  26.595  1.00  0.00     0.059 A 
ATOM     58  C   UNL A   1      44.456  34.250  27.630  1.00  0.00     0.059 A 
ATOM     59  F   UNL A   1      42.910  33.011  28.804  1.00  0.00    -0.206 F 
ATOM     60  C   UNL A   1      45.667  34.339  26.963  1.00  0.00     0.060 A 
BRANCH  60  61
ATOM     61  S   UNL A   1      46.402  35.953  26.644  1.00  0.00     0.124 S 
ATOM     62  O   UNL A   1      47.258  36.114  27.814  1.00  0.00    -0.237 OA
ATOM     63  O   UNL A   1      47.088  35.732  25.375  1.00  0.00    -0.237 OA
ATOM     64  O   UNL A   1      45.245  36.841  26.579  1.00  0.00    -0.744 OA
ENDBRANCH  60  61
ENDBRANCH  39  53
BRANCH  40  65
ATOM     65  C   UNL A   1      37.327  31.570  31.960  1.00  0.00     0.058 A 
ATOM     66  C   UNL A   1      36.867  31.946  33.235  1.00  0.00     0.135 A 
ATOM     67  C   UNL A   1      36.726  32.224  30.866  1.00  0.00     0.135 A 
ATOM     68  F   UNL A   1      37.401  31.395  34.337  1.00  0.00    -0.206 F 
ATOM     69  C   UNL A   1      35.906  32.946  33.418  1.00  0.00     0.059 A 
ATOM     70  C   UNL A   1      35.757  33.215  31.022  1.00  0.00     0.059 A 
ATOM     71  F   UNL A   1      37.132  31.987  29.610  1.00  0.00    -0.206 F 
ATOM     72  C   UNL A   1      35.372  33.590  32.303  1.00  0.00     0.060 A 
BRANCH  72  73
ATOM     73  S   UNL A   1      34.258  34.994  32.539  1.00  0.00     0.124 S 
ATOM     74  O   UNL A   1      33.002  34.331  32.876  1.00  0.00    -0.237 OA
ATOM     75  O   UNL A   1      34.908  35.721  33.624  1.00  0.00    -0.237 OA
ATOM     76  O   UNL A   1      34.279  35.666  31.242  1.00  0.00    -0.744 OA
ENDBRANCH  72  73
ENDBRANCH  40  65
BRANCH  52  77
ATOM     77  C   UNL A   1      42.936  29.096  33.731  1.00  0.00     0.058 A 
ATOM     78  C   UNL A   1      43.286  29.354  35.067  1.00  0.00     0.135 A 
ATOM     79  C   UNL A   1      42.283  27.881  33.465  1.00  0.00     0.135 A 
ATOM     80  F   UNL A   1      43.817  30.531  35.427  1.00  0.00    -0.206 F 
ATOM     81  C   UNL A   1      43.030  28.433  36.086  1.00  0.00     0.059 A 
ATOM     82  C   UNL A   1      41.989  26.961  34.470  1.00  0.00     0.059 A 
ATOM     83  F   UNL A   1      41.869  27.597  32.218  1.00  0.00    -0.206 F 
ATOM     84  C   UNL A   1      42.374  27.241  35.779  1.00  0.00     0.060 A 
BRANCH  84  85
ATOM     85  S   UNL A   1      41.947  26.103  37.117  1.00  0.00     0.124 S 
ATOM     86  O   UNL A   1      40.599  26.534  37.469  1.00  0.00    -0.237 OA
ATOM     87  O   UNL A   1      42.047  24.798  36.469  1.00  0.00    -0.237 OA
ATOM     88  O   UNL A   1      42.969  26.364  38.128  1.00  0.00    -0.744 OA
ENDBRANCH  84  85
ENDBRANCH  52  77
ENDBRANCH  26  27
ENDBRANCH  19  21
ENDBRANCH  18  19
ENDBRANCH   1  18
TORSDOF 16
ENDMDL
