MODEL 1
REMARK VINA RESULT:     -11.7      0.000      0.000
REMARK SMILES O=C(CCC(=O)N1CCC(c2nnc3ccccn23)CC1)OCCOC(=O)c1ccc(-c2c3nc(c(-c4c(F)cc(S(=O)(=O)[O-])cc4F)c4ccc([nH]4)c(-c4c(F)cc(S(=O)(=O)[O-])cc4F)c4nc(c(-c5c(F)cc(S(=O)(=O)[O-])cc5F)c5ccc2[nH]5)C=C4)C=C3)cc1
REMARK SMILES IDX 23 1 22 2 2 3 1 4 3 5 4 6 5 7 6 8 7 9 8 10 21 11 9 12 20 13
REMARK SMILES IDX 10 14 11 15 12 16 19 17 13 18 14 19 18 20 15 21 17 22 16 23
REMARK SMILES IDX 24 24 25 25 26 26 27 27 28 28 29 29 93 30 30 31 92 32 31 33
REMARK SMILES IDX 32 34 33 35 86 36 34 37 91 38 85 39 87 40 35 41 90 42 84 43
REMARK SMILES IDX 83 44 36 46 70 47 49 48 69 49 50 50 53 51 68 52 88 53 51 54
REMARK SMILES IDX 52 55 67 57 89 58 54 59 37 60 38 61 47 62 39 63 40 64 46 65
REMARK SMILES IDX 48 66 41 67 42 68 43 69 44 70 45 71 71 72 72 73 81 74 73 75
REMARK SMILES IDX 74 76 80 77 82 78 75 79 76 80 77 81 78 82 79 83 55 84 56 85
REMARK SMILES IDX 65 86 57 87 58 88 64 89 66 90 59 91 60 92 61 93 62 94 63 95
REMARK H PARENT 87 45 53 56
REMARK Flexibility Score: inf
ROOT
ATOM      1  C   UNL A   1      32.107  30.419  25.889  1.00  0.00     0.274 C 
ENDROOT
BRANCH   1   2
ATOM      2  O   UNL A   1      32.221  29.105  25.289  1.00  0.00    -0.462 OA
BRANCH   2   3
ATOM      3  C   UNL A   1      31.279  28.434  24.598  1.00  0.00     0.306 C 
ATOM      4  O   UNL A   1      30.800  28.919  23.573  1.00  0.00    -0.252 OA
BRANCH   3   5
ATOM      5  C   UNL A   1      30.940  27.029  24.994  1.00  0.00     0.132 C 
BRANCH   5   6
ATOM      6  C   UNL A   1      31.671  26.681  26.278  1.00  0.00     0.112 C 
BRANCH   6   7
ATOM      7  C   UNL A   1      32.759  25.655  26.048  1.00  0.00     0.223 C 
ATOM      8  O   UNL A   1      33.828  26.013  25.547  1.00  0.00    -0.275 OA
ATOM      9  N   UNL A   1      32.540  24.343  26.433  1.00  0.00    -0.343 N 
ATOM     10  C   UNL A   1      33.689  23.460  26.544  1.00  0.00     0.120 C 
ATOM     11  C   UNL A   1      31.244  23.671  26.575  1.00  0.00     0.120 C 
ATOM     12  C   UNL A   1      33.638  22.398  25.463  1.00  0.00     0.033 C 
ATOM     13  C   UNL A   1      31.106  22.536  25.547  1.00  0.00     0.033 C 
ATOM     14  C   UNL A   1      32.325  21.598  25.549  1.00  0.00     0.062 C 
BRANCH  14  15
ATOM     15  C   UNL A   1      32.287  20.604  24.425  1.00  0.00     0.140 A 
ATOM     16  N   UNL A   1      32.115  20.860  23.141  1.00  0.00    -0.134 NA
ATOM     17  N   UNL A   1      32.556  19.260  24.583  1.00  0.00    -0.286 N 
ATOM     18  N   UNL A   1      32.282  19.688  22.437  1.00  0.00    -0.130 NA
ATOM     19  C   UNL A   1      32.563  18.738  23.298  1.00  0.00     0.160 A 
ATOM     20  C   UNL A   1      32.820  18.496  25.720  1.00  0.00     0.095 A 
ATOM     21  C   UNL A   1      32.871  17.357  23.151  1.00  0.00     0.050 A 
ATOM     22  C   UNL A   1      33.106  17.191  25.581  1.00  0.00     0.019 A 
ATOM     23  C   UNL A   1      33.135  16.614  24.244  1.00  0.00     0.005 A 
ENDBRANCH  14  15
ENDBRANCH   6   7
ENDBRANCH   5   6
ENDBRANCH   3   5
ENDBRANCH   2   3
ENDBRANCH   1   2
BRANCH   1  24
ATOM     24  C   UNL A   1      32.735  30.383  27.279  1.00  0.00     0.275 C 
BRANCH  24  25
ATOM     25  O   UNL A   1      34.128  30.700  27.143  1.00  0.00    -0.458 OA
BRANCH  25  26
ATOM     26  C   UNL A   1      34.721  31.197  28.258  1.00  0.00     0.338 C 
ATOM     27  O   UNL A   1      34.233  31.958  29.074  1.00  0.00    -0.246 OA
BRANCH  26  28
ATOM     28  C   UNL A   1      36.003  30.487  28.440  1.00  0.00     0.060 A 
ATOM     29  C   UNL A   1      36.325  30.003  29.716  1.00  0.00     0.016 A 
ATOM     30  C   UNL A   1      36.868  30.277  27.362  1.00  0.00     0.016 A 
ATOM     31  C   UNL A   1      37.538  29.350  29.926  1.00  0.00     0.010 A 
ATOM     32  C   UNL A   1      38.081  29.629  27.572  1.00  0.00     0.010 A 
ATOM     33  C   UNL A   1      38.436  29.201  28.862  1.00  0.00    -0.014 A 
BRANCH  33  34
ATOM     34  C   UNL A   1      39.842  28.822  29.112  1.00  0.00     0.031 A 
ATOM     35  C   UNL A   1      40.766  29.890  29.627  1.00  0.00     0.074 A 
ATOM     36  C   UNL A   1      40.292  27.588  28.830  1.00  0.00     0.049 A 
ATOM     37  N   UNL A   1      42.057  29.853  29.812  1.00  0.00    -0.248 NA
ATOM     38  C   UNL A   1      40.146  31.185  29.961  1.00  0.00     0.031 C 
ATOM     39  C   UNL A   1      39.475  26.481  28.336  1.00  0.00     0.029 A 
ATOM     40  N   UNL A   1      41.559  27.072  28.895  1.00  0.00    -0.354 N 
ATOM     41  C   UNL A   1      42.406  31.116  30.274  1.00  0.00     0.074 A 
ATOM     42  C   UNL A   1      41.197  31.907  30.314  1.00  0.00     0.031 C 
ATOM     43  C   UNL A   1      40.271  25.419  28.117  1.00  0.00     0.029 A 
ATOM     44  C   UNL A   1      41.652  25.783  28.431  1.00  0.00     0.049 A 
ATOM     45  H   UNL A   1      42.330  27.577  29.242  1.00  0.00     0.167 HD
ATOM     46  C   UNL A   1      43.625  31.571  30.641  1.00  0.00     0.037 A 
ATOM     47  C   UNL A   1      42.736  25.001  28.260  1.00  0.00     0.037 A 
ATOM     48  C   UNL A   1      44.820  30.776  30.588  1.00  0.00     0.049 A 
ATOM     49  C   UNL A   1      44.093  25.542  28.635  1.00  0.00     0.074 A 
ATOM     50  C   UNL A   1      46.106  31.125  30.953  1.00  0.00     0.029 A 
ATOM     51  N   UNL A   1      44.873  29.467  30.129  1.00  0.00    -0.354 N 
ATOM     52  N   UNL A   1      44.407  26.725  29.110  1.00  0.00    -0.248 NA
ATOM     53  C   UNL A   1      45.241  24.643  28.455  1.00  0.00     0.031 C 
ATOM     54  C   UNL A   1      46.946  30.040  30.677  1.00  0.00     0.029 A 
ATOM     55  C   UNL A   1      46.174  28.999  30.183  1.00  0.00     0.049 A 
ATOM     56  H   UNL A   1      44.099  28.948  29.810  1.00  0.00     0.167 HD
ATOM     57  C   UNL A   1      45.783  26.703  29.312  1.00  0.00     0.074 A 
ATOM     58  C   UNL A   1      46.240  25.386  28.913  1.00  0.00     0.031 C 
ATOM     59  C   UNL A   1      46.596  27.679  29.788  1.00  0.00     0.037 A 
BRANCH  46  60
ATOM     60  C   UNL A   1      43.717  32.996  31.107  1.00  0.00     0.058 A 
ATOM     61  C   UNL A   1      43.950  34.051  30.210  1.00  0.00     0.135 A 
ATOM     62  C   UNL A   1      43.572  33.312  32.467  1.00  0.00     0.135 A 
ATOM     63  F   UNL A   1      44.120  33.800  28.902  1.00  0.00    -0.206 F 
ATOM     64  C   UNL A   1      44.064  35.366  30.648  1.00  0.00     0.059 A 
ATOM     65  C   UNL A   1      43.658  34.624  32.924  1.00  0.00     0.059 A 
ATOM     66  F   UNL A   1      43.358  32.341  33.369  1.00  0.00    -0.206 F 
ATOM     67  C   UNL A   1      43.919  35.642  32.008  1.00  0.00     0.060 A 
BRANCH  67  68
ATOM     68  S   UNL A   1      44.072  37.353  32.563  1.00  0.00     0.124 S 
ATOM     69  O   UNL A   1      45.442  37.377  33.062  1.00  0.00    -0.237 OA
ATOM     70  O   UNL A   1      43.831  38.104  31.335  1.00  0.00    -0.237 OA
ATOM     71  O   UNL A   1      43.031  37.474  33.581  1.00  0.00    -0.744 OA
ENDBRANCH  67  68
ENDBRANCH  46  60
BRANCH  47  72
ATOM     72  C   UNL A   1      42.585  23.629  27.706  1.00  0.00     0.058 A 
ATOM     73  C   UNL A   1      42.532  23.411  26.322  1.00  0.00     0.135 A 
ATOM     74  C   UNL A   1      42.500  22.510  28.547  1.00  0.00     0.135 A 
ATOM     75  F   UNL A   1      42.599  24.451  25.476  1.00  0.00    -0.206 F 
ATOM     76  C   UNL A   1      42.386  22.133  25.790  1.00  0.00     0.059 A 
ATOM     77  C   UNL A   1      42.377  21.219  28.039  1.00  0.00     0.059 A 
ATOM     78  F   UNL A   1      42.557  22.663  29.879  1.00  0.00    -0.206 F 
ATOM     79  C   UNL A   1      42.312  21.042  26.658  1.00  0.00     0.060 A 
BRANCH  79  80
ATOM     80  S   UNL A   1      42.177  19.383  25.955  1.00  0.00     0.124 S 
ATOM     81  O   UNL A   1      40.749  19.299  25.672  1.00  0.00    -0.237 OA
ATOM     82  O   UNL A   1      43.056  19.469  24.793  1.00  0.00    -0.237 OA
ATOM     83  O   UNL A   1      42.659  18.524  27.032  1.00  0.00    -0.744 OA
ENDBRANCH  79  80
ENDBRANCH  47  72
BRANCH  59  84
ATOM     84  C   UNL A   1      48.056  27.351  29.937  1.00  0.00     0.058 A 
ATOM     85  C   UNL A   1      48.987  27.666  28.937  1.00  0.00     0.135 A 
ATOM     86  C   UNL A   1      48.534  26.782  31.129  1.00  0.00     0.135 A 
ATOM     87  F   UNL A   1      48.579  28.208  27.779  1.00  0.00    -0.206 F 
ATOM     88  C   UNL A   1      50.345  27.411  29.106  1.00  0.00     0.059 A 
ATOM     89  C   UNL A   1      49.889  26.541  31.328  1.00  0.00     0.059 A 
ATOM     90  F   UNL A   1      47.683  26.475  32.121  1.00  0.00    -0.206 F 
ATOM     91  C   UNL A   1      50.786  26.850  30.307  1.00  0.00     0.060 A 
BRANCH  91  92
ATOM     92  S   UNL A   1      52.554  26.564  30.532  1.00  0.00     0.124 S 
ATOM     93  O   UNL A   1      52.977  27.819  31.145  1.00  0.00    -0.237 OA
ATOM     94  O   UNL A   1      52.575  25.394  31.405  1.00  0.00    -0.237 OA
ATOM     95  O   UNL A   1      53.036  26.335  29.174  1.00  0.00    -0.744 OA
ENDBRANCH  91  92
ENDBRANCH  59  84
ENDBRANCH  33  34
ENDBRANCH  26  28
ENDBRANCH  25  26
ENDBRANCH  24  25
ENDBRANCH   1  24
TORSDOF 17
ENDMDL
MODEL 2
REMARK VINA RESULT:     -11.4      1.406      2.039
REMARK SMILES O=C(CCC(=O)N1CCC(c2nnc3ccccn23)CC1)OCCOC(=O)c1ccc(-c2c3nc(c(-c4c(F)cc(S(=O)(=O)[O-])cc4F)c4ccc([nH]4)c(-c4c(F)cc(S(=O)(=O)[O-])cc4F)c4nc(c(-c5c(F)cc(S(=O)(=O)[O-])cc5F)c5ccc2[nH]5)C=C4)C=C3)cc1
REMARK SMILES IDX 23 1 22 2 2 3 1 4 3 5 4 6 5 7 6 8 7 9 8 10 21 11 9 12 20 13
REMARK SMILES IDX 10 14 11 15 12 16 19 17 13 18 14 19 18 20 15 21 17 22 16 23
REMARK SMILES IDX 24 24 25 25 26 26 27 27 28 28 29 29 93 30 30 31 92 32 31 33
REMARK SMILES IDX 32 34 33 35 86 36 34 37 91 38 85 39 87 40 35 41 90 42 84 43
REMARK SMILES IDX 83 44 36 46 70 47 49 48 69 49 50 50 53 51 68 52 88 53 51 54
REMARK SMILES IDX 52 55 67 57 89 58 54 59 37 60 38 61 47 62 39 63 40 64 46 65
REMARK SMILES IDX 48 66 41 67 42 68 43 69 44 70 45 71 71 72 72 73 81 74 73 75
REMARK SMILES IDX 74 76 80 77 82 78 75 79 76 80 77 81 78 82 79 83 55 84 56 85
REMARK SMILES IDX 65 86 57 87 58 88 64 89 66 90 59 91 60 92 61 93 62 94 63 95
REMARK H PARENT 87 45 53 56
REMARK Flexibility Score: inf
ROOT
ATOM      1  C   UNL A   1      31.910  30.803  26.234  1.00  0.00     0.274 C 
ENDROOT
BRANCH   1   2
ATOM      2  O   UNL A   1      31.352  29.798  25.352  1.00  0.00    -0.462 OA
BRANCH   2   3
ATOM      3  C   UNL A   1      30.412  29.968  24.403  1.00  0.00     0.306 C 
ATOM      4  O   UNL A   1      29.796  31.031  24.327  1.00  0.00    -0.252 OA
BRANCH   3   5
ATOM      5  C   UNL A   1      30.240  28.923  23.343  1.00  0.00     0.132 C 
BRANCH   5   6
ATOM      6  C   UNL A   1      30.471  27.551  23.952  1.00  0.00     0.112 C 
BRANCH   6   7
ATOM      7  C   UNL A   1      31.927  27.146  23.896  1.00  0.00     0.223 C 
ATOM      8  O   UNL A   1      32.580  27.390  22.877  1.00  0.00    -0.275 OA
ATOM      9  N   UNL A   1      32.502  26.540  25.000  1.00  0.00    -0.343 N 
ATOM     10  C   UNL A   1      33.952  26.486  25.076  1.00  0.00     0.120 C 
ATOM     11  C   UNL A   1      31.812  25.771  26.041  1.00  0.00     0.120 C 
ATOM     12  C   UNL A   1      34.429  25.053  24.935  1.00  0.00     0.033 C 
ATOM     13  C   UNL A   1      32.261  24.301  26.017  1.00  0.00     0.033 C 
ATOM     14  C   UNL A   1      33.793  24.160  26.016  1.00  0.00     0.062 C 
BRANCH  14  15
ATOM     15  C   UNL A   1      34.240  22.744  25.801  1.00  0.00     0.140 A 
ATOM     16  N   UNL A   1      33.473  21.688  25.600  1.00  0.00    -0.134 NA
ATOM     17  N   UNL A   1      35.562  22.372  25.663  1.00  0.00    -0.286 N 
ATOM     18  N   UNL A   1      34.281  20.610  25.314  1.00  0.00    -0.130 NA
ATOM     19  C   UNL A   1      35.527  21.025  25.334  1.00  0.00     0.160 A 
ATOM     20  C   UNL A   1      36.745  23.104  25.766  1.00  0.00     0.095 A 
ATOM     21  C   UNL A   1      36.767  20.378  25.077  1.00  0.00     0.050 A 
ATOM     22  C   UNL A   1      37.917  22.491  25.527  1.00  0.00     0.019 A 
ATOM     23  C   UNL A   1      37.914  21.081  25.167  1.00  0.00     0.005 A 
ENDBRANCH  14  15
ENDBRANCH   6   7
ENDBRANCH   5   6
ENDBRANCH   3   5
ENDBRANCH   2   3
ENDBRANCH   1   2
BRANCH   1  24
ATOM     24  C   UNL A   1      32.799  30.116  27.266  1.00  0.00     0.275 C 
BRANCH  24  25
ATOM     25  O   UNL A   1      34.139  30.600  27.087  1.00  0.00    -0.458 OA
BRANCH  25  26
ATOM     26  C   UNL A   1      34.725  31.108  28.201  1.00  0.00     0.338 C 
ATOM     27  O   UNL A   1      34.228  31.870  29.011  1.00  0.00    -0.246 OA
BRANCH  26  28
ATOM     28  C   UNL A   1      36.012  30.410  28.391  1.00  0.00     0.060 A 
ATOM     29  C   UNL A   1      36.340  29.948  29.672  1.00  0.00     0.016 A 
ATOM     30  C   UNL A   1      36.875  30.188  27.313  1.00  0.00     0.016 A 
ATOM     31  C   UNL A   1      37.558  29.306  29.889  1.00  0.00     0.010 A 
ATOM     32  C   UNL A   1      38.092  29.551  27.529  1.00  0.00     0.010 A 
ATOM     33  C   UNL A   1      38.453  29.146  28.825  1.00  0.00    -0.014 A 
BRANCH  33  34
ATOM     34  C   UNL A   1      39.863  28.779  29.077  1.00  0.00     0.031 A 
ATOM     35  C   UNL A   1      40.774  29.854  29.600  1.00  0.00     0.074 A 
ATOM     36  C   UNL A   1      40.326  27.551  28.790  1.00  0.00     0.049 A 
ATOM     37  N   UNL A   1      42.066  29.829  29.787  1.00  0.00    -0.248 NA
ATOM     38  C   UNL A   1      40.141  31.141  29.938  1.00  0.00     0.031 C 
ATOM     39  C   UNL A   1      39.521  26.439  28.288  1.00  0.00     0.029 A 
ATOM     40  N   UNL A   1      41.598  27.047  28.856  1.00  0.00    -0.354 N 
ATOM     41  C   UNL A   1      42.400  31.093  30.257  1.00  0.00     0.074 A 
ATOM     42  C   UNL A   1      41.184  31.872  30.297  1.00  0.00     0.031 C 
ATOM     43  C   UNL A   1      40.328  25.386  28.067  1.00  0.00     0.029 A 
ATOM     44  C   UNL A   1      41.704  25.762  28.385  1.00  0.00     0.049 A 
ATOM     45  H   UNL A   1      42.363  27.558  29.207  1.00  0.00     0.167 HD
ATOM     46  C   UNL A   1      43.614  31.558  30.629  1.00  0.00     0.037 A 
ATOM     47  C   UNL A   1      42.797  24.992  28.213  1.00  0.00     0.037 A 
ATOM     48  C   UNL A   1      44.817  30.775  30.575  1.00  0.00     0.049 A 
ATOM     49  C   UNL A   1      44.147  25.545  28.595  1.00  0.00     0.074 A 
ATOM     50  C   UNL A   1      46.099  31.136  30.945  1.00  0.00     0.029 A 
ATOM     51  N   UNL A   1      44.885  29.469  30.109  1.00  0.00    -0.354 N 
ATOM     52  N   UNL A   1      44.448  26.728  29.076  1.00  0.00    -0.248 NA
ATOM     53  C   UNL A   1      45.305  24.658  28.413  1.00  0.00     0.031 C 
ATOM     54  C   UNL A   1      46.950  30.060  30.666  1.00  0.00     0.029 A 
ATOM     55  C   UNL A   1      46.190  29.014  30.165  1.00  0.00     0.049 A 
ATOM     56  H   UNL A   1      44.117  28.944  29.787  1.00  0.00     0.167 HD
ATOM     57  C   UNL A   1      45.824  26.719  29.281  1.00  0.00     0.074 A 
ATOM     58  C   UNL A   1      46.295  25.409  28.877  1.00  0.00     0.031 C 
ATOM     59  C   UNL A   1      46.627  27.701  29.764  1.00  0.00     0.037 A 
BRANCH  46  60
ATOM     60  C   UNL A   1      43.691  32.982  31.102  1.00  0.00     0.058 A 
ATOM     61  C   UNL A   1      43.986  34.036  30.222  1.00  0.00     0.135 A 
ATOM     62  C   UNL A   1      43.469  33.297  32.452  1.00  0.00     0.135 A 
ATOM     63  F   UNL A   1      44.230  33.785  28.926  1.00  0.00    -0.206 F 
ATOM     64  C   UNL A   1      44.085  35.349  30.669  1.00  0.00     0.059 A 
ATOM     65  C   UNL A   1      43.539  34.608  32.916  1.00  0.00     0.059 A 
ATOM     66  F   UNL A   1      43.194  32.327  33.338  1.00  0.00    -0.206 F 
ATOM     67  C   UNL A   1      43.862  35.625  32.018  1.00  0.00     0.060 A 
BRANCH  67  68
ATOM     68  S   UNL A   1      43.997  37.334  32.584  1.00  0.00     0.124 S 
ATOM     69  O   UNL A   1      45.374  37.375  33.065  1.00  0.00    -0.237 OA
ATOM     70  O   UNL A   1      43.728  38.090  31.366  1.00  0.00    -0.237 OA
ATOM     71  O   UNL A   1      42.968  37.432  33.617  1.00  0.00    -0.744 OA
ENDBRANCH  67  68
ENDBRANCH  46  60
BRANCH  47  72
ATOM     72  C   UNL A   1      42.661  23.621  27.653  1.00  0.00     0.058 A 
ATOM     73  C   UNL A   1      42.478  22.513  28.492  1.00  0.00     0.135 A 
ATOM     74  C   UNL A   1      42.705  23.392  26.269  1.00  0.00     0.135 A 
ATOM     75  F   UNL A   1      42.440  22.679  29.823  1.00  0.00    -0.206 F 
ATOM     76  C   UNL A   1      42.355  21.224  27.982  1.00  0.00     0.059 A 
ATOM     77  C   UNL A   1      42.562  22.115  25.733  1.00  0.00     0.059 A 
ATOM     78  F   UNL A   1      42.868  24.420  25.422  1.00  0.00    -0.206 F 
ATOM     79  C   UNL A   1      42.396  21.036  26.599  1.00  0.00     0.060 A 
BRANCH  79  80
ATOM     80  S   UNL A   1      42.181  19.365  25.945  1.00  0.00     0.124 S 
ATOM     81  O   UNL A   1      40.740  19.319  25.725  1.00  0.00    -0.237 OA
ATOM     82  O   UNL A   1      43.010  19.396  24.744  1.00  0.00    -0.237 OA
ATOM     83  O   UNL A   1      42.684  18.518  27.021  1.00  0.00    -0.744 OA
ENDBRANCH  79  80
ENDBRANCH  47  72
BRANCH  59  84
ATOM     84  C   UNL A   1      48.089  27.387  29.915  1.00  0.00     0.058 A 
ATOM     85  C   UNL A   1      49.028  27.765  28.945  1.00  0.00     0.135 A 
ATOM     86  C   UNL A   1      48.561  26.765  31.083  1.00  0.00     0.135 A 
ATOM     87  F   UNL A   1      48.625  28.358  27.810  1.00  0.00    -0.206 F 
ATOM     88  C   UNL A   1      50.386  27.521  29.118  1.00  0.00     0.059 A 
ATOM     89  C   UNL A   1      49.917  26.534  31.287  1.00  0.00     0.059 A 
ATOM     90  F   UNL A   1      47.703  26.395  32.047  1.00  0.00    -0.206 F 
ATOM     91  C   UNL A   1      50.821  26.906  30.294  1.00  0.00     0.060 A 
BRANCH  91  92
ATOM     92  S   UNL A   1      52.591  26.635  30.528  1.00  0.00     0.124 S 
ATOM     93  O   UNL A   1      53.051  27.980  30.861  1.00  0.00    -0.237 OA
ATOM     94  O   UNL A   1      52.619  25.668  31.621  1.00  0.00    -0.237 OA
ATOM     95  O   UNL A   1      53.029  26.123  29.234  1.00  0.00    -0.744 OA
ENDBRANCH  91  92
ENDBRANCH  59  84
ENDBRANCH  33  34
ENDBRANCH  26  28
ENDBRANCH  25  26
ENDBRANCH  24  25
ENDBRANCH   1  24
TORSDOF 17
ENDMDL
MODEL 3
REMARK VINA RESULT:     -11.2      2.956      4.511
REMARK SMILES O=C(CCC(=O)N1CCC(c2nnc3ccccn23)CC1)OCCOC(=O)c1ccc(-c2c3nc(c(-c4c(F)cc(S(=O)(=O)[O-])cc4F)c4ccc([nH]4)c(-c4c(F)cc(S(=O)(=O)[O-])cc4F)c4nc(c(-c5c(F)cc(S(=O)(=O)[O-])cc5F)c5ccc2[nH]5)C=C4)C=C3)cc1
REMARK SMILES IDX 23 1 22 2 2 3 1 4 3 5 4 6 5 7 6 8 7 9 8 10 21 11 9 12 20 13
REMARK SMILES IDX 10 14 11 15 12 16 19 17 13 18 14 19 18 20 15 21 17 22 16 23
REMARK SMILES IDX 24 24 25 25 26 26 27 27 28 28 29 29 93 30 30 31 92 32 31 33
REMARK SMILES IDX 32 34 33 35 86 36 34 37 91 38 85 39 87 40 35 41 90 42 84 43
REMARK SMILES IDX 83 44 36 46 70 47 49 48 69 49 50 50 53 51 68 52 88 53 51 54
REMARK SMILES IDX 52 55 67 57 89 58 54 59 37 60 38 61 47 62 39 63 40 64 46 65
REMARK SMILES IDX 48 66 41 67 42 68 43 69 44 70 45 71 71 72 72 73 81 74 73 75
REMARK SMILES IDX 74 76 80 77 82 78 75 79 76 80 77 81 78 82 79 83 55 84 56 85
REMARK SMILES IDX 65 86 57 87 58 88 64 89 66 90 59 91 60 92 61 93 62 94 63 95
REMARK H PARENT 87 45 53 56
REMARK Flexibility Score: inf
ROOT
ATOM      1  C   UNL A   1      34.649  33.463  31.016  1.00  0.00     0.274 C 
ENDROOT
BRANCH   1   2
ATOM      2  O   UNL A   1      35.347  33.805  29.792  1.00  0.00    -0.462 OA
BRANCH   2   3
ATOM      3  C   UNL A   1      35.095  33.351  28.550  1.00  0.00     0.306 C 
ATOM      4  O   UNL A   1      35.962  33.422  27.678  1.00  0.00    -0.252 OA
BRANCH   3   5
ATOM      5  C   UNL A   1      33.819  32.614  28.281  1.00  0.00     0.132 C 
BRANCH   5   6
ATOM      6  C   UNL A   1      34.140  31.282  27.626  1.00  0.00     0.112 C 
BRANCH   6   7
ATOM      7  C   UNL A   1      32.972  30.749  26.827  1.00  0.00     0.223 C 
ATOM      8  O   UNL A   1      31.885  31.330  26.890  1.00  0.00    -0.275 OA
ATOM      9  N   UNL A   1      33.157  29.639  26.020  1.00  0.00    -0.343 N 
ATOM     10  C   UNL A   1      32.159  29.358  25.001  1.00  0.00     0.120 C 
ATOM     11  C   UNL A   1      34.167  28.589  26.184  1.00  0.00     0.120 C 
ATOM     12  C   UNL A   1      31.403  28.090  25.347  1.00  0.00     0.033 C 
ATOM     13  C   UNL A   1      33.500  27.239  26.495  1.00  0.00     0.033 C 
ATOM     14  C   UNL A   1      32.373  26.904  25.501  1.00  0.00     0.062 C 
BRANCH  14  15
ATOM     15  C   UNL A   1      31.593  25.688  25.905  1.00  0.00     0.140 A 
ATOM     16  N   UNL A   1      30.415  25.659  26.500  1.00  0.00    -0.134 NA
ATOM     17  N   UNL A   1      31.969  24.399  25.588  1.00  0.00    -0.286 N 
ATOM     18  N   UNL A   1      29.994  24.349  26.569  1.00  0.00    -0.130 NA
ATOM     19  C   UNL A   1      30.915  23.600  26.008  1.00  0.00     0.160 A 
ATOM     20  C   UNL A   1      33.104  23.895  24.953  1.00  0.00     0.095 A 
ATOM     21  C   UNL A   1      31.007  22.204  25.756  1.00  0.00     0.050 A 
ATOM     22  C   UNL A   1      33.192  22.575  24.719  1.00  0.00     0.019 A 
ATOM     23  C   UNL A   1      32.097  21.710  25.135  1.00  0.00     0.005 A 
ENDBRANCH  14  15
ENDBRANCH   6   7
ENDBRANCH   5   6
ENDBRANCH   3   5
ENDBRANCH   2   3
ENDBRANCH   1   2
BRANCH   1  24
ATOM     24  C   UNL A   1      35.404  32.339  31.717  1.00  0.00     0.275 C 
BRANCH  24  25
ATOM     25  O   UNL A   1      36.485  31.933  30.865  1.00  0.00    -0.458 OA
BRANCH  25  26
ATOM     26  C   UNL A   1      36.719  30.597  30.822  1.00  0.00     0.338 C 
ATOM     27  O   UNL A   1      35.903  29.703  30.952  1.00  0.00    -0.246 OA
BRANCH  26  28
ATOM     28  C   UNL A   1      38.111  30.399  30.370  1.00  0.00     0.060 A 
ATOM     29  C   UNL A   1      38.358  30.277  28.996  1.00  0.00     0.016 A 
ATOM     30  C   UNL A   1      39.166  30.359  31.288  1.00  0.00     0.016 A 
ATOM     31  C   UNL A   1      39.658  30.066  28.540  1.00  0.00     0.010 A 
ATOM     32  C   UNL A   1      40.462  30.143  30.833  1.00  0.00     0.010 A 
ATOM     33  C   UNL A   1      40.705  29.956  29.462  1.00  0.00    -0.014 A 
BRANCH  33  34
ATOM     34  C   UNL A   1      42.015  29.409  29.051  1.00  0.00     0.031 A 
ATOM     35  C   UNL A   1      43.161  30.375  28.933  1.00  0.00     0.074 A 
ATOM     36  C   UNL A   1      42.161  28.112  28.735  1.00  0.00     0.049 A 
ATOM     37  N   UNL A   1      44.369  30.179  28.480  1.00  0.00    -0.248 NA
ATOM     38  C   UNL A   1      42.897  31.758  29.369  1.00  0.00     0.031 C 
ATOM     39  C   UNL A   1      41.115  27.095  28.824  1.00  0.00     0.029 A 
ATOM     40  N   UNL A   1      43.249  27.438  28.245  1.00  0.00    -0.354 N 
ATOM     41  C   UNL A   1      45.007  31.410  28.569  1.00  0.00     0.074 A 
ATOM     42  C   UNL A   1      44.045  32.355  29.089  1.00  0.00     0.031 C 
ATOM     43  C   UNL A   1      41.607  25.926  28.377  1.00  0.00     0.029 A 
ATOM     44  C   UNL A   1      42.990  26.123  27.947  1.00  0.00     0.049 A 
ATOM     45  H   UNL A   1      44.131  27.857  28.119  1.00  0.00     0.167 HD
ATOM     46  C   UNL A   1      46.284  31.721  28.251  1.00  0.00     0.037 A 
ATOM     47  C   UNL A   1      43.781  25.196  27.371  1.00  0.00     0.037 A 
ATOM     48  C   UNL A   1      47.227  30.773  27.726  1.00  0.00     0.049 A 
ATOM     49  C   UNL A   1      45.189  25.574  26.985  1.00  0.00     0.074 A 
ATOM     50  C   UNL A   1      48.552  30.971  27.387  1.00  0.00     0.029 A 
ATOM     51  N   UNL A   1      46.935  29.444  27.454  1.00  0.00    -0.354 N 
ATOM     52  N   UNL A   1      45.795  26.731  27.110  1.00  0.00    -0.248 NA
ATOM     53  C   UNL A   1      46.020  24.522  26.383  1.00  0.00     0.031 C 
ATOM     54  C   UNL A   1      49.052  29.769  26.872  1.00  0.00     0.029 A 
ATOM     55  C   UNL A   1      48.050  28.812  26.933  1.00  0.00     0.049 A 
ATOM     56  H   UNL A   1      46.063  29.013  27.607  1.00  0.00     0.167 HD
ATOM     57  C   UNL A   1      47.087  26.540  26.630  1.00  0.00     0.074 A 
ATOM     58  C   UNL A   1      47.175  25.153  26.217  1.00  0.00     0.031 C 
ATOM     59  C   UNL A   1      48.110  27.427  26.541  1.00  0.00     0.037 A 
BRANCH  46  60
ATOM     60  C   UNL A   1      46.715  33.147  28.447  1.00  0.00     0.058 A 
ATOM     61  C   UNL A   1      47.184  33.611  29.686  1.00  0.00     0.135 A 
ATOM     62  C   UNL A   1      46.656  34.061  27.383  1.00  0.00     0.135 A 
ATOM     63  F   UNL A   1      47.237  32.784  30.742  1.00  0.00    -0.206 F 
ATOM     64  C   UNL A   1      47.554  34.939  29.871  1.00  0.00     0.059 A 
ATOM     65  C   UNL A   1      47.045  35.389  27.540  1.00  0.00     0.059 A 
ATOM     66  F   UNL A   1      46.206  33.672  26.180  1.00  0.00    -0.206 F 
ATOM     67  C   UNL A   1      47.479  35.821  28.793  1.00  0.00     0.060 A 
BRANCH  67  68
ATOM     68  S   UNL A   1      47.960  37.542  29.049  1.00  0.00     0.124 S 
ATOM     69  O   UNL A   1      47.002  38.242  28.200  1.00  0.00    -0.237 OA
ATOM     70  O   UNL A   1      47.774  37.709  30.486  1.00  0.00    -0.237 OA
ATOM     71  O   UNL A   1      49.347  37.578  28.592  1.00  0.00    -0.744 OA
ENDBRANCH  67  68
ENDBRANCH  46  60
BRANCH  47  72
ATOM     72  C   UNL A   1      43.261  23.825  27.121  1.00  0.00     0.058 A 
ATOM     73  C   UNL A   1      42.903  23.413  25.829  1.00  0.00     0.135 A 
ATOM     74  C   UNL A   1      43.119  22.898  28.165  1.00  0.00     0.135 A 
ATOM     75  F   UNL A   1      43.010  24.266  24.799  1.00  0.00    -0.206 F 
ATOM     76  C   UNL A   1      42.410  22.135  25.581  1.00  0.00     0.059 A 
ATOM     77  C   UNL A   1      42.651  21.606  27.939  1.00  0.00     0.059 A 
ATOM     78  F   UNL A   1      43.459  23.239  29.417  1.00  0.00    -0.206 F 
ATOM     79  C   UNL A   1      42.290  21.237  26.644  1.00  0.00     0.060 A 
BRANCH  79  80
ATOM     80  S   UNL A   1      41.701  19.564  26.302  1.00  0.00     0.124 S 
ATOM     81  O   UNL A   1      40.270  19.786  26.128  1.00  0.00    -0.237 OA
ATOM     82  O   UNL A   1      42.445  19.215  25.096  1.00  0.00    -0.237 OA
ATOM     83  O   UNL A   1      42.084  18.824  27.500  1.00  0.00    -0.744 OA
ENDBRANCH  79  80
ENDBRANCH  47  72
BRANCH  59  84
ATOM     84  C   UNL A   1      49.422  26.918  26.010  1.00  0.00     0.058 A 
ATOM     85  C   UNL A   1      49.769  27.047  24.658  1.00  0.00     0.135 A 
ATOM     86  C   UNL A   1      50.370  26.362  26.885  1.00  0.00     0.135 A 
ATOM     87  F   UNL A   1      48.895  27.568  23.782  1.00  0.00    -0.206 F 
ATOM     88  C   UNL A   1      51.008  26.626  24.185  1.00  0.00     0.059 A 
ATOM     89  C   UNL A   1      51.622  25.957  26.438  1.00  0.00     0.059 A 
ATOM     90  F   UNL A   1      50.089  26.230  28.191  1.00  0.00    -0.206 F 
ATOM     91  C   UNL A   1      51.929  26.083  25.084  1.00  0.00     0.060 A 
BRANCH  91  92
ATOM     92  S   UNL A   1      53.549  25.581  24.468  1.00  0.00     0.124 S 
ATOM     93  O   UNL A   1      53.530  24.146  24.730  1.00  0.00    -0.237 OA
ATOM     94  O   UNL A   1      53.486  25.969  23.062  1.00  0.00    -0.237 OA
ATOM     95  O   UNL A   1      54.478  26.356  25.284  1.00  0.00    -0.744 OA
ENDBRANCH  91  92
ENDBRANCH  59  84
ENDBRANCH  33  34
ENDBRANCH  26  28
ENDBRANCH  25  26
ENDBRANCH  24  25
ENDBRANCH   1  24
TORSDOF 17
ENDMDL
