MODEL 1
REMARK VINA RESULT:     -11.2      0.000      0.000
REMARK SMILES C[C@]([NH3+])(C(=O)OCCOC(=O)c1ccc(-c2c3nc(c(-c4c(F)cc(S(=O)(=O)[O-])cc4F)c4ccc([nH]4)c(-c4c(F)cc(S(=O)(=O)[O-])cc4F)c4nc(c(-c5c(F)cc(S(=O)(=O)[O-])cc5F)c5ccc2[nH]5)C=C4)C=C3)cc1)c1ccc(F)c(Br)c1
REMARK SMILES IDX 8 1 7 2 6 3 4 4 5 5 2 6 1 7 78 8 79 9 85 10 80 11 83 12
REMARK SMILES IDX 81 13 84 14 82 15 3 16 9 20 10 21 11 22 12 23 13 24 77 25
REMARK SMILES IDX 14 26 76 27 15 28 16 29 17 30 70 31 18 32 75 33 69 34 71 35
REMARK SMILES IDX 19 36 74 37 68 38 67 39 20 41 54 42 33 43 53 44 34 45 37 46
REMARK SMILES IDX 52 47 72 48 35 49 36 50 51 52 73 53 38 54 21 55 22 56 31 57
REMARK SMILES IDX 23 58 24 59 30 60 32 61 25 62 26 63 27 64 28 65 29 66 55 67
REMARK SMILES IDX 56 68 65 69 57 70 58 71 64 72 66 73 59 74 60 75 61 76 62 77
REMARK SMILES IDX 63 78 39 79 40 80 49 81 41 82 42 83 48 84 50 85 43 86 44 87
REMARK SMILES IDX 45 88 46 89 47 90
REMARK H PARENT 3 17 3 18 3 19 71 40 37 51
REMARK Flexibility Score: inf
ROOT
ATOM      1  C   UNL A   1      40.043  22.157  26.551  1.00  0.00     0.275 C 
ENDROOT
BRANCH   1   2
ATOM      2  C   UNL A   1      38.925  21.487  25.757  1.00  0.00     0.274 C 
BRANCH   2   3
ATOM      3  O   UNL A   1      37.666  22.135  26.029  1.00  0.00    -0.457 OA
BRANCH   3   4
ATOM      4  C   UNL A   1      36.755  22.172  25.007  1.00  0.00     0.372 C 
ATOM      5  O   UNL A   1      37.061  22.203  23.820  1.00  0.00    -0.244 OA
BRANCH   4   6
ATOM      6  C   UNL A   1      35.283  22.236  25.554  1.00  0.00     0.215 C 
ATOM      7  C   UNL A   1      34.745  23.644  25.240  1.00  0.00     0.098 C 
BRANCH   6   8
ATOM      8  C   UNL A   1      34.384  21.165  24.900  1.00  0.00     0.025 A 
ATOM      9  C   UNL A   1      33.176  21.492  24.249  1.00  0.00     0.014 A 
ATOM     10  C   UNL A   1      34.746  19.800  24.942  1.00  0.00     0.029 A 
ATOM     11  C   UNL A   1      32.369  20.506  23.672  1.00  0.00     0.041 A 
ATOM     12  C   UNL A   1      33.937  18.815  24.363  1.00  0.00     0.054 A 
ATOM     13  C   UNL A   1      32.755  19.174  23.728  1.00  0.00     0.137 A 
ATOM     14  Br  UNL A   1      34.449  17.000  24.490  1.00  0.00    -0.048 Br
ATOM     15  F   UNL A   1      31.957  18.247  23.182  1.00  0.00    -0.206 F 
ENDBRANCH   6   8
BRANCH   6  16
ATOM     16  N   UNL A   1      35.292  22.114  27.041  1.00  0.00    -0.340 N 
ATOM     17  H   UNL A   1      34.334  22.148  27.391  1.00  0.00     0.345 HD
ATOM     18  H   UNL A   1      35.827  22.883  27.442  1.00  0.00     0.345 HD
ATOM     19  H   UNL A   1      35.719  21.227  27.307  1.00  0.00     0.345 HD
ENDBRANCH   6  16
ENDBRANCH   4   6
ENDBRANCH   3   4
ENDBRANCH   2   3
ENDBRANCH   1   2
BRANCH   1  20
ATOM     20  O   UNL A   1      39.935  23.587  26.420  1.00  0.00    -0.458 OA
BRANCH  20  21
ATOM     21  C   UNL A   1      41.054  24.290  26.702  1.00  0.00     0.338 C 
ATOM     22  O   UNL A   1      42.179  24.097  26.281  1.00  0.00    -0.246 OA
BRANCH  21  23
ATOM     23  C   UNL A   1      40.699  25.429  27.561  1.00  0.00     0.060 A 
ATOM     24  C   UNL A   1      41.580  26.503  27.632  1.00  0.00     0.016 A 
ATOM     25  C   UNL A   1      39.580  25.379  28.395  1.00  0.00     0.016 A 
ATOM     26  C   UNL A   1      41.399  27.482  28.603  1.00  0.00     0.010 A 
ATOM     27  C   UNL A   1      39.359  26.413  29.318  1.00  0.00     0.010 A 
ATOM     28  C   UNL A   1      40.295  27.452  29.471  1.00  0.00    -0.014 A 
BRANCH  28  29
ATOM     29  C   UNL A   1      40.201  28.453  30.575  1.00  0.00     0.031 A 
ATOM     30  C   UNL A   1      41.234  28.473  31.679  1.00  0.00     0.074 A 
ATOM     31  C   UNL A   1      39.253  29.414  30.557  1.00  0.00     0.049 A 
ATOM     32  N   UNL A   1      41.255  29.186  32.778  1.00  0.00    -0.248 NA
ATOM     33  C   UNL A   1      42.382  27.563  31.538  1.00  0.00     0.031 C 
ATOM     34  C   UNL A   1      38.209  29.563  29.541  1.00  0.00     0.029 A 
ATOM     35  N   UNL A   1      39.043  30.480  31.400  1.00  0.00    -0.354 N 
ATOM     36  C   UNL A   1      42.372  28.760  33.490  1.00  0.00     0.074 A 
ATOM     37  C   UNL A   1      43.012  27.736  32.692  1.00  0.00     0.031 C 
ATOM     38  C   UNL A   1      37.532  30.699  29.767  1.00  0.00     0.029 A 
ATOM     39  C   UNL A   1      38.037  31.321  30.986  1.00  0.00     0.049 A 
ATOM     40  H   UNL A   1      39.564  30.629  32.221  1.00  0.00     0.167 HD
ATOM     41  C   UNL A   1      42.819  29.177  34.698  1.00  0.00     0.037 A 
ATOM     42  C   UNL A   1      37.562  32.460  31.528  1.00  0.00     0.037 A 
ATOM     43  C   UNL A   1      42.235  30.251  35.458  1.00  0.00     0.049 A 
ATOM     44  C   UNL A   1      38.130  32.958  32.826  1.00  0.00     0.074 A 
ATOM     45  C   UNL A   1      42.574  30.702  36.723  1.00  0.00     0.029 A 
ATOM     46  N   UNL A   1      41.225  31.081  34.999  1.00  0.00    -0.354 N 
ATOM     47  N   UNL A   1      39.087  32.441  33.558  1.00  0.00    -0.248 NA
ATOM     48  C   UNL A   1      37.532  34.178  33.389  1.00  0.00     0.031 C 
ATOM     49  C   UNL A   1      41.771  31.809  37.026  1.00  0.00     0.029 A 
ATOM     50  C   UNL A   1      40.945  32.055  35.943  1.00  0.00     0.049 A 
ATOM     51  H   UNL A   1      40.771  30.990  34.129  1.00  0.00     0.167 HD
ATOM     52  C   UNL A   1      39.186  33.255  34.679  1.00  0.00     0.074 A 
ATOM     53  C   UNL A   1      38.226  34.326  34.510  1.00  0.00     0.031 C 
ATOM     54  C   UNL A   1      39.982  33.110  35.767  1.00  0.00     0.037 A 
BRANCH  41  55
ATOM     55  C   UNL A   1      43.982  28.439  35.295  1.00  0.00     0.058 A 
ATOM     56  C   UNL A   1      43.806  27.307  36.104  1.00  0.00     0.135 A 
ATOM     57  C   UNL A   1      45.296  28.865  35.034  1.00  0.00     0.135 A 
ATOM     58  F   UNL A   1      42.570  26.874  36.401  1.00  0.00    -0.206 F 
ATOM     59  C   UNL A   1      44.893  26.631  36.652  1.00  0.00     0.059 A 
ATOM     60  C   UNL A   1      46.397  28.194  35.556  1.00  0.00     0.059 A 
ATOM     61  F   UNL A   1      45.517  29.945  34.269  1.00  0.00    -0.206 F 
ATOM     62  C   UNL A   1      46.184  27.087  36.377  1.00  0.00     0.060 A 
BRANCH  62  63
ATOM     63  S   UNL A   1      47.593  26.211  37.091  1.00  0.00     0.124 S 
ATOM     64  O   UNL A   1      48.573  27.286  37.207  1.00  0.00    -0.237 OA
ATOM     65  O   UNL A   1      47.052  25.709  38.351  1.00  0.00    -0.237 OA
ATOM     66  O   UNL A   1      47.895  25.189  36.093  1.00  0.00    -0.744 OA
ENDBRANCH  62  63
ENDBRANCH  41  55
BRANCH  42  67
ATOM     67  C   UNL A   1      36.464  33.198  30.853  1.00  0.00     0.058 A 
ATOM     68  C   UNL A   1      35.154  33.151  31.351  1.00  0.00     0.135 A 
ATOM     69  C   UNL A   1      36.704  33.972  29.709  1.00  0.00     0.135 A 
ATOM     70  F   UNL A   1      34.874  32.412  32.436  1.00  0.00    -0.206 F 
ATOM     71  C   UNL A   1      34.116  33.844  30.736  1.00  0.00     0.059 A 
ATOM     72  C   UNL A   1      35.688  34.689  29.088  1.00  0.00     0.059 A 
ATOM     73  F   UNL A   1      37.944  34.054  29.201  1.00  0.00    -0.206 F 
ATOM     74  C   UNL A   1      34.394  34.611  29.603  1.00  0.00     0.060 A 
BRANCH  74  75
ATOM     75  S   UNL A   1      33.071  35.569  28.830  1.00  0.00     0.124 S 
ATOM     76  O   UNL A   1      33.830  36.573  28.094  1.00  0.00    -0.237 OA
ATOM     77  O   UNL A   1      32.383  34.570  28.018  1.00  0.00    -0.237 OA
ATOM     78  O   UNL A   1      32.314  36.059  29.977  1.00  0.00    -0.744 OA
ENDBRANCH  74  75
ENDBRANCH  42  67
BRANCH  54  79
ATOM     79  C   UNL A   1      39.827  34.122  36.863  1.00  0.00     0.058 A 
ATOM     80  C   UNL A   1      39.107  33.818  38.028  1.00  0.00     0.135 A 
ATOM     81  C   UNL A   1      40.409  35.393  36.759  1.00  0.00     0.135 A 
ATOM     82  F   UNL A   1      38.529  32.614  38.170  1.00  0.00    -0.206 F 
ATOM     83  C   UNL A   1      38.949  34.750  39.047  1.00  0.00     0.059 A 
ATOM     84  C   UNL A   1      40.275  36.337  37.772  1.00  0.00     0.059 A 
ATOM     85  F   UNL A   1      41.113  35.728  35.666  1.00  0.00    -0.206 F 
ATOM     86  C   UNL A   1      39.530  36.011  38.907  1.00  0.00     0.060 A 
BRANCH  86  87
ATOM     87  S   UNL A   1      39.330  37.218  40.236  1.00  0.00     0.124 S 
ATOM     88  O   UNL A   1      38.451  36.501  41.153  1.00  0.00    -0.237 OA
ATOM     89  O   UNL A   1      40.701  37.415  40.697  1.00  0.00    -0.237 OA
ATOM     90  O   UNL A   1      38.734  38.366  39.559  1.00  0.00    -0.744 OA
ENDBRANCH  86  87
ENDBRANCH  54  79
ENDBRANCH  28  29
ENDBRANCH  21  23
ENDBRANCH  20  21
ENDBRANCH   1  20
TORSDOF 16
ENDMDL
MODEL 2
REMARK VINA RESULT:     -11.2      1.051      1.814
REMARK SMILES C[C@]([NH3+])(C(=O)OCCOC(=O)c1ccc(-c2c3nc(c(-c4c(F)cc(S(=O)(=O)[O-])cc4F)c4ccc([nH]4)c(-c4c(F)cc(S(=O)(=O)[O-])cc4F)c4nc(c(-c5c(F)cc(S(=O)(=O)[O-])cc5F)c5ccc2[nH]5)C=C4)C=C3)cc1)c1ccc(F)c(Br)c1
REMARK SMILES IDX 8 1 7 2 6 3 4 4 5 5 2 6 1 7 78 8 79 9 85 10 80 11 83 12
REMARK SMILES IDX 81 13 84 14 82 15 3 16 9 20 10 21 11 22 12 23 13 24 77 25
REMARK SMILES IDX 14 26 76 27 15 28 16 29 17 30 70 31 18 32 75 33 69 34 71 35
REMARK SMILES IDX 19 36 74 37 68 38 67 39 20 41 54 42 33 43 53 44 34 45 37 46
REMARK SMILES IDX 52 47 72 48 35 49 36 50 51 52 73 53 38 54 21 55 22 56 31 57
REMARK SMILES IDX 23 58 24 59 30 60 32 61 25 62 26 63 27 64 28 65 29 66 55 67
REMARK SMILES IDX 56 68 65 69 57 70 58 71 64 72 66 73 59 74 60 75 61 76 62 77
REMARK SMILES IDX 63 78 39 79 40 80 49 81 41 82 42 83 48 84 50 85 43 86 44 87
REMARK SMILES IDX 45 88 46 89 47 90
REMARK H PARENT 3 17 3 18 3 19 71 40 37 51
REMARK Flexibility Score: inf
ROOT
ATOM      1  C   UNL A   1      40.246  22.029  26.728  1.00  0.00     0.275 C 
ENDROOT
BRANCH   1   2
ATOM      2  C   UNL A   1      39.237  21.273  25.869  1.00  0.00     0.274 C 
BRANCH   2   3
ATOM      3  O   UNL A   1      37.994  22.001  25.805  1.00  0.00    -0.457 OA
BRANCH   3   4
ATOM      4  C   UNL A   1      36.875  21.288  25.468  1.00  0.00     0.372 C 
ATOM      5  O   UNL A   1      36.901  20.214  24.876  1.00  0.00    -0.244 OA
BRANCH   4   6
ATOM      6  C   UNL A   1      35.564  22.052  25.879  1.00  0.00     0.215 C 
ATOM      7  C   UNL A   1      35.925  23.544  25.984  1.00  0.00     0.098 C 
BRANCH   6   8
ATOM      8  C   UNL A   1      34.436  21.849  24.846  1.00  0.00     0.025 A 
ATOM      9  C   UNL A   1      33.608  20.707  24.850  1.00  0.00     0.014 A 
ATOM     10  C   UNL A   1      34.201  22.814  23.841  1.00  0.00     0.029 A 
ATOM     11  C   UNL A   1      32.598  20.535  23.898  1.00  0.00     0.041 A 
ATOM     12  C   UNL A   1      33.189  22.640  22.889  1.00  0.00     0.054 A 
ATOM     13  C   UNL A   1      32.390  21.504  22.925  1.00  0.00     0.137 A 
ATOM     14  Br  UNL A   1      32.949  23.943  21.540  1.00  0.00    -0.048 Br
ATOM     15  F   UNL A   1      31.427  21.309  22.015  1.00  0.00    -0.206 F 
ENDBRANCH   6   8
BRANCH   6  16
ATOM     16  N   UNL A   1      35.141  21.627  27.246  1.00  0.00    -0.340 N 
ATOM     17  H   UNL A   1      35.788  22.007  27.936  1.00  0.00     0.345 HD
ATOM     18  H   UNL A   1      35.144  20.609  27.302  1.00  0.00     0.345 HD
ATOM     19  H   UNL A   1      34.201  21.975  27.435  1.00  0.00     0.345 HD
ENDBRANCH   6  16
ENDBRANCH   4   6
ENDBRANCH   3   4
ENDBRANCH   2   3
ENDBRANCH   1   2
BRANCH   1  20
ATOM     20  O   UNL A   1      39.857  23.412  26.821  1.00  0.00    -0.458 OA
BRANCH  20  21
ATOM     21  C   UNL A   1      40.865  24.311  26.787  1.00  0.00     0.338 C 
ATOM     22  O   UNL A   1      41.879  24.265  26.115  1.00  0.00    -0.246 OA
BRANCH  21  23
ATOM     23  C   UNL A   1      40.518  25.452  27.647  1.00  0.00     0.060 A 
ATOM     24  C   UNL A   1      41.372  26.550  27.664  1.00  0.00     0.016 A 
ATOM     25  C   UNL A   1      39.440  25.384  28.531  1.00  0.00     0.016 A 
ATOM     26  C   UNL A   1      41.208  27.538  28.630  1.00  0.00     0.010 A 
ATOM     27  C   UNL A   1      39.233  26.423  29.451  1.00  0.00     0.010 A 
ATOM     28  C   UNL A   1      40.147  27.490  29.547  1.00  0.00    -0.014 A 
BRANCH  28  29
ATOM     29  C   UNL A   1      40.074  28.503  30.642  1.00  0.00     0.031 A 
ATOM     30  C   UNL A   1      41.121  28.525  31.733  1.00  0.00     0.074 A 
ATOM     31  C   UNL A   1      39.136  29.473  30.625  1.00  0.00     0.049 A 
ATOM     32  N   UNL A   1      41.162  29.248  32.824  1.00  0.00    -0.248 NA
ATOM     33  C   UNL A   1      42.258  27.603  31.588  1.00  0.00     0.031 C 
ATOM     34  C   UNL A   1      38.081  29.621  29.620  1.00  0.00     0.029 A 
ATOM     35  N   UNL A   1      38.946  30.549  31.459  1.00  0.00    -0.354 N 
ATOM     36  C   UNL A   1      42.283  28.819  33.527  1.00  0.00     0.074 A 
ATOM     37  C   UNL A   1      42.904  27.781  32.732  1.00  0.00     0.031 C 
ATOM     38  C   UNL A   1      37.417  30.765  29.842  1.00  0.00     0.029 A 
ATOM     39  C   UNL A   1      37.942  31.396  31.049  1.00  0.00     0.049 A 
ATOM     40  H   UNL A   1      39.478  30.702  32.273  1.00  0.00     0.167 HD
ATOM     41  C   UNL A   1      42.749  29.245  34.725  1.00  0.00     0.037 A 
ATOM     42  C   UNL A   1      37.485  32.544  31.584  1.00  0.00     0.037 A 
ATOM     43  C   UNL A   1      42.184  30.332  35.481  1.00  0.00     0.049 A 
ATOM     44  C   UNL A   1      38.073  33.050  32.870  1.00  0.00     0.074 A 
ATOM     45  C   UNL A   1      42.543  30.793  36.737  1.00  0.00     0.029 A 
ATOM     46  N   UNL A   1      41.176  31.166  35.025  1.00  0.00    -0.354 N 
ATOM     47  N   UNL A   1      39.034  32.532  33.596  1.00  0.00    -0.248 NA
ATOM     48  C   UNL A   1      37.494  34.281  33.427  1.00  0.00     0.031 C 
ATOM     49  C   UNL A   1      41.754  31.910  37.038  1.00  0.00     0.029 A 
ATOM     50  C   UNL A   1      40.917  32.153  35.962  1.00  0.00     0.049 A 
ATOM     51  H   UNL A   1      40.711  31.071  34.162  1.00  0.00     0.167 HD
ATOM     52  C   UNL A   1      39.154  33.357  34.707  1.00  0.00     0.074 A 
ATOM     53  C   UNL A   1      38.202  34.435  34.538  1.00  0.00     0.031 C 
ATOM     54  C   UNL A   1      39.962  33.215  35.787  1.00  0.00     0.037 A 
BRANCH  41  55
ATOM     55  C   UNL A   1      43.912  28.502  35.316  1.00  0.00     0.058 A 
ATOM     56  C   UNL A   1      45.238  28.896  35.089  1.00  0.00     0.135 A 
ATOM     57  C   UNL A   1      43.689  27.385  36.140  1.00  0.00     0.135 A 
ATOM     58  F   UNL A   1      45.504  29.943  34.291  1.00  0.00    -0.206 F 
ATOM     59  C   UNL A   1      46.307  28.199  35.643  1.00  0.00     0.059 A 
ATOM     60  C   UNL A   1      44.742  26.684  36.719  1.00  0.00     0.059 A 
ATOM     61  F   UNL A   1      42.438  26.966  36.386  1.00  0.00    -0.206 F 
ATOM     62  C   UNL A   1      46.049  27.089  36.451  1.00  0.00     0.060 A 
BRANCH  62  63
ATOM     63  S   UNL A   1      47.437  26.184  37.167  1.00  0.00     0.124 S 
ATOM     64  O   UNL A   1      48.264  25.945  35.988  1.00  0.00    -0.237 OA
ATOM     65  O   UNL A   1      47.975  27.134  38.135  1.00  0.00    -0.237 OA
ATOM     66  O   UNL A   1      46.807  24.999  37.742  1.00  0.00    -0.744 OA
ENDBRANCH  62  63
ENDBRANCH  41  55
BRANCH  42  67
ATOM     67  C   UNL A   1      36.386  33.286  30.915  1.00  0.00     0.058 A 
ATOM     68  C   UNL A   1      35.090  33.289  31.451  1.00  0.00     0.135 A 
ATOM     69  C   UNL A   1      36.612  34.014  29.738  1.00  0.00     0.135 A 
ATOM     70  F   UNL A   1      34.824  32.594  32.567  1.00  0.00    -0.206 F 
ATOM     71  C   UNL A   1      34.051  33.985  30.840  1.00  0.00     0.059 A 
ATOM     72  C   UNL A   1      35.596  34.734  29.120  1.00  0.00     0.059 A 
ATOM     73  F   UNL A   1      37.838  34.047  29.193  1.00  0.00    -0.206 F 
ATOM     74  C   UNL A   1      34.315  34.706  29.674  1.00  0.00     0.060 A 
BRANCH  74  75
ATOM     75  S   UNL A   1      32.994  35.669  28.905  1.00  0.00     0.124 S 
ATOM     76  O   UNL A   1      33.752  36.710  28.221  1.00  0.00    -0.237 OA
ATOM     77  O   UNL A   1      32.340  34.688  28.044  1.00  0.00    -0.237 OA
ATOM     78  O   UNL A   1      32.203  36.107  30.051  1.00  0.00    -0.744 OA
ENDBRANCH  74  75
ENDBRANCH  42  67
BRANCH  54  79
ATOM     79  C   UNL A   1      39.829  34.240  36.874  1.00  0.00     0.058 A 
ATOM     80  C   UNL A   1      40.494  35.472  36.788  1.00  0.00     0.135 A 
ATOM     81  C   UNL A   1      39.026  33.999  37.998  1.00  0.00     0.135 A 
ATOM     82  F   UNL A   1      41.276  35.746  35.732  1.00  0.00    -0.206 F 
ATOM     83  C   UNL A   1      40.385  36.426  37.793  1.00  0.00     0.059 A 
ATOM     84  C   UNL A   1      38.893  34.944  39.010  1.00  0.00     0.059 A 
ATOM     85  F   UNL A   1      38.367  32.836  38.122  1.00  0.00    -0.206 F 
ATOM     86  C   UNL A   1      39.588  36.150  38.906  1.00  0.00     0.060 A 
BRANCH  86  87
ATOM     87  S   UNL A   1      39.441  37.395  40.206  1.00  0.00     0.124 S 
ATOM     88  O   UNL A   1      38.548  38.365  39.583  1.00  0.00    -0.237 OA
ATOM     89  O   UNL A   1      38.874  36.633  41.315  1.00  0.00    -0.237 OA
ATOM     90  O   UNL A   1      40.818  37.839  40.401  1.00  0.00    -0.744 OA
ENDBRANCH  86  87
ENDBRANCH  54  79
ENDBRANCH  28  29
ENDBRANCH  21  23
ENDBRANCH  20  21
ENDBRANCH   1  20
TORSDOF 16
ENDMDL
MODEL 3
REMARK VINA RESULT:     -11.1      2.414      9.024
REMARK SMILES C[C@]([NH3+])(C(=O)OCCOC(=O)c1ccc(-c2c3nc(c(-c4c(F)cc(S(=O)(=O)[O-])cc4F)c4ccc([nH]4)c(-c4c(F)cc(S(=O)(=O)[O-])cc4F)c4nc(c(-c5c(F)cc(S(=O)(=O)[O-])cc5F)c5ccc2[nH]5)C=C4)C=C3)cc1)c1ccc(F)c(Br)c1
REMARK SMILES IDX 8 1 7 2 6 3 4 4 5 5 2 6 1 7 78 8 79 9 85 10 80 11 83 12
REMARK SMILES IDX 81 13 84 14 82 15 3 16 9 20 10 21 11 22 12 23 13 24 77 25
REMARK SMILES IDX 14 26 76 27 15 28 16 29 17 30 70 31 18 32 75 33 69 34 71 35
REMARK SMILES IDX 19 36 74 37 68 38 67 39 20 41 54 42 33 43 53 44 34 45 37 46
REMARK SMILES IDX 52 47 72 48 35 49 36 50 51 52 73 53 38 54 21 55 22 56 31 57
REMARK SMILES IDX 23 58 24 59 30 60 32 61 25 62 26 63 27 64 28 65 29 66 55 67
REMARK SMILES IDX 56 68 65 69 57 70 58 71 64 72 66 73 59 74 60 75 61 76 62 77
REMARK SMILES IDX 63 78 39 79 40 80 49 81 41 82 42 83 48 84 50 85 43 86 44 87
REMARK SMILES IDX 45 88 46 89 47 90
REMARK H PARENT 3 17 3 18 3 19 71 40 37 51
REMARK Flexibility Score: inf
ROOT
ATOM      1  C   UNL A   1      43.791  24.319  24.979  1.00  0.00     0.275 C 
ENDROOT
BRANCH   1   2
ATOM      2  C   UNL A   1      43.462  22.846  24.753  1.00  0.00     0.274 C 
BRANCH   2   3
ATOM      3  O   UNL A   1      43.454  22.140  26.009  1.00  0.00    -0.457 OA
BRANCH   3   4
ATOM      4  C   UNL A   1      42.556  21.114  26.139  1.00  0.00     0.372 C 
ATOM      5  O   UNL A   1      42.500  20.156  25.376  1.00  0.00    -0.244 OA
BRANCH   4   6
ATOM      6  C   UNL A   1      41.575  21.360  27.342  1.00  0.00     0.215 C 
ATOM      7  C   UNL A   1      42.341  22.193  28.385  1.00  0.00     0.098 C 
BRANCH   6   8
ATOM      8  C   UNL A   1      40.300  22.107  26.897  1.00  0.00     0.025 A 
ATOM      9  C   UNL A   1      40.058  23.453  27.241  1.00  0.00     0.014 A 
ATOM     10  C   UNL A   1      39.316  21.450  26.124  1.00  0.00     0.029 A 
ATOM     11  C   UNL A   1      38.890  24.110  26.837  1.00  0.00     0.041 A 
ATOM     12  C   UNL A   1      38.149  22.110  25.721  1.00  0.00     0.054 A 
ATOM     13  C   UNL A   1      37.944  23.437  26.076  1.00  0.00     0.137 A 
ATOM     14  Br  UNL A   1      36.846  21.167  24.727  1.00  0.00    -0.048 Br
ATOM     15  F   UNL A   1      36.828  24.083  25.716  1.00  0.00    -0.206 F 
ENDBRANCH   6   8
BRANCH   6  16
ATOM     16  N   UNL A   1      41.250  20.061  28.001  1.00  0.00    -0.340 N 
ATOM     17  H   UNL A   1      40.266  19.841  27.852  1.00  0.00     0.345 HD
ATOM     18  H   UNL A   1      41.435  20.132  29.002  1.00  0.00     0.345 HD
ATOM     19  H   UNL A   1      41.828  19.322  27.601  1.00  0.00     0.345 HD
ENDBRANCH   6  16
ENDBRANCH   4   6
ENDBRANCH   3   4
ENDBRANCH   2   3
ENDBRANCH   1   2
BRANCH   1  20
ATOM     20  O   UNL A   1      43.086  24.796  26.140  1.00  0.00    -0.458 OA
BRANCH  20  21
ATOM     21  C   UNL A   1      42.392  25.944  25.977  1.00  0.00     0.338 C 
ATOM     22  O   UNL A   1      41.753  26.294  25.002  1.00  0.00    -0.246 OA
BRANCH  21  23
ATOM     23  C   UNL A   1      42.440  26.713  27.229  1.00  0.00     0.060 A 
ATOM     24  C   UNL A   1      41.874  26.154  28.370  1.00  0.00     0.016 A 
ATOM     25  C   UNL A   1      42.912  28.027  27.248  1.00  0.00     0.016 A 
ATOM     26  C   UNL A   1      41.688  26.938  29.505  1.00  0.00     0.010 A 
ATOM     27  C   UNL A   1      42.795  28.787  28.421  1.00  0.00     0.010 A 
ATOM     28  C   UNL A   1      42.133  28.269  29.550  1.00  0.00    -0.014 A 
BRANCH  28  29
ATOM     29  C   UNL A   1      41.810  29.112  30.740  1.00  0.00     0.031 A 
ATOM     30  C   UNL A   1      40.538  29.929  30.774  1.00  0.00     0.074 A 
ATOM     31  C   UNL A   1      42.592  29.085  31.839  1.00  0.00     0.049 A 
ATOM     32  N   UNL A   1      40.144  30.807  31.663  1.00  0.00    -0.248 NA
ATOM     33  C   UNL A   1      39.597  29.750  29.658  1.00  0.00     0.031 C 
ATOM     34  C   UNL A   1      43.829  28.315  31.986  1.00  0.00     0.029 A 
ATOM     35  N   UNL A   1      42.436  29.689  33.064  1.00  0.00    -0.354 N 
ATOM     36  C   UNL A   1      38.952  31.335  31.179  1.00  0.00     0.074 A 
ATOM     37  C   UNL A   1      38.678  30.669  29.923  1.00  0.00     0.031 C 
ATOM     38  C   UNL A   1      44.268  28.420  33.250  1.00  0.00     0.029 A 
ATOM     39  C   UNL A   1      43.392  29.327  33.985  1.00  0.00     0.049 A 
ATOM     40  H   UNL A   1      41.710  30.322  33.265  1.00  0.00     0.167 HD
ATOM     41  C   UNL A   1      38.161  32.290  31.724  1.00  0.00     0.037 A 
ATOM     42  C   UNL A   1      43.556  29.688  35.272  1.00  0.00     0.037 A 
ATOM     43  C   UNL A   1      38.384  32.896  33.011  1.00  0.00     0.049 A 
ATOM     44  C   UNL A   1      42.617  30.683  35.890  1.00  0.00     0.074 A 
ATOM     45  C   UNL A   1      37.679  33.921  33.620  1.00  0.00     0.029 A 
ATOM     46  N   UNL A   1      39.356  32.494  33.912  1.00  0.00    -0.354 N 
ATOM     47  N   UNL A   1      41.585  31.286  35.351  1.00  0.00    -0.248 NA
ATOM     48  C   UNL A   1      42.882  31.072  37.283  1.00  0.00     0.031 C 
ATOM     49  C   UNL A   1      38.222  34.135  34.893  1.00  0.00     0.029 A 
ATOM     50  C   UNL A   1      39.254  33.231  35.081  1.00  0.00     0.049 A 
ATOM     51  H   UNL A   1      40.023  31.788  33.746  1.00  0.00     0.167 HD
ATOM     52  C   UNL A   1      41.097  32.145  36.328  1.00  0.00     0.074 A 
ATOM     53  C   UNL A   1      41.915  31.951  37.507  1.00  0.00     0.031 C 
ATOM     54  C   UNL A   1      40.078  33.036  36.244  1.00  0.00     0.037 A 
BRANCH  41  55
ATOM     55  C   UNL A   1      36.996  32.770  30.909  1.00  0.00     0.058 A 
ATOM     56  C   UNL A   1      35.696  32.289  31.117  1.00  0.00     0.135 A 
ATOM     57  C   UNL A   1      37.187  33.743  29.913  1.00  0.00     0.135 A 
ATOM     58  F   UNL A   1      35.466  31.342  32.041  1.00  0.00    -0.206 F 
ATOM     59  C   UNL A   1      34.624  32.742  30.354  1.00  0.00     0.059 A 
ATOM     60  C   UNL A   1      36.127  34.223  29.150  1.00  0.00     0.059 A 
ATOM     61  F   UNL A   1      38.413  34.232  29.672  1.00  0.00    -0.206 F 
ATOM     62  C   UNL A   1      34.851  33.705  29.368  1.00  0.00     0.060 A 
BRANCH  62  63
ATOM     63  S   UNL A   1      33.460  34.289  28.376  1.00  0.00     0.124 S 
ATOM     64  O   UNL A   1      32.528  34.721  29.412  1.00  0.00    -0.237 OA
ATOM     65  O   UNL A   1      34.059  35.355  27.580  1.00  0.00    -0.237 OA
ATOM     66  O   UNL A   1      33.060  33.103  27.625  1.00  0.00    -0.744 OA
ENDBRANCH  62  63
ENDBRANCH  41  55
BRANCH  42  67
ATOM     67  C   UNL A   1      44.679  29.120  36.062  1.00  0.00     0.058 A 
ATOM     68  C   UNL A   1      45.934  29.745  36.078  1.00  0.00     0.135 A 
ATOM     69  C   UNL A   1      44.516  27.953  36.822  1.00  0.00     0.135 A 
ATOM     70  F   UNL A   1      46.141  30.855  35.353  1.00  0.00    -0.206 F 
ATOM     71  C   UNL A   1      46.994  29.230  36.819  1.00  0.00     0.059 A 
ATOM     72  C   UNL A   1      45.553  27.431  37.587  1.00  0.00     0.059 A 
ATOM     73  F   UNL A   1      43.330  27.326  36.845  1.00  0.00    -0.206 F 
ATOM     74  C   UNL A   1      46.792  28.072  37.571  1.00  0.00     0.060 A 
BRANCH  74  75
ATOM     75  S   UNL A   1      48.137  27.427  38.591  1.00  0.00     0.124 S 
ATOM     76  O   UNL A   1      47.416  26.554  39.508  1.00  0.00    -0.237 OA
ATOM     77  O   UNL A   1      48.990  26.758  37.613  1.00  0.00    -0.237 OA
ATOM     78  O   UNL A   1      48.706  28.636  39.178  1.00  0.00    -0.744 OA
ENDBRANCH  74  75
ENDBRANCH  42  67
BRANCH  54  79
ATOM     79  C   UNL A   1      39.814  33.882  37.454  1.00  0.00     0.058 A 
ATOM     80  C   UNL A   1      38.842  33.510  38.395  1.00  0.00     0.135 A 
ATOM     81  C   UNL A   1      40.541  35.058  37.684  1.00  0.00     0.135 A 
ATOM     82  F   UNL A   1      38.118  32.393  38.214  1.00  0.00    -0.206 F 
ATOM     83  C   UNL A   1      38.582  34.291  39.515  1.00  0.00     0.059 A 
ATOM     84  C   UNL A   1      40.307  35.847  38.805  1.00  0.00     0.059 A 
ATOM     85  F   UNL A   1      41.486  35.452  36.815  1.00  0.00    -0.206 F 
ATOM     86  C   UNL A   1      39.315  35.463  39.709  1.00  0.00     0.060 A 
BRANCH  86  87
ATOM     87  S   UNL A   1      38.981  36.470  41.170  1.00  0.00     0.124 S 
ATOM     88  O   UNL A   1      38.533  37.721  40.568  1.00  0.00    -0.237 OA
ATOM     89  O   UNL A   1      37.954  35.698  41.863  1.00  0.00    -0.237 OA
ATOM     90  O   UNL A   1      40.275  36.523  41.844  1.00  0.00    -0.744 OA
ENDBRANCH  86  87
ENDBRANCH  54  79
ENDBRANCH  28  29
ENDBRANCH  21  23
ENDBRANCH  20  21
ENDBRANCH   1  20
TORSDOF 16
ENDMDL
