MODEL 1
REMARK VINA RESULT:     -11.9      0.000      0.000
REMARK SMILES COC(=O)c1nc(C)cc(N[C@@H]2C=C[C@H](C(=O)OCCOC(=O)c3ccc(-c4c5nc(c(-c6c(F)cc(S(=O)(=O)[O-])cc6F)c6ccc([nH]6)c(-c6c(F)cc(S(=O)(=O)[O-])cc6F)c6nc(c(-c7c(F)cc(S(=O)(=O)[O-])cc7F)c7ccc4[nH]7)C=C6)C=C5)cc3)C2)n1
REMARK SMILES IDX 19 1 18 2 16 3 17 4 15 5 12 6 13 7 90 8 14 9 11 10 10 12
REMARK SMILES IDX 5 13 6 14 91 15 7 16 8 17 9 18 3 19 4 20 2 21 1 22 20 23
REMARK SMILES IDX 21 24 22 25 23 26 24 27 25 28 89 29 26 30 88 31 27 32 28 33
REMARK SMILES IDX 29 34 82 35 30 36 87 37 81 38 83 39 31 40 86 41 80 42 79 43
REMARK SMILES IDX 32 45 66 46 45 47 65 48 46 49 49 50 64 51 84 52 47 53 48 54
REMARK SMILES IDX 63 56 85 57 50 58 33 59 34 60 43 61 35 62 36 63 42 64 44 65
REMARK SMILES IDX 37 66 38 67 39 68 40 69 41 70 67 71 68 72 77 73 69 74 70 75
REMARK SMILES IDX 76 76 78 77 71 78 72 79 73 80 74 81 75 82 51 83 52 84 61 85
REMARK SMILES IDX 53 86 54 87 60 88 62 89 55 90 56 91 57 92 58 93 59 94
REMARK H PARENT 11 11 83 44 49 55
REMARK Flexibility Score: inf
ROOT
ATOM      1  C   UNL A   1      32.103  29.919  26.618  1.00  0.00     0.274 C 
ENDROOT
BRANCH   1   2
ATOM      2  O   UNL A   1      32.029  29.072  25.456  1.00  0.00    -0.462 OA
BRANCH   2   3
ATOM      3  C   UNL A   1      32.093  27.724  25.643  1.00  0.00     0.312 C 
ATOM      4  O   UNL A   1      33.054  27.126  26.117  1.00  0.00    -0.252 OA
BRANCH   3   5
ATOM      5  C   UNL A   1      30.879  27.014  25.039  1.00  0.00     0.124 C 
ATOM      6  C   UNL A   1      30.603  24.581  25.144  1.00  0.00     0.104 C 
ATOM      7  C   UNL A   1      31.020  25.021  23.787  1.00  0.00    -0.006 C 
ATOM      8  C   UNL A   1      30.276  25.873  25.877  1.00  0.00     0.048 C 
ATOM      9  C   UNL A   1      31.178  26.348  23.724  1.00  0.00    -0.014 C 
BRANCH   6  10
ATOM     10  N   UNL A   1      31.584  23.765  25.817  1.00  0.00    -0.364 N 
ATOM     11  H   UNL A   1      31.739  23.998  26.762  1.00  0.00     0.162 HD
BRANCH  10  12
ATOM     12  C   UNL A   1      32.348  22.699  25.340  1.00  0.00     0.131 A 
ATOM     13  C   UNL A   1      32.966  19.677  25.042  1.00  0.00     0.241 A 
ATOM     14  N   UNL A   1      34.656  20.068  24.694  1.00  0.00    -0.227 NA
ATOM     15  N   UNL A   1      31.777  21.006  25.217  1.00  0.00    -0.205 NA
ATOM     16  C   UNL A   1      35.214  21.757  24.783  1.00  0.00     0.044 A 
ATOM     17  C   UNL A   1      36.681  22.032  24.641  1.00  0.00     0.067 C 
ATOM     18  C   UNL A   1      34.095  23.085  25.209  1.00  0.00     0.070 A 
BRANCH  13  19
ATOM     19  C   UNL A   1      32.576  18.248  24.982  1.00  0.00     0.376 C 
ATOM     20  O   UNL A   1      32.358  17.562  25.970  1.00  0.00    -0.242 OA
BRANCH  19  21
ATOM     21  O   UNL A   1      32.616  17.806  23.704  1.00  0.00    -0.463 OA
ATOM     22  C   UNL A   1      33.598  16.797  23.476  1.00  0.00     0.282 C 
ENDBRANCH  19  21
ENDBRANCH  13  19
ENDBRANCH  10  12
ENDBRANCH   6  10
ENDBRANCH   3   5
ENDBRANCH   2   3
ENDBRANCH   1   2
BRANCH   1  23
ATOM     23  C   UNL A   1      33.558  30.334  26.866  1.00  0.00     0.275 C 
BRANCH  23  24
ATOM     24  O   UNL A   1      33.567  31.360  27.885  1.00  0.00    -0.458 OA
BRANCH  24  25
ATOM     25  C   UNL A   1      34.719  31.517  28.811  1.00  0.00     0.338 C 
ATOM     26  O   UNL A   1      34.353  32.488  29.519  1.00  0.00    -0.246 OA
BRANCH  25  27
ATOM     27  C   UNL A   1      36.486  30.277  28.832  1.00  0.00     0.060 A 
ATOM     28  C   UNL A   1      37.104  29.545  29.994  1.00  0.00     0.016 A 
ATOM     29  C   UNL A   1      37.419  29.893  27.734  1.00  0.00     0.016 A 
ATOM     30  C   UNL A   1      38.446  29.260  30.196  1.00  0.00     0.010 A 
ATOM     31  C   UNL A   1      38.763  29.526  27.868  1.00  0.00     0.010 A 
ATOM     32  C   UNL A   1      39.293  29.348  29.127  1.00  0.00    -0.014 A 
BRANCH  32  33
ATOM     33  C   UNL A   1      40.701  29.031  29.274  1.00  0.00     0.031 A 
ATOM     34  C   UNL A   1      41.660  30.147  29.492  1.00  0.00     0.074 A 
ATOM     35  C   UNL A   1      41.021  27.750  29.046  1.00  0.00     0.049 A 
ATOM     36  N   UNL A   1      42.951  30.150  29.343  1.00  0.00    -0.248 NA
ATOM     37  C   UNL A   1      41.091  31.446  29.897  1.00  0.00     0.031 C 
ATOM     38  C   UNL A   1      40.050  26.665  28.836  1.00  0.00     0.029 A 
ATOM     39  N   UNL A   1      42.230  27.157  28.877  1.00  0.00    -0.354 N 
ATOM     40  C   UNL A   1      43.355  31.453  29.598  1.00  0.00     0.074 A 
ATOM     41  C   UNL A   1      42.169  32.221  29.907  1.00  0.00     0.031 C 
ATOM     42  C   UNL A   1      40.704  25.549  28.503  1.00  0.00     0.029 A 
ATOM     43  C   UNL A   1      42.117  25.867  28.420  1.00  0.00     0.049 A 
ATOM     44  H   UNL A   1      43.089  27.601  29.060  1.00  0.00     0.167 HD
ATOM     45  C   UNL A   1      44.619  31.933  29.549  1.00  0.00     0.037 A 
ATOM     46  C   UNL A   1      43.063  25.065  27.916  1.00  0.00     0.037 A 
ATOM     47  C   UNL A   1      45.732  31.086  29.195  1.00  0.00     0.049 A 
ATOM     48  C   UNL A   1      44.449  25.622  27.869  1.00  0.00     0.074 A 
ATOM     49  C   UNL A   1      47.076  31.393  29.134  1.00  0.00     0.029 A 
ATOM     50  N   UNL A   1      45.608  29.745  28.830  1.00  0.00    -0.354 N 
ATOM     51  N   UNL A   1      44.849  26.845  28.143  1.00  0.00    -0.248 NA
ATOM     52  C   UNL A   1      45.512  24.702  27.476  1.00  0.00     0.031 C 
ATOM     53  C   UNL A   1      47.756  30.253  28.689  1.00  0.00     0.029 A 
ATOM     54  C   UNL A   1      46.847  29.214  28.530  1.00  0.00     0.049 A 
ATOM     55  H   UNL A   1      44.758  29.249  28.793  1.00  0.00     0.167 HD
ATOM     56  C   UNL A   1      46.223  26.839  27.986  1.00  0.00     0.074 A 
ATOM     57  C   UNL A   1      46.579  25.480  27.603  1.00  0.00     0.031 C 
ATOM     58  C   UNL A   1      47.118  27.847  28.145  1.00  0.00     0.037 A 
BRANCH  45  59
ATOM     59  C   UNL A   1      44.843  33.394  29.842  1.00  0.00     0.058 A 
ATOM     60  C   UNL A   1      45.099  33.862  31.143  1.00  0.00     0.135 A 
ATOM     61  C   UNL A   1      44.824  34.347  28.808  1.00  0.00     0.135 A 
ATOM     62  F   UNL A   1      45.110  33.008  32.179  1.00  0.00    -0.206 F 
ATOM     63  C   UNL A   1      45.300  35.214  31.411  1.00  0.00     0.059 A 
ATOM     64  C   UNL A   1      45.050  35.702  29.049  1.00  0.00     0.059 A 
ATOM     65  F   UNL A   1      44.572  33.968  27.546  1.00  0.00    -0.206 F 
ATOM     66  C   UNL A   1      45.277  36.127  30.356  1.00  0.00     0.060 A 
BRANCH  66  67
ATOM     67  S   UNL A   1      45.549  37.875  30.723  1.00  0.00     0.124 S 
ATOM     68  O   UNL A   1      45.484  38.466  29.389  1.00  0.00    -0.237 OA
ATOM     69  O   UNL A   1      44.430  38.184  31.606  1.00  0.00    -0.237 OA
ATOM     70  O   UNL A   1      46.866  37.891  31.352  1.00  0.00    -0.744 OA
ENDBRANCH  66  67
ENDBRANCH  45  59
BRANCH  46  71
ATOM     71  C   UNL A   1      42.699  23.696  27.489  1.00  0.00     0.058 A 
ATOM     72  C   UNL A   1      42.582  23.397  26.126  1.00  0.00     0.135 A 
ATOM     73  C   UNL A   1      42.601  22.634  28.405  1.00  0.00     0.135 A 
ATOM     74  F   UNL A   1      42.702  24.375  25.214  1.00  0.00    -0.206 F 
ATOM     75  C   UNL A   1      42.360  22.100  25.683  1.00  0.00     0.059 A 
ATOM     76  C   UNL A   1      42.404  21.322  27.985  1.00  0.00     0.059 A 
ATOM     77  F   UNL A   1      42.761  22.861  29.718  1.00  0.00    -0.206 F 
ATOM     78  C   UNL A   1      42.275  21.068  26.619  1.00  0.00     0.060 A 
BRANCH  78  79
ATOM     79  S   UNL A   1      42.029  19.385  26.017  1.00  0.00     0.124 S 
ATOM     80  O   UNL A   1      40.586  19.360  25.806  1.00  0.00    -0.237 OA
ATOM     81  O   UNL A   1      42.851  19.369  24.812  1.00  0.00    -0.237 OA
ATOM     82  O   UNL A   1      42.520  18.557  27.115  1.00  0.00    -0.744 OA
ENDBRANCH  78  79
ENDBRANCH  46  71
BRANCH  58  83
ATOM     83  C   UNL A   1      48.553  27.478  27.931  1.00  0.00     0.058 A 
ATOM     84  C   UNL A   1      49.141  27.531  26.660  1.00  0.00     0.135 A 
ATOM     85  C   UNL A   1      49.347  27.097  29.023  1.00  0.00     0.135 A 
ATOM     86  F   UNL A   1      48.409  27.876  25.588  1.00  0.00    -0.206 F 
ATOM     87  C   UNL A   1      50.470  27.186  26.472  1.00  0.00     0.059 A 
ATOM     88  C   UNL A   1      50.688  26.783  28.862  1.00  0.00     0.059 A 
ATOM     89  F   UNL A   1      48.823  27.041  30.258  1.00  0.00    -0.206 F 
ATOM     90  C   UNL A   1      51.237  26.818  27.580  1.00  0.00     0.060 A 
BRANCH  90  91
ATOM     91  S   UNL A   1      52.972  26.409  27.325  1.00  0.00     0.124 S 
ATOM     92  O   UNL A   1      53.448  26.284  28.699  1.00  0.00    -0.237 OA
ATOM     93  O   UNL A   1      52.888  25.165  26.565  1.00  0.00    -0.237 OA
ATOM     94  O   UNL A   1      53.485  27.557  26.584  1.00  0.00    -0.744 OA
ENDBRANCH  90  91
ENDBRANCH  58  83
ENDBRANCH  32  33
ENDBRANCH  25  27
ENDBRANCH  24  25
ENDBRANCH  23  24
ENDBRANCH   1  23
TORSDOF 18
ENDMDL
MODEL 2
REMARK VINA RESULT:     -11.8      5.945     11.576
REMARK SMILES COC(=O)c1nc(C)cc(N[C@@H]2C=C[C@H](C(=O)OCCOC(=O)c3ccc(-c4c5nc(c(-c6c(F)cc(S(=O)(=O)[O-])cc6F)c6ccc([nH]6)c(-c6c(F)cc(S(=O)(=O)[O-])cc6F)c6nc(c(-c7c(F)cc(S(=O)(=O)[O-])cc7F)c7ccc4[nH]7)C=C6)C=C5)cc3)C2)n1
REMARK SMILES IDX 19 1 18 2 16 3 17 4 15 5 12 6 13 7 90 8 14 9 11 10 10 12
REMARK SMILES IDX 5 13 6 14 91 15 7 16 8 17 9 18 3 19 4 20 2 21 1 22 20 23
REMARK SMILES IDX 21 24 22 25 23 26 24 27 25 28 89 29 26 30 88 31 27 32 28 33
REMARK SMILES IDX 29 34 82 35 30 36 87 37 81 38 83 39 31 40 86 41 80 42 79 43
REMARK SMILES IDX 32 45 66 46 45 47 65 48 46 49 49 50 64 51 84 52 47 53 48 54
REMARK SMILES IDX 63 56 85 57 50 58 33 59 34 60 43 61 35 62 36 63 42 64 44 65
REMARK SMILES IDX 37 66 38 67 39 68 40 69 41 70 67 71 68 72 77 73 69 74 70 75
REMARK SMILES IDX 76 76 78 77 71 78 72 79 73 80 74 81 75 82 51 83 52 84 61 85
REMARK SMILES IDX 53 86 54 87 60 88 62 89 55 90 56 91 57 92 58 93 59 94
REMARK H PARENT 11 11 83 44 49 55
REMARK Flexibility Score: inf
ROOT
ATOM      1  C   UNL A   1      37.622  22.565  25.596  1.00  0.00     0.274 C 
ENDROOT
BRANCH   1   2
ATOM      2  O   UNL A   1      36.483  21.684  25.567  1.00  0.00    -0.462 OA
BRANCH   2   3
ATOM      3  C   UNL A   1      35.248  22.231  25.748  1.00  0.00     0.312 C 
ATOM      4  O   UNL A   1      34.881  22.818  26.760  1.00  0.00    -0.252 OA
BRANCH   3   5
ATOM      5  C   UNL A   1      34.307  21.887  24.591  1.00  0.00     0.124 C 
ATOM      6  C   UNL A   1      33.285  23.611  23.182  1.00  0.00     0.104 C 
ATOM      7  C   UNL A   1      32.304  23.050  24.147  1.00  0.00    -0.006 C 
ATOM      8  C   UNL A   1      34.497  22.700  23.298  1.00  0.00     0.048 C 
ATOM      9  C   UNL A   1      32.857  22.111  24.924  1.00  0.00    -0.014 C 
BRANCH   6  10
ATOM     10  N   UNL A   1      33.585  25.005  23.403  1.00  0.00    -0.364 N 
ATOM     11  H   UNL A   1      34.523  25.258  23.242  1.00  0.00     0.162 HD
BRANCH  10  12
ATOM     12  C   UNL A   1      32.754  26.050  23.811  1.00  0.00     0.131 A 
ATOM     13  C   UNL A   1      30.752  28.348  23.250  1.00  0.00     0.241 A 
ATOM     14  N   UNL A   1      31.197  29.097  24.790  1.00  0.00    -0.227 NA
ATOM     15  N   UNL A   1      31.424  26.741  22.831  1.00  0.00    -0.205 NA
ATOM     16  C   UNL A   1      32.498  28.390  25.780  1.00  0.00     0.044 A 
ATOM     17  C   UNL A   1      32.958  29.138  26.994  1.00  0.00     0.067 C 
ATOM     18  C   UNL A   1      33.367  26.917  25.257  1.00  0.00     0.070 A 
BRANCH  13  19
ATOM     19  C   UNL A   1      29.683  29.007  22.461  1.00  0.00     0.376 C 
ATOM     20  O   UNL A   1      29.899  29.751  21.516  1.00  0.00    -0.242 OA
BRANCH  19  21
ATOM     21  O   UNL A   1      28.474  28.758  23.013  1.00  0.00    -0.463 OA
ATOM     22  C   UNL A   1      27.589  29.877  22.985  1.00  0.00     0.282 C 
ENDBRANCH  19  21
ENDBRANCH  13  19
ENDBRANCH  10  12
ENDBRANCH   6  10
ENDBRANCH   3   5
ENDBRANCH   2   3
ENDBRANCH   1   2
BRANCH   1  23
ATOM     23  C   UNL A   1      38.855  21.805  26.099  1.00  0.00     0.275 C 
BRANCH  23  24
ATOM     24  O   UNL A   1      39.963  22.732  26.160  1.00  0.00    -0.458 OA
BRANCH  24  25
ATOM     25  C   UNL A   1      40.477  23.235  27.460  1.00  0.00     0.338 C 
ATOM     26  O   UNL A   1      41.038  22.214  27.931  1.00  0.00    -0.246 OA
BRANCH  25  27
ATOM     27  C   UNL A   1      40.264  25.255  28.193  1.00  0.00     0.060 A 
ATOM     28  C   UNL A   1      41.192  26.425  27.999  1.00  0.00     0.016 A 
ATOM     29  C   UNL A   1      39.184  25.888  29.002  1.00  0.00     0.016 A 
ATOM     30  C   UNL A   1      41.409  27.484  28.868  1.00  0.00     0.010 A 
ATOM     31  C   UNL A   1      39.311  26.999  29.844  1.00  0.00     0.010 A 
ATOM     32  C   UNL A   1      40.494  27.704  29.859  1.00  0.00    -0.014 A 
BRANCH  32  33
ATOM     33  C   UNL A   1      40.654  28.816  30.776  1.00  0.00     0.031 A 
ATOM     34  C   UNL A   1      41.566  28.650  31.940  1.00  0.00     0.074 A 
ATOM     35  C   UNL A   1      39.833  29.853  30.560  1.00  0.00     0.049 A 
ATOM     36  N   UNL A   1      41.631  29.357  33.029  1.00  0.00    -0.248 NA
ATOM     37  C   UNL A   1      42.509  27.517  31.892  1.00  0.00     0.031 C 
ATOM     38  C   UNL A   1      38.942  29.992  29.397  1.00  0.00     0.029 A 
ATOM     39  N   UNL A   1      39.554  30.935  31.329  1.00  0.00    -0.354 N 
ATOM     40  C   UNL A   1      42.592  28.740  33.819  1.00  0.00     0.074 A 
ATOM     41  C   UNL A   1      43.084  27.595  33.087  1.00  0.00     0.031 C 
ATOM     42  C   UNL A   1      38.169  31.069  29.564  1.00  0.00     0.029 A 
ATOM     43  C   UNL A   1      38.474  31.642  30.861  1.00  0.00     0.049 A 
ATOM     44  H   UNL A   1      40.067  31.186  32.131  1.00  0.00     0.167 HD
ATOM     45  C   UNL A   1      42.989  29.120  35.055  1.00  0.00     0.037 A 
ATOM     46  C   UNL A   1      37.766  32.602  31.469  1.00  0.00     0.037 A 
ATOM     47  C   UNL A   1      42.407  30.265  35.713  1.00  0.00     0.049 A 
ATOM     48  C   UNL A   1      38.222  32.998  32.836  1.00  0.00     0.074 A 
ATOM     49  C   UNL A   1      42.714  30.813  36.942  1.00  0.00     0.029 A 
ATOM     50  N   UNL A   1      41.375  31.035  35.175  1.00  0.00    -0.354 N 
ATOM     51  N   UNL A   1      39.156  32.445  33.579  1.00  0.00    -0.248 NA
ATOM     52  C   UNL A   1      37.562  34.152  33.438  1.00  0.00     0.031 C 
ATOM     53  C   UNL A   1      41.837  31.882  37.165  1.00  0.00     0.029 A 
ATOM     54  C   UNL A   1      41.024  32.043  36.050  1.00  0.00     0.049 A 
ATOM     55  H   UNL A   1      40.957  30.880  34.296  1.00  0.00     0.167 HD
ATOM     56  C   UNL A   1      39.222  33.203  34.733  1.00  0.00     0.074 A 
ATOM     57  C   UNL A   1      38.235  34.262  34.576  1.00  0.00     0.031 C 
ATOM     58  C   UNL A   1      40.018  33.057  35.822  1.00  0.00     0.037 A 
BRANCH  45  59
ATOM     59  C   UNL A   1      44.039  28.297  35.755  1.00  0.00     0.058 A 
ATOM     60  C   UNL A   1      45.413  28.545  35.588  1.00  0.00     0.135 A 
ATOM     61  C   UNL A   1      43.674  27.256  36.626  1.00  0.00     0.135 A 
ATOM     62  F   UNL A   1      45.830  29.511  34.754  1.00  0.00    -0.206 F 
ATOM     63  C   UNL A   1      46.381  27.778  36.233  1.00  0.00     0.059 A 
ATOM     64  C   UNL A   1      44.625  26.493  37.304  1.00  0.00     0.059 A 
ATOM     65  F   UNL A   1      42.380  26.959  36.820  1.00  0.00    -0.206 F 
ATOM     66  C   UNL A   1      45.977  26.756  37.092  1.00  0.00     0.060 A 
BRANCH  66  67
ATOM     67  S   UNL A   1      47.247  25.779  37.926  1.00  0.00     0.124 S 
ATOM     68  O   UNL A   1      47.960  25.198  36.791  1.00  0.00    -0.237 OA
ATOM     69  O   UNL A   1      47.977  26.796  38.676  1.00  0.00    -0.237 OA
ATOM     70  O   UNL A   1      46.480  24.837  38.734  1.00  0.00    -0.744 OA
ENDBRANCH  66  67
ENDBRANCH  45  59
BRANCH  46  71
ATOM     71  C   UNL A   1      36.632  33.227  30.754  1.00  0.00     0.058 A 
ATOM     72  C   UNL A   1      35.320  32.996  31.185  1.00  0.00     0.135 A 
ATOM     73  C   UNL A   1      36.830  34.170  29.729  1.00  0.00     0.135 A 
ATOM     74  F   UNL A   1      35.087  32.129  32.183  1.00  0.00    -0.206 F 
ATOM     75  C   UNL A   1      34.240  33.658  30.617  1.00  0.00     0.059 A 
ATOM     76  C   UNL A   1      35.767  34.865  29.161  1.00  0.00     0.059 A 
ATOM     77  F   UNL A   1      38.073  34.467  29.320  1.00  0.00    -0.206 F 
ATOM     78  C   UNL A   1      34.473  34.593  29.606  1.00  0.00     0.060 A 
BRANCH  78  79
ATOM     79  S   UNL A   1      33.059  35.472  28.912  1.00  0.00     0.124 S 
ATOM     80  O   UNL A   1      33.718  36.532  28.157  1.00  0.00    -0.237 OA
ATOM     81  O   UNL A   1      32.412  34.432  28.119  1.00  0.00    -0.237 OA
ATOM     82  O   UNL A   1      32.316  35.906  30.091  1.00  0.00    -0.744 OA
ENDBRANCH  78  79
ENDBRANCH  46  71
BRANCH  58  83
ATOM     83  C   UNL A   1      39.853  34.094  36.889  1.00  0.00     0.058 A 
ATOM     84  C   UNL A   1      40.423  35.369  36.765  1.00  0.00     0.135 A 
ATOM     85  C   UNL A   1      39.089  33.809  38.030  1.00  0.00     0.135 A 
ATOM     86  F   UNL A   1      41.174  35.675  35.695  1.00  0.00    -0.206 F 
ATOM     87  C   UNL A   1      40.266  36.322  37.759  1.00  0.00     0.059 A 
ATOM     88  C   UNL A   1      38.889  34.760  39.019  1.00  0.00     0.059 A 
ATOM     89  F   UNL A   1      38.521  32.602  38.183  1.00  0.00    -0.206 F 
ATOM     90  C   UNL A   1      39.493  36.010  38.880  1.00  0.00     0.060 A 
BRANCH  90  91
ATOM     91  S   UNL A   1      39.267  37.272  40.145  1.00  0.00     0.124 S 
ATOM     92  O   UNL A   1      38.511  38.285  39.415  1.00  0.00    -0.237 OA
ATOM     93  O   UNL A   1      38.531  36.548  41.177  1.00  0.00    -0.237 OA
ATOM     94  O   UNL A   1      40.633  37.643  40.501  1.00  0.00    -0.744 OA
ENDBRANCH  90  91
ENDBRANCH  58  83
ENDBRANCH  32  33
ENDBRANCH  25  27
ENDBRANCH  24  25
ENDBRANCH  23  24
ENDBRANCH   1  23
TORSDOF 18
ENDMDL
MODEL 3
REMARK VINA RESULT:     -11.0      2.989      9.666
REMARK SMILES COC(=O)c1nc(C)cc(N[C@@H]2C=C[C@H](C(=O)OCCOC(=O)c3ccc(-c4c5nc(c(-c6c(F)cc(S(=O)(=O)[O-])cc6F)c6ccc([nH]6)c(-c6c(F)cc(S(=O)(=O)[O-])cc6F)c6nc(c(-c7c(F)cc(S(=O)(=O)[O-])cc7F)c7ccc4[nH]7)C=C6)C=C5)cc3)C2)n1
REMARK SMILES IDX 19 1 18 2 16 3 17 4 15 5 12 6 13 7 90 8 14 9 11 10 10 12
REMARK SMILES IDX 5 13 6 14 91 15 7 16 8 17 9 18 3 19 4 20 2 21 1 22 20 23
REMARK SMILES IDX 21 24 22 25 23 26 24 27 25 28 89 29 26 30 88 31 27 32 28 33
REMARK SMILES IDX 29 34 82 35 30 36 87 37 81 38 83 39 31 40 86 41 80 42 79 43
REMARK SMILES IDX 32 45 66 46 45 47 65 48 46 49 49 50 64 51 84 52 47 53 48 54
REMARK SMILES IDX 63 56 85 57 50 58 33 59 34 60 43 61 35 62 36 63 42 64 44 65
REMARK SMILES IDX 37 66 38 67 39 68 40 69 41 70 67 71 68 72 77 73 69 74 70 75
REMARK SMILES IDX 76 76 78 77 71 78 72 79 73 80 74 81 75 82 51 83 52 84 61 85
REMARK SMILES IDX 53 86 54 87 60 88 62 89 55 90 56 91 57 92 58 93 59 94
REMARK H PARENT 11 11 83 44 49 55
REMARK Flexibility Score: inf
ROOT
ATOM      1  C   UNL A   1      34.484  33.229  32.445  1.00  0.00     0.274 C 
ENDROOT
BRANCH   1   2
ATOM      2  O   UNL A   1      34.458  32.397  31.270  1.00  0.00    -0.462 OA
BRANCH   2   3
ATOM      3  C   UNL A   1      34.442  33.010  30.054  1.00  0.00     0.312 C 
ATOM      4  O   UNL A   1      33.657  33.891  29.721  1.00  0.00    -0.252 OA
BRANCH   3   5
ATOM      5  C   UNL A   1      35.426  32.353  29.081  1.00  0.00     0.124 C 
ATOM      6  C   UNL A   1      34.746  30.576  27.538  1.00  0.00     0.104 C 
ATOM      7  C   UNL A   1      35.517  30.031  28.685  1.00  0.00    -0.006 C 
ATOM      8  C   UNL A   1      34.897  32.085  27.662  1.00  0.00     0.048 C 
ATOM      9  C   UNL A   1      35.886  30.995  29.536  1.00  0.00    -0.014 C 
BRANCH   6  10
ATOM     10  N   UNL A   1      33.374  30.133  27.496  1.00  0.00    -0.364 N 
ATOM     11  H   UNL A   1      32.831  30.390  28.277  1.00  0.00     0.162 HD
BRANCH  10  12
ATOM     12  C   UNL A   1      32.695  29.398  26.523  1.00  0.00     0.131 A 
ATOM     13  C   UNL A   1      30.679  29.136  24.184  1.00  0.00     0.241 A 
ATOM     14  N   UNL A   1      30.511  27.410  24.536  1.00  0.00    -0.227 NA
ATOM     15  N   UNL A   1      31.890  30.101  25.086  1.00  0.00    -0.205 NA
ATOM     16  C   UNL A   1      31.340  26.706  25.947  1.00  0.00     0.044 A 
ATOM     17  C   UNL A   1      31.047  25.281  26.309  1.00  0.00     0.067 C 
ATOM     18  C   UNL A   1      32.359  27.708  27.022  1.00  0.00     0.070 A 
BRANCH  13  19
ATOM     19  C   UNL A   1      29.937  29.663  23.014  1.00  0.00     0.376 C 
ATOM     20  O   UNL A   1      30.376  29.656  21.873  1.00  0.00    -0.242 OA
BRANCH  19  21
ATOM     21  O   UNL A   1      28.784  30.245  23.414  1.00  0.00    -0.463 OA
ATOM     22  C   UNL A   1      28.947  31.585  23.876  1.00  0.00     0.282 C 
ENDBRANCH  19  21
ENDBRANCH  13  19
ENDBRANCH  10  12
ENDBRANCH   6  10
ENDBRANCH   3   5
ENDBRANCH   2   3
ENDBRANCH   1   2
BRANCH   1  23
ATOM     23  C   UNL A   1      35.647  32.811  33.353  1.00  0.00     0.275 C 
BRANCH  23  24
ATOM     24  O   UNL A   1      36.835  32.687  32.538  1.00  0.00    -0.458 OA
BRANCH  24  25
ATOM     25  C   UNL A   1      37.929  31.753  32.907  1.00  0.00     0.338 C 
ATOM     26  O   UNL A   1      37.914  31.819  34.161  1.00  0.00    -0.246 OA
BRANCH  25  27
ATOM     27  C   UNL A   1      39.125  30.613  31.517  1.00  0.00     0.060 A 
ATOM     28  C   UNL A   1      40.212  29.615  31.815  1.00  0.00     0.016 A 
ATOM     29  C   UNL A   1      39.110  30.570  30.027  1.00  0.00     0.016 A 
ATOM     30  C   UNL A   1      41.332  29.331  31.047  1.00  0.00     0.010 A 
ATOM     31  C   UNL A   1      40.177  30.226  29.189  1.00  0.00     0.010 A 
ATOM     32  C   UNL A   1      41.338  29.732  29.741  1.00  0.00    -0.014 A 
BRANCH  32  33
ATOM     33  C   UNL A   1      42.469  29.434  28.884  1.00  0.00     0.031 A 
ATOM     34  C   UNL A   1      42.628  28.044  28.377  1.00  0.00     0.074 A 
ATOM     35  C   UNL A   1      43.357  30.428  28.750  1.00  0.00     0.049 A 
ATOM     36  N   UNL A   1      43.685  27.478  27.875  1.00  0.00    -0.248 NA
ATOM     37  C   UNL A   1      41.454  27.157  28.482  1.00  0.00     0.031 C 
ATOM     38  C   UNL A   1      43.172  31.796  29.260  1.00  0.00     0.029 A 
ATOM     39  N   UNL A   1      44.608  30.431  28.224  1.00  0.00    -0.354 N 
ATOM     40  C   UNL A   1      43.325  26.159  27.634  1.00  0.00     0.074 A 
ATOM     41  C   UNL A   1      41.949  26.003  28.051  1.00  0.00     0.031 C 
ATOM     42  C   UNL A   1      44.300  32.489  29.075  1.00  0.00     0.029 A 
ATOM     43  C   UNL A   1      45.285  31.594  28.499  1.00  0.00     0.049 A 
ATOM     44  H   UNL A   1      44.988  29.685  27.706  1.00  0.00     0.167 HD
ATOM     45  C   UNL A   1      44.113  25.185  27.122  1.00  0.00     0.037 A 
ATOM     46  C   UNL A   1      46.589  31.863  28.362  1.00  0.00     0.037 A 
ATOM     47  C   UNL A   1      45.488  25.440  26.769  1.00  0.00     0.049 A 
ATOM     48  C   UNL A   1      47.438  30.768  27.800  1.00  0.00     0.074 A 
ATOM     49  C   UNL A   1      46.415  24.586  26.205  1.00  0.00     0.029 A 
ATOM     50  N   UNL A   1      46.132  26.663  26.962  1.00  0.00    -0.354 N 
ATOM     51  N   UNL A   1      47.098  29.526  27.534  1.00  0.00    -0.248 NA
ATOM     52  C   UNL A   1      48.825  31.106  27.495  1.00  0.00     0.031 C 
ATOM     53  C   UNL A   1      47.628  25.279  26.102  1.00  0.00     0.029 A 
ATOM     54  C   UNL A   1      47.445  26.584  26.543  1.00  0.00     0.049 A 
ATOM     55  H   UNL A   1      45.709  27.466  27.343  1.00  0.00     0.167 HD
ATOM     56  C   UNL A   1      48.226  28.932  26.996  1.00  0.00     0.074 A 
ATOM     57  C   UNL A   1      49.251  29.965  26.969  1.00  0.00     0.031 C 
ATOM     58  C   UNL A   1      48.410  27.661  26.558  1.00  0.00     0.037 A 
BRANCH  45  59
ATOM     59  C   UNL A   1      43.531  23.805  26.958  1.00  0.00     0.058 A 
ATOM     60  C   UNL A   1      43.153  23.302  25.701  1.00  0.00     0.135 A 
ATOM     61  C   UNL A   1      43.366  22.957  28.067  1.00  0.00     0.135 A 
ATOM     62  F   UNL A   1      43.265  24.067  24.603  1.00  0.00    -0.206 F 
ATOM     63  C   UNL A   1      42.610  22.027  25.553  1.00  0.00     0.059 A 
ATOM     64  C   UNL A   1      42.851  21.667  27.939  1.00  0.00     0.059 A 
ATOM     65  F   UNL A   1      43.695  23.382  29.297  1.00  0.00    -0.206 F 
ATOM     66  C   UNL A   1      42.466  21.215  26.679  1.00  0.00     0.060 A 
BRANCH  66  67
ATOM     67  S   UNL A   1      41.769  19.562  26.466  1.00  0.00     0.124 S 
ATOM     68  O   UNL A   1      40.340  19.855  26.395  1.00  0.00    -0.237 OA
ATOM     69  O   UNL A   1      42.387  19.125  25.218  1.00  0.00    -0.237 OA
ATOM     70  O   UNL A   1      42.205  18.850  27.663  1.00  0.00    -0.744 OA
ENDBRANCH  66  67
ENDBRANCH  45  59
BRANCH  46  71
ATOM     71  C   UNL A   1      47.092  33.207  28.723  1.00  0.00     0.058 A 
ATOM     72  C   UNL A   1      47.022  34.253  27.795  1.00  0.00     0.135 A 
ATOM     73  C   UNL A   1      47.515  33.514  30.029  1.00  0.00     0.135 A 
ATOM     74  F   UNL A   1      46.592  34.012  26.547  1.00  0.00    -0.206 F 
ATOM     75  C   UNL A   1      47.372  35.552  28.136  1.00  0.00     0.059 A 
ATOM     76  C   UNL A   1      47.847  34.813  30.402  1.00  0.00     0.059 A 
ATOM     77  F   UNL A   1      47.546  32.557  30.969  1.00  0.00    -0.206 F 
ATOM     78  C   UNL A   1      47.782  35.824  29.443  1.00  0.00     0.060 A 
BRANCH  78  79
ATOM     79  S   UNL A   1      48.190  37.527  29.875  1.00  0.00     0.124 S 
ATOM     80  O   UNL A   1      46.943  37.981  30.479  1.00  0.00    -0.237 OA
ATOM     81  O   UNL A   1      49.314  37.349  30.789  1.00  0.00    -0.237 OA
ATOM     82  O   UNL A   1      48.526  38.132  28.589  1.00  0.00    -0.744 OA
ENDBRANCH  78  79
ENDBRANCH  46  71
BRANCH  58  83
ATOM     83  C   UNL A   1      49.763  27.361  25.990  1.00  0.00     0.058 A 
ATOM     84  C   UNL A   1      50.017  27.453  24.615  1.00  0.00     0.135 A 
ATOM     85  C   UNL A   1      50.817  27.008  26.845  1.00  0.00     0.135 A 
ATOM     86  F   UNL A   1      49.029  27.773  23.763  1.00  0.00    -0.206 F 
ATOM     87  C   UNL A   1      51.272  27.173  24.099  1.00  0.00     0.059 A 
ATOM     88  C   UNL A   1      52.090  26.759  26.353  1.00  0.00     0.059 A 
ATOM     89  F   UNL A   1      50.616  26.916  28.169  1.00  0.00    -0.206 F 
ATOM     90  C   UNL A   1      52.303  26.831  24.977  1.00  0.00     0.060 A 
BRANCH  90  91
ATOM     91  S   UNL A   1      53.939  26.506  24.295  1.00  0.00     0.124 S 
ATOM     92  O   UNL A   1      53.605  25.788  23.068  1.00  0.00    -0.237 OA
ATOM     93  O   UNL A   1      54.474  27.852  24.119  1.00  0.00    -0.237 OA
ATOM     94  O   UNL A   1      54.586  25.710  25.333  1.00  0.00    -0.744 OA
ENDBRANCH  90  91
ENDBRANCH  58  83
ENDBRANCH  32  33
ENDBRANCH  25  27
ENDBRANCH  24  25
ENDBRANCH  23  24
ENDBRANCH   1  23
TORSDOF 18
ENDMDL
