MODEL 1
REMARK VINA RESULT:     -12.8      0.000      0.000
REMARK SMILES COc1ccc(N2C(=O)/C(=C/c3c(C(=O)OCCOC(=O)c4ccc(-c5c6nc(c(-c7c(F)cc(S(=O)(=O)[O-])cc7F)c7ccc([nH]7)c(-c7c(F)cc(S(=O)(=O)[O-])cc7F)c7nc(c(-c8c(F)cc(S(=O)(=O)[O-])cc8F)c8ccc5[nH]8)C=C7)C=C6)cc4)[nH]c4cc(OC)ccc34)SC2=S)cc1
REMARK SMILES IDX 17 1 16 2 14 3 15 4 13 5 12 6 96 7 88 8 89 9 95 10 90 12
REMARK SMILES IDX 94 13 91 14 11 15 7 16 8 17 98 18 9 19 10 20 97 21 99 22
REMARK SMILES IDX 6 23 3 24 4 25 101 26 5 27 100 28 2 29 1 30 92 31 93 32
REMARK SMILES IDX 18 33 19 34 20 35 21 36 22 37 23 38 87 39 24 40 86 41 25 42
REMARK SMILES IDX 26 43 27 44 80 45 28 46 85 47 79 48 81 49 29 50 84 51 78 52
REMARK SMILES IDX 77 53 30 55 64 56 43 57 63 58 44 59 47 60 62 61 82 62 45 63
REMARK SMILES IDX 46 64 61 66 83 67 48 68 31 69 32 70 41 71 33 72 34 73 40 74
REMARK SMILES IDX 42 75 35 76 36 77 37 78 38 79 39 80 65 81 66 82 75 83 67 84
REMARK SMILES IDX 68 85 74 86 76 87 69 88 70 89 71 90 72 91 73 92 49 93 50 94
REMARK SMILES IDX 59 95 51 96 52 97 58 98 60 99 53 100 54 101 55 102 56 103
REMARK SMILES IDX 57 104
REMARK H PARENT 88 11 81 54 47 65
REMARK Flexibility Score: inf
ROOT
ATOM      1  C   UNL A   1      33.544  30.582  26.873  1.00  0.00     0.275 C 
ENDROOT
BRANCH   1   2
ATOM      2  O   UNL A   1      32.634  29.465  26.958  1.00  0.00    -0.457 OA
BRANCH   2   3
ATOM      3  C   UNL A   1      32.726  28.591  25.920  1.00  0.00     0.355 C 
ATOM      4  O   UNL A   1      33.430  27.588  25.920  1.00  0.00    -0.244 OA
BRANCH   3   5
ATOM      5  C   UNL A   1      31.839  28.941  24.840  1.00  0.00     0.133 A 
ATOM      6  C   UNL A   1      31.432  28.288  23.682  1.00  0.00     0.016 A 
ATOM      7  C   UNL A   1      30.332  29.035  23.126  1.00  0.00     0.008 A 
ATOM      8  N   UNL A   1      31.199  30.151  24.834  1.00  0.00    -0.348 N 
ATOM      9  C   UNL A   1      30.225  30.198  23.884  1.00  0.00     0.050 A 
ATOM     10  C   UNL A   1      29.410  28.889  22.064  1.00  0.00     0.015 A 
ATOM     11  H   UNL A   1      31.415  30.895  25.442  1.00  0.00     0.167 HD
ATOM     12  C   UNL A   1      29.299  31.214  23.648  1.00  0.00     0.073 A 
ATOM     13  C   UNL A   1      28.433  29.890  21.833  1.00  0.00     0.047 A 
ATOM     14  C   UNL A   1      28.385  31.045  22.614  1.00  0.00     0.120 A 
BRANCH   6  15
ATOM     15  C   UNL A   1      32.129  27.157  23.140  1.00  0.00     0.032 C 
ATOM     16  N   UNL A   1      33.444  24.203  24.580  1.00  0.00    -0.261 N 
ATOM     17  C   UNL A   1      33.332  25.050  23.465  1.00  0.00     0.270 C 
ATOM     18  C   UNL A   1      32.313  24.166  25.399  1.00  0.00     0.152 C 
ATOM     19  O   UNL A   1      34.087  25.150  22.505  1.00  0.00    -0.268 OA
ATOM     20  C   UNL A   1      32.115  25.897  23.603  1.00  0.00     0.081 C 
ATOM     21  S   UNL A   1      31.032  25.158  24.696  1.00  0.00    -0.054 SA
ATOM     22  S   UNL A   1      32.054  23.478  26.905  1.00  0.00    -0.051 S 
BRANCH  16  23
ATOM     23  C   UNL A   1      34.677  23.489  24.823  1.00  0.00     0.051 A 
ATOM     24  C   UNL A   1      37.088  22.045  25.298  1.00  0.00     0.119 A 
ATOM     25  C   UNL A   1      35.984  21.414  24.738  1.00  0.00     0.048 A 
ATOM     26  C   UNL A   1      37.009  23.401  25.588  1.00  0.00     0.048 A 
ATOM     27  C   UNL A   1      34.795  22.124  24.508  1.00  0.00     0.030 A 
ATOM     28  C   UNL A   1      35.813  24.105  25.372  1.00  0.00     0.030 A 
BRANCH  24  29
ATOM     29  O   UNL A   1      38.185  21.257  25.507  1.00  0.00    -0.497 OA
ATOM     30  C   UNL A   1      39.238  21.863  26.252  1.00  0.00     0.278 C 
ENDBRANCH  24  29
ENDBRANCH  16  23
ENDBRANCH   6  15
BRANCH  14  31
ATOM     31  O   UNL A   1      27.536  32.105  22.476  1.00  0.00    -0.497 OA
ATOM     32  C   UNL A   1      27.627  32.880  21.293  1.00  0.00     0.278 C 
ENDBRANCH  14  31
ENDBRANCH   3   5
ENDBRANCH   2   3
ENDBRANCH   1   2
BRANCH   1  33
ATOM     33  C   UNL A   1      34.163  30.926  28.232  1.00  0.00     0.275 C 
BRANCH  33  34
ATOM     34  O   UNL A   1      35.588  31.131  28.143  1.00  0.00    -0.458 OA
BRANCH  34  35
ATOM     35  C   UNL A   1      36.263  30.895  29.288  1.00  0.00     0.338 C 
ATOM     36  O   UNL A   1      35.937  31.224  30.417  1.00  0.00    -0.246 OA
BRANCH  35  37
ATOM     37  C   UNL A   1      37.439  30.047  29.058  1.00  0.00     0.060 A 
ATOM     38  C   UNL A   1      38.167  29.630  30.170  1.00  0.00     0.016 A 
ATOM     39  C   UNL A   1      37.973  29.916  27.779  1.00  0.00     0.016 A 
ATOM     40  C   UNL A   1      39.490  29.240  30.030  1.00  0.00     0.010 A 
ATOM     41  C   UNL A   1      39.258  29.381  27.630  1.00  0.00     0.010 A 
ATOM     42  C   UNL A   1      40.047  29.084  28.757  1.00  0.00    -0.014 A 
BRANCH  42  43
ATOM     43  C   UNL A   1      41.459  28.644  28.615  1.00  0.00     0.031 A 
ATOM     44  C   UNL A   1      42.573  29.637  28.803  1.00  0.00     0.074 A 
ATOM     45  C   UNL A   1      41.742  27.357  28.328  1.00  0.00     0.049 A 
ATOM     46  N   UNL A   1      43.827  29.546  28.449  1.00  0.00    -0.248 NA
ATOM     47  C   UNL A   1      42.224  30.912  29.453  1.00  0.00     0.031 C 
ATOM     48  C   UNL A   1      40.759  26.278  28.186  1.00  0.00     0.029 A 
ATOM     49  N   UNL A   1      42.944  26.733  28.105  1.00  0.00    -0.354 N 
ATOM     50  C   UNL A   1      44.396  30.779  28.746  1.00  0.00     0.074 A 
ATOM     51  C   UNL A   1      43.357  31.593  29.339  1.00  0.00     0.031 C 
ATOM     52  C   UNL A   1      41.396  25.125  27.941  1.00  0.00     0.029 A 
ATOM     53  C   UNL A   1      42.818  25.400  27.793  1.00  0.00     0.049 A 
ATOM     54  H   UNL A   1      43.811  27.195  28.162  1.00  0.00     0.167 HD
ATOM     55  C   UNL A   1      45.665  31.191  28.520  1.00  0.00     0.037 A 
ATOM     56  C   UNL A   1      43.732  24.509  27.367  1.00  0.00     0.037 A 
ATOM     57  C   UNL A   1      46.699  30.331  28.002  1.00  0.00     0.049 A 
ATOM     58  C   UNL A   1      45.140  24.977  27.147  1.00  0.00     0.074 A 
ATOM     59  C   UNL A   1      48.020  30.634  27.724  1.00  0.00     0.029 A 
ATOM     60  N   UNL A   1      46.529  28.984  27.714  1.00  0.00    -0.354 N 
ATOM     61  N   UNL A   1      45.640  26.178  27.318  1.00  0.00    -0.248 NA
ATOM     62  C   UNL A   1      46.100  23.984  26.650  1.00  0.00     0.031 C 
ATOM     63  C   UNL A   1      48.644  29.473  27.255  1.00  0.00     0.029 A 
ATOM     64  C   UNL A   1      47.720  28.440  27.268  1.00  0.00     0.049 A 
ATOM     65  H   UNL A   1      45.684  28.488  27.812  1.00  0.00     0.167 HD
ATOM     66  C   UNL A   1      46.973  26.089  26.942  1.00  0.00     0.074 A 
ATOM     67  C   UNL A   1      47.207  24.710  26.560  1.00  0.00     0.031 C 
ATOM     68  C   UNL A   1      47.917  27.061  26.901  1.00  0.00     0.037 A 
BRANCH  55  69
ATOM     69  C   UNL A   1      45.993  32.634  28.779  1.00  0.00     0.058 A 
ATOM     70  C   UNL A   1      45.829  33.629  27.805  1.00  0.00     0.135 A 
ATOM     71  C   UNL A   1      46.464  33.029  30.044  1.00  0.00     0.135 A 
ATOM     72  F   UNL A   1      45.403  33.305  26.574  1.00  0.00    -0.206 F 
ATOM     73  C   UNL A   1      46.142  34.961  28.066  1.00  0.00     0.059 A 
ATOM     74  C   UNL A   1      46.762  34.357  30.334  1.00  0.00     0.059 A 
ATOM     75  F   UNL A   1      46.643  32.116  31.012  1.00  0.00    -0.206 F 
ATOM     76  C   UNL A   1      46.612  35.315  29.333  1.00  0.00     0.060 A 
BRANCH  76  77
ATOM     77  S   UNL A   1      47.015  37.045  29.664  1.00  0.00     0.124 S 
ATOM     78  O   UNL A   1      48.448  37.066  29.385  1.00  0.00    -0.237 OA
ATOM     79  O   UNL A   1      46.173  37.755  28.707  1.00  0.00    -0.237 OA
ATOM     80  O   UNL A   1      46.645  37.216  31.065  1.00  0.00    -0.744 OA
ENDBRANCH  76  77
ENDBRANCH  55  69
BRANCH  56  81
ATOM     81  C   UNL A   1      43.315  23.117  27.055  1.00  0.00     0.058 A 
ATOM     82  C   UNL A   1      43.289  22.650  25.734  1.00  0.00     0.135 A 
ATOM     83  C   UNL A   1      42.986  22.211  28.076  1.00  0.00     0.135 A 
ATOM     84  F   UNL A   1      43.587  23.479  24.723  1.00  0.00    -0.206 F 
ATOM     85  C   UNL A   1      42.956  21.331  25.436  1.00  0.00     0.059 A 
ATOM     86  C   UNL A   1      42.675  20.883  27.806  1.00  0.00     0.059 A 
ATOM     87  F   UNL A   1      43.012  22.606  29.359  1.00  0.00    -0.206 F 
ATOM     88  C   UNL A   1      42.656  20.454  26.480  1.00  0.00     0.060 A 
BRANCH  88  89
ATOM     89  S   UNL A   1      42.299  18.725  26.097  1.00  0.00     0.124 S 
ATOM     90  O   UNL A   1      43.208  18.479  24.984  1.00  0.00    -0.237 OA
ATOM     91  O   UNL A   1      42.627  18.053  27.350  1.00  0.00    -0.237 OA
ATOM     92  O   UNL A   1      40.879  18.746  25.762  1.00  0.00    -0.744 OA
ENDBRANCH  88  89
ENDBRANCH  56  81
BRANCH  68  93
ATOM     93  C   UNL A   1      49.285  26.653  26.448  1.00  0.00     0.058 A 
ATOM     94  C   UNL A   1      50.188  26.035  27.325  1.00  0.00     0.135 A 
ATOM     95  C   UNL A   1      49.678  26.846  25.115  1.00  0.00     0.135 A 
ATOM     96  F   UNL A   1      49.856  25.840  28.611  1.00  0.00    -0.206 F 
ATOM     97  C   UNL A   1      51.447  25.633  26.897  1.00  0.00     0.059 A 
ATOM     98  C   UNL A   1      50.926  26.437  24.662  1.00  0.00     0.059 A 
ATOM     99  F   UNL A   1      48.842  27.429  24.241  1.00  0.00    -0.206 F 
ATOM    100  C   UNL A   1      51.808  25.839  25.564  1.00  0.00     0.060 A 
BRANCH 100 101
ATOM    101  S   UNL A   1      53.432  25.285  25.007  1.00  0.00     0.124 S 
ATOM    102  O   UNL A   1      54.318  26.091  25.840  1.00  0.00    -0.237 OA
ATOM    103  O   UNL A   1      53.401  23.858  25.312  1.00  0.00    -0.237 OA
ATOM    104  O   UNL A   1      53.432  25.615  23.585  1.00  0.00    -0.744 OA
ENDBRANCH 100 101
ENDBRANCH  68  93
ENDBRANCH  42  43
ENDBRANCH  35  37
ENDBRANCH  34  35
ENDBRANCH  33  34
ENDBRANCH   1  33
TORSDOF 18
ENDMDL
MODEL 2
REMARK VINA RESULT:     -12.7      6.191     12.176
REMARK SMILES COc1ccc(N2C(=O)/C(=C/c3c(C(=O)OCCOC(=O)c4ccc(-c5c6nc(c(-c7c(F)cc(S(=O)(=O)[O-])cc7F)c7ccc([nH]7)c(-c7c(F)cc(S(=O)(=O)[O-])cc7F)c7nc(c(-c8c(F)cc(S(=O)(=O)[O-])cc8F)c8ccc5[nH]8)C=C7)C=C6)cc4)[nH]c4cc(OC)ccc34)SC2=S)cc1
REMARK SMILES IDX 17 1 16 2 14 3 15 4 13 5 12 6 96 7 88 8 89 9 95 10 90 12
REMARK SMILES IDX 94 13 91 14 11 15 7 16 8 17 98 18 9 19 10 20 97 21 99 22
REMARK SMILES IDX 6 23 3 24 4 25 101 26 5 27 100 28 2 29 1 30 92 31 93 32
REMARK SMILES IDX 18 33 19 34 20 35 21 36 22 37 23 38 87 39 24 40 86 41 25 42
REMARK SMILES IDX 26 43 27 44 80 45 28 46 85 47 79 48 81 49 29 50 84 51 78 52
REMARK SMILES IDX 77 53 30 55 64 56 43 57 63 58 44 59 47 60 62 61 82 62 45 63
REMARK SMILES IDX 46 64 61 66 83 67 48 68 31 69 32 70 41 71 33 72 34 73 40 74
REMARK SMILES IDX 42 75 35 76 36 77 37 78 38 79 39 80 65 81 66 82 75 83 67 84
REMARK SMILES IDX 68 85 74 86 76 87 69 88 70 89 71 90 72 91 73 92 49 93 50 94
REMARK SMILES IDX 59 95 51 96 52 97 58 98 60 99 53 100 54 101 55 102 56 103
REMARK SMILES IDX 57 104
REMARK H PARENT 88 11 81 54 47 65
REMARK Flexibility Score: inf
ROOT
ATOM      1  C   UNL A   1      37.914  23.536  26.030  1.00  0.00     0.275 C 
ENDROOT
BRANCH   1   2
ATOM      2  O   UNL A   1      36.880  22.844  25.299  1.00  0.00    -0.457 OA
BRANCH   2   3
ATOM      3  C   UNL A   1      35.644  22.934  25.860  1.00  0.00     0.355 C 
ATOM      4  O   UNL A   1      35.246  23.895  26.506  1.00  0.00    -0.244 OA
BRANCH   3   5
ATOM      5  C   UNL A   1      34.824  21.793  25.543  1.00  0.00     0.133 A 
ATOM      6  C   UNL A   1      33.473  21.631  25.254  1.00  0.00     0.016 A 
ATOM      7  C   UNL A   1      33.291  20.287  24.765  1.00  0.00     0.008 A 
ATOM      8  N   UNL A   1      35.373  20.540  25.485  1.00  0.00    -0.348 N 
ATOM      9  C   UNL A   1      34.513  19.641  24.932  1.00  0.00     0.050 A 
ATOM     10  C   UNL A   1      32.243  19.519  24.210  1.00  0.00     0.015 A 
ATOM     11  H   UNL A   1      36.278  20.317  25.803  1.00  0.00     0.167 HD
ATOM     12  C   UNL A   1      34.751  18.304  24.613  1.00  0.00     0.073 A 
ATOM     13  C   UNL A   1      32.475  18.171  23.839  1.00  0.00     0.047 A 
ATOM     14  C   UNL A   1      33.716  17.569  24.047  1.00  0.00     0.120 A 
BRANCH   6  15
ATOM     15  C   UNL A   1      32.489  22.632  25.550  1.00  0.00     0.032 C 
ATOM     16  N   UNL A   1      32.106  26.016  24.585  1.00  0.00    -0.261 N 
ATOM     17  C   UNL A   1      31.700  24.944  25.396  1.00  0.00     0.270 C 
ATOM     18  C   UNL A   1      32.557  25.646  23.315  1.00  0.00     0.152 C 
ATOM     19  O   UNL A   1      31.114  24.983  26.472  1.00  0.00    -0.268 OA
ATOM     20  C   UNL A   1      32.115  23.659  24.770  1.00  0.00     0.081 C 
ATOM     21  S   UNL A   1      32.379  23.902  23.101  1.00  0.00    -0.054 SA
ATOM     22  S   UNL A   1      33.309  26.526  22.103  1.00  0.00    -0.051 S 
BRANCH  16  23
ATOM     23  C   UNL A   1      32.074  27.366  25.101  1.00  0.00     0.051 A 
ATOM     24  C   UNL A   1      32.029  30.014  26.153  1.00  0.00     0.119 A 
ATOM     25  C   UNL A   1      32.812  29.031  26.745  1.00  0.00     0.048 A 
ATOM     26  C   UNL A   1      31.297  29.694  25.017  1.00  0.00     0.048 A 
ATOM     27  C   UNL A   1      32.832  27.726  26.229  1.00  0.00     0.030 A 
ATOM     28  C   UNL A   1      31.305  28.383  24.514  1.00  0.00     0.030 A 
BRANCH  24  29
ATOM     29  O   UNL A   1      32.059  31.243  26.750  1.00  0.00    -0.497 OA
ATOM     30  C   UNL A   1      31.019  32.136  26.362  1.00  0.00     0.278 C 
ENDBRANCH  24  29
ENDBRANCH  16  23
ENDBRANCH   6  15
BRANCH  14  31
ATOM     31  O   UNL A   1      34.065  16.274  23.784  1.00  0.00    -0.497 OA
ATOM     32  C   UNL A   1      33.888  15.317  24.812  1.00  0.00     0.278 C 
ENDBRANCH  14  31
ENDBRANCH   3   5
ENDBRANCH   2   3
ENDBRANCH   1   2
BRANCH   1  33
ATOM     33  C   UNL A   1      39.091  22.616  26.371  1.00  0.00     0.275 C 
BRANCH  33  34
ATOM     34  O   UNL A   1      39.894  23.139  27.449  1.00  0.00    -0.458 OA
BRANCH  34  35
ATOM     35  C   UNL A   1      40.774  24.095  27.083  1.00  0.00     0.338 C 
ATOM     36  O   UNL A   1      41.648  24.007  26.235  1.00  0.00    -0.246 OA
BRANCH  35  37
ATOM     37  C   UNL A   1      40.493  25.373  27.747  1.00  0.00     0.060 A 
ATOM     38  C   UNL A   1      41.462  26.372  27.674  1.00  0.00     0.016 A 
ATOM     39  C   UNL A   1      39.444  25.479  28.657  1.00  0.00     0.016 A 
ATOM     40  C   UNL A   1      41.488  27.389  28.615  1.00  0.00     0.010 A 
ATOM     41  C   UNL A   1      39.392  26.587  29.509  1.00  0.00     0.010 A 
ATOM     42  C   UNL A   1      40.440  27.527  29.530  1.00  0.00    -0.014 A 
BRANCH  42  43
ATOM     43  C   UNL A   1      40.463  28.633  30.522  1.00  0.00     0.031 A 
ATOM     44  C   UNL A   1      41.478  28.619  31.631  1.00  0.00     0.074 A 
ATOM     45  C   UNL A   1      39.584  29.650  30.423  1.00  0.00     0.049 A 
ATOM     46  N   UNL A   1      41.494  29.304  32.744  1.00  0.00    -0.248 NA
ATOM     47  C   UNL A   1      42.615  27.693  31.482  1.00  0.00     0.031 C 
ATOM     48  C   UNL A   1      38.591  29.820  29.358  1.00  0.00     0.029 A 
ATOM     49  N   UNL A   1      39.382  30.741  31.232  1.00  0.00    -0.354 N 
ATOM     50  C   UNL A   1      42.583  28.830  33.466  1.00  0.00     0.074 A 
ATOM     51  C   UNL A   1      43.224  27.819  32.653  1.00  0.00     0.031 C 
ATOM     52  C   UNL A   1      37.916  30.961  29.555  1.00  0.00     0.029 A 
ATOM     53  C   UNL A   1      38.345  31.545  30.818  1.00  0.00     0.049 A 
ATOM     54  H   UNL A   1      39.927  30.930  32.030  1.00  0.00     0.167 HD
ATOM     55  C   UNL A   1      42.988  29.198  34.705  1.00  0.00     0.037 A 
ATOM     56  C   UNL A   1      37.756  32.595  31.418  1.00  0.00     0.037 A 
ATOM     57  C   UNL A   1      42.378  30.263  35.457  1.00  0.00     0.049 A 
ATOM     58  C   UNL A   1      38.237  33.004  32.779  1.00  0.00     0.074 A 
ATOM     59  C   UNL A   1      42.696  30.723  36.722  1.00  0.00     0.029 A 
ATOM     60  N   UNL A   1      41.340  31.059  34.991  1.00  0.00    -0.354 N 
ATOM     61  N   UNL A   1      39.191  32.470  33.506  1.00  0.00    -0.248 NA
ATOM     62  C   UNL A   1      37.547  34.132  33.415  1.00  0.00     0.031 C 
ATOM     63  C   UNL A   1      41.840  31.788  37.027  1.00  0.00     0.029 A 
ATOM     64  C   UNL A   1      41.009  32.010  35.941  1.00  0.00     0.049 A 
ATOM     65  H   UNL A   1      40.903  30.961  34.115  1.00  0.00     0.167 HD
ATOM     66  C   UNL A   1      39.212  33.193  34.690  1.00  0.00     0.074 A 
ATOM     67  C   UNL A   1      38.192  34.218  34.571  1.00  0.00     0.031 C 
ATOM     68  C   UNL A   1      39.991  33.019  35.785  1.00  0.00     0.037 A 
BRANCH  55  69
ATOM     69  C   UNL A   1      44.102  28.414  35.340  1.00  0.00     0.058 A 
ATOM     70  C   UNL A   1      43.871  27.247  36.083  1.00  0.00     0.135 A 
ATOM     71  C   UNL A   1      45.433  28.836  35.182  1.00  0.00     0.135 A 
ATOM     72  F   UNL A   1      42.618  26.810  36.283  1.00  0.00    -0.206 F 
ATOM     73  C   UNL A   1      44.919  26.537  36.666  1.00  0.00     0.059 A 
ATOM     74  C   UNL A   1      46.497  28.131  35.738  1.00  0.00     0.059 A 
ATOM     75  F   UNL A   1      45.710  29.949  34.485  1.00  0.00    -0.206 F 
ATOM     76  C   UNL A   1      46.229  26.990  36.492  1.00  0.00     0.060 A 
BRANCH  76  77
ATOM     77  S   UNL A   1      47.582  26.065  37.252  1.00  0.00     0.124 S 
ATOM     78  O   UNL A   1      47.228  24.693  36.899  1.00  0.00    -0.237 OA
ATOM     79  O   UNL A   1      48.756  26.610  36.578  1.00  0.00    -0.237 OA
ATOM     80  O   UNL A   1      47.466  26.398  38.668  1.00  0.00    -0.744 OA
ENDBRANCH  76  77
ENDBRANCH  55  69
BRANCH  56  81
ATOM     81  C   UNL A   1      36.607  33.269  30.761  1.00  0.00     0.058 A 
ATOM     82  C   UNL A   1      35.294  33.052  31.200  1.00  0.00     0.135 A 
ATOM     83  C   UNL A   1      36.804  34.188  29.717  1.00  0.00     0.135 A 
ATOM     84  F   UNL A   1      35.054  32.179  32.190  1.00  0.00    -0.206 F 
ATOM     85  C   UNL A   1      34.216  33.723  30.630  1.00  0.00     0.059 A 
ATOM     86  C   UNL A   1      35.747  34.889  29.148  1.00  0.00     0.059 A 
ATOM     87  F   UNL A   1      38.044  34.442  29.271  1.00  0.00    -0.206 F 
ATOM     88  C   UNL A   1      34.454  34.644  29.608  1.00  0.00     0.060 A 
BRANCH  88  89
ATOM     89  S   UNL A   1      33.063  35.571  28.922  1.00  0.00     0.124 S 
ATOM     90  O   UNL A   1      32.359  34.533  28.177  1.00  0.00    -0.237 OA
ATOM     91  O   UNL A   1      32.392  36.062  30.122  1.00  0.00    -0.237 OA
ATOM     92  O   UNL A   1      33.715  36.598  28.115  1.00  0.00    -0.744 OA
ENDBRANCH  88  89
ENDBRANCH  56  81
BRANCH  68  93
ATOM     93  C   UNL A   1      39.780  33.970  36.922  1.00  0.00     0.058 A 
ATOM     94  C   UNL A   1      38.889  33.673  37.963  1.00  0.00     0.135 A 
ATOM     95  C   UNL A   1      40.506  35.169  36.989  1.00  0.00     0.135 A 
ATOM     96  F   UNL A   1      38.167  32.542  37.933  1.00  0.00    -0.206 F 
ATOM     97  C   UNL A   1      38.712  34.544  39.030  1.00  0.00     0.059 A 
ATOM     98  C   UNL A   1      40.357  36.046  38.056  1.00  0.00     0.059 A 
ATOM     99  F   UNL A   1      41.374  35.489  36.016  1.00  0.00    -0.206 F 
ATOM    100  C   UNL A   1      39.451  35.729  39.068  1.00  0.00     0.060 A 
BRANCH 100 101
ATOM    101  S   UNL A   1      39.241  36.840  40.474  1.00  0.00     0.124 S 
ATOM    102  O   UNL A   1      38.357  36.060  41.334  1.00  0.00    -0.237 OA
ATOM    103  O   UNL A   1      40.609  37.003  40.955  1.00  0.00    -0.237 OA
ATOM    104  O   UNL A   1      38.648  38.032  39.876  1.00  0.00    -0.744 OA
ENDBRANCH 100 101
ENDBRANCH  68  93
ENDBRANCH  42  43
ENDBRANCH  35  37
ENDBRANCH  34  35
ENDBRANCH  33  34
ENDBRANCH   1  33
TORSDOF 18
ENDMDL
MODEL 3
REMARK VINA RESULT:     -12.5      2.506      8.990
REMARK SMILES COc1ccc(N2C(=O)/C(=C/c3c(C(=O)OCCOC(=O)c4ccc(-c5c6nc(c(-c7c(F)cc(S(=O)(=O)[O-])cc7F)c7ccc([nH]7)c(-c7c(F)cc(S(=O)(=O)[O-])cc7F)c7nc(c(-c8c(F)cc(S(=O)(=O)[O-])cc8F)c8ccc5[nH]8)C=C7)C=C6)cc4)[nH]c4cc(OC)ccc34)SC2=S)cc1
REMARK SMILES IDX 17 1 16 2 14 3 15 4 13 5 12 6 96 7 88 8 89 9 95 10 90 12
REMARK SMILES IDX 94 13 91 14 11 15 7 16 8 17 98 18 9 19 10 20 97 21 99 22
REMARK SMILES IDX 6 23 3 24 4 25 101 26 5 27 100 28 2 29 1 30 92 31 93 32
REMARK SMILES IDX 18 33 19 34 20 35 21 36 22 37 23 38 87 39 24 40 86 41 25 42
REMARK SMILES IDX 26 43 27 44 80 45 28 46 85 47 79 48 81 49 29 50 84 51 78 52
REMARK SMILES IDX 77 53 30 55 64 56 43 57 63 58 44 59 47 60 62 61 82 62 45 63
REMARK SMILES IDX 46 64 61 66 83 67 48 68 31 69 32 70 41 71 33 72 34 73 40 74
REMARK SMILES IDX 42 75 35 76 36 77 37 78 38 79 39 80 65 81 66 82 75 83 67 84
REMARK SMILES IDX 68 85 74 86 76 87 69 88 70 89 71 90 72 91 73 92 49 93 50 94
REMARK SMILES IDX 59 95 51 96 52 97 58 98 60 99 53 100 54 101 55 102 56 103
REMARK SMILES IDX 57 104
REMARK H PARENT 88 11 81 54 47 65
REMARK Flexibility Score: inf
ROOT
ATOM      1  C   UNL A   1      38.369  22.592  25.861  1.00  0.00     0.275 C 
ENDROOT
BRANCH   1   2
ATOM      2  O   UNL A   1      37.011  22.531  26.348  1.00  0.00    -0.457 OA
BRANCH   2   3
ATOM      3  C   UNL A   1      36.065  22.710  25.387  1.00  0.00     0.355 C 
ATOM      4  O   UNL A   1      36.003  23.687  24.651  1.00  0.00    -0.244 OA
BRANCH   3   5
ATOM      5  C   UNL A   1      35.180  21.578  25.285  1.00  0.00     0.133 A 
ATOM      6  C   UNL A   1      33.796  21.437  25.296  1.00  0.00     0.016 A 
ATOM      7  C   UNL A   1      33.495  20.085  24.895  1.00  0.00     0.008 A 
ATOM      8  N   UNL A   1      35.686  20.314  25.147  1.00  0.00    -0.348 N 
ATOM      9  C   UNL A   1      34.714  19.419  24.816  1.00  0.00     0.050 A 
ATOM     10  C   UNL A   1      32.341  19.325  24.598  1.00  0.00     0.015 A 
ATOM     11  H   UNL A   1      36.634  20.080  25.271  1.00  0.00     0.167 HD
ATOM     12  C   UNL A   1      34.859  18.070  24.491  1.00  0.00     0.073 A 
ATOM     13  C   UNL A   1      32.469  17.964  24.224  1.00  0.00     0.047 A 
ATOM     14  C   UNL A   1      33.716  17.342  24.180  1.00  0.00     0.120 A 
BRANCH   6  15
ATOM     15  C   UNL A   1      32.913  22.464  25.767  1.00  0.00     0.032 C 
ATOM     16  N   UNL A   1      32.606  25.916  25.044  1.00  0.00    -0.261 N 
ATOM     17  C   UNL A   1      32.242  24.818  25.840  1.00  0.00     0.270 C 
ATOM     18  C   UNL A   1      32.878  25.603  23.709  1.00  0.00     0.152 C 
ATOM     19  O   UNL A   1      31.795  24.819  26.980  1.00  0.00    -0.268 OA
ATOM     20  C   UNL A   1      32.506  23.554  25.097  1.00  0.00     0.081 C 
ATOM     21  S   UNL A   1      32.578  23.886  23.424  1.00  0.00    -0.054 SA
ATOM     22  S   UNL A   1      33.525  26.518  22.463  1.00  0.00    -0.051 S 
BRANCH  16  23
ATOM     23  C   UNL A   1      32.713  27.231  25.633  1.00  0.00     0.051 A 
ATOM     24  C   UNL A   1      32.884  29.834  26.783  1.00  0.00     0.119 A 
ATOM     25  C   UNL A   1      31.655  29.308  26.402  1.00  0.00     0.048 A 
ATOM     26  C   UNL A   1      34.024  29.054  26.628  1.00  0.00     0.048 A 
ATOM     27  C   UNL A   1      31.571  28.028  25.833  1.00  0.00     0.030 A 
ATOM     28  C   UNL A   1      33.938  27.781  26.042  1.00  0.00     0.030 A 
BRANCH  24  29
ATOM     29  O   UNL A   1      32.859  31.099  27.300  1.00  0.00    -0.497 OA
ATOM     30  C   UNL A   1      31.840  31.949  26.782  1.00  0.00     0.278 C 
ENDBRANCH  24  29
ENDBRANCH  16  23
ENDBRANCH   6  15
BRANCH  14  31
ATOM     31  O   UNL A   1      33.982  16.035  23.885  1.00  0.00    -0.497 OA
ATOM     32  C   UNL A   1      34.740  15.285  24.818  1.00  0.00     0.278 C 
ENDBRANCH  14  31
ENDBRANCH   3   5
ENDBRANCH   2   3
ENDBRANCH   1   2
BRANCH   1  33
ATOM     33  C   UNL A   1      38.966  21.197  25.645  1.00  0.00     0.275 C 
BRANCH  33  34
ATOM     34  O   UNL A   1      39.821  20.797  26.735  1.00  0.00    -0.458 OA
BRANCH  34  35
ATOM     35  C   UNL A   1      41.049  20.380  26.363  1.00  0.00     0.338 C 
ATOM     36  O   UNL A   1      41.336  19.327  25.816  1.00  0.00    -0.246 OA
BRANCH  35  37
ATOM     37  C   UNL A   1      42.063  21.420  26.576  1.00  0.00     0.060 A 
ATOM     38  C   UNL A   1      42.503  21.643  27.879  1.00  0.00     0.016 A 
ATOM     39  C   UNL A   1      42.348  22.341  25.571  1.00  0.00     0.016 A 
ATOM     40  C   UNL A   1      43.078  22.856  28.222  1.00  0.00     0.010 A 
ATOM     41  C   UNL A   1      43.062  23.500  25.895  1.00  0.00     0.010 A 
ATOM     42  C   UNL A   1      43.390  23.792  27.232  1.00  0.00    -0.014 A 
BRANCH  42  43
ATOM     43  C   UNL A   1      44.027  25.082  27.605  1.00  0.00     0.031 A 
ATOM     44  C   UNL A   1      43.191  26.184  28.194  1.00  0.00     0.074 A 
ATOM     45  C   UNL A   1      45.352  25.260  27.426  1.00  0.00     0.049 A 
ATOM     46  N   UNL A   1      43.469  27.455  28.317  1.00  0.00    -0.248 NA
ATOM     47  C   UNL A   1      41.853  25.814  28.688  1.00  0.00     0.031 C 
ATOM     48  C   UNL A   1      46.289  24.249  26.927  1.00  0.00     0.029 A 
ATOM     49  N   UNL A   1      46.145  26.358  27.646  1.00  0.00    -0.354 N 
ATOM     50  C   UNL A   1      42.316  28.050  28.813  1.00  0.00     0.074 A 
ATOM     51  C   UNL A   1      41.341  26.996  28.999  1.00  0.00     0.031 C 
ATOM     52  C   UNL A   1      47.528  24.758  26.916  1.00  0.00     0.029 A 
ATOM     53  C   UNL A   1      47.460  26.162  27.295  1.00  0.00     0.049 A 
ATOM     54  H   UNL A   1      45.805  27.204  28.018  1.00  0.00     0.167 HD
ATOM     55  C   UNL A   1      42.094  29.361  29.066  1.00  0.00     0.037 A 
ATOM     56  C   UNL A   1      48.486  27.029  27.219  1.00  0.00     0.037 A 
ATOM     57  C   UNL A   1      43.109  30.376  28.948  1.00  0.00     0.049 A 
ATOM     58  C   UNL A   1      48.227  28.474  27.529  1.00  0.00     0.074 A 
ATOM     59  C   UNL A   1      43.004  31.738  29.170  1.00  0.00     0.029 A 
ATOM     60  N   UNL A   1      44.431  30.129  28.603  1.00  0.00    -0.354 N 
ATOM     61  N   UNL A   1      47.101  29.047  27.882  1.00  0.00    -0.248 NA
ATOM     62  C   UNL A   1      49.363  29.394  27.402  1.00  0.00     0.031 C 
ATOM     63  C   UNL A   1      44.259  32.315  28.946  1.00  0.00     0.029 A 
ATOM     64  C   UNL A   1      45.153  31.309  28.612  1.00  0.00     0.049 A 
ATOM     65  H   UNL A   1      44.801  29.243  28.384  1.00  0.00     0.167 HD
ATOM     66  C   UNL A   1      47.389  30.398  28.013  1.00  0.00     0.074 A 
ATOM     67  C   UNL A   1      48.803  30.552  27.726  1.00  0.00     0.031 C 
ATOM     68  C   UNL A   1      46.561  31.423  28.327  1.00  0.00     0.037 A 
BRANCH  55  69
ATOM     69  C   UNL A   1      40.700  29.778  29.442  1.00  0.00     0.058 A 
ATOM     70  C   UNL A   1      39.649  29.813  28.514  1.00  0.00     0.135 A 
ATOM     71  C   UNL A   1      40.410  30.133  30.771  1.00  0.00     0.135 A 
ATOM     72  F   UNL A   1      39.875  29.505  27.227  1.00  0.00    -0.206 F 
ATOM     73  C   UNL A   1      38.365  30.206  28.883  1.00  0.00     0.059 A 
ATOM     74  C   UNL A   1      39.130  30.507  31.168  1.00  0.00     0.059 A 
ATOM     75  F   UNL A   1      41.379  30.121  31.700  1.00  0.00    -0.206 F 
ATOM     76  C   UNL A   1      38.116  30.556  30.213  1.00  0.00     0.060 A 
BRANCH  76  77
ATOM     77  S   UNL A   1      36.447  31.064  30.684  1.00  0.00     0.124 S 
ATOM     78  O   UNL A   1      36.708  32.345  31.333  1.00  0.00    -0.237 OA
ATOM     79  O   UNL A   1      35.762  31.133  29.398  1.00  0.00    -0.237 OA
ATOM     80  O   UNL A   1      36.004  29.991  31.569  1.00  0.00    -0.744 OA
ENDBRANCH  76  77
ENDBRANCH  55  69
BRANCH  56  81
ATOM     81  C   UNL A   1      49.819  26.556  26.762  1.00  0.00     0.058 A 
ATOM     82  C   UNL A   1      50.773  26.091  27.676  1.00  0.00     0.135 A 
ATOM     83  C   UNL A   1      50.142  26.507  25.396  1.00  0.00     0.135 A 
ATOM     84  F   UNL A   1      50.513  26.124  28.992  1.00  0.00    -0.206 F 
ATOM     85  C   UNL A   1      52.002  25.591  27.253  1.00  0.00     0.059 A 
ATOM     86  C   UNL A   1      51.352  25.989  24.948  1.00  0.00     0.059 A 
ATOM     87  F   UNL A   1      49.255  26.925  24.480  1.00  0.00    -0.206 F 
ATOM     88  C   UNL A   1      52.280  25.539  25.886  1.00  0.00     0.060 A 
BRANCH  88  89
ATOM     89  S   UNL A   1      53.842  24.819  25.336  1.00  0.00     0.124 S 
ATOM     90  O   UNL A   1      53.438  23.457  25.010  1.00  0.00    -0.237 OA
ATOM     91  O   UNL A   1      54.196  25.669  24.203  1.00  0.00    -0.237 OA
ATOM     92  O   UNL A   1      54.703  24.962  26.507  1.00  0.00    -0.744 OA
ENDBRANCH  88  89
ENDBRANCH  56  81
BRANCH  68  93
ATOM     93  C   UNL A   1      47.172  32.788  28.394  1.00  0.00     0.058 A 
ATOM     94  C   UNL A   1      47.158  33.647  27.286  1.00  0.00     0.135 A 
ATOM     95  C   UNL A   1      47.740  33.254  29.590  1.00  0.00     0.135 A 
ATOM     96  F   UNL A   1      46.633  33.239  26.120  1.00  0.00    -0.206 F 
ATOM     97  C   UNL A   1      47.703  34.924  27.357  1.00  0.00     0.059 A 
ATOM     98  C   UNL A   1      48.275  34.532  29.687  1.00  0.00     0.059 A 
ATOM     99  F   UNL A   1      47.770  32.466  30.676  1.00  0.00    -0.206 F 
ATOM    100  C   UNL A   1      48.260  35.357  28.562  1.00  0.00     0.060 A 
BRANCH 100 101
ATOM    101  S   UNL A   1      48.935  37.027  28.656  1.00  0.00     0.124 S 
ATOM    102  O   UNL A   1      48.467  37.604  27.400  1.00  0.00    -0.237 OA
ATOM    103  O   UNL A   1      48.311  37.553  29.866  1.00  0.00    -0.237 OA
ATOM    104  O   UNL A   1      50.375  36.804  28.749  1.00  0.00    -0.744 OA
ENDBRANCH 100 101
ENDBRANCH  68  93
ENDBRANCH  42  43
ENDBRANCH  35  37
ENDBRANCH  34  35
ENDBRANCH  33  34
ENDBRANCH   1  33
TORSDOF 18
ENDMDL
