MODEL 1
REMARK VINA RESULT:     -12.9      0.000      0.000
REMARK SMILES O=C1C[C@H](c2cn[nH]c2C(=O)OCCOC(=O)c2ccc(-c3c4nc(c(-c5c(F)cc(S(=O)(=O)[O-])cc5F)c5ccc([nH]5)c(-c5c(F)cc(S(=O)(=O)[O-])cc5F)c5nc(c(-c6c(F)cc(S(=O)(=O)[O-])cc6F)c6ccc3[nH]6)C=C5)C=C4)cc2)c2c(-c3cccs3)n[nH]c2N1
REMARK SMILES IDX 14 1 13 2 12 3 10 4 11 5 9 6 5 7 6 8 7 9 8 10 4 12 1 13 2 14
REMARK SMILES IDX 3 15 94 16 93 17 84 19 92 20 85 21 91 22 86 24 87 25 90 26
REMARK SMILES IDX 88 27 89 28 15 29 16 30 17 31 18 32 19 33 83 34 20 35 82 36
REMARK SMILES IDX 21 37 22 38 23 39 76 40 24 41 81 42 75 43 77 44 25 45 80 46
REMARK SMILES IDX 74 47 73 48 26 50 60 51 39 52 59 53 40 54 43 55 58 56 78 57
REMARK SMILES IDX 41 58 42 59 57 61 79 62 44 63 27 64 28 65 37 66 29 67 30 68
REMARK SMILES IDX 36 69 38 70 31 71 32 72 33 73 34 74 35 75 61 76 62 77 71 78
REMARK SMILES IDX 63 79 64 80 70 81 72 82 65 83 66 84 67 85 68 86 69 87 45 88
REMARK SMILES IDX 46 89 55 90 47 91 48 92 54 93 56 94 49 95 50 96 51 97 52 98
REMARK SMILES IDX 53 99
REMARK H PARENT 8 11 94 18 92 23 77 49 43 60
REMARK Flexibility Score: inf
ROOT
ATOM      1  C   UNL A   1      33.026  30.908  27.234  1.00  0.00     0.275 C 
ENDROOT
BRANCH   1   2
ATOM      2  C   UNL A   1      32.604  30.079  26.044  1.00  0.00     0.275 C 
BRANCH   2   3
ATOM      3  O   UNL A   1      31.894  28.930  26.533  1.00  0.00    -0.457 OA
BRANCH   3   4
ATOM      4  C   UNL A   1      32.470  27.714  26.409  1.00  0.00     0.356 C 
ATOM      5  O   UNL A   1      33.640  27.479  26.622  1.00  0.00    -0.244 OA
BRANCH   4   6
ATOM      6  C   UNL A   1      31.504  26.714  26.011  1.00  0.00     0.147 A 
ATOM      7  C   UNL A   1      30.791  26.340  24.868  1.00  0.00     0.013 A 
ATOM      8  C   UNL A   1      30.069  25.186  25.308  1.00  0.00     0.140 A 
ATOM      9  N   UNL A   1      30.269  24.881  26.584  1.00  0.00    -0.183 NA
ATOM     10  N   UNL A   1      31.088  25.851  26.997  1.00  0.00    -0.271 N 
ATOM     11  H   UNL A   1      31.373  25.942  27.936  1.00  0.00     0.190 HD
BRANCH   7  12
ATOM     12  C   UNL A   1      30.675  26.821  23.428  1.00  0.00     0.069 C 
ATOM     13  O   UNL A   1      28.990  30.155  23.394  1.00  0.00    -0.275 OA
ATOM     14  C   UNL A   1      29.841  29.292  23.177  1.00  0.00     0.226 C 
ATOM     15  C   UNL A   1      29.493  27.806  23.228  1.00  0.00     0.114 C 
ATOM     16  N   UNL A   1      31.079  29.657  22.707  1.00  0.00    -0.311 N 
ATOM     17  C   UNL A   1      32.015  28.692  22.469  1.00  0.00     0.132 A 
ATOM     18  H   UNL A   1      31.289  30.604  22.543  1.00  0.00     0.171 HD
ATOM     19  C   UNL A   1      31.888  27.360  22.765  1.00  0.00     0.031 A 
ATOM     20  N   UNL A   1      33.272  28.874  21.985  1.00  0.00    -0.262 N 
ATOM     21  C   UNL A   1      33.144  26.798  22.417  1.00  0.00     0.108 A 
ATOM     22  N   UNL A   1      33.999  27.736  21.968  1.00  0.00    -0.173 NA
ATOM     23  H   UNL A   1      33.615  29.744  21.678  1.00  0.00     0.192 HD
BRANCH  21  24
ATOM     24  C   UNL A   1      33.565  25.398  22.741  1.00  0.00     0.055 A 
ATOM     25  C   UNL A   1      34.302  25.061  23.858  1.00  0.00     0.022 A 
ATOM     26  S   UNL A   1      33.072  24.023  21.864  1.00  0.00    -0.142 S 
ATOM     27  C   UNL A   1      34.375  23.650  24.044  1.00  0.00     0.012 A 
ATOM     28  C   UNL A   1      33.801  22.967  22.996  1.00  0.00     0.065 A 
ENDBRANCH  21  24
ENDBRANCH   7  12
ENDBRANCH   4   6
ENDBRANCH   3   4
ENDBRANCH   2   3
ENDBRANCH   1   2
BRANCH   1  29
ATOM     29  O   UNL A   1      34.364  30.564  27.546  1.00  0.00    -0.458 OA
BRANCH  29  30
ATOM     30  C   UNL A   1      35.219  31.564  27.839  1.00  0.00     0.338 C 
ATOM     31  O   UNL A   1      35.135  32.739  27.533  1.00  0.00    -0.246 OA
BRANCH  30  32
ATOM     32  C   UNL A   1      36.367  30.939  28.494  1.00  0.00     0.060 A 
ATOM     33  C   UNL A   1      37.331  31.759  29.082  1.00  0.00     0.016 A 
ATOM     34  C   UNL A   1      36.565  29.559  28.314  1.00  0.00     0.016 A 
ATOM     35  C   UNL A   1      38.570  31.214  29.337  1.00  0.00     0.010 A 
ATOM     36  C   UNL A   1      37.799  29.026  28.541  1.00  0.00     0.010 A 
ATOM     37  C   UNL A   1      38.800  29.879  28.980  1.00  0.00    -0.014 A 
BRANCH  37  38
ATOM     38  C   UNL A   1      40.113  29.321  29.156  1.00  0.00     0.031 A 
ATOM     39  C   UNL A   1      40.479  29.167  30.577  1.00  0.00     0.074 A 
ATOM     40  C   UNL A   1      40.820  28.832  28.124  1.00  0.00     0.049 A 
ATOM     41  N   UNL A   1      41.321  29.878  31.247  1.00  0.00    -0.248 NA
ATOM     42  C   UNL A   1      39.665  28.258  31.402  1.00  0.00     0.031 C 
ATOM     43  C   UNL A   1      40.396  28.626  26.736  1.00  0.00     0.029 A 
ATOM     44  N   UNL A   1      42.070  28.312  28.141  1.00  0.00    -0.354 N 
ATOM     45  C   UNL A   1      41.322  29.334  32.523  1.00  0.00     0.074 A 
ATOM     46  C   UNL A   1      40.140  28.518  32.621  1.00  0.00     0.031 C 
ATOM     47  C   UNL A   1      41.293  27.828  26.113  1.00  0.00     0.029 A 
ATOM     48  C   UNL A   1      42.411  27.587  27.010  1.00  0.00     0.049 A 
ATOM     49  H   UNL A   1      42.686  28.439  28.898  1.00  0.00     0.167 HD
ATOM     50  C   UNL A   1      42.437  29.372  33.298  1.00  0.00     0.037 A 
ATOM     51  C   UNL A   1      43.504  26.792  26.886  1.00  0.00     0.037 A 
ATOM     52  C   UNL A   1      43.399  30.316  32.785  1.00  0.00     0.049 A 
ATOM     53  C   UNL A   1      44.471  27.222  27.938  1.00  0.00     0.074 A 
ATOM     54  C   UNL A   1      43.375  31.674  32.532  1.00  0.00     0.029 A 
ATOM     55  N   UNL A   1      44.453  29.814  32.056  1.00  0.00    -0.354 N 
ATOM     56  N   UNL A   1      45.059  28.388  27.954  1.00  0.00    -0.248 NA
ATOM     57  C   UNL A   1      44.420  26.541  29.225  1.00  0.00     0.031 C 
ATOM     58  C   UNL A   1      44.103  31.839  31.318  1.00  0.00     0.029 A 
ATOM     59  C   UNL A   1      44.589  30.588  30.929  1.00  0.00     0.049 A 
ATOM     60  H   UNL A   1      45.009  29.039  32.298  1.00  0.00     0.167 HD
ATOM     61  C   UNL A   1      45.069  28.773  29.289  1.00  0.00     0.074 A 
ATOM     62  C   UNL A   1      44.743  27.557  30.033  1.00  0.00     0.031 C 
ATOM     63  C   UNL A   1      45.054  30.090  29.650  1.00  0.00     0.037 A 
BRANCH  50  64
ATOM     64  C   UNL A   1      42.798  28.297  34.286  1.00  0.00     0.058 A 
ATOM     65  C   UNL A   1      42.935  28.627  35.647  1.00  0.00     0.135 A 
ATOM     66  C   UNL A   1      43.266  27.015  33.915  1.00  0.00     0.135 A 
ATOM     67  F   UNL A   1      42.545  29.830  36.099  1.00  0.00    -0.206 F 
ATOM     68  C   UNL A   1      43.536  27.765  36.563  1.00  0.00     0.059 A 
ATOM     69  C   UNL A   1      43.811  26.117  34.822  1.00  0.00     0.059 A 
ATOM     70  F   UNL A   1      43.312  26.610  32.639  1.00  0.00    -0.206 F 
ATOM     71  C   UNL A   1      43.979  26.515  36.137  1.00  0.00     0.060 A 
BRANCH  71  72
ATOM     72  S   UNL A   1      44.837  25.437  37.292  1.00  0.00     0.124 S 
ATOM     73  O   UNL A   1      44.184  25.783  38.550  1.00  0.00    -0.237 OA
ATOM     74  O   UNL A   1      44.533  24.115  36.755  1.00  0.00    -0.237 OA
ATOM     75  O   UNL A   1      46.230  25.852  37.168  1.00  0.00    -0.744 OA
ENDBRANCH  71  72
ENDBRANCH  50  64
BRANCH  51  76
ATOM     76  C   UNL A   1      43.599  25.481  26.191  1.00  0.00     0.058 A 
ATOM     77  C   UNL A   1      44.628  25.226  25.268  1.00  0.00     0.135 A 
ATOM     78  C   UNL A   1      42.862  24.359  26.624  1.00  0.00     0.135 A 
ATOM     79  F   UNL A   1      45.392  26.232  24.816  1.00  0.00    -0.206 F 
ATOM     80  C   UNL A   1      44.945  23.931  24.842  1.00  0.00     0.059 A 
ATOM     81  C   UNL A   1      43.152  23.061  26.205  1.00  0.00     0.059 A 
ATOM     82  F   UNL A   1      41.894  24.476  27.545  1.00  0.00    -0.206 F 
ATOM     83  C   UNL A   1      44.215  22.851  25.335  1.00  0.00     0.060 A 
BRANCH  83  84
ATOM     84  S   UNL A   1      44.737  21.166  24.936  1.00  0.00     0.124 S 
ATOM     85  O   UNL A   1      43.763  20.367  25.670  1.00  0.00    -0.237 OA
ATOM     86  O   UNL A   1      44.618  21.143  23.482  1.00  0.00    -0.237 OA
ATOM     87  O   UNL A   1      46.105  21.107  25.446  1.00  0.00    -0.744 OA
ENDBRANCH  83  84
ENDBRANCH  51  76
BRANCH  63  88
ATOM     88  C   UNL A   1      45.335  31.124  28.586  1.00  0.00     0.058 A 
ATOM     89  C   UNL A   1      44.375  31.640  27.695  1.00  0.00     0.135 A 
ATOM     90  C   UNL A   1      46.603  31.725  28.571  1.00  0.00     0.135 A 
ATOM     91  F   UNL A   1      43.110  31.198  27.714  1.00  0.00    -0.206 F 
ATOM     92  C   UNL A   1      44.676  32.672  26.802  1.00  0.00     0.059 A 
ATOM     93  C   UNL A   1      46.915  32.777  27.713  1.00  0.00     0.059 A 
ATOM     94  F   UNL A   1      47.547  31.324  29.439  1.00  0.00    -0.206 F 
ATOM     95  C   UNL A   1      45.951  33.235  26.820  1.00  0.00     0.060 A 
BRANCH  95  96
ATOM     96  S   UNL A   1      46.323  34.613  25.712  1.00  0.00     0.124 S 
ATOM     97  O   UNL A   1      46.011  35.769  26.545  1.00  0.00    -0.237 OA
ATOM     98  O   UNL A   1      47.738  34.410  25.415  1.00  0.00    -0.237 OA
ATOM     99  O   UNL A   1      45.421  34.396  24.583  1.00  0.00    -0.744 OA
ENDBRANCH  95  96
ENDBRANCH  63  88
ENDBRANCH  37  38
ENDBRANCH  30  32
ENDBRANCH  29  30
ENDBRANCH   1  29
TORSDOF 16
ENDMDL
MODEL 2
REMARK VINA RESULT:     -12.8      5.124     11.598
REMARK SMILES O=C1C[C@H](c2cn[nH]c2C(=O)OCCOC(=O)c2ccc(-c3c4nc(c(-c5c(F)cc(S(=O)(=O)[O-])cc5F)c5ccc([nH]5)c(-c5c(F)cc(S(=O)(=O)[O-])cc5F)c5nc(c(-c6c(F)cc(S(=O)(=O)[O-])cc6F)c6ccc3[nH]6)C=C5)C=C4)cc2)c2c(-c3cccs3)n[nH]c2N1
REMARK SMILES IDX 14 1 13 2 12 3 10 4 11 5 9 6 5 7 6 8 7 9 8 10 4 12 1 13 2 14
REMARK SMILES IDX 3 15 94 16 93 17 84 19 92 20 85 21 91 22 86 24 87 25 90 26
REMARK SMILES IDX 88 27 89 28 15 29 16 30 17 31 18 32 19 33 83 34 20 35 82 36
REMARK SMILES IDX 21 37 22 38 23 39 76 40 24 41 81 42 75 43 77 44 25 45 80 46
REMARK SMILES IDX 74 47 73 48 26 50 60 51 39 52 59 53 40 54 43 55 58 56 78 57
REMARK SMILES IDX 41 58 42 59 57 61 79 62 44 63 27 64 28 65 37 66 29 67 30 68
REMARK SMILES IDX 36 69 38 70 31 71 32 72 33 73 34 74 35 75 61 76 62 77 71 78
REMARK SMILES IDX 63 79 64 80 70 81 72 82 65 83 66 84 67 85 68 86 69 87 45 88
REMARK SMILES IDX 46 89 55 90 47 91 48 92 54 93 56 94 49 95 50 96 51 97 52 98
REMARK SMILES IDX 53 99
REMARK H PARENT 8 11 94 18 92 23 77 49 43 60
REMARK Flexibility Score: inf
ROOT
ATOM      1  C   UNL A   1      41.103  20.834  26.446  1.00  0.00     0.275 C 
ENDROOT
BRANCH   1   2
ATOM      2  C   UNL A   1      42.516  21.188  26.044  1.00  0.00     0.275 C 
BRANCH   2   3
ATOM      3  O   UNL A   1      42.447  22.213  25.039  1.00  0.00    -0.457 OA
BRANCH   3   4
ATOM      4  C   UNL A   1      43.603  22.685  24.520  1.00  0.00     0.356 C 
ATOM      5  O   UNL A   1      44.332  22.063  23.779  1.00  0.00    -0.244 OA
BRANCH   4   6
ATOM      6  C   UNL A   1      43.850  24.046  24.943  1.00  0.00     0.147 A 
ATOM      7  C   UNL A   1      44.910  24.819  25.426  1.00  0.00     0.013 A 
ATOM      8  C   UNL A   1      44.324  26.117  25.554  1.00  0.00     0.140 A 
ATOM      9  N   UNL A   1      43.038  26.161  25.225  1.00  0.00    -0.183 NA
ATOM     10  N   UNL A   1      42.765  24.891  24.920  1.00  0.00    -0.271 N 
ATOM     11  H   UNL A   1      41.857  24.582  24.696  1.00  0.00     0.190 HD
BRANCH   7  12
ATOM     12  C   UNL A   1      46.380  24.598  25.760  1.00  0.00     0.069 C 
ATOM     13  O   UNL A   1      48.478  26.319  23.192  1.00  0.00    -0.275 OA
ATOM     14  C   UNL A   1      48.041  26.000  24.299  1.00  0.00     0.226 C 
ATOM     15  C   UNL A   1      47.288  24.688  24.506  1.00  0.00     0.114 C 
ATOM     16  N   UNL A   1      48.384  26.738  25.405  1.00  0.00    -0.311 N 
ATOM     17  C   UNL A   1      47.895  26.377  26.628  1.00  0.00     0.132 A 
ATOM     18  H   UNL A   1      48.975  27.520  25.318  1.00  0.00     0.171 HD
ATOM     19  C   UNL A   1      46.978  25.387  26.864  1.00  0.00     0.031 A 
ATOM     20  N   UNL A   1      48.150  26.977  27.820  1.00  0.00    -0.262 N 
ATOM     21  C   UNL A   1      46.730  25.460  28.260  1.00  0.00     0.108 A 
ATOM     22  N   UNL A   1      47.428  26.456  28.836  1.00  0.00    -0.173 NA
ATOM     23  H   UNL A   1      48.794  27.713  27.932  1.00  0.00     0.192 HD
BRANCH  21  24
ATOM     24  C   UNL A   1      45.647  24.707  28.969  1.00  0.00     0.055 A 
ATOM     25  C   UNL A   1      45.143  23.499  28.531  1.00  0.00     0.022 A 
ATOM     26  S   UNL A   1      45.000  25.157  30.480  1.00  0.00    -0.142 S 
ATOM     27  C   UNL A   1      44.289  22.894  29.499  1.00  0.00     0.012 A 
ATOM     28  C   UNL A   1      44.076  23.721  30.579  1.00  0.00     0.065 A 
ENDBRANCH  21  24
ENDBRANCH   7  12
ENDBRANCH   4   6
ENDBRANCH   3   4
ENDBRANCH   2   3
ENDBRANCH   1   2
BRANCH   1  29
ATOM     29  O   UNL A   1      40.630  21.858  27.303  1.00  0.00    -0.458 OA
BRANCH  29  30
ATOM     30  C   UNL A   1      39.717  22.719  26.810  1.00  0.00     0.338 C 
ATOM     31  O   UNL A   1      38.732  22.468  26.141  1.00  0.00    -0.246 OA
BRANCH  30  32
ATOM     32  C   UNL A   1      40.212  24.059  27.120  1.00  0.00     0.060 A 
ATOM     33  C   UNL A   1      41.380  24.184  27.874  1.00  0.00     0.016 A 
ATOM     34  C   UNL A   1      39.381  25.157  26.838  1.00  0.00     0.016 A 
ATOM     35  C   UNL A   1      41.622  25.393  28.489  1.00  0.00     0.010 A 
ATOM     36  C   UNL A   1      39.606  26.344  27.468  1.00  0.00     0.010 A 
ATOM     37  C   UNL A   1      40.682  26.420  28.339  1.00  0.00    -0.014 A 
BRANCH  37  38
ATOM     38  C   UNL A   1      40.874  27.656  29.047  1.00  0.00     0.031 A 
ATOM     39  C   UNL A   1      41.971  28.467  28.487  1.00  0.00     0.074 A 
ATOM     40  C   UNL A   1      40.010  28.078  29.986  1.00  0.00     0.049 A 
ATOM     41  N   UNL A   1      43.138  28.660  29.001  1.00  0.00    -0.248 NA
ATOM     42  C   UNL A   1      41.835  28.945  27.101  1.00  0.00     0.031 C 
ATOM     43  C   UNL A   1      38.711  27.509  30.360  1.00  0.00     0.029 A 
ATOM     44  N   UNL A   1      40.085  29.195  30.746  1.00  0.00    -0.354 N 
ATOM     45  C   UNL A   1      43.794  29.498  28.109  1.00  0.00     0.074 A 
ATOM     46  C   UNL A   1      43.051  29.445  26.877  1.00  0.00     0.031 C 
ATOM     47  C   UNL A   1      38.035  28.409  31.111  1.00  0.00     0.029 A 
ATOM     48  C   UNL A   1      38.903  29.544  31.381  1.00  0.00     0.049 A 
ATOM     49  H   UNL A   1      40.913  29.718  30.840  1.00  0.00     0.167 HD
ATOM     50  C   UNL A   1      44.730  30.382  28.541  1.00  0.00     0.037 A 
ATOM     51  C   UNL A   1      38.665  30.724  32.006  1.00  0.00     0.037 A 
ATOM     52  C   UNL A   1      45.167  30.071  29.880  1.00  0.00     0.049 A 
ATOM     53  C   UNL A   1      39.996  31.329  32.307  1.00  0.00     0.074 A 
ATOM     54  C   UNL A   1      45.755  28.969  30.468  1.00  0.00     0.029 A 
ATOM     55  N   UNL A   1      44.628  30.807  30.910  1.00  0.00    -0.354 N 
ATOM     56  N   UNL A   1      40.855  30.815  33.145  1.00  0.00    -0.248 NA
ATOM     57  C   UNL A   1      40.565  32.239  31.322  1.00  0.00     0.031 C 
ATOM     58  C   UNL A   1      45.139  28.857  31.748  1.00  0.00     0.029 A 
ATOM     59  C   UNL A   1      44.259  29.931  31.901  1.00  0.00     0.049 A 
ATOM     60  H   UNL A   1      44.524  31.785  30.932  1.00  0.00     0.167 HD
ATOM     61  C   UNL A   1      42.097  30.992  32.548  1.00  0.00     0.074 A 
ATOM     62  C   UNL A   1      41.863  31.953  31.471  1.00  0.00     0.031 C 
ATOM     63  C   UNL A   1      43.132  30.134  32.790  1.00  0.00     0.037 A 
BRANCH  50  64
ATOM     64  C   UNL A   1      44.962  31.723  27.899  1.00  0.00     0.058 A 
ATOM     65  C   UNL A   1      46.212  32.001  27.315  1.00  0.00     0.135 A 
ATOM     66  C   UNL A   1      44.100  32.831  28.062  1.00  0.00     0.135 A 
ATOM     67  F   UNL A   1      47.115  31.023  27.138  1.00  0.00    -0.206 F 
ATOM     68  C   UNL A   1      46.594  33.294  26.962  1.00  0.00     0.059 A 
ATOM     69  C   UNL A   1      44.437  34.116  27.662  1.00  0.00     0.059 A 
ATOM     70  F   UNL A   1      42.932  32.742  28.710  1.00  0.00    -0.206 F 
ATOM     71  C   UNL A   1      45.701  34.347  27.149  1.00  0.00     0.060 A 
BRANCH  71  72
ATOM     72  S   UNL A   1      46.222  36.028  26.781  1.00  0.00     0.124 S 
ATOM     73  O   UNL A   1      47.143  36.293  27.881  1.00  0.00    -0.237 OA
ATOM     74  O   UNL A   1      46.827  35.876  25.462  1.00  0.00    -0.237 OA
ATOM     75  O   UNL A   1      44.972  36.780  26.807  1.00  0.00    -0.744 OA
ENDBRANCH  71  72
ENDBRANCH  50  64
BRANCH  51  76
ATOM     76  C   UNL A   1      37.403  31.511  32.011  1.00  0.00     0.058 A 
ATOM     77  C   UNL A   1      36.806  31.910  33.219  1.00  0.00     0.135 A 
ATOM     78  C   UNL A   1      36.913  32.131  30.842  1.00  0.00     0.135 A 
ATOM     79  F   UNL A   1      37.222  31.386  34.382  1.00  0.00    -0.206 F 
ATOM     80  C   UNL A   1      35.821  32.903  33.273  1.00  0.00     0.059 A 
ATOM     81  C   UNL A   1      35.925  33.114  30.870  1.00  0.00     0.059 A 
ATOM     82  F   UNL A   1      37.446  31.869  29.640  1.00  0.00    -0.206 F 
ATOM     83  C   UNL A   1      35.402  33.517  32.093  1.00  0.00     0.060 A 
BRANCH  83  84
ATOM     84  S   UNL A   1      34.272  34.925  32.174  1.00  0.00     0.124 S 
ATOM     85  O   UNL A   1      33.120  34.348  32.858  1.00  0.00    -0.237 OA
ATOM     86  O   UNL A   1      35.047  35.898  32.936  1.00  0.00    -0.237 OA
ATOM     87  O   UNL A   1      34.057  35.268  30.771  1.00  0.00    -0.744 OA
ENDBRANCH  83  84
ENDBRANCH  51  76
BRANCH  63  88
ATOM     88  C   UNL A   1      43.004  29.171  33.947  1.00  0.00     0.058 A 
ATOM     89  C   UNL A   1      43.227  29.503  35.296  1.00  0.00     0.135 A 
ATOM     90  C   UNL A   1      42.485  27.894  33.684  1.00  0.00     0.135 A 
ATOM     91  F   UNL A   1      43.620  30.735  35.647  1.00  0.00    -0.206 F 
ATOM     92  C   UNL A   1      42.989  28.593  36.329  1.00  0.00     0.059 A 
ATOM     93  C   UNL A   1      42.210  26.982  34.700  1.00  0.00     0.059 A 
ATOM     94  F   UNL A   1      42.190  27.534  32.424  1.00  0.00    -0.206 F 
ATOM     95  C   UNL A   1      42.478  27.333  36.020  1.00  0.00     0.060 A 
BRANCH  95  96
ATOM     96  S   UNL A   1      42.108  26.177  37.359  1.00  0.00     0.124 S 
ATOM     97  O   UNL A   1      43.106  26.537  38.360  1.00  0.00    -0.237 OA
ATOM     98  O   UNL A   1      40.727  26.509  37.692  1.00  0.00    -0.237 OA
ATOM     99  O   UNL A   1      42.292  24.867  36.738  1.00  0.00    -0.744 OA
ENDBRANCH  95  96
ENDBRANCH  63  88
ENDBRANCH  37  38
ENDBRANCH  30  32
ENDBRANCH  29  30
ENDBRANCH   1  29
TORSDOF 16
ENDMDL
MODEL 3
REMARK VINA RESULT:     -12.6      3.145      9.398
REMARK SMILES O=C1C[C@H](c2cn[nH]c2C(=O)OCCOC(=O)c2ccc(-c3c4nc(c(-c5c(F)cc(S(=O)(=O)[O-])cc5F)c5ccc([nH]5)c(-c5c(F)cc(S(=O)(=O)[O-])cc5F)c5nc(c(-c6c(F)cc(S(=O)(=O)[O-])cc6F)c6ccc3[nH]6)C=C5)C=C4)cc2)c2c(-c3cccs3)n[nH]c2N1
REMARK SMILES IDX 14 1 13 2 12 3 10 4 11 5 9 6 5 7 6 8 7 9 8 10 4 12 1 13 2 14
REMARK SMILES IDX 3 15 94 16 93 17 84 19 92 20 85 21 91 22 86 24 87 25 90 26
REMARK SMILES IDX 88 27 89 28 15 29 16 30 17 31 18 32 19 33 83 34 20 35 82 36
REMARK SMILES IDX 21 37 22 38 23 39 76 40 24 41 81 42 75 43 77 44 25 45 80 46
REMARK SMILES IDX 74 47 73 48 26 50 60 51 39 52 59 53 40 54 43 55 58 56 78 57
REMARK SMILES IDX 41 58 42 59 57 61 79 62 44 63 27 64 28 65 37 66 29 67 30 68
REMARK SMILES IDX 36 69 38 70 31 71 32 72 33 73 34 74 35 75 61 76 62 77 71 78
REMARK SMILES IDX 63 79 64 80 70 81 72 82 65 83 66 84 67 85 68 86 69 87 45 88
REMARK SMILES IDX 46 89 55 90 47 91 48 92 54 93 56 94 49 95 50 96 51 97 52 98
REMARK SMILES IDX 53 99
REMARK H PARENT 8 11 94 18 92 23 77 49 43 60
REMARK Flexibility Score: inf
ROOT
ATOM      1  C   UNL A   1      37.732  21.945  25.445  1.00  0.00     0.275 C 
ENDROOT
BRANCH   1   2
ATOM      2  C   UNL A   1      37.041  22.489  24.216  1.00  0.00     0.275 C 
BRANCH   2   3
ATOM      3  O   UNL A   1      36.370  23.704  24.586  1.00  0.00    -0.457 OA
BRANCH   3   4
ATOM      4  C   UNL A   1      35.057  23.644  24.905  1.00  0.00     0.356 C 
ATOM      5  O   UNL A   1      34.619  23.217  25.951  1.00  0.00    -0.244 OA
BRANCH   4   6
ATOM      6  C   UNL A   1      34.235  24.179  23.842  1.00  0.00     0.147 A 
ATOM      7  C   UNL A   1      32.945  24.015  23.329  1.00  0.00     0.013 A 
ATOM      8  C   UNL A   1      32.895  24.984  22.278  1.00  0.00     0.140 A 
ATOM      9  N   UNL A   1      34.027  25.660  22.116  1.00  0.00    -0.183 NA
ATOM     10  N   UNL A   1      34.833  25.114  23.029  1.00  0.00    -0.271 N 
ATOM     11  H   UNL A   1      35.783  25.360  23.114  1.00  0.00     0.190 HD
BRANCH   7  12
ATOM     12  C   UNL A   1      31.727  23.158  23.648  1.00  0.00     0.069 C 
ATOM     13  O   UNL A   1      32.844  19.654  24.298  1.00  0.00    -0.275 OA
ATOM     14  C   UNL A   1      32.293  20.740  24.480  1.00  0.00     0.226 C 
ATOM     15  C   UNL A   1      31.954  21.662  23.311  1.00  0.00     0.114 C 
ATOM     16  N   UNL A   1      31.812  21.061  25.725  1.00  0.00    -0.311 N 
ATOM     17  C   UNL A   1      31.202  22.268  25.917  1.00  0.00     0.132 A 
ATOM     18  H   UNL A   1      31.904  20.428  26.473  1.00  0.00     0.171 HD
ATOM     19  C   UNL A   1      31.115  23.277  24.994  1.00  0.00     0.031 A 
ATOM     20  N   UNL A   1      30.652  22.733  27.069  1.00  0.00    -0.262 N 
ATOM     21  C   UNL A   1      30.480  24.339  25.690  1.00  0.00     0.108 A 
ATOM     22  N   UNL A   1      30.227  24.011  26.971  1.00  0.00    -0.173 NA
ATOM     23  H   UNL A   1      30.572  22.194  27.889  1.00  0.00     0.192 HD
BRANCH  21  24
ATOM     24  C   UNL A   1      30.338  25.733  25.162  1.00  0.00     0.055 A 
ATOM     25  C   UNL A   1      31.229  26.750  25.439  1.00  0.00     0.022 A 
ATOM     26  S   UNL A   1      29.152  26.214  24.037  1.00  0.00    -0.142 S 
ATOM     27  C   UNL A   1      30.987  27.905  24.640  1.00  0.00     0.012 A 
ATOM     28  C   UNL A   1      29.848  27.769  23.880  1.00  0.00     0.065 A 
ENDBRANCH  21  24
ENDBRANCH   7  12
ENDBRANCH   4   6
ENDBRANCH   3   4
ENDBRANCH   2   3
ENDBRANCH   1   2
BRANCH   1  29
ATOM     29  O   UNL A   1      38.423  23.018  26.060  1.00  0.00    -0.458 OA
BRANCH  29  30
ATOM     30  C   UNL A   1      39.607  22.750  26.647  1.00  0.00     0.338 C 
ATOM     31  O   UNL A   1      40.078  21.662  26.925  1.00  0.00    -0.246 OA
BRANCH  30  32
ATOM     32  C   UNL A   1      40.178  24.042  27.021  1.00  0.00     0.060 A 
ATOM     33  C   UNL A   1      41.228  24.070  27.940  1.00  0.00     0.016 A 
ATOM     34  C   UNL A   1      39.508  25.209  26.611  1.00  0.00     0.016 A 
ATOM     35  C   UNL A   1      41.492  25.262  28.578  1.00  0.00     0.010 A 
ATOM     36  C   UNL A   1      39.751  26.381  27.262  1.00  0.00     0.010 A 
ATOM     37  C   UNL A   1      40.688  26.371  28.285  1.00  0.00    -0.014 A 
BRANCH  37  38
ATOM     38  C   UNL A   1      40.891  27.597  29.007  1.00  0.00     0.031 A 
ATOM     39  C   UNL A   1      41.994  28.406  28.453  1.00  0.00     0.074 A 
ATOM     40  C   UNL A   1      40.034  28.014  29.953  1.00  0.00     0.049 A 
ATOM     41  N   UNL A   1      43.164  28.584  28.966  1.00  0.00    -0.248 NA
ATOM     42  C   UNL A   1      41.857  28.902  27.074  1.00  0.00     0.031 C 
ATOM     43  C   UNL A   1      38.732  27.451  30.324  1.00  0.00     0.029 A 
ATOM     44  N   UNL A   1      40.119  29.121  30.727  1.00  0.00    -0.354 N 
ATOM     45  C   UNL A   1      43.823  29.427  28.082  1.00  0.00     0.074 A 
ATOM     46  C   UNL A   1      43.076  29.395  26.853  1.00  0.00     0.031 C 
ATOM     47  C   UNL A   1      38.064  28.347  31.088  1.00  0.00     0.029 A 
ATOM     48  C   UNL A   1      38.942  29.471  31.369  1.00  0.00     0.049 A 
ATOM     49  H   UNL A   1      40.952  29.636  30.825  1.00  0.00     0.167 HD
ATOM     50  C   UNL A   1      44.767  30.299  28.522  1.00  0.00     0.037 A 
ATOM     51  C   UNL A   1      38.715  30.645  32.009  1.00  0.00     0.037 A 
ATOM     52  C   UNL A   1      45.205  29.968  29.856  1.00  0.00     0.049 A 
ATOM     53  C   UNL A   1      40.051  31.236  32.314  1.00  0.00     0.074 A 
ATOM     54  C   UNL A   1      45.787  28.854  30.429  1.00  0.00     0.029 A 
ATOM     55  N   UNL A   1      44.675  30.695  30.897  1.00  0.00    -0.354 N 
ATOM     56  N   UNL A   1      40.909  30.705  33.143  1.00  0.00    -0.248 NA
ATOM     57  C   UNL A   1      40.625  32.154  31.339  1.00  0.00     0.031 C 
ATOM     58  C   UNL A   1      45.174  28.732  31.710  1.00  0.00     0.029 A 
ATOM     59  C   UNL A   1      44.303  29.810  31.879  1.00  0.00     0.049 A 
ATOM     60  H   UNL A   1      44.578  31.674  30.931  1.00  0.00     0.167 HD
ATOM     61  C   UNL A   1      42.151  30.880  32.544  1.00  0.00     0.074 A 
ATOM     62  C   UNL A   1      41.921  31.856  31.480  1.00  0.00     0.031 C 
ATOM     63  C   UNL A   1      43.180  30.011  32.773  1.00  0.00     0.037 A 
BRANCH  50  64
ATOM     64  C   UNL A   1      45.008  31.646  27.897  1.00  0.00     0.058 A 
ATOM     65  C   UNL A   1      46.247  31.910  27.283  1.00  0.00     0.135 A 
ATOM     66  C   UNL A   1      44.172  32.767  28.101  1.00  0.00     0.135 A 
ATOM     67  F   UNL A   1      47.125  30.918  27.066  1.00  0.00    -0.206 F 
ATOM     68  C   UNL A   1      46.644  33.201  26.941  1.00  0.00     0.059 A 
ATOM     69  C   UNL A   1      44.523  34.052  27.713  1.00  0.00     0.059 A 
ATOM     70  F   UNL A   1      43.020  32.689  28.780  1.00  0.00    -0.206 F 
ATOM     71  C   UNL A   1      45.777  34.267  27.169  1.00  0.00     0.060 A 
BRANCH  71  72
ATOM     72  S   UNL A   1      46.321  35.944  26.815  1.00  0.00     0.124 S 
ATOM     73  O   UNL A   1      45.047  36.625  26.611  1.00  0.00    -0.237 OA
ATOM     74  O   UNL A   1      47.045  36.292  28.033  1.00  0.00    -0.237 OA
ATOM     75  O   UNL A   1      47.150  35.784  25.625  1.00  0.00    -0.744 OA
ENDBRANCH  71  72
ENDBRANCH  50  64
BRANCH  51  76
ATOM     76  C   UNL A   1      37.460  31.442  32.028  1.00  0.00     0.058 A 
ATOM     77  C   UNL A   1      36.884  31.855  33.242  1.00  0.00     0.135 A 
ATOM     78  C   UNL A   1      36.955  32.056  30.862  1.00  0.00     0.135 A 
ATOM     79  F   UNL A   1      37.315  31.337  34.402  1.00  0.00    -0.206 F 
ATOM     80  C   UNL A   1      35.908  32.856  33.303  1.00  0.00     0.059 A 
ATOM     81  C   UNL A   1      35.975  33.047  30.897  1.00  0.00     0.059 A 
ATOM     82  F   UNL A   1      37.467  31.780  29.654  1.00  0.00    -0.206 F 
ATOM     83  C   UNL A   1      35.475  33.463  32.125  1.00  0.00     0.060 A 
BRANCH  83  84
ATOM     84  S   UNL A   1      34.356  34.881  32.212  1.00  0.00     0.124 S 
ATOM     85  O   UNL A   1      33.197  34.309  32.887  1.00  0.00    -0.237 OA
ATOM     86  O   UNL A   1      35.137  35.841  32.985  1.00  0.00    -0.237 OA
ATOM     87  O   UNL A   1      34.150  35.236  30.811  1.00  0.00    -0.744 OA
ENDBRANCH  83  84
ENDBRANCH  51  76
BRANCH  63  88
ATOM     88  C   UNL A   1      43.047  29.035  33.918  1.00  0.00     0.058 A 
ATOM     89  C   UNL A   1      43.307  29.341  35.267  1.00  0.00     0.135 A 
ATOM     90  C   UNL A   1      42.488  27.777  33.648  1.00  0.00     0.135 A 
ATOM     91  F   UNL A   1      43.741  30.556  35.628  1.00  0.00    -0.206 F 
ATOM     92  C   UNL A   1      43.063  28.423  36.292  1.00  0.00     0.059 A 
ATOM     93  C   UNL A   1      42.206  26.858  34.656  1.00  0.00     0.059 A 
ATOM     94  F   UNL A   1      42.157  27.445  32.389  1.00  0.00    -0.206 F 
ATOM     95  C   UNL A   1      42.511  27.182  35.975  1.00  0.00     0.060 A 
BRANCH  95  96
ATOM     96  S   UNL A   1      42.135  26.017  37.305  1.00  0.00     0.124 S 
ATOM     97  O   UNL A   1      42.465  24.735  36.692  1.00  0.00    -0.237 OA
ATOM     98  O   UNL A   1      43.026  26.457  38.374  1.00  0.00    -0.237 OA
ATOM     99  O   UNL A   1      40.713  26.239  37.560  1.00  0.00    -0.744 OA
ENDBRANCH  95  96
ENDBRANCH  63  88
ENDBRANCH  37  38
ENDBRANCH  30  32
ENDBRANCH  29  30
ENDBRANCH   1  29
TORSDOF 16
ENDMDL
