MODEL 1
REMARK VINA RESULT:     -10.3      0.000      0.000
REMARK SMILES C[C@H](Nc1ccc(F)cc1Br)[C@@H](C)C(=O)OCCOC(=O)c1ccc(-c2c3nc(c(-c4c(F)cc(S(=O)(=O)[O-])cc4F)c4ccc([nH]4)c(-c4c(F)cc(S(=O)(=O)[O-])cc4F)c4nc(c(-c5c(F)cc(S(=O)(=O)[O-])cc5F)c5ccc2[nH]5)C=C4)C=C3)cc1
REMARK SMILES IDX 17 1 16 2 14 3 15 4 12 5 13 6 2 7 1 8 3 9 4 11 5 12 10 13
REMARK SMILES IDX 6 14 9 15 11 16 7 17 8 18 18 19 19 20 20 21 21 22 22 23
REMARK SMILES IDX 23 24 87 25 24 26 86 27 25 28 26 29 27 30 80 31 28 32 85 33
REMARK SMILES IDX 79 34 81 35 29 36 84 37 78 38 77 39 30 41 64 42 43 43 63 44
REMARK SMILES IDX 44 45 47 46 62 47 82 48 45 49 46 50 61 52 83 53 48 54 31 55
REMARK SMILES IDX 32 56 41 57 33 58 34 59 40 60 42 61 35 62 36 63 37 64 38 65
REMARK SMILES IDX 39 66 65 67 66 68 75 69 67 70 68 71 74 72 76 73 69 74 70 75
REMARK SMILES IDX 71 76 72 77 73 78 49 79 50 80 59 81 51 82 52 83 58 84 60 85
REMARK SMILES IDX 53 86 54 87 55 88 56 89 57 90
REMARK H PARENT 3 10 81 40 47 51
REMARK Flexibility Score: inf
ROOT
ATOM      1  C   UNL A   1      32.023  28.918  25.782  1.00  0.00     0.274 C 
ENDROOT
BRANCH   1   2
ATOM      2  O   UNL A   1      31.541  27.569  25.943  1.00  0.00    -0.462 OA
BRANCH   2   3
ATOM      3  C   UNL A   1      30.953  27.013  24.851  1.00  0.00     0.310 C 
ATOM      4  O   UNL A   1      29.936  26.329  24.884  1.00  0.00    -0.252 OA
BRANCH   3   5
ATOM      5  C   UNL A   1      31.724  27.253  23.564  1.00  0.00     0.118 C 
ATOM      6  C   UNL A   1      30.693  27.588  22.484  1.00  0.00     0.022 C 
BRANCH   5   7
ATOM      7  C   UNL A   1      32.659  26.087  23.183  1.00  0.00     0.090 C 
ATOM      8  C   UNL A   1      32.447  25.647  21.724  1.00  0.00     0.031 C 
BRANCH   7   9
ATOM      9  N   UNL A   1      32.429  24.925  24.057  1.00  0.00    -0.381 N 
ATOM     10  H   UNL A   1      31.522  24.689  24.358  1.00  0.00     0.160 HD
BRANCH   9  11
ATOM     11  C   UNL A   1      33.541  24.165  24.446  1.00  0.00     0.049 A 
ATOM     12  C   UNL A   1      34.563  24.738  25.220  1.00  0.00     0.030 A 
ATOM     13  C   UNL A   1      33.723  22.845  23.987  1.00  0.00     0.044 A 
ATOM     14  C   UNL A   1      35.745  24.044  25.482  1.00  0.00     0.041 A 
ATOM     15  C   UNL A   1      34.905  22.147  24.242  1.00  0.00     0.057 A 
ATOM     16  Br  UNL A   1      32.382  21.978  22.951  1.00  0.00    -0.048 Br
ATOM     17  C   UNL A   1      35.907  22.761  24.979  1.00  0.00     0.124 A 
ATOM     18  F   UNL A   1      37.054  22.108  25.207  1.00  0.00    -0.207 F 
ENDBRANCH   9  11
ENDBRANCH   7   9
ENDBRANCH   5   7
ENDBRANCH   3   5
ENDBRANCH   2   3
ENDBRANCH   1   2
BRANCH   1  19
ATOM     19  C   UNL A   1      32.472  29.496  27.122  1.00  0.00     0.275 C 
BRANCH  19  20
ATOM     20  O   UNL A   1      33.900  29.397  27.232  1.00  0.00    -0.458 OA
BRANCH  20  21
ATOM     21  C   UNL A   1      34.498  30.336  27.999  1.00  0.00     0.338 C 
ATOM     22  O   UNL A   1      34.018  31.386  28.391  1.00  0.00    -0.246 OA
BRANCH  21  23
ATOM     23  C   UNL A   1      35.880  29.923  28.292  1.00  0.00     0.060 A 
ATOM     24  C   UNL A   1      36.254  29.503  29.572  1.00  0.00     0.016 A 
ATOM     25  C   UNL A   1      36.829  30.029  27.277  1.00  0.00     0.016 A 
ATOM     26  C   UNL A   1      37.591  29.218  29.848  1.00  0.00     0.010 A 
ATOM     27  C   UNL A   1      38.153  29.682  27.538  1.00  0.00     0.010 A 
ATOM     28  C   UNL A   1      38.548  29.287  28.828  1.00  0.00    -0.014 A 
BRANCH  28  29
ATOM     29  C   UNL A   1      39.970  28.942  29.072  1.00  0.00     0.031 A 
ATOM     30  C   UNL A   1      40.929  30.007  29.520  1.00  0.00     0.074 A 
ATOM     31  C   UNL A   1      40.407  27.695  28.817  1.00  0.00     0.049 A 
ATOM     32  N   UNL A   1      42.236  29.986  29.543  1.00  0.00    -0.248 NA
ATOM     33  C   UNL A   1      40.337  31.271  29.990  1.00  0.00     0.031 C 
ATOM     34  C   UNL A   1      39.565  26.567  28.411  1.00  0.00     0.029 A 
ATOM     35  N   UNL A   1      41.676  27.174  28.829  1.00  0.00    -0.354 N 
ATOM     36  C   UNL A   1      42.626  31.243  29.989  1.00  0.00     0.074 A 
ATOM     37  C   UNL A   1      41.417  32.003  30.225  1.00  0.00     0.031 C 
ATOM     38  C   UNL A   1      40.341  25.492  28.202  1.00  0.00     0.029 A 
ATOM     39  C   UNL A   1      41.736  25.872  28.391  1.00  0.00     0.049 A 
ATOM     40  H   UNL A   1      42.467  27.683  29.123  1.00  0.00     0.167 HD
ATOM     41  C   UNL A   1      43.882  31.716  30.174  1.00  0.00     0.037 A 
ATOM     42  C   UNL A   1      42.798  25.090  28.117  1.00  0.00     0.037 A 
ATOM     43  C   UNL A   1      45.074  30.939  29.957  1.00  0.00     0.049 A 
ATOM     44  C   UNL A   1      44.182  25.648  28.289  1.00  0.00     0.074 A 
ATOM     45  C   UNL A   1      46.395  31.316  30.130  1.00  0.00     0.029 A 
ATOM     46  N   UNL A   1      45.089  29.621  29.522  1.00  0.00    -0.354 N 
ATOM     47  N   UNL A   1      44.541  26.847  28.682  1.00  0.00    -0.248 NA
ATOM     48  C   UNL A   1      45.303  24.755  27.968  1.00  0.00     0.031 C 
ATOM     49  C   UNL A   1      47.209  30.236  29.772  1.00  0.00     0.029 A 
ATOM     50  C   UNL A   1      46.396  29.174  29.409  1.00  0.00     0.049 A 
ATOM     51  H   UNL A   1      44.290  29.083  29.323  1.00  0.00     0.167 HD
ATOM     52  C   UNL A   1      45.930  26.848  28.670  1.00  0.00     0.074 A 
ATOM     53  C   UNL A   1      46.346  25.528  28.240  1.00  0.00     0.031 C 
ATOM     54  C   UNL A   1      46.785  27.852  28.987  1.00  0.00     0.037 A 
BRANCH  41  55
ATOM     55  C   UNL A   1      44.030  33.147  30.605  1.00  0.00     0.058 A 
ATOM     56  C   UNL A   1      44.162  33.504  31.955  1.00  0.00     0.135 A 
ATOM     57  C   UNL A   1      44.073  34.175  29.648  1.00  0.00     0.135 A 
ATOM     58  F   UNL A   1      44.111  32.563  32.911  1.00  0.00    -0.206 F 
ATOM     59  C   UNL A   1      44.306  34.832  32.345  1.00  0.00     0.059 A 
ATOM     60  C   UNL A   1      44.237  35.508  30.014  1.00  0.00     0.059 A 
ATOM     61  F   UNL A   1      43.950  33.888  28.343  1.00  0.00    -0.206 F 
ATOM     62  C   UNL A   1      44.338  35.828  31.366  1.00  0.00     0.060 A 
BRANCH  62  63
ATOM     63  S   UNL A   1      44.523  37.549  31.884  1.00  0.00     0.124 S 
ATOM     64  O   UNL A   1      44.095  38.261  30.684  1.00  0.00    -0.237 OA
ATOM     65  O   UNL A   1      43.619  37.633  33.027  1.00  0.00    -0.237 OA
ATOM     66  O   UNL A   1      45.943  37.655  32.204  1.00  0.00    -0.744 OA
ENDBRANCH  62  63
ENDBRANCH  41  55
BRANCH  42  67
ATOM     67  C   UNL A   1      42.582  23.709  27.614  1.00  0.00     0.058 A 
ATOM     68  C   UNL A   1      42.489  23.450  26.240  1.00  0.00     0.135 A 
ATOM     69  C   UNL A   1      42.500  22.619  28.494  1.00  0.00     0.135 A 
ATOM     70  F   UNL A   1      42.553  24.463  25.362  1.00  0.00    -0.206 F 
ATOM     71  C   UNL A   1      42.321  22.158  25.753  1.00  0.00     0.059 A 
ATOM     72  C   UNL A   1      42.355  21.315  28.031  1.00  0.00     0.059 A 
ATOM     73  F   UNL A   1      42.598  22.813  29.819  1.00  0.00    -0.206 F 
ATOM     74  C   UNL A   1      42.259  21.096  26.657  1.00  0.00     0.060 A 
BRANCH  74  75
ATOM     75  S   UNL A   1      42.109  19.414  26.015  1.00  0.00     0.124 S 
ATOM     76  O   UNL A   1      42.558  18.625  27.155  1.00  0.00    -0.237 OA
ATOM     77  O   UNL A   1      40.686  19.328  25.701  1.00  0.00    -0.237 OA
ATOM     78  O   UNL A   1      42.998  19.419  24.858  1.00  0.00    -0.744 OA
ENDBRANCH  74  75
ENDBRANCH  42  67
BRANCH  54  79
ATOM     79  C   UNL A   1      48.253  27.552  28.913  1.00  0.00     0.058 A 
ATOM     80  C   UNL A   1      49.011  27.875  27.777  1.00  0.00     0.135 A 
ATOM     81  C   UNL A   1      48.918  26.988  30.013  1.00  0.00     0.135 A 
ATOM     82  F   UNL A   1      48.418  28.407  26.698  1.00  0.00    -0.206 F 
ATOM     83  C   UNL A   1      50.381  27.639  27.731  1.00  0.00     0.059 A 
ATOM     84  C   UNL A   1      50.290  26.761  29.995  1.00  0.00     0.059 A 
ATOM     85  F   UNL A   1      48.236  26.668  31.124  1.00  0.00    -0.206 F 
ATOM     86  C   UNL A   1      51.012  27.083  28.846  1.00  0.00     0.060 A 
BRANCH  86  87
ATOM     87  S   UNL A   1      52.797  26.824  28.795  1.00  0.00     0.124 S 
ATOM     88  O   UNL A   1      52.928  25.904  27.670  1.00  0.00    -0.237 OA
ATOM     89  O   UNL A   1      53.306  28.175  28.573  1.00  0.00    -0.237 OA
ATOM     90  O   UNL A   1      53.095  26.258  30.107  1.00  0.00    -0.744 OA
ENDBRANCH  86  87
ENDBRANCH  54  79
ENDBRANCH  28  29
ENDBRANCH  21  23
ENDBRANCH  20  21
ENDBRANCH  19  20
ENDBRANCH   1  19
TORSDOF 17
ENDMDL
MODEL 2
REMARK VINA RESULT:     -10.3      0.998      1.729
REMARK SMILES C[C@H](Nc1ccc(F)cc1Br)[C@@H](C)C(=O)OCCOC(=O)c1ccc(-c2c3nc(c(-c4c(F)cc(S(=O)(=O)[O-])cc4F)c4ccc([nH]4)c(-c4c(F)cc(S(=O)(=O)[O-])cc4F)c4nc(c(-c5c(F)cc(S(=O)(=O)[O-])cc5F)c5ccc2[nH]5)C=C4)C=C3)cc1
REMARK SMILES IDX 17 1 16 2 14 3 15 4 12 5 13 6 2 7 1 8 3 9 4 11 5 12 10 13
REMARK SMILES IDX 6 14 9 15 11 16 7 17 8 18 18 19 19 20 20 21 21 22 22 23
REMARK SMILES IDX 23 24 87 25 24 26 86 27 25 28 26 29 27 30 80 31 28 32 85 33
REMARK SMILES IDX 79 34 81 35 29 36 84 37 78 38 77 39 30 41 64 42 43 43 63 44
REMARK SMILES IDX 44 45 47 46 62 47 82 48 45 49 46 50 61 52 83 53 48 54 31 55
REMARK SMILES IDX 32 56 41 57 33 58 34 59 40 60 42 61 35 62 36 63 37 64 38 65
REMARK SMILES IDX 39 66 65 67 66 68 75 69 67 70 68 71 74 72 76 73 69 74 70 75
REMARK SMILES IDX 71 76 72 77 73 78 49 79 50 80 59 81 51 82 52 83 58 84 60 85
REMARK SMILES IDX 53 86 54 87 55 88 56 89 57 90
REMARK H PARENT 3 10 81 40 47 51
REMARK Flexibility Score: inf
ROOT
ATOM      1  C   UNL A   1      31.815  28.158  27.000  1.00  0.00     0.274 C 
ENDROOT
BRANCH   1   2
ATOM      2  O   UNL A   1      31.416  27.954  25.631  1.00  0.00    -0.462 OA
BRANCH   2   3
ATOM      3  C   UNL A   1      32.124  27.025  24.936  1.00  0.00     0.310 C 
ATOM      4  O   UNL A   1      33.334  27.079  24.741  1.00  0.00    -0.252 OA
BRANCH   3   5
ATOM      5  C   UNL A   1      31.258  25.928  24.342  1.00  0.00     0.118 C 
ATOM      6  C   UNL A   1      29.807  26.276  24.680  1.00  0.00     0.022 C 
BRANCH   5   7
ATOM      7  C   UNL A   1      31.671  24.510  24.788  1.00  0.00     0.090 C 
ATOM      8  C   UNL A   1      31.841  24.426  26.315  1.00  0.00     0.031 C 
BRANCH   7   9
ATOM      9  N   UNL A   1      32.940  24.111  24.156  1.00  0.00    -0.381 N 
ATOM     10  H   UNL A   1      33.505  24.772  23.695  1.00  0.00     0.160 HD
BRANCH   9  11
ATOM     11  C   UNL A   1      33.317  22.764  24.232  1.00  0.00     0.049 A 
ATOM     12  C   UNL A   1      32.456  21.752  23.776  1.00  0.00     0.030 A 
ATOM     13  C   UNL A   1      34.516  22.374  24.863  1.00  0.00     0.044 A 
ATOM     14  C   UNL A   1      32.750  20.405  23.988  1.00  0.00     0.041 A 
ATOM     15  C   UNL A   1      34.813  21.027  25.081  1.00  0.00     0.057 A 
ATOM     16  Br  UNL A   1      35.756  23.673  25.492  1.00  0.00    -0.048 Br
ATOM     17  C   UNL A   1      33.919  20.058  24.650  1.00  0.00     0.124 A 
ATOM     18  F   UNL A   1      34.184  18.765  24.877  1.00  0.00    -0.207 F 
ENDBRANCH   9  11
ENDBRANCH   7   9
ENDBRANCH   5   7
ENDBRANCH   3   5
ENDBRANCH   2   3
ENDBRANCH   1   2
BRANCH   1  19
ATOM     19  C   UNL A   1      32.437  29.541  27.183  1.00  0.00     0.275 C 
BRANCH  19  20
ATOM     20  O   UNL A   1      33.864  29.414  27.284  1.00  0.00    -0.458 OA
BRANCH  20  21
ATOM     21  C   UNL A   1      34.495  30.397  27.966  1.00  0.00     0.338 C 
ATOM     22  O   UNL A   1      34.043  31.483  28.284  1.00  0.00    -0.246 OA
BRANCH  21  23
ATOM     23  C   UNL A   1      35.873  29.977  28.266  1.00  0.00     0.060 A 
ATOM     24  C   UNL A   1      36.245  29.578  29.553  1.00  0.00     0.016 A 
ATOM     25  C   UNL A   1      36.822  30.056  27.249  1.00  0.00     0.016 A 
ATOM     26  C   UNL A   1      37.579  29.287  29.834  1.00  0.00     0.010 A 
ATOM     27  C   UNL A   1      38.144  29.702  27.516  1.00  0.00     0.010 A 
ATOM     28  C   UNL A   1      38.536  29.329  28.812  1.00  0.00    -0.014 A 
BRANCH  28  29
ATOM     29  C   UNL A   1      39.955  28.976  29.063  1.00  0.00     0.031 A 
ATOM     30  C   UNL A   1      40.919  30.036  29.514  1.00  0.00     0.074 A 
ATOM     31  C   UNL A   1      40.387  27.726  28.810  1.00  0.00     0.049 A 
ATOM     32  N   UNL A   1      42.225  30.008  29.542  1.00  0.00    -0.248 NA
ATOM     33  C   UNL A   1      40.332  31.304  29.980  1.00  0.00     0.031 C 
ATOM     34  C   UNL A   1      39.540  26.603  28.402  1.00  0.00     0.029 A 
ATOM     35  N   UNL A   1      41.653  27.199  28.828  1.00  0.00    -0.354 N 
ATOM     36  C   UNL A   1      42.620  31.263  29.988  1.00  0.00     0.074 A 
ATOM     37  C   UNL A   1      41.415  32.030  30.218  1.00  0.00     0.031 C 
ATOM     38  C   UNL A   1      40.311  25.523  28.198  1.00  0.00     0.029 A 
ATOM     39  C   UNL A   1      41.707  25.896  28.391  1.00  0.00     0.049 A 
ATOM     40  H   UNL A   1      42.445  27.704  29.125  1.00  0.00     0.167 HD
ATOM     41  C   UNL A   1      43.877  31.730  30.178  1.00  0.00     0.037 A 
ATOM     42  C   UNL A   1      42.766  25.108  28.122  1.00  0.00     0.037 A 
ATOM     43  C   UNL A   1      45.066  30.946  29.966  1.00  0.00     0.049 A 
ATOM     44  C   UNL A   1      44.152  25.658  28.300  1.00  0.00     0.074 A 
ATOM     45  C   UNL A   1      46.389  31.316  30.144  1.00  0.00     0.029 A 
ATOM     46  N   UNL A   1      45.076  29.627  29.532  1.00  0.00    -0.354 N 
ATOM     47  N   UNL A   1      44.516  26.856  28.692  1.00  0.00    -0.248 NA
ATOM     48  C   UNL A   1      45.270  24.760  27.984  1.00  0.00     0.031 C 
ATOM     49  C   UNL A   1      47.198  30.232  29.790  1.00  0.00     0.029 A 
ATOM     50  C   UNL A   1      46.381  29.174  29.425  1.00  0.00     0.049 A 
ATOM     51  H   UNL A   1      44.275  29.094  29.330  1.00  0.00     0.167 HD
ATOM     52  C   UNL A   1      45.905  26.850  28.686  1.00  0.00     0.074 A 
ATOM     53  C   UNL A   1      46.316  25.527  28.259  1.00  0.00     0.031 C 
ATOM     54  C   UNL A   1      46.764  27.849  29.005  1.00  0.00     0.037 A 
BRANCH  41  55
ATOM     55  C   UNL A   1      44.032  33.160  30.608  1.00  0.00     0.058 A 
ATOM     56  C   UNL A   1      44.163  34.203  29.678  1.00  0.00     0.135 A 
ATOM     57  C   UNL A   1      44.019  33.497  31.972  1.00  0.00     0.135 A 
ATOM     58  F   UNL A   1      44.198  33.935  28.363  1.00  0.00    -0.206 F 
ATOM     59  C   UNL A   1      44.299  35.527  30.085  1.00  0.00     0.059 A 
ATOM     60  C   UNL A   1      44.133  34.816  32.401  1.00  0.00     0.059 A 
ATOM     61  F   UNL A   1      43.899  32.537  32.902  1.00  0.00    -0.206 F 
ATOM     62  C   UNL A   1      44.288  35.823  31.450  1.00  0.00     0.060 A 
BRANCH  62  63
ATOM     63  S   UNL A   1      44.467  37.545  31.967  1.00  0.00     0.124 S 
ATOM     64  O   UNL A   1      43.757  37.540  33.242  1.00  0.00    -0.237 OA
ATOM     65  O   UNL A   1      45.916  37.699  32.049  1.00  0.00    -0.237 OA
ATOM     66  O   UNL A   1      43.822  38.290  30.891  1.00  0.00    -0.744 OA
ENDBRANCH  62  63
ENDBRANCH  41  55
BRANCH  42  67
ATOM     67  C   UNL A   1      42.544  23.728  27.620  1.00  0.00     0.058 A 
ATOM     68  C   UNL A   1      42.369  23.480  26.252  1.00  0.00     0.135 A 
ATOM     69  C   UNL A   1      42.540  22.628  28.492  1.00  0.00     0.135 A 
ATOM     70  F   UNL A   1      42.358  24.502  25.382  1.00  0.00    -0.206 F 
ATOM     71  C   UNL A   1      42.195  22.189  25.763  1.00  0.00     0.059 A 
ATOM     72  C   UNL A   1      42.390  21.326  28.025  1.00  0.00     0.059 A 
ATOM     73  F   UNL A   1      42.718  22.812  29.809  1.00  0.00    -0.206 F 
ATOM     74  C   UNL A   1      42.211  21.118  26.658  1.00  0.00     0.060 A 
BRANCH  74  75
ATOM     75  S   UNL A   1      42.052  19.439  26.010  1.00  0.00     0.124 S 
ATOM     76  O   UNL A   1      42.929  19.491  24.846  1.00  0.00    -0.237 OA
ATOM     77  O   UNL A   1      42.524  18.629  27.128  1.00  0.00    -0.237 OA
ATOM     78  O   UNL A   1      40.625  19.327  25.723  1.00  0.00    -0.744 OA
ENDBRANCH  74  75
ENDBRANCH  42  67
BRANCH  54  79
ATOM     79  C   UNL A   1      48.231  27.541  28.938  1.00  0.00     0.058 A 
ATOM     80  C   UNL A   1      48.991  27.838  27.796  1.00  0.00     0.135 A 
ATOM     81  C   UNL A   1      48.894  26.997  30.049  1.00  0.00     0.135 A 
ATOM     82  F   UNL A   1      48.400  28.350  26.706  1.00  0.00    -0.206 F 
ATOM     83  C   UNL A   1      50.359  27.595  27.755  1.00  0.00     0.059 A 
ATOM     84  C   UNL A   1      50.265  26.764  30.036  1.00  0.00     0.059 A 
ATOM     85  F   UNL A   1      48.210  26.703  31.166  1.00  0.00    -0.206 F 
ATOM     86  C   UNL A   1      50.988  27.059  28.880  1.00  0.00     0.060 A 
BRANCH  86  87
ATOM     87  S   UNL A   1      52.772  26.790  28.834  1.00  0.00     0.124 S 
ATOM     88  O   UNL A   1      52.901  25.861  27.717  1.00  0.00    -0.237 OA
ATOM     89  O   UNL A   1      53.288  28.137  28.602  1.00  0.00    -0.237 OA
ATOM     90  O   UNL A   1      53.064  26.234  30.152  1.00  0.00    -0.744 OA
ENDBRANCH  86  87
ENDBRANCH  54  79
ENDBRANCH  28  29
ENDBRANCH  21  23
ENDBRANCH  20  21
ENDBRANCH  19  20
ENDBRANCH   1  19
TORSDOF 17
ENDMDL
MODEL 3
REMARK VINA RESULT:     -10.2      3.964      9.843
REMARK SMILES C[C@H](Nc1ccc(F)cc1Br)[C@@H](C)C(=O)OCCOC(=O)c1ccc(-c2c3nc(c(-c4c(F)cc(S(=O)(=O)[O-])cc4F)c4ccc([nH]4)c(-c4c(F)cc(S(=O)(=O)[O-])cc4F)c4nc(c(-c5c(F)cc(S(=O)(=O)[O-])cc5F)c5ccc2[nH]5)C=C4)C=C3)cc1
REMARK SMILES IDX 17 1 16 2 14 3 15 4 12 5 13 6 2 7 1 8 3 9 4 11 5 12 10 13
REMARK SMILES IDX 6 14 9 15 11 16 7 17 8 18 18 19 19 20 20 21 21 22 22 23
REMARK SMILES IDX 23 24 87 25 24 26 86 27 25 28 26 29 27 30 80 31 28 32 85 33
REMARK SMILES IDX 79 34 81 35 29 36 84 37 78 38 77 39 30 41 64 42 43 43 63 44
REMARK SMILES IDX 44 45 47 46 62 47 82 48 45 49 46 50 61 52 83 53 48 54 31 55
REMARK SMILES IDX 32 56 41 57 33 58 34 59 40 60 42 61 35 62 36 63 37 64 38 65
REMARK SMILES IDX 39 66 65 67 66 68 75 69 67 70 68 71 74 72 76 73 69 74 70 75
REMARK SMILES IDX 71 76 72 77 73 78 49 79 50 80 59 81 51 82 52 83 58 84 60 85
REMARK SMILES IDX 53 86 54 87 55 88 56 89 57 90
REMARK H PARENT 3 10 81 40 47 51
REMARK Flexibility Score: inf
ROOT
ATOM      1  C   UNL A   1      36.467  21.011  25.220  1.00  0.00     0.274 C 
ENDROOT
BRANCH   1   2
ATOM      2  O   UNL A   1      35.166  20.791  24.640  1.00  0.00    -0.462 OA
BRANCH   2   3
ATOM      3  C   UNL A   1      34.103  21.068  25.441  1.00  0.00     0.310 C 
ATOM      4  O   UNL A   1      34.184  21.608  26.539  1.00  0.00    -0.252 OA
BRANCH   3   5
ATOM      5  C   UNL A   1      32.781  20.570  24.881  1.00  0.00     0.118 C 
ATOM      6  C   UNL A   1      33.042  19.180  24.298  1.00  0.00     0.022 C 
BRANCH   5   7
ATOM      7  C   UNL A   1      32.133  21.548  23.878  1.00  0.00     0.090 C 
ATOM      8  C   UNL A   1      32.128  20.971  22.452  1.00  0.00     0.031 C 
BRANCH   7   9
ATOM      9  N   UNL A   1      32.853  22.832  23.859  1.00  0.00    -0.381 N 
ATOM     10  H   UNL A   1      33.821  22.867  23.685  1.00  0.00     0.160 HD
BRANCH   9  11
ATOM     11  C   UNL A   1      32.117  24.001  24.095  1.00  0.00     0.049 A 
ATOM     12  C   UNL A   1      30.796  24.120  23.635  1.00  0.00     0.030 A 
ATOM     13  C   UNL A   1      32.709  25.129  24.700  1.00  0.00     0.044 A 
ATOM     14  C   UNL A   1      30.107  25.330  23.725  1.00  0.00     0.041 A 
ATOM     15  C   UNL A   1      32.026  26.343  24.788  1.00  0.00     0.057 A 
ATOM     16  Br  UNL A   1      34.487  25.055  25.373  1.00  0.00    -0.048 Br
ATOM     17  C   UNL A   1      30.735  26.432  24.288  1.00  0.00     0.124 A 
ATOM     18  F   UNL A   1      30.082  27.600  24.346  1.00  0.00    -0.207 F 
ENDBRANCH   9  11
ENDBRANCH   7   9
ENDBRANCH   5   7
ENDBRANCH   3   5
ENDBRANCH   2   3
ENDBRANCH   1   2
BRANCH   1  19
ATOM     19  C   UNL A   1      37.124  22.252  24.621  1.00  0.00     0.275 C 
BRANCH  19  20
ATOM     20  O   UNL A   1      37.541  23.131  25.677  1.00  0.00    -0.458 OA
BRANCH  20  21
ATOM     21  C   UNL A   1      38.837  23.029  26.050  1.00  0.00     0.338 C 
ATOM     22  O   UNL A   1      39.586  22.085  25.869  1.00  0.00    -0.246 OA
BRANCH  21  23
ATOM     23  C   UNL A   1      39.239  24.252  26.763  1.00  0.00     0.060 A 
ATOM     24  C   UNL A   1      40.105  25.181  26.177  1.00  0.00     0.016 A 
ATOM     25  C   UNL A   1      38.791  24.431  28.070  1.00  0.00     0.016 A 
ATOM     26  C   UNL A   1      40.553  26.276  26.914  1.00  0.00     0.010 A 
ATOM     27  C   UNL A   1      39.188  25.561  28.783  1.00  0.00     0.010 A 
ATOM     28  C   UNL A   1      40.082  26.485  28.217  1.00  0.00    -0.014 A 
BRANCH  28  29
ATOM     29  C   UNL A   1      40.496  27.668  29.011  1.00  0.00     0.031 A 
ATOM     30  C   UNL A   1      41.756  27.613  29.827  1.00  0.00     0.074 A 
ATOM     31  C   UNL A   1      39.701  28.752  29.058  1.00  0.00     0.049 A 
ATOM     32  N   UNL A   1      42.163  28.416  30.775  1.00  0.00    -0.248 NA
ATOM     33  C   UNL A   1      42.674  26.496  29.548  1.00  0.00     0.031 C 
ATOM     34  C   UNL A   1      38.472  28.936  28.283  1.00  0.00     0.029 A 
ATOM     35  N   UNL A   1      39.792  29.894  29.814  1.00  0.00    -0.354 N 
ATOM     36  C   UNL A   1      43.360  27.881  31.235  1.00  0.00     0.074 A 
ATOM     37  C   UNL A   1      43.615  26.685  30.462  1.00  0.00     0.031 C 
ATOM     38  C   UNL A   1      37.917  30.114  28.612  1.00  0.00     0.029 A 
ATOM     39  C   UNL A   1      38.712  30.732  29.667  1.00  0.00     0.049 A 
ATOM     40  H   UNL A   1      40.555  30.092  30.403  1.00  0.00     0.167 HD
ATOM     41  C   UNL A   1      44.164  28.348  32.220  1.00  0.00     0.037 A 
ATOM     42  C   UNL A   1      38.370  31.845  30.345  1.00  0.00     0.037 A 
ATOM     43  C   UNL A   1      43.908  29.553  32.964  1.00  0.00     0.049 A 
ATOM     44  C   UNL A   1      39.255  32.321  31.462  1.00  0.00     0.074 A 
ATOM     45  C   UNL A   1      44.667  30.124  33.972  1.00  0.00     0.029 A 
ATOM     46  N   UNL A   1      42.807  30.378  32.778  1.00  0.00    -0.354 N 
ATOM     47  N   UNL A   1      40.369  31.792  31.910  1.00  0.00    -0.248 NA
ATOM     48  C   UNL A   1      38.832  33.534  32.174  1.00  0.00     0.031 C 
ATOM     49  C   UNL A   1      44.010  31.278  34.414  1.00  0.00     0.029 A 
ATOM     50  C   UNL A   1      42.860  31.445  33.658  1.00  0.00     0.049 A 
ATOM     51  H   UNL A   1      42.095  30.227  32.117  1.00  0.00     0.167 HD
ATOM     52  C   UNL A   1      40.788  32.616  32.947  1.00  0.00     0.074 A 
ATOM     53  C   UNL A   1      39.813  33.684  33.054  1.00  0.00     0.031 C 
ATOM     54  C   UNL A   1      41.882  32.500  33.740  1.00  0.00     0.037 A 
BRANCH  41  55
ATOM     55  C   UNL A   1      45.379  27.537  32.570  1.00  0.00     0.058 A 
ATOM     56  C   UNL A   1      45.341  26.528  33.544  1.00  0.00     0.135 A 
ATOM     57  C   UNL A   1      46.594  27.753  31.897  1.00  0.00     0.135 A 
ATOM     58  F   UNL A   1      44.210  26.292  34.228  1.00  0.00    -0.206 F 
ATOM     59  C   UNL A   1      46.470  25.776  33.857  1.00  0.00     0.059 A 
ATOM     60  C   UNL A   1      47.730  26.999  32.179  1.00  0.00     0.059 A 
ATOM     61  F   UNL A   1      46.685  28.707  30.958  1.00  0.00    -0.206 F 
ATOM     62  C   UNL A   1      47.662  26.023  33.172  1.00  0.00     0.060 A 
BRANCH  62  63
ATOM     63  S   UNL A   1      49.121  25.043  33.588  1.00  0.00     0.124 S 
ATOM     64  O   UNL A   1      49.748  24.887  32.279  1.00  0.00    -0.237 OA
ATOM     65  O   UNL A   1      49.825  25.911  34.527  1.00  0.00    -0.237 OA
ATOM     66  O   UNL A   1      48.559  23.826  34.164  1.00  0.00    -0.744 OA
ENDBRANCH  62  63
ENDBRANCH  41  55
BRANCH  42  67
ATOM     67  C   UNL A   1      37.111  32.555  30.005  1.00  0.00     0.058 A 
ATOM     68  C   UNL A   1      35.908  32.233  30.647  1.00  0.00     0.135 A 
ATOM     69  C   UNL A   1      37.093  33.590  29.058  1.00  0.00     0.135 A 
ATOM     70  F   UNL A   1      35.876  31.244  31.555  1.00  0.00    -0.206 F 
ATOM     71  C   UNL A   1      34.728  32.913  30.364  1.00  0.00     0.059 A 
ATOM     72  C   UNL A   1      35.930  34.299  28.773  1.00  0.00     0.059 A 
ATOM     73  F   UNL A   1      38.222  33.944  28.425  1.00  0.00    -0.206 F 
ATOM     74  C   UNL A   1      34.750  33.948  29.427  1.00  0.00     0.060 A 
BRANCH  74  75
ATOM     75  S   UNL A   1      33.229  34.870  29.113  1.00  0.00     0.124 S 
ATOM     76  O   UNL A   1      32.592  34.838  30.423  1.00  0.00    -0.237 OA
ATOM     77  O   UNL A   1      33.738  36.169  28.683  1.00  0.00    -0.237 OA
ATOM     78  O   UNL A   1      32.574  34.087  28.070  1.00  0.00    -0.744 OA
ENDBRANCH  74  75
ENDBRANCH  42  67
BRANCH  54  79
ATOM     79  C   UNL A   1      42.100  33.571  34.769  1.00  0.00     0.058 A 
ATOM     80  C   UNL A   1      41.658  33.417  36.092  1.00  0.00     0.135 A 
ATOM     81  C   UNL A   1      42.810  34.736  34.441  1.00  0.00     0.135 A 
ATOM     82  F   UNL A   1      40.966  32.325  36.450  1.00  0.00    -0.206 F 
ATOM     83  C   UNL A   1      41.904  34.391  37.053  1.00  0.00     0.059 A 
ATOM     84  C   UNL A   1      43.084  35.713  35.391  1.00  0.00     0.059 A 
ATOM     85  F   UNL A   1      43.259  34.924  33.189  1.00  0.00    -0.206 F 
ATOM     86  C   UNL A   1      42.620  35.535  36.694  1.00  0.00     0.060 A 
BRANCH  86  87
ATOM     87  S   UNL A   1      42.976  36.771  37.960  1.00  0.00     0.124 S 
ATOM     88  O   UNL A   1      43.727  37.763  37.199  1.00  0.00    -0.237 OA
ATOM     89  O   UNL A   1      41.640  37.178  38.388  1.00  0.00    -0.237 OA
ATOM     90  O   UNL A   1      43.744  36.027  38.953  1.00  0.00    -0.744 OA
ENDBRANCH  86  87
ENDBRANCH  54  79
ENDBRANCH  28  29
ENDBRANCH  21  23
ENDBRANCH  20  21
ENDBRANCH  19  20
ENDBRANCH   1  19
TORSDOF 17
ENDMDL
