MODEL 1
REMARK VINA RESULT:     -10.4      0.000      0.000
REMARK SMILES CC[C@@H](CNC(=O)NCc1c(C)noc1C)C(=O)OCCOC(=O)c1ccc(-c2c3nc(c(-c4c(F)cc(S(=O)(=O)[O-])cc4F)c4ccc([nH]4)c(-c4c(F)cc(S(=O)(=O)[O-])cc4F)c4nc(c(-c5c(F)cc(S(=O)(=O)[O-])cc5F)c5ccc2[nH]5)C=C4)C=C3)cc1
REMARK SMILES IDX 20 1 19 2 17 3 18 4 3 5 2 6 1 7 4 8 5 9 6 10 7 12 8 13 9 15
REMARK SMILES IDX 10 16 11 17 15 18 12 19 13 20 14 21 16 22 21 23 22 24 23 25
REMARK SMILES IDX 24 26 25 27 26 28 90 29 27 30 89 31 28 32 29 33 30 34 83 35
REMARK SMILES IDX 31 36 88 37 82 38 84 39 32 40 87 41 81 42 80 43 33 45 67 46
REMARK SMILES IDX 46 47 66 48 47 49 50 50 65 51 85 52 48 53 49 54 64 56 86 57
REMARK SMILES IDX 51 58 34 59 35 60 44 61 36 62 37 63 43 64 45 65 38 66 39 67
REMARK SMILES IDX 40 68 41 69 42 70 68 71 69 72 78 73 70 74 71 75 77 76 79 77
REMARK SMILES IDX 72 78 73 79 74 80 75 81 76 82 52 83 53 84 62 85 54 86 55 87
REMARK SMILES IDX 61 88 63 89 56 90 57 91 58 92 59 93 60 94
REMARK H PARENT 5 11 8 14 84 44 50 55
REMARK Flexibility Score: inf
ROOT
ATOM      1  C   UNL A   1      44.098  26.515  25.113  1.00  0.00     0.274 C 
ENDROOT
BRANCH   1   2
ATOM      2  O   UNL A   1      45.226  26.293  25.982  1.00  0.00    -0.462 OA
BRANCH   2   3
ATOM      3  C   UNL A   1      46.419  26.086  25.367  1.00  0.00     0.310 C 
ATOM      4  O   UNL A   1      46.814  26.705  24.386  1.00  0.00    -0.252 OA
BRANCH   3   5
ATOM      5  C   UNL A   1      47.230  24.968  26.003  1.00  0.00     0.118 C 
BRANCH   5   6
ATOM      6  C   UNL A   1      47.910  25.380  27.319  1.00  0.00     0.014 C 
ATOM      7  C   UNL A   1      49.353  24.893  27.412  1.00  0.00     0.005 C 
ENDBRANCH   5   6
BRANCH   5   8
ATOM      8  C   UNL A   1      46.411  23.679  26.103  1.00  0.00     0.133 C 
BRANCH   8   9
ATOM      9  N   UNL A   1      45.648  23.544  27.323  1.00  0.00    -0.337 N 
ATOM     10  C   UNL A   1      44.495  22.945  27.636  1.00  0.00     0.315 C 
ATOM     11  H   UNL A   1      46.071  23.992  28.091  1.00  0.00     0.165 HD
ATOM     12  O   UNL A   1      44.079  23.088  28.789  1.00  0.00    -0.249 OA
ATOM     13  N   UNL A   1      43.754  22.220  26.800  1.00  0.00    -0.334 N 
ATOM     14  H   UNL A   1      42.919  21.921  27.228  1.00  0.00     0.165 HD
BRANCH  13  15
ATOM     15  C   UNL A   1      43.844  21.751  25.428  1.00  0.00     0.159 C 
BRANCH  15  16
ATOM     16  C   UNL A   1      43.816  20.267  25.420  1.00  0.00     0.037 A 
ATOM     17  C   UNL A   1      44.901  19.377  25.174  1.00  0.00     0.086 A 
ATOM     18  C   UNL A   1      42.767  19.415  25.699  1.00  0.00     0.138 A 
ATOM     19  C   UNL A   1      46.317  19.708  24.887  1.00  0.00     0.071 C 
ATOM     20  N   UNL A   1      44.515  18.098  25.238  1.00  0.00    -0.085 NA
ATOM     21  O   UNL A   1      43.178  18.126  25.572  1.00  0.00    -0.361 OA
ATOM     22  C   UNL A   1      41.360  19.596  26.104  1.00  0.00     0.091 C 
ENDBRANCH  15  16
ENDBRANCH  13  15
ENDBRANCH   8   9
ENDBRANCH   5   8
ENDBRANCH   3   5
ENDBRANCH   2   3
ENDBRANCH   1   2
BRANCH   1  23
ATOM     23  C   UNL A   1      43.178  25.292  25.037  1.00  0.00     0.275 C 
BRANCH  23  24
ATOM     24  O   UNL A   1      41.803  25.635  25.290  1.00  0.00    -0.458 OA
BRANCH  24  25
ATOM     25  C   UNL A   1      41.256  25.047  26.377  1.00  0.00     0.338 C 
ATOM     26  O   UNL A   1      41.116  23.850  26.578  1.00  0.00    -0.246 OA
BRANCH  25  27
ATOM     27  C   UNL A   1      40.951  26.062  27.395  1.00  0.00     0.060 A 
ATOM     28  C   UNL A   1      41.646  27.273  27.342  1.00  0.00     0.016 A 
ATOM     29  C   UNL A   1      40.068  25.793  28.441  1.00  0.00     0.016 A 
ATOM     30  C   UNL A   1      41.467  28.226  28.338  1.00  0.00     0.010 A 
ATOM     31  C   UNL A   1      39.893  26.751  29.445  1.00  0.00     0.010 A 
ATOM     32  C   UNL A   1      40.600  27.966  29.404  1.00  0.00    -0.014 A 
BRANCH  32  33
ATOM     33  C   UNL A   1      40.493  28.944  30.510  1.00  0.00     0.031 A 
ATOM     34  C   UNL A   1      41.416  28.834  31.688  1.00  0.00     0.074 A 
ATOM     35  C   UNL A   1      39.596  29.944  30.437  1.00  0.00     0.049 A 
ATOM     36  N   UNL A   1      41.434  29.534  32.793  1.00  0.00    -0.248 NA
ATOM     37  C   UNL A   1      42.459  27.798  31.612  1.00  0.00     0.031 C 
ATOM     38  C   UNL A   1      38.686  30.180  29.315  1.00  0.00     0.029 A 
ATOM     39  N   UNL A   1      39.299  30.944  31.326  1.00  0.00    -0.354 N 
ATOM     40  C   UNL A   1      42.472  29.013  33.553  1.00  0.00     0.074 A 
ATOM     41  C   UNL A   1      43.057  27.931  32.789  1.00  0.00     0.031 C 
ATOM     42  C   UNL A   1      37.925  31.253  29.588  1.00  0.00     0.029 A 
ATOM     43  C   UNL A   1      38.265  31.752  30.918  1.00  0.00     0.049 A 
ATOM     44  H   UNL A   1      39.780  31.071  32.175  1.00  0.00     0.167 HD
ATOM     45  C   UNL A   1      42.899  29.404  34.778  1.00  0.00     0.037 A 
ATOM     46  C   UNL A   1      37.643  32.759  31.559  1.00  0.00     0.037 A 
ATOM     47  C   UNL A   1      42.317  30.486  35.527  1.00  0.00     0.049 A 
ATOM     48  C   UNL A   1      38.100  33.144  32.940  1.00  0.00     0.074 A 
ATOM     49  C   UNL A   1      42.671  30.958  36.779  1.00  0.00     0.029 A 
ATOM     50  N   UNL A   1      41.256  31.268  35.090  1.00  0.00    -0.354 N 
ATOM     51  N   UNL A   1      39.069  32.628  33.658  1.00  0.00    -0.248 NA
ATOM     52  C   UNL A   1      37.377  34.238  33.599  1.00  0.00     0.031 C 
ATOM     53  C   UNL A   1      41.805  32.007  37.111  1.00  0.00     0.029 A 
ATOM     54  C   UNL A   1      40.935  32.211  36.052  1.00  0.00     0.049 A 
ATOM     55  H   UNL A   1      40.800  31.167  34.224  1.00  0.00     0.167 HD
ATOM     56  C   UNL A   1      39.081  33.344  34.849  1.00  0.00     0.074 A 
ATOM     57  C   UNL A   1      38.031  34.337  34.750  1.00  0.00     0.031 C 
ATOM     58  C   UNL A   1      39.886  33.192  35.930  1.00  0.00     0.037 A 
BRANCH  45  59
ATOM     59  C   UNL A   1      44.029  28.630  35.395  1.00  0.00     0.058 A 
ATOM     60  C   UNL A   1      45.363  29.041  35.261  1.00  0.00     0.135 A 
ATOM     61  C   UNL A   1      43.770  27.468  36.139  1.00  0.00     0.135 A 
ATOM     62  F   UNL A   1      45.666  30.133  34.542  1.00  0.00    -0.206 F 
ATOM     63  C   UNL A   1      46.407  28.313  35.824  1.00  0.00     0.059 A 
ATOM     64  C   UNL A   1      44.795  26.735  36.728  1.00  0.00     0.059 A 
ATOM     65  F   UNL A   1      42.510  27.031  36.293  1.00  0.00    -0.206 F 
ATOM     66  C   UNL A   1      46.113  27.158  36.550  1.00  0.00     0.060 A 
BRANCH  66  67
ATOM     67  S   UNL A   1      47.475  26.213  37.267  1.00  0.00     0.124 S 
ATOM     68  O   UNL A   1      46.978  24.846  37.138  1.00  0.00    -0.237 OA
ATOM     69  O   UNL A   1      48.593  26.564  36.398  1.00  0.00    -0.237 OA
ATOM     70  O   UNL A   1      47.561  26.723  38.632  1.00  0.00    -0.744 OA
ENDBRANCH  66  67
ENDBRANCH  45  59
BRANCH  46  71
ATOM     71  C   UNL A   1      36.501  33.454  30.910  1.00  0.00     0.058 A 
ATOM     72  C   UNL A   1      35.188  33.269  31.362  1.00  0.00     0.135 A 
ATOM     73  C   UNL A   1      36.708  34.334  29.836  1.00  0.00     0.135 A 
ATOM     74  F   UNL A   1      34.941  32.430  32.380  1.00  0.00    -0.206 F 
ATOM     75  C   UNL A   1      34.115  33.927  30.769  1.00  0.00     0.059 A 
ATOM     76  C   UNL A   1      35.655  35.019  29.241  1.00  0.00     0.059 A 
ATOM     77  F   UNL A   1      37.950  34.552  29.374  1.00  0.00    -0.206 F 
ATOM     78  C   UNL A   1      34.360  34.803  29.709  1.00  0.00     0.060 A 
BRANCH  78  79
ATOM     79  S   UNL A   1      32.973  35.703  28.983  1.00  0.00     0.124 S 
ATOM     80  O   UNL A   1      32.357  34.673  28.156  1.00  0.00    -0.237 OA
ATOM     81  O   UNL A   1      32.217  36.112  30.163  1.00  0.00    -0.237 OA
ATOM     82  O   UNL A   1      33.625  36.791  28.260  1.00  0.00    -0.744 OA
ENDBRANCH  78  79
ENDBRANCH  46  71
BRANCH  58  83
ATOM     83  C   UNL A   1      39.677  34.136  37.079  1.00  0.00     0.058 A 
ATOM     84  C   UNL A   1      38.813  33.821  38.139  1.00  0.00     0.135 A 
ATOM     85  C   UNL A   1      40.386  35.345  37.144  1.00  0.00     0.135 A 
ATOM     86  F   UNL A   1      38.107  32.678  38.118  1.00  0.00    -0.206 F 
ATOM     87  C   UNL A   1      38.643  34.683  39.216  1.00  0.00     0.059 A 
ATOM     88  C   UNL A   1      40.247  36.214  38.221  1.00  0.00     0.059 A 
ATOM     89  F   UNL A   1      41.231  35.687  36.158  1.00  0.00    -0.206 F 
ATOM     90  C   UNL A   1      39.365  35.879  39.248  1.00  0.00     0.060 A 
BRANCH  90  91
ATOM     91  S   UNL A   1      39.165  36.976  40.667  1.00  0.00     0.124 S 
ATOM     92  O   UNL A   1      38.557  36.082  41.646  1.00  0.00    -0.237 OA
ATOM     93  O   UNL A   1      40.539  37.384  40.948  1.00  0.00    -0.237 OA
ATOM     94  O   UNL A   1      38.299  38.035  40.156  1.00  0.00    -0.744 OA
ENDBRANCH  90  91
ENDBRANCH  58  83
ENDBRANCH  32  33
ENDBRANCH  25  27
ENDBRANCH  24  25
ENDBRANCH  23  24
ENDBRANCH   1  23
TORSDOF 19
ENDMDL
MODEL 2
REMARK VINA RESULT:     -10.1      0.547      8.453
REMARK SMILES CC[C@@H](CNC(=O)NCc1c(C)noc1C)C(=O)OCCOC(=O)c1ccc(-c2c3nc(c(-c4c(F)cc(S(=O)(=O)[O-])cc4F)c4ccc([nH]4)c(-c4c(F)cc(S(=O)(=O)[O-])cc4F)c4nc(c(-c5c(F)cc(S(=O)(=O)[O-])cc5F)c5ccc2[nH]5)C=C4)C=C3)cc1
REMARK SMILES IDX 20 1 19 2 17 3 18 4 3 5 2 6 1 7 4 8 5 9 6 10 7 12 8 13 9 15
REMARK SMILES IDX 10 16 11 17 15 18 12 19 13 20 14 21 16 22 21 23 22 24 23 25
REMARK SMILES IDX 24 26 25 27 26 28 90 29 27 30 89 31 28 32 29 33 30 34 83 35
REMARK SMILES IDX 31 36 88 37 82 38 84 39 32 40 87 41 81 42 80 43 33 45 67 46
REMARK SMILES IDX 46 47 66 48 47 49 50 50 65 51 85 52 48 53 49 54 64 56 86 57
REMARK SMILES IDX 51 58 34 59 35 60 44 61 36 62 37 63 43 64 45 65 38 66 39 67
REMARK SMILES IDX 40 68 41 69 42 70 68 71 69 72 78 73 70 74 71 75 77 76 79 77
REMARK SMILES IDX 72 78 73 79 74 80 75 81 76 82 52 83 53 84 62 85 54 86 55 87
REMARK SMILES IDX 61 88 63 89 56 90 57 91 58 92 59 93 60 94
REMARK H PARENT 5 11 8 14 84 44 50 55
REMARK Flexibility Score: inf
ROOT
ATOM      1  C   UNL A   1      44.211  26.597  25.319  1.00  0.00     0.274 C 
ENDROOT
BRANCH   1   2
ATOM      2  O   UNL A   1      45.390  26.185  26.037  1.00  0.00    -0.462 OA
BRANCH   2   3
ATOM      3  C   UNL A   1      46.439  25.778  25.276  1.00  0.00     0.310 C 
ATOM      4  O   UNL A   1      46.777  26.302  24.220  1.00  0.00    -0.252 OA
BRANCH   3   5
ATOM      5  C   UNL A   1      47.156  24.567  25.849  1.00  0.00     0.118 C 
BRANCH   5   6
ATOM      6  C   UNL A   1      47.968  24.881  27.116  1.00  0.00     0.014 C 
ATOM      7  C   UNL A   1      49.259  25.636  26.813  1.00  0.00     0.005 C 
ENDBRANCH   5   6
BRANCH   5   8
ATOM      8  C   UNL A   1      46.202  23.380  26.000  1.00  0.00     0.133 C 
BRANCH   8   9
ATOM      9  N   UNL A   1      45.487  23.339  27.256  1.00  0.00    -0.337 N 
ATOM     10  C   UNL A   1      44.294  22.869  27.631  1.00  0.00     0.315 C 
ATOM     11  H   UNL A   1      45.990  23.748  27.997  1.00  0.00     0.165 HD
ATOM     12  O   UNL A   1      43.950  23.067  28.800  1.00  0.00    -0.249 OA
ATOM     13  N   UNL A   1      43.441  22.218  26.841  1.00  0.00    -0.334 N 
ATOM     14  H   UNL A   1      42.601  22.013  27.311  1.00  0.00     0.165 HD
BRANCH  13  15
ATOM     15  C   UNL A   1      43.417  21.728  25.474  1.00  0.00     0.159 C 
BRANCH  15  16
ATOM     16  C   UNL A   1      43.573  20.252  25.484  1.00  0.00     0.037 A 
ATOM     17  C   UNL A   1      42.584  19.273  25.790  1.00  0.00     0.086 A 
ATOM     18  C   UNL A   1      44.675  19.492  25.149  1.00  0.00     0.138 A 
ATOM     19  C   UNL A   1      41.162  19.484  26.154  1.00  0.00     0.071 C 
ATOM     20  N   UNL A   1      43.075  18.032  25.708  1.00  0.00    -0.085 NA
ATOM     21  O   UNL A   1      44.384  18.173  25.302  1.00  0.00    -0.361 OA
ATOM     22  C   UNL A   1      46.038  19.790  24.669  1.00  0.00     0.091 C 
ENDBRANCH  15  16
ENDBRANCH  13  15
ENDBRANCH   8   9
ENDBRANCH   5   8
ENDBRANCH   3   5
ENDBRANCH   2   3
ENDBRANCH   1   2
BRANCH   1  23
ATOM     23  C   UNL A   1      43.169  25.477  25.227  1.00  0.00     0.275 C 
BRANCH  23  24
ATOM     24  O   UNL A   1      41.830  25.968  25.420  1.00  0.00    -0.458 OA
BRANCH  24  25
ATOM     25  C   UNL A   1      41.114  25.326  26.370  1.00  0.00     0.338 C 
ATOM     26  O   UNL A   1      40.821  24.140  26.399  1.00  0.00    -0.246 OA
BRANCH  25  27
ATOM     27  C   UNL A   1      40.826  26.241  27.483  1.00  0.00     0.060 A 
ATOM     28  C   UNL A   1      41.539  27.440  27.548  1.00  0.00     0.016 A 
ATOM     29  C   UNL A   1      39.939  25.885  28.499  1.00  0.00     0.016 A 
ATOM     30  C   UNL A   1      41.376  28.294  28.633  1.00  0.00     0.010 A 
ATOM     31  C   UNL A   1      39.779  26.742  29.593  1.00  0.00     0.010 A 
ATOM     32  C   UNL A   1      40.505  27.944  29.670  1.00  0.00    -0.014 A 
BRANCH  32  33
ATOM     33  C   UNL A   1      40.414  28.811  30.867  1.00  0.00     0.031 A 
ATOM     34  C   UNL A   1      39.397  29.912  30.908  1.00  0.00     0.074 A 
ATOM     35  C   UNL A   1      41.218  28.583  31.922  1.00  0.00     0.049 A 
ATOM     36  N   UNL A   1      39.208  30.830  31.820  1.00  0.00    -0.248 NA
ATOM     37  C   UNL A   1      38.467  29.991  29.770  1.00  0.00     0.031 C 
ATOM     38  C   UNL A   1      42.206  27.507  32.013  1.00  0.00     0.029 A 
ATOM     39  N   UNL A   1      41.334  29.248  33.116  1.00  0.00    -0.354 N 
ATOM     40  C   UNL A   1      38.154  31.608  31.361  1.00  0.00     0.074 A 
ATOM     41  C   UNL A   1      37.749  31.062  30.083  1.00  0.00     0.031 C 
ATOM     42  C   UNL A   1      42.834  27.590  33.198  1.00  0.00     0.029 A 
ATOM     43  C   UNL A   1      42.323  28.748  33.927  1.00  0.00     0.049 A 
ATOM     44  H   UNL A   1      40.764  30.010  33.366  1.00  0.00     0.167 HD
ATOM     45  C   UNL A   1      37.577  32.681  31.954  1.00  0.00     0.037 A 
ATOM     46  C   UNL A   1      42.784  29.194  35.112  1.00  0.00     0.037 A 
ATOM     47  C   UNL A   1      37.981  33.212  33.229  1.00  0.00     0.049 A 
ATOM     48  C   UNL A   1      42.163  30.418  35.728  1.00  0.00     0.074 A 
ATOM     49  C   UNL A   1      37.467  34.299  33.914  1.00  0.00     0.029 A 
ATOM     50  N   UNL A   1      39.002  32.692  34.013  1.00  0.00    -0.354 N 
ATOM     51  N   UNL A   1      41.181  31.159  35.272  1.00  0.00    -0.248 NA
ATOM     52  C   UNL A   1      42.715  30.870  37.011  1.00  0.00     0.031 C 
ATOM     53  C   UNL A   1      38.196  34.453  35.099  1.00  0.00     0.029 A 
ATOM     54  C   UNL A   1      39.141  33.442  35.168  1.00  0.00     0.049 A 
ATOM     55  H   UNL A   1      39.547  31.906  33.781  1.00  0.00     0.167 HD
ATOM     56  C   UNL A   1      40.989  32.158  36.220  1.00  0.00     0.074 A 
ATOM     57  C   UNL A   1      41.947  31.918  37.279  1.00  0.00     0.031 C 
ATOM     58  C   UNL A   1      40.101  33.183  36.212  1.00  0.00     0.037 A 
BRANCH  45  59
ATOM     59  C   UNL A   1      36.470  33.370  31.208  1.00  0.00     0.058 A 
ATOM     60  C   UNL A   1      35.134  33.281  31.626  1.00  0.00     0.135 A 
ATOM     61  C   UNL A   1      36.753  34.136  30.066  1.00  0.00     0.135 A 
ATOM     62  F   UNL A   1      34.808  32.544  32.699  1.00  0.00    -0.206 F 
ATOM     63  C   UNL A   1      34.110  33.911  30.924  1.00  0.00     0.059 A 
ATOM     64  C   UNL A   1      35.749  34.790  29.360  1.00  0.00     0.059 A 
ATOM     65  F   UNL A   1      38.015  34.248  29.624  1.00  0.00    -0.206 F 
ATOM     66  C   UNL A   1      34.428  34.658  29.788  1.00  0.00     0.060 A 
BRANCH  66  67
ATOM     67  S   UNL A   1      33.092  35.461  28.876  1.00  0.00     0.124 S 
ATOM     68  O   UNL A   1      32.543  34.339  28.120  1.00  0.00    -0.237 OA
ATOM     69  O   UNL A   1      32.245  35.977  29.947  1.00  0.00    -0.237 OA
ATOM     70  O   UNL A   1      33.782  36.474  28.084  1.00  0.00    -0.744 OA
ENDBRANCH  66  67
ENDBRANCH  45  59
BRANCH  46  71
ATOM     71  C   UNL A   1      43.914  28.493  35.775  1.00  0.00     0.058 A 
ATOM     72  C   UNL A   1      45.243  28.850  35.513  1.00  0.00     0.135 A 
ATOM     73  C   UNL A   1      43.681  27.464  36.701  1.00  0.00     0.135 A 
ATOM     74  F   UNL A   1      45.514  29.822  34.628  1.00  0.00    -0.206 F 
ATOM     75  C   UNL A   1      46.306  28.208  36.141  1.00  0.00     0.059 A 
ATOM     76  C   UNL A   1      44.724  26.822  37.357  1.00  0.00     0.059 A 
ATOM     77  F   UNL A   1      42.424  27.093  36.993  1.00  0.00    -0.206 F 
ATOM     78  C   UNL A   1      46.035  27.196  37.065  1.00  0.00     0.060 A 
BRANCH  78  79
ATOM     79  S   UNL A   1      47.415  26.408  37.925  1.00  0.00     0.124 S 
ATOM     80  O   UNL A   1      48.111  27.563  38.478  1.00  0.00    -0.237 OA
ATOM     81  O   UNL A   1      46.731  25.551  38.888  1.00  0.00    -0.237 OA
ATOM     82  O   UNL A   1      48.112  25.701  36.854  1.00  0.00    -0.744 OA
ENDBRANCH  78  79
ENDBRANCH  46  71
BRANCH  58  83
ATOM     83  C   UNL A   1      40.110  34.107  37.396  1.00  0.00     0.058 A 
ATOM     84  C   UNL A   1      40.889  35.273  37.410  1.00  0.00     0.135 A 
ATOM     85  C   UNL A   1      39.294  33.845  38.508  1.00  0.00     0.135 A 
ATOM     86  F   UNL A   1      41.692  35.562  36.372  1.00  0.00    -0.206 F 
ATOM     87  C   UNL A   1      40.874  36.142  38.495  1.00  0.00     0.059 A 
ATOM     88  C   UNL A   1      39.247  34.711  39.596  1.00  0.00     0.059 A 
ATOM     89  F   UNL A   1      38.524  32.746  38.537  1.00  0.00    -0.206 F 
ATOM     90  C   UNL A   1      40.049  35.852  39.585  1.00  0.00     0.060 A 
BRANCH  90  91
ATOM     91  S   UNL A   1      40.008  37.003  40.975  1.00  0.00     0.124 S 
ATOM     92  O   UNL A   1      41.382  36.924  41.461  1.00  0.00    -0.237 OA
ATOM     93  O   UNL A   1      39.633  38.260  40.334  1.00  0.00    -0.237 OA
ATOM     94  O   UNL A   1      38.994  36.431  41.856  1.00  0.00    -0.744 OA
ENDBRANCH  90  91
ENDBRANCH  58  83
ENDBRANCH  32  33
ENDBRANCH  25  27
ENDBRANCH  24  25
ENDBRANCH  23  24
ENDBRANCH   1  23
TORSDOF 19
ENDMDL
MODEL 3
REMARK VINA RESULT:     -10.1      6.152     12.255
REMARK SMILES CC[C@@H](CNC(=O)NCc1c(C)noc1C)C(=O)OCCOC(=O)c1ccc(-c2c3nc(c(-c4c(F)cc(S(=O)(=O)[O-])cc4F)c4ccc([nH]4)c(-c4c(F)cc(S(=O)(=O)[O-])cc4F)c4nc(c(-c5c(F)cc(S(=O)(=O)[O-])cc5F)c5ccc2[nH]5)C=C4)C=C3)cc1
REMARK SMILES IDX 20 1 19 2 17 3 18 4 3 5 2 6 1 7 4 8 5 9 6 10 7 12 8 13 9 15
REMARK SMILES IDX 10 16 11 17 15 18 12 19 13 20 14 21 16 22 21 23 22 24 23 25
REMARK SMILES IDX 24 26 25 27 26 28 90 29 27 30 89 31 28 32 29 33 30 34 83 35
REMARK SMILES IDX 31 36 88 37 82 38 84 39 32 40 87 41 81 42 80 43 33 45 67 46
REMARK SMILES IDX 46 47 66 48 47 49 50 50 65 51 85 52 48 53 49 54 64 56 86 57
REMARK SMILES IDX 51 58 34 59 35 60 44 61 36 62 37 63 43 64 45 65 38 66 39 67
REMARK SMILES IDX 40 68 41 69 42 70 68 71 69 72 78 73 70 74 71 75 77 76 79 77
REMARK SMILES IDX 72 78 73 79 74 80 75 81 76 82 52 83 53 84 62 85 54 86 55 87
REMARK SMILES IDX 61 88 63 89 56 90 57 91 58 92 59 93 60 94
REMARK H PARENT 5 11 8 14 84 44 50 55
REMARK Flexibility Score: inf
ROOT
ATOM      1  C   UNL A   1      31.701  29.093  27.145  1.00  0.00     0.274 C 
ENDROOT
BRANCH   1   2
ATOM      2  O   UNL A   1      32.146  27.882  26.505  1.00  0.00    -0.462 OA
BRANCH   2   3
ATOM      3  C   UNL A   1      32.091  27.870  25.148  1.00  0.00     0.310 C 
ATOM      4  O   UNL A   1      33.067  27.952  24.411  1.00  0.00    -0.252 OA
BRANCH   3   5
ATOM      5  C   UNL A   1      30.672  27.772  24.610  1.00  0.00     0.118 C 
BRANCH   5   6
ATOM      6  C   UNL A   1      30.473  28.506  23.274  1.00  0.00     0.014 C 
ATOM      7  C   UNL A   1      29.814  29.871  23.448  1.00  0.00     0.005 C 
ENDBRANCH   5   6
BRANCH   5   8
ATOM      8  C   UNL A   1      30.183  26.321  24.601  1.00  0.00     0.133 C 
BRANCH   8   9
ATOM      9  N   UNL A   1      30.477  25.581  25.808  1.00  0.00    -0.337 N 
ATOM     10  C   UNL A   1      30.816  24.313  26.061  1.00  0.00     0.315 C 
ATOM     11  H   UNL A   1      30.413  26.132  26.621  1.00  0.00     0.165 HD
ATOM     12  O   UNL A   1      30.927  23.983  27.244  1.00  0.00    -0.249 OA
ATOM     13  N   UNL A   1      31.029  23.376  25.138  1.00  0.00    -0.334 N 
ATOM     14  H   UNL A   1      31.212  22.501  25.551  1.00  0.00     0.165 HD
BRANCH  13  15
ATOM     15  C   UNL A   1      31.063  23.296  23.688  1.00  0.00     0.159 C 
BRANCH  15  16
ATOM     16  C   UNL A   1      32.442  23.579  23.219  1.00  0.00     0.037 A 
ATOM     17  C   UNL A   1      33.622  22.821  23.472  1.00  0.00     0.086 A 
ATOM     18  C   UNL A   1      32.889  24.592  22.395  1.00  0.00     0.138 A 
ATOM     19  C   UNL A   1      33.759  21.563  24.243  1.00  0.00     0.071 C 
ATOM     20  N   UNL A   1      34.696  23.373  22.898  1.00  0.00    -0.085 NA
ATOM     21  O   UNL A   1      34.233  24.480  22.221  1.00  0.00    -0.361 OA
ATOM     22  C   UNL A   1      32.248  25.713  21.682  1.00  0.00     0.091 C 
ENDBRANCH  15  16
ENDBRANCH  13  15
ENDBRANCH   8   9
ENDBRANCH   5   8
ENDBRANCH   3   5
ENDBRANCH   2   3
ENDBRANCH   1   2
BRANCH   1  23
ATOM     23  C   UNL A   1      32.752  30.205  27.072  1.00  0.00     0.275 C 
BRANCH  23  24
ATOM     24  O   UNL A   1      34.065  29.730  27.423  1.00  0.00    -0.458 OA
BRANCH  24  25
ATOM     25  C   UNL A   1      34.793  30.570  28.192  1.00  0.00     0.338 C 
ATOM     26  O   UNL A   1      34.398  31.569  28.774  1.00  0.00    -0.246 OA
BRANCH  25  27
ATOM     27  C   UNL A   1      36.153  30.040  28.360  1.00  0.00     0.060 A 
ATOM     28  C   UNL A   1      36.529  29.588  29.627  1.00  0.00     0.016 A 
ATOM     29  C   UNL A   1      37.076  30.075  27.315  1.00  0.00     0.016 A 
ATOM     30  C   UNL A   1      37.834  29.170  29.863  1.00  0.00     0.010 A 
ATOM     31  C   UNL A   1      38.390  29.660  27.554  1.00  0.00     0.010 A 
ATOM     32  C   UNL A   1      38.777  29.217  28.831  1.00  0.00    -0.014 A 
BRANCH  32  33
ATOM     33  C   UNL A   1      40.187  28.865  29.118  1.00  0.00     0.031 A 
ATOM     34  C   UNL A   1      41.077  29.866  29.793  1.00  0.00     0.074 A 
ATOM     35  C   UNL A   1      40.649  27.641  28.804  1.00  0.00     0.049 A 
ATOM     36  N   UNL A   1      42.355  29.790  30.058  1.00  0.00    -0.248 NA
ATOM     37  C   UNL A   1      40.444  31.122  30.228  1.00  0.00     0.031 C 
ATOM     38  C   UNL A   1      39.859  26.571  28.196  1.00  0.00     0.029 A 
ATOM     39  N   UNL A   1      41.898  27.095  28.950  1.00  0.00    -0.354 N 
ATOM     40  C   UNL A   1      42.687  30.990  30.672  1.00  0.00     0.074 A 
ATOM     41  C   UNL A   1      41.477  31.784  30.732  1.00  0.00     0.031 C 
ATOM     42  C   UNL A   1      40.645  25.497  28.012  1.00  0.00     0.029 A 
ATOM     43  C   UNL A   1      42.001  25.819  28.450  1.00  0.00     0.049 A 
ATOM     44  H   UNL A   1      42.650  27.571  29.372  1.00  0.00     0.167 HD
ATOM     45  C   UNL A   1      43.891  31.392  31.143  1.00  0.00     0.037 A 
ATOM     46  C   UNL A   1      43.074  25.015  28.331  1.00  0.00     0.037 A 
ATOM     47  C   UNL A   1      45.086  30.593  31.087  1.00  0.00     0.049 A 
ATOM     48  C   UNL A   1      44.413  25.502  28.814  1.00  0.00     0.074 A 
ATOM     49  C   UNL A   1      46.359  30.909  31.530  1.00  0.00     0.029 A 
ATOM     50  N   UNL A   1      45.156  29.313  30.553  1.00  0.00    -0.354 N 
ATOM     51  N   UNL A   1      44.718  26.649  29.372  1.00  0.00    -0.248 NA
ATOM     52  C   UNL A   1      45.552  24.591  28.646  1.00  0.00     0.031 C 
ATOM     53  C   UNL A   1      47.204  29.832  31.238  1.00  0.00     0.029 A 
ATOM     54  C   UNL A   1      46.451  28.832  30.645  1.00  0.00     0.049 A 
ATOM     55  H   UNL A   1      44.397  28.821  30.166  1.00  0.00     0.167 HD
ATOM     56  C   UNL A   1      46.082  26.593  29.634  1.00  0.00     0.074 A 
ATOM     57  C   UNL A   1      46.540  25.294  29.184  1.00  0.00     0.031 C 
ATOM     58  C   UNL A   1      46.885  27.533  30.193  1.00  0.00     0.037 A 
BRANCH  45  59
ATOM     59  C   UNL A   1      43.978  32.773  31.728  1.00  0.00     0.058 A 
ATOM     60  C   UNL A   1      43.890  32.994  33.111  1.00  0.00     0.135 A 
ATOM     61  C   UNL A   1      44.162  33.887  30.894  1.00  0.00     0.135 A 
ATOM     62  F   UNL A   1      43.694  31.965  33.949  1.00  0.00    -0.206 F 
ATOM     63  C   UNL A   1      43.959  34.277  33.646  1.00  0.00     0.059 A 
ATOM     64  C   UNL A   1      44.253  35.176  31.408  1.00  0.00     0.059 A 
ATOM     65  F   UNL A   1      44.248  33.728  29.564  1.00  0.00    -0.206 F 
ATOM     66  C   UNL A   1      44.134  35.362  32.786  1.00  0.00     0.060 A 
BRANCH  66  67
ATOM     67  S   UNL A   1      44.209  37.024  33.489  1.00  0.00     0.124 S 
ATOM     68  O   UNL A   1      45.160  36.833  34.579  1.00  0.00    -0.237 OA
ATOM     69  O   UNL A   1      44.687  37.821  32.364  1.00  0.00    -0.237 OA
ATOM     70  O   UNL A   1      42.831  37.283  33.896  1.00  0.00    -0.744 OA
ENDBRANCH  66  67
ENDBRANCH  45  59
BRANCH  46  71
ATOM     71  C   UNL A   1      42.928  23.678  27.700  1.00  0.00     0.058 A 
ATOM     72  C   UNL A   1      43.223  23.479  26.344  1.00  0.00     0.135 A 
ATOM     73  C   UNL A   1      42.510  22.568  28.450  1.00  0.00     0.135 A 
ATOM     74  F   UNL A   1      43.617  24.513  25.586  1.00  0.00    -0.206 F 
ATOM     75  C   UNL A   1      43.102  22.227  25.750  1.00  0.00     0.059 A 
ATOM     76  C   UNL A   1      42.403  21.302  27.885  1.00  0.00     0.059 A 
ATOM     77  F   UNL A   1      42.227  22.706  29.756  1.00  0.00    -0.206 F 
ATOM     78  C   UNL A   1      42.694  21.143  26.531  1.00  0.00     0.060 A 
BRANCH  78  79
ATOM     79  S   UNL A   1      42.599  19.507  25.770  1.00  0.00     0.124 S 
ATOM     80  O   UNL A   1      43.020  18.649  26.871  1.00  0.00    -0.237 OA
ATOM     81  O   UNL A   1      41.192  19.421  25.394  1.00  0.00    -0.237 OA
ATOM     82  O   UNL A   1      43.533  19.607  24.652  1.00  0.00    -0.744 OA
ENDBRANCH  78  79
ENDBRANCH  46  71
BRANCH  58  83
ATOM     83  C   UNL A   1      48.333  27.180  30.371  1.00  0.00     0.058 A 
ATOM     84  C   UNL A   1      49.267  27.379  29.343  1.00  0.00     0.135 A 
ATOM     85  C   UNL A   1      48.798  26.683  31.598  1.00  0.00     0.135 A 
ATOM     86  F   UNL A   1      48.868  27.845  28.148  1.00  0.00    -0.206 F 
ATOM     87  C   UNL A   1      50.614  27.079  29.519  1.00  0.00     0.059 A 
ATOM     88  C   UNL A   1      50.144  26.395  31.804  1.00  0.00     0.059 A 
ATOM     89  F   UNL A   1      47.944  26.485  32.614  1.00  0.00    -0.206 F 
ATOM     90  C   UNL A   1      51.042  26.586  30.754  1.00  0.00     0.060 A 
BRANCH  90  91
ATOM     91  S   UNL A   1      52.797  26.233  30.986  1.00  0.00     0.124 S 
ATOM     92  O   UNL A   1      53.228  27.387  31.769  1.00  0.00    -0.237 OA
ATOM     93  O   UNL A   1      52.772  24.958  31.697  1.00  0.00    -0.237 OA
ATOM     94  O   UNL A   1      53.312  26.170  29.621  1.00  0.00    -0.744 OA
ENDBRANCH  90  91
ENDBRANCH  58  83
ENDBRANCH  32  33
ENDBRANCH  25  27
ENDBRANCH  24  25
ENDBRANCH  23  24
ENDBRANCH   1  23
TORSDOF 19
ENDMDL
