MODEL 1
REMARK VINA RESULT:     -12.6      0.000      0.000
REMARK SMILES O=C(CCc1cn(-c2ccc(Br)cc2)nc1-c1ccccc1)OCCOC(=O)c1ccc(-c2c3nc(c(-c4c(F)cc(S(=O)(=O)[O-])cc4F)c4ccc([nH]4)c(-c4c(F)cc(S(=O)(=O)[O-])cc4F)c4nc(c(-c5c(F)cc(S(=O)(=O)[O-])cc5F)c5ccc2[nH]5)C=C4)C=C3)cc1
REMARK SMILES IDX 24 1 23 2 2 3 1 4 3 5 4 6 5 7 6 8 16 9 7 10 15 11 17 12
REMARK SMILES IDX 18 13 22 14 19 15 21 16 20 17 8 18 9 19 14 20 10 21 13 22
REMARK SMILES IDX 11 23 12 24 25 25 26 26 27 27 28 28 29 29 30 30 94 31 31 32
REMARK SMILES IDX 93 33 32 34 33 35 34 36 87 37 35 38 92 39 86 40 88 41 36 42
REMARK SMILES IDX 91 43 85 44 84 45 37 47 71 48 50 49 70 50 51 51 54 52 69 53
REMARK SMILES IDX 89 54 52 55 53 56 68 58 90 59 55 60 38 61 39 62 48 63 40 64
REMARK SMILES IDX 41 65 47 66 49 67 42 68 43 69 44 70 45 71 46 72 72 73 73 74
REMARK SMILES IDX 82 75 74 76 75 77 81 78 83 79 76 80 77 81 78 82 79 83 80 84
REMARK SMILES IDX 56 85 57 86 66 87 58 88 59 89 65 90 67 91 60 92 61 93 62 94
REMARK SMILES IDX 63 95 64 96
REMARK H PARENT 88 46 54 57
REMARK Flexibility Score: inf
ROOT
ATOM      1  C   UNL A   1      40.848  20.581  27.265  1.00  0.00     0.274 C 
ENDROOT
BRANCH   1   2
ATOM      2  O   UNL A   1      40.026  20.931  26.127  1.00  0.00    -0.462 OA
BRANCH   2   3
ATOM      3  C   UNL A   1      39.084  20.171  25.511  1.00  0.00     0.306 C 
ATOM      4  O   UNL A   1      39.283  18.963  25.371  1.00  0.00    -0.252 OA
BRANCH   3   5
ATOM      5  C   UNL A   1      37.811  20.785  24.969  1.00  0.00     0.127 C 
BRANCH   5   6
ATOM      6  C   UNL A   1      36.557  19.911  24.989  1.00  0.00     0.051 C 
BRANCH   6   7
ATOM      7  C   UNL A   1      35.311  20.726  24.855  1.00  0.00    -0.001 A 
ATOM      8  C   UNL A   1      35.193  22.106  24.841  1.00  0.00     0.119 A 
ATOM      9  C   UNL A   1      33.966  20.252  24.845  1.00  0.00     0.096 A 
ATOM     10  N   UNL A   1      33.861  22.380  25.067  1.00  0.00    -0.240 N 
ATOM     11  N   UNL A   1      33.102  21.256  25.032  1.00  0.00    -0.168 NA
BRANCH   9  12
ATOM     12  C   UNL A   1      33.534  18.866  24.740  1.00  0.00     0.002 A 
ATOM     13  C   UNL A   1      33.859  18.126  23.602  1.00  0.00     0.010 A 
ATOM     14  C   UNL A   1      32.907  18.224  25.811  1.00  0.00     0.010 A 
ATOM     15  C   UNL A   1      33.613  16.750  23.570  1.00  0.00     0.001 A 
ATOM     16  C   UNL A   1      32.700  16.847  25.799  1.00  0.00     0.001 A 
ATOM     17  C   UNL A   1      33.059  16.108  24.679  1.00  0.00     0.000 A 
ENDBRANCH   9  12
BRANCH  10  18
ATOM     18  C   UNL A   1      33.306  23.621  25.470  1.00  0.00     0.065 A 
ATOM     19  C   UNL A   1      31.967  23.718  25.864  1.00  0.00     0.029 A 
ATOM     20  C   UNL A   1      34.118  24.766  25.441  1.00  0.00     0.029 A 
ATOM     21  C   UNL A   1      31.464  24.953  26.292  1.00  0.00     0.018 A 
ATOM     22  C   UNL A   1      33.593  26.005  25.812  1.00  0.00     0.018 A 
ATOM     23  C   UNL A   1      32.277  26.087  26.263  1.00  0.00     0.018 A 
ATOM     24  Br  UNL A   1      31.598  27.749  26.859  1.00  0.00    -0.051 Br
ENDBRANCH  10  18
ENDBRANCH   6   7
ENDBRANCH   5   6
ENDBRANCH   3   5
ENDBRANCH   2   3
ENDBRANCH   1   2
BRANCH   1  25
ATOM     25  C   UNL A   1      42.286  20.202  26.955  1.00  0.00     0.275 C 
BRANCH  25  26
ATOM     26  O   UNL A   1      42.595  20.572  25.628  1.00  0.00    -0.458 OA
BRANCH  26  27
ATOM     27  C   UNL A   1      43.919  20.655  25.369  1.00  0.00     0.338 C 
ATOM     28  O   UNL A   1      44.718  19.735  25.269  1.00  0.00    -0.246 OA
BRANCH  27  29
ATOM     29  C   UNL A   1      44.262  22.075  25.337  1.00  0.00     0.060 A 
ATOM     30  C   UNL A   1      45.183  22.477  26.297  1.00  0.00     0.016 A 
ATOM     31  C   UNL A   1      43.416  22.974  24.662  1.00  0.00     0.016 A 
ATOM     32  C   UNL A   1      44.997  23.717  26.843  1.00  0.00     0.010 A 
ATOM     33  C   UNL A   1      43.233  24.210  25.209  1.00  0.00     0.010 A 
ATOM     34  C   UNL A   1      43.936  24.501  26.368  1.00  0.00    -0.014 A 
BRANCH  34  35
ATOM     35  C   UNL A   1      43.650  25.728  27.061  1.00  0.00     0.031 A 
ATOM     36  C   UNL A   1      44.711  26.716  26.801  1.00  0.00     0.074 A 
ATOM     37  C   UNL A   1      42.530  25.901  27.786  1.00  0.00     0.049 A 
ATOM     38  N   UNL A   1      45.672  27.041  27.596  1.00  0.00    -0.248 NA
ATOM     39  C   UNL A   1      44.908  27.154  25.408  1.00  0.00     0.031 C 
ATOM     40  C   UNL A   1      41.352  25.035  27.887  1.00  0.00     0.029 A 
ATOM     41  N   UNL A   1      42.185  26.970  28.549  1.00  0.00    -0.354 N 
ATOM     42  C   UNL A   1      46.421  27.968  26.886  1.00  0.00     0.074 A 
ATOM     43  C   UNL A   1      46.082  27.778  25.503  1.00  0.00     0.031 C 
ATOM     44  C   UNL A   1      40.341  25.721  28.473  1.00  0.00     0.029 A 
ATOM     45  C   UNL A   1      40.840  27.011  28.912  1.00  0.00     0.049 A 
ATOM     46  H   UNL A   1      42.832  27.660  28.822  1.00  0.00     0.167 HD
ATOM     47  C   UNL A   1      46.963  29.032  27.536  1.00  0.00     0.037 A 
ATOM     48  C   UNL A   1      40.211  28.086  29.462  1.00  0.00     0.037 A 
ATOM     49  C   UNL A   1      47.080  28.751  28.952  1.00  0.00     0.049 A 
ATOM     50  C   UNL A   1      41.282  28.934  30.067  1.00  0.00     0.074 A 
ATOM     51  C   UNL A   1      47.715  27.770  29.690  1.00  0.00     0.029 A 
ATOM     52  N   UNL A   1      46.131  29.294  29.787  1.00  0.00    -0.354 N 
ATOM     53  N   UNL A   1      42.014  28.546  31.080  1.00  0.00    -0.248 NA
ATOM     54  C   UNL A   1      41.884  29.955  29.221  1.00  0.00     0.031 C 
ATOM     55  C   UNL A   1      46.812  27.455  30.748  1.00  0.00     0.029 A 
ATOM     56  C   UNL A   1      45.718  28.317  30.659  1.00  0.00     0.049 A 
ATOM     57  H   UNL A   1      45.806  30.222  29.765  1.00  0.00     0.167 HD
ATOM     58  C   UNL A   1      43.307  28.942  30.761  1.00  0.00     0.074 A 
ATOM     59  C   UNL A   1      43.154  29.850  29.623  1.00  0.00     0.031 C 
ATOM     60  C   UNL A   1      44.395  28.270  31.245  1.00  0.00     0.037 A 
BRANCH  47  61
ATOM     61  C   UNL A   1      46.930  30.439  26.977  1.00  0.00     0.058 A 
ATOM     62  C   UNL A   1      48.113  31.202  27.020  1.00  0.00     0.135 A 
ATOM     63  C   UNL A   1      45.753  31.167  26.678  1.00  0.00     0.135 A 
ATOM     64  F   UNL A   1      49.294  30.619  27.276  1.00  0.00    -0.206 F 
ATOM     65  C   UNL A   1      48.111  32.590  26.888  1.00  0.00     0.059 A 
ATOM     66  C   UNL A   1      45.736  32.542  26.498  1.00  0.00     0.059 A 
ATOM     67  F   UNL A   1      44.538  30.615  26.624  1.00  0.00    -0.206 F 
ATOM     68  C   UNL A   1      46.911  33.252  26.648  1.00  0.00     0.060 A 
BRANCH  68  69
ATOM     69  S   UNL A   1      46.883  35.046  26.578  1.00  0.00     0.124 S 
ATOM     70  O   UNL A   1      47.369  35.290  25.225  1.00  0.00    -0.237 OA
ATOM     71  O   UNL A   1      45.471  35.330  26.815  1.00  0.00    -0.237 OA
ATOM     72  O   UNL A   1      47.786  35.438  27.655  1.00  0.00    -0.744 OA
ENDBRANCH  68  69
ENDBRANCH  47  61
BRANCH  48  73
ATOM     73  C   UNL A   1      38.863  28.622  29.120  1.00  0.00     0.058 A 
ATOM     74  C   UNL A   1      37.865  28.786  30.100  1.00  0.00     0.135 A 
ATOM     75  C   UNL A   1      38.617  29.252  27.882  1.00  0.00     0.135 A 
ATOM     76  F   UNL A   1      38.021  28.241  31.316  1.00  0.00    -0.206 F 
ATOM     77  C   UNL A   1      36.720  29.566  29.883  1.00  0.00     0.059 A 
ATOM     78  C   UNL A   1      37.483  30.027  27.642  1.00  0.00     0.059 A 
ATOM     79  F   UNL A   1      39.522  29.210  26.893  1.00  0.00    -0.206 F 
ATOM     80  C   UNL A   1      36.548  30.202  28.654  1.00  0.00     0.060 A 
BRANCH  80  81
ATOM     81  S   UNL A   1      35.164  31.346  28.415  1.00  0.00     0.124 S 
ATOM     82  O   UNL A   1      34.859  31.741  29.786  1.00  0.00    -0.237 OA
ATOM     83  O   UNL A   1      35.756  32.378  27.571  1.00  0.00    -0.237 OA
ATOM     84  O   UNL A   1      34.151  30.520  27.765  1.00  0.00    -0.744 OA
ENDBRANCH  80  81
ENDBRANCH  48  73
BRANCH  60  85
ATOM     85  C   UNL A   1      44.183  27.267  32.353  1.00  0.00     0.058 A 
ATOM     86  C   UNL A   1      44.094  25.873  32.175  1.00  0.00     0.135 A 
ATOM     87  C   UNL A   1      44.230  27.738  33.673  1.00  0.00     0.135 A 
ATOM     88  F   UNL A   1      44.145  25.331  30.949  1.00  0.00    -0.206 F 
ATOM     89  C   UNL A   1      44.015  24.995  33.261  1.00  0.00     0.059 A 
ATOM     90  C   UNL A   1      44.185  26.882  34.768  1.00  0.00     0.059 A 
ATOM     91  F   UNL A   1      44.378  29.051  33.911  1.00  0.00    -0.206 F 
ATOM     92  C   UNL A   1      44.062  25.512  34.556  1.00  0.00     0.060 A 
BRANCH  92  93
ATOM     93  S   UNL A   1      44.016  24.382  35.967  1.00  0.00     0.124 S 
ATOM     94  O   UNL A   1      43.720  23.105  35.328  1.00  0.00    -0.237 OA
ATOM     95  O   UNL A   1      45.358  24.517  36.525  1.00  0.00    -0.237 OA
ATOM     96  O   UNL A   1      42.946  24.924  36.803  1.00  0.00    -0.744 OA
ENDBRANCH  92  93
ENDBRANCH  60  85
ENDBRANCH  34  35
ENDBRANCH  27  29
ENDBRANCH  26  27
ENDBRANCH  25  26
ENDBRANCH   1  25
TORSDOF 18
ENDMDL
MODEL 2
REMARK VINA RESULT:     -12.1      2.818      9.517
REMARK SMILES O=C(CCc1cn(-c2ccc(Br)cc2)nc1-c1ccccc1)OCCOC(=O)c1ccc(-c2c3nc(c(-c4c(F)cc(S(=O)(=O)[O-])cc4F)c4ccc([nH]4)c(-c4c(F)cc(S(=O)(=O)[O-])cc4F)c4nc(c(-c5c(F)cc(S(=O)(=O)[O-])cc5F)c5ccc2[nH]5)C=C4)C=C3)cc1
REMARK SMILES IDX 24 1 23 2 2 3 1 4 3 5 4 6 5 7 6 8 16 9 7 10 15 11 17 12
REMARK SMILES IDX 18 13 22 14 19 15 21 16 20 17 8 18 9 19 14 20 10 21 13 22
REMARK SMILES IDX 11 23 12 24 25 25 26 26 27 27 28 28 29 29 30 30 94 31 31 32
REMARK SMILES IDX 93 33 32 34 33 35 34 36 87 37 35 38 92 39 86 40 88 41 36 42
REMARK SMILES IDX 91 43 85 44 84 45 37 47 71 48 50 49 70 50 51 51 54 52 69 53
REMARK SMILES IDX 89 54 52 55 53 56 68 58 90 59 55 60 38 61 39 62 48 63 40 64
REMARK SMILES IDX 41 65 47 66 49 67 42 68 43 69 44 70 45 71 46 72 72 73 73 74
REMARK SMILES IDX 82 75 74 76 75 77 81 78 83 79 76 80 77 81 78 82 79 83 80 84
REMARK SMILES IDX 56 85 57 86 66 87 58 88 59 89 65 90 67 91 60 92 61 93 62 94
REMARK SMILES IDX 63 95 64 96
REMARK H PARENT 88 46 54 57
REMARK Flexibility Score: inf
ROOT
ATOM      1  C   UNL A   1      32.610  30.107  26.784  1.00  0.00     0.274 C 
ENDROOT
BRANCH   1   2
ATOM      2  O   UNL A   1      33.151  28.767  26.868  1.00  0.00    -0.462 OA
BRANCH   2   3
ATOM      3  C   UNL A   1      33.533  27.954  25.850  1.00  0.00     0.306 C 
ATOM      4  O   UNL A   1      33.918  28.456  24.792  1.00  0.00    -0.252 OA
BRANCH   3   5
ATOM      5  C   UNL A   1      33.466  26.447  25.980  1.00  0.00     0.127 C 
BRANCH   5   6
ATOM      6  C   UNL A   1      32.153  25.854  26.492  1.00  0.00     0.051 C 
BRANCH   6   7
ATOM      7  C   UNL A   1      31.725  24.674  25.682  1.00  0.00    -0.001 A 
ATOM      8  C   UNL A   1      31.958  23.332  25.941  1.00  0.00     0.119 A 
ATOM      9  C   UNL A   1      31.096  24.686  24.402  1.00  0.00     0.096 A 
ATOM     10  N   UNL A   1      31.704  22.665  24.762  1.00  0.00    -0.240 N 
ATOM     11  N   UNL A   1      31.143  23.477  23.833  1.00  0.00    -0.168 NA
BRANCH   9  12
ATOM     12  C   UNL A   1      30.543  25.846  23.718  1.00  0.00     0.002 A 
ATOM     13  C   UNL A   1      29.242  26.261  24.005  1.00  0.00     0.010 A 
ATOM     14  C   UNL A   1      31.333  26.626  22.869  1.00  0.00     0.010 A 
ATOM     15  C   UNL A   1      28.768  27.474  23.496  1.00  0.00     0.001 A 
ATOM     16  C   UNL A   1      30.879  27.855  22.396  1.00  0.00     0.001 A 
ATOM     17  C   UNL A   1      29.596  28.282  22.716  1.00  0.00     0.000 A 
ENDBRANCH   9  12
BRANCH  10  18
ATOM     18  C   UNL A   1      32.114  21.349  24.428  1.00  0.00     0.065 A 
ATOM     19  C   UNL A   1      32.047  20.887  23.109  1.00  0.00     0.029 A 
ATOM     20  C   UNL A   1      32.565  20.500  25.451  1.00  0.00     0.029 A 
ATOM     21  C   UNL A   1      32.496  19.594  22.810  1.00  0.00     0.018 A 
ATOM     22  C   UNL A   1      32.955  19.193  25.154  1.00  0.00     0.018 A 
ATOM     23  C   UNL A   1      32.945  18.756  23.832  1.00  0.00     0.018 A 
ATOM     24  Br  UNL A   1      33.568  17.018  23.419  1.00  0.00    -0.051 Br
ENDBRANCH  10  18
ENDBRANCH   6   7
ENDBRANCH   5   6
ENDBRANCH   3   5
ENDBRANCH   2   3
ENDBRANCH   1   2
BRANCH   1  25
ATOM     25  C   UNL A   1      33.430  31.199  27.449  1.00  0.00     0.275 C 
BRANCH  25  26
ATOM     26  O   UNL A   1      34.804  30.955  27.231  1.00  0.00    -0.458 OA
BRANCH  26  27
ATOM     27  C   UNL A   1      35.628  31.852  27.818  1.00  0.00     0.338 C 
ATOM     28  O   UNL A   1      35.755  33.036  27.543  1.00  0.00    -0.246 OA
BRANCH  27  29
ATOM     29  C   UNL A   1      36.439  31.120  28.786  1.00  0.00     0.060 A 
ATOM     30  C   UNL A   1      37.400  31.882  29.441  1.00  0.00     0.016 A 
ATOM     31  C   UNL A   1      36.486  29.716  28.726  1.00  0.00     0.016 A 
ATOM     32  C   UNL A   1      38.590  31.267  29.711  1.00  0.00     0.010 A 
ATOM     33  C   UNL A   1      37.676  29.104  28.997  1.00  0.00     0.010 A 
ATOM     34  C   UNL A   1      38.738  29.918  29.359  1.00  0.00    -0.014 A 
BRANCH  34  35
ATOM     35  C   UNL A   1      40.044  29.331  29.495  1.00  0.00     0.031 A 
ATOM     36  C   UNL A   1      40.369  29.144  30.919  1.00  0.00     0.074 A 
ATOM     37  C   UNL A   1      40.789  28.978  28.432  1.00  0.00     0.049 A 
ATOM     38  N   UNL A   1      41.145  29.885  31.635  1.00  0.00    -0.248 NA
ATOM     39  C   UNL A   1      39.510  28.240  31.703  1.00  0.00     0.031 C 
ATOM     40  C   UNL A   1      40.416  28.937  27.015  1.00  0.00     0.029 A 
ATOM     41  N   UNL A   1      42.059  28.497  28.424  1.00  0.00    -0.354 N 
ATOM     42  C   UNL A   1      41.091  29.330  32.905  1.00  0.00     0.074 A 
ATOM     43  C   UNL A   1      39.893  28.539  32.944  1.00  0.00     0.031 C 
ATOM     44  C   UNL A   1      41.353  28.241  26.325  1.00  0.00     0.029 A 
ATOM     45  C   UNL A   1      42.449  27.915  27.219  1.00  0.00     0.049 A 
ATOM     46  H   UNL A   1      42.654  28.554  29.206  1.00  0.00     0.167 HD
ATOM     47  C   UNL A   1      42.218  29.284  33.665  1.00  0.00     0.037 A 
ATOM     48  C   UNL A   1      43.569  27.161  27.042  1.00  0.00     0.037 A 
ATOM     49  C   UNL A   1      43.173  30.273  33.210  1.00  0.00     0.049 A 
ATOM     50  C   UNL A   1      44.500  27.525  28.152  1.00  0.00     0.074 A 
ATOM     51  C   UNL A   1      43.137  31.647  33.054  1.00  0.00     0.029 A 
ATOM     52  N   UNL A   1      44.219  29.835  32.430  1.00  0.00    -0.354 N 
ATOM     53  N   UNL A   1      45.034  28.712  28.276  1.00  0.00    -0.248 NA
ATOM     54  C   UNL A   1      44.403  26.755  29.385  1.00  0.00     0.031 C 
ATOM     55  C   UNL A   1      43.844  31.904  31.843  1.00  0.00     0.029 A 
ATOM     56  C   UNL A   1      44.351  30.694  31.368  1.00  0.00     0.049 A 
ATOM     57  H   UNL A   1      44.777  29.044  32.606  1.00  0.00     0.167 HD
ATOM     58  C   UNL A   1      44.943  29.007  29.631  1.00  0.00     0.074 A 
ATOM     59  C   UNL A   1      44.590  27.739  30.270  1.00  0.00     0.031 C 
ATOM     60  C   UNL A   1      44.866  30.298  30.074  1.00  0.00     0.037 A 
BRANCH  47  61
ATOM     61  C   UNL A   1      42.618  28.064  34.467  1.00  0.00     0.058 A 
ATOM     62  C   UNL A   1      42.773  28.203  35.860  1.00  0.00     0.135 A 
ATOM     63  C   UNL A   1      43.134  26.864  33.920  1.00  0.00     0.135 A 
ATOM     64  F   UNL A   1      42.308  29.290  36.495  1.00  0.00    -0.206 F 
ATOM     65  C   UNL A   1      43.480  27.279  36.628  1.00  0.00     0.059 A 
ATOM     66  C   UNL A   1      43.801  25.911  34.674  1.00  0.00     0.059 A 
ATOM     67  F   UNL A   1      43.103  26.575  32.616  1.00  0.00    -0.206 F 
ATOM     68  C   UNL A   1      44.009  26.146  36.019  1.00  0.00     0.060 A 
BRANCH  68  69
ATOM     69  S   UNL A   1      45.008  25.003  36.979  1.00  0.00     0.124 S 
ATOM     70  O   UNL A   1      44.540  25.277  38.333  1.00  0.00    -0.237 OA
ATOM     71  O   UNL A   1      44.616  23.717  36.410  1.00  0.00    -0.237 OA
ATOM     72  O   UNL A   1      46.374  25.423  36.685  1.00  0.00    -0.744 OA
ENDBRANCH  68  69
ENDBRANCH  47  61
BRANCH  48  73
ATOM     73  C   UNL A   1      43.693  25.887  26.277  1.00  0.00     0.058 A 
ATOM     74  C   UNL A   1      44.778  25.651  25.410  1.00  0.00     0.135 A 
ATOM     75  C   UNL A   1      42.907  24.761  26.596  1.00  0.00     0.135 A 
ATOM     76  F   UNL A   1      45.596  26.658  25.068  1.00  0.00    -0.206 F 
ATOM     77  C   UNL A   1      45.092  24.372  24.930  1.00  0.00     0.059 A 
ATOM     78  C   UNL A   1      43.196  23.480  26.126  1.00  0.00     0.059 A 
ATOM     79  F   UNL A   1      41.881  24.854  27.455  1.00  0.00    -0.206 F 
ATOM     80  C   UNL A   1      44.304  23.285  25.312  1.00  0.00     0.060 A 
BRANCH  80  81
ATOM     81  S   UNL A   1      44.792  21.607  24.839  1.00  0.00     0.124 S 
ATOM     82  O   UNL A   1      46.191  21.571  25.251  1.00  0.00    -0.237 OA
ATOM     83  O   UNL A   1      43.876  20.785  25.622  1.00  0.00    -0.237 OA
ATOM     84  O   UNL A   1      44.568  21.583  23.396  1.00  0.00    -0.744 OA
ENDBRANCH  80  81
ENDBRANCH  48  73
BRANCH  60  85
ATOM     85  C   UNL A   1      45.160  31.409  29.095  1.00  0.00     0.058 A 
ATOM     86  C   UNL A   1      46.439  31.936  28.831  1.00  0.00     0.135 A 
ATOM     87  C   UNL A   1      44.109  31.848  28.277  1.00  0.00     0.135 A 
ATOM     88  F   UNL A   1      47.516  31.496  29.498  1.00  0.00    -0.206 F 
ATOM     89  C   UNL A   1      46.651  32.885  27.825  1.00  0.00     0.059 A 
ATOM     90  C   UNL A   1      44.302  32.767  27.250  1.00  0.00     0.059 A 
ATOM     91  F   UNL A   1      42.877  31.338  28.436  1.00  0.00    -0.206 F 
ATOM     92  C   UNL A   1      45.573  33.293  27.039  1.00  0.00     0.060 A 
BRANCH  92  93
ATOM     93  S   UNL A   1      45.847  34.478  25.701  1.00  0.00     0.124 S 
ATOM     94  O   UNL A   1      47.257  34.270  25.390  1.00  0.00    -0.237 OA
ATOM     95  O   UNL A   1      44.900  34.032  24.683  1.00  0.00    -0.237 OA
ATOM     96  O   UNL A   1      45.527  35.766  26.315  1.00  0.00    -0.744 OA
ENDBRANCH  92  93
ENDBRANCH  60  85
ENDBRANCH  34  35
ENDBRANCH  27  29
ENDBRANCH  26  27
ENDBRANCH  25  26
ENDBRANCH   1  25
TORSDOF 18
ENDMDL
MODEL 3
REMARK VINA RESULT:     -11.8      4.108      9.361
REMARK SMILES O=C(CCc1cn(-c2ccc(Br)cc2)nc1-c1ccccc1)OCCOC(=O)c1ccc(-c2c3nc(c(-c4c(F)cc(S(=O)(=O)[O-])cc4F)c4ccc([nH]4)c(-c4c(F)cc(S(=O)(=O)[O-])cc4F)c4nc(c(-c5c(F)cc(S(=O)(=O)[O-])cc5F)c5ccc2[nH]5)C=C4)C=C3)cc1
REMARK SMILES IDX 24 1 23 2 2 3 1 4 3 5 4 6 5 7 6 8 16 9 7 10 15 11 17 12
REMARK SMILES IDX 18 13 22 14 19 15 21 16 20 17 8 18 9 19 14 20 10 21 13 22
REMARK SMILES IDX 11 23 12 24 25 25 26 26 27 27 28 28 29 29 30 30 94 31 31 32
REMARK SMILES IDX 93 33 32 34 33 35 34 36 87 37 35 38 92 39 86 40 88 41 36 42
REMARK SMILES IDX 91 43 85 44 84 45 37 47 71 48 50 49 70 50 51 51 54 52 69 53
REMARK SMILES IDX 89 54 52 55 53 56 68 58 90 59 55 60 38 61 39 62 48 63 40 64
REMARK SMILES IDX 41 65 47 66 49 67 42 68 43 69 44 70 45 71 46 72 72 73 73 74
REMARK SMILES IDX 82 75 74 76 75 77 81 78 83 79 76 80 77 81 78 82 79 83 80 84
REMARK SMILES IDX 56 85 57 86 66 87 58 88 59 89 65 90 67 91 60 92 61 93 62 94
REMARK SMILES IDX 63 95 64 96
REMARK H PARENT 88 46 54 57
REMARK Flexibility Score: inf
ROOT
ATOM      1  C   UNL A   1      31.939  29.760  26.765  1.00  0.00     0.274 C 
ENDROOT
BRANCH   1   2
ATOM      2  O   UNL A   1      33.157  28.993  26.614  1.00  0.00    -0.462 OA
BRANCH   2   3
ATOM      3  C   UNL A   1      33.431  28.029  25.699  1.00  0.00     0.306 C 
ATOM      4  O   UNL A   1      33.400  28.313  24.500  1.00  0.00    -0.252 OA
BRANCH   3   5
ATOM      5  C   UNL A   1      33.744  26.610  26.122  1.00  0.00     0.127 C 
BRANCH   5   6
ATOM      6  C   UNL A   1      34.371  25.696  25.069  1.00  0.00     0.051 C 
BRANCH   6   7
ATOM      7  C   UNL A   1      33.605  24.422  24.915  1.00  0.00    -0.001 A 
ATOM      8  C   UNL A   1      33.986  23.146  25.301  1.00  0.00     0.119 A 
ATOM      9  C   UNL A   1      32.375  24.232  24.219  1.00  0.00     0.096 A 
ATOM     10  N   UNL A   1      33.146  22.278  24.637  1.00  0.00    -0.240 N 
ATOM     11  N   UNL A   1      32.140  22.932  24.007  1.00  0.00    -0.168 NA
BRANCH   9  12
ATOM     12  C   UNL A   1      31.499  25.274  23.704  1.00  0.00     0.002 A 
ATOM     13  C   UNL A   1      30.421  25.713  24.475  1.00  0.00     0.010 A 
ATOM     14  C   UNL A   1      31.788  25.931  22.504  1.00  0.00     0.010 A 
ATOM     15  C   UNL A   1      29.688  26.834  24.075  1.00  0.00     0.001 A 
ATOM     16  C   UNL A   1      31.087  27.073  22.126  1.00  0.00     0.001 A 
ATOM     17  C   UNL A   1      30.039  27.528  22.916  1.00  0.00     0.000 A 
ENDBRANCH   9  12
BRANCH  10  18
ATOM     18  C   UNL A   1      33.346  20.887  24.442  1.00  0.00     0.065 A 
ATOM     19  C   UNL A   1      34.539  20.269  24.828  1.00  0.00     0.029 A 
ATOM     20  C   UNL A   1      32.330  20.139  23.825  1.00  0.00     0.029 A 
ATOM     21  C   UNL A   1      34.685  18.887  24.655  1.00  0.00     0.018 A 
ATOM     22  C   UNL A   1      32.507  18.772  23.601  1.00  0.00     0.018 A 
ATOM     23  C   UNL A   1      33.671  18.148  24.042  1.00  0.00     0.018 A 
ATOM     24  Br  UNL A   1      33.866  16.279  23.827  1.00  0.00    -0.051 Br
ENDBRANCH  10  18
ENDBRANCH   6   7
ENDBRANCH   5   6
ENDBRANCH   3   5
ENDBRANCH   2   3
ENDBRANCH   1   2
BRANCH   1  25
ATOM     25  C   UNL A   1      32.093  31.271  26.720  1.00  0.00     0.275 C 
BRANCH  25  26
ATOM     26  O   UNL A   1      32.928  31.690  27.779  1.00  0.00    -0.458 OA
BRANCH  26  27
ATOM     27  C   UNL A   1      32.914  33.023  28.003  1.00  0.00     0.338 C 
ATOM     28  O   UNL A   1      32.099  33.838  27.595  1.00  0.00    -0.246 OA
BRANCH  27  29
ATOM     29  C   UNL A   1      34.131  33.348  28.741  1.00  0.00     0.060 A 
ATOM     30  C   UNL A   1      35.108  34.005  28.003  1.00  0.00     0.016 A 
ATOM     31  C   UNL A   1      34.404  32.680  29.949  1.00  0.00     0.016 A 
ATOM     32  C   UNL A   1      36.407  33.679  28.277  1.00  0.00     0.010 A 
ATOM     33  C   UNL A   1      35.701  32.356  30.221  1.00  0.00     0.010 A 
ATOM     34  C   UNL A   1      36.659  32.756  29.302  1.00  0.00    -0.014 A 
BRANCH  34  35
ATOM     35  C   UNL A   1      38.012  32.297  29.470  1.00  0.00     0.031 A 
ATOM     36  C   UNL A   1      38.123  30.887  29.056  1.00  0.00     0.074 A 
ATOM     37  C   UNL A   1      38.999  33.105  29.896  1.00  0.00     0.049 A 
ATOM     38  N   UNL A   1      38.177  29.860  29.834  1.00  0.00    -0.248 NA
ATOM     39  C   UNL A   1      37.827  30.563  27.650  1.00  0.00     0.031 C 
ATOM     40  C   UNL A   1      38.982  34.556  30.101  1.00  0.00     0.029 A 
ATOM     41  N   UNL A   1      40.288  32.776  30.173  1.00  0.00    -0.354 N 
ATOM     42  C   UNL A   1      38.230  28.771  28.976  1.00  0.00     0.074 A 
ATOM     43  C   UNL A   1      37.735  29.235  27.711  1.00  0.00     0.031 C 
ATOM     44  C   UNL A   1      40.254  35.004  30.240  1.00  0.00     0.029 A 
ATOM     45  C   UNL A   1      41.152  33.865  30.277  1.00  0.00     0.049 A 
ATOM     46  H   UNL A   1      40.586  31.846  30.290  1.00  0.00     0.167 HD
ATOM     47  C   UNL A   1      39.014  27.705  29.293  1.00  0.00     0.037 A 
ATOM     48  C   UNL A   1      42.511  33.783  30.308  1.00  0.00     0.037 A 
ATOM     49  C   UNL A   1      39.276  27.679  30.717  1.00  0.00     0.049 A 
ATOM     50  C   UNL A   1      42.837  32.392  30.745  1.00  0.00     0.074 A 
ATOM     51  C   UNL A   1      38.475  27.633  31.844  1.00  0.00     0.029 A 
ATOM     52  N   UNL A   1      40.500  28.138  31.147  1.00  0.00    -0.354 N 
ATOM     53  N   UNL A   1      42.547  31.929  31.933  1.00  0.00    -0.248 NA
ATOM     54  C   UNL A   1      42.988  31.383  29.705  1.00  0.00     0.031 C 
ATOM     55  C   UNL A   1      39.103  28.503  32.784  1.00  0.00     0.029 A 
ATOM     56  C   UNL A   1      40.296  28.963  32.224  1.00  0.00     0.049 A 
ATOM     57  H   UNL A   1      41.372  27.912  30.750  1.00  0.00     0.167 HD
ATOM     58  C   UNL A   1      42.060  30.647  31.710  1.00  0.00     0.074 A 
ATOM     59  C   UNL A   1      42.404  30.350  30.319  1.00  0.00     0.031 C 
ATOM     60  C   UNL A   1      41.167  30.067  32.567  1.00  0.00     0.037 A 
BRANCH  47  61
ATOM     61  C   UNL A   1      39.898  27.007  28.282  1.00  0.00     0.058 A 
ATOM     62  C   UNL A   1      39.853  25.600  28.216  1.00  0.00     0.135 A 
ATOM     63  C   UNL A   1      40.979  27.608  27.594  1.00  0.00     0.135 A 
ATOM     64  F   UNL A   1      38.863  24.919  28.814  1.00  0.00    -0.206 F 
ATOM     65  C   UNL A   1      40.860  24.849  27.611  1.00  0.00     0.059 A 
ATOM     66  C   UNL A   1      41.967  26.880  26.948  1.00  0.00     0.059 A 
ATOM     67  F   UNL A   1      41.198  28.926  27.573  1.00  0.00    -0.206 F 
ATOM     68  C   UNL A   1      41.924  25.501  26.998  1.00  0.00     0.060 A 
BRANCH  68  69
ATOM     69  S   UNL A   1      43.276  24.543  26.307  1.00  0.00     0.124 S 
ATOM     70  O   UNL A   1      44.257  24.608  27.385  1.00  0.00    -0.237 OA
ATOM     71  O   UNL A   1      42.642  23.246  26.092  1.00  0.00    -0.237 OA
ATOM     72  O   UNL A   1      43.621  25.275  25.093  1.00  0.00    -0.744 OA
ENDBRANCH  68  69
ENDBRANCH  47  61
BRANCH  48  73
ATOM     73  C   UNL A   1      43.489  34.647  29.587  1.00  0.00     0.058 A 
ATOM     74  C   UNL A   1      43.664  34.555  28.192  1.00  0.00     0.135 A 
ATOM     75  C   UNL A   1      44.064  35.777  30.205  1.00  0.00     0.135 A 
ATOM     76  F   UNL A   1      43.133  33.526  27.515  1.00  0.00    -0.206 F 
ATOM     77  C   UNL A   1      44.325  35.545  27.451  1.00  0.00     0.059 A 
ATOM     78  C   UNL A   1      44.730  36.771  29.490  1.00  0.00     0.059 A 
ATOM     79  F   UNL A   1      43.914  35.998  31.519  1.00  0.00    -0.206 F 
ATOM     80  C   UNL A   1      44.838  36.664  28.108  1.00  0.00     0.060 A 
BRANCH  80  81
ATOM     81  S   UNL A   1      45.543  38.029  27.150  1.00  0.00     0.124 S 
ATOM     82  O   UNL A   1      44.347  38.703  26.659  1.00  0.00    -0.237 OA
ATOM     83  O   UNL A   1      46.313  38.750  28.158  1.00  0.00    -0.237 OA
ATOM     84  O   UNL A   1      46.338  37.351  26.130  1.00  0.00    -0.744 OA
ENDBRANCH  80  81
ENDBRANCH  48  73
BRANCH  60  85
ATOM     85  C   UNL A   1      40.928  30.725  33.905  1.00  0.00     0.058 A 
ATOM     86  C   UNL A   1      41.755  30.580  35.036  1.00  0.00     0.135 A 
ATOM     87  C   UNL A   1      39.894  31.669  33.989  1.00  0.00     0.135 A 
ATOM     88  F   UNL A   1      42.827  29.774  35.007  1.00  0.00    -0.206 F 
ATOM     89  C   UNL A   1      41.536  31.313  36.207  1.00  0.00     0.059 A 
ATOM     90  C   UNL A   1      39.677  32.432  35.132  1.00  0.00     0.059 A 
ATOM     91  F   UNL A   1      39.109  31.899  32.925  1.00  0.00    -0.206 F 
ATOM     92  C   UNL A   1      40.492  32.238  36.244  1.00  0.00     0.060 A 
BRANCH  92  93
ATOM     93  S   UNL A   1      40.234  33.230  37.734  1.00  0.00     0.124 S 
ATOM     94  O   UNL A   1      40.702  32.332  38.784  1.00  0.00    -0.237 OA
ATOM     95  O   UNL A   1      41.067  34.402  37.483  1.00  0.00    -0.237 OA
ATOM     96  O   UNL A   1      38.795  33.487  37.728  1.00  0.00    -0.744 OA
ENDBRANCH  92  93
ENDBRANCH  60  85
ENDBRANCH  34  35
ENDBRANCH  27  29
ENDBRANCH  26  27
ENDBRANCH  25  26
ENDBRANCH   1  25
TORSDOF 18
ENDMDL
