MODEL 1
REMARK VINA RESULT:     -10.3      0.000      0.000
REMARK SMILES CCC(CC)(C(=O)OCCOC(=O)c1ccc(-c2c3nc(c(-c4c(F)cc(S(=O)(=O)[O-])cc4F)c4ccc([nH]4)c(-c4c(F)cc(S(=O)(=O)[O-])cc4F)c4nc(c(-c5c(F)cc(S(=O)(=O)[O-])cc5F)c5ccc2[nH]5)C=C4)C=C3)cc1)N1C(=O)[C@@H]2[C@H](C1=O)C2(C)C
REMARK SMILES IDX 10 1 9 2 8 3 6 4 7 5 3 6 2 7 1 8 4 9 5 10 80 11 81 12 85 13
REMARK SMILES IDX 82 14 83 15 84 16 86 17 87 18 88 19 89 20 11 21 12 22 13 23
REMARK SMILES IDX 14 24 15 25 79 26 16 27 78 28 17 29 18 30 19 31 72 32 20 33
REMARK SMILES IDX 77 34 71 35 73 36 21 37 76 38 70 39 69 40 22 42 56 43 35 44
REMARK SMILES IDX 55 45 36 46 39 47 54 48 74 49 37 50 38 51 53 53 75 54 40 55
REMARK SMILES IDX 23 56 24 57 33 58 25 59 26 60 32 61 34 62 27 63 28 64 29 65
REMARK SMILES IDX 30 66 31 67 57 68 58 69 67 70 59 71 60 72 66 73 68 74 61 75
REMARK SMILES IDX 62 76 63 77 64 78 65 79 41 80 42 81 51 82 43 83 44 84 50 85
REMARK SMILES IDX 52 86 45 87 46 88 47 89 48 90 49 91
REMARK H PARENT 73 41 39 52
REMARK Flexibility Score: inf
ROOT
ATOM      1  C   UNL A   1      35.970  23.148  24.933  1.00  0.00     0.275 C 
ENDROOT
BRANCH   1   2
ATOM      2  C   UNL A   1      35.160  23.669  23.746  1.00  0.00     0.274 C 
BRANCH   2   3
ATOM      3  O   UNL A   1      34.143  24.612  24.162  1.00  0.00    -0.460 OA
BRANCH   3   4
ATOM      4  C   UNL A   1      33.468  25.276  23.174  1.00  0.00     0.332 C 
ATOM      5  O   UNL A   1      33.877  25.285  22.022  1.00  0.00    -0.249 OA
BRANCH   4   6
ATOM      6  C   UNL A   1      32.228  26.106  23.717  1.00  0.00     0.147 C 
BRANCH   6   7
ATOM      7  C   UNL A   1      31.473  26.725  22.481  1.00  0.00     0.038 C 
ATOM      8  C   UNL A   1      30.307  27.677  22.764  1.00  0.00     0.007 C 
ENDBRANCH   6   7
BRANCH   6   9
ATOM      9  C   UNL A   1      31.332  25.087  24.487  1.00  0.00     0.038 C 
ATOM     10  C   UNL A   1      30.684  23.988  23.650  1.00  0.00     0.007 C 
ENDBRANCH   6   9
BRANCH   6  11
ATOM     11  N   UNL A   1      32.656  27.195  24.714  1.00  0.00    -0.265 N 
ATOM     12  C   UNL A   1      33.592  28.164  24.426  1.00  0.00     0.234 C 
ATOM     13  C   UNL A   1      32.480  27.145  26.078  1.00  0.00     0.234 C 
ATOM     14  O   UNL A   1      34.177  28.360  23.374  1.00  0.00    -0.274 OA
ATOM     15  C   UNL A   1      34.083  28.849  25.655  1.00  0.00     0.098 C 
ATOM     16  C   UNL A   1      33.515  27.981  26.757  1.00  0.00     0.098 C 
ATOM     17  O   UNL A   1      31.621  26.586  26.732  1.00  0.00    -0.274 OA
ATOM     18  C   UNL A   1      33.389  29.469  26.875  1.00  0.00    -0.011 C 
ATOM     19  C   UNL A   1      31.981  29.977  26.997  1.00  0.00     0.013 C 
ATOM     20  C   UNL A   1      34.338  30.247  27.766  1.00  0.00     0.013 C 
ENDBRANCH   6  11
ENDBRANCH   4   6
ENDBRANCH   3   4
ENDBRANCH   2   3
ENDBRANCH   1   2
BRANCH   1  21
ATOM     21  O   UNL A   1      37.132  23.968  25.132  1.00  0.00    -0.458 OA
BRANCH  21  22
ATOM     22  C   UNL A   1      38.211  23.350  25.669  1.00  0.00     0.338 C 
ATOM     23  O   UNL A   1      38.641  22.241  25.411  1.00  0.00    -0.246 OA
BRANCH  22  24
ATOM     24  C   UNL A   1      38.907  24.319  26.529  1.00  0.00     0.060 A 
ATOM     25  C   UNL A   1      38.558  24.329  27.870  1.00  0.00     0.016 A 
ATOM     26  C   UNL A   1      39.819  25.251  26.039  1.00  0.00     0.016 A 
ATOM     27  C   UNL A   1      39.104  25.263  28.732  1.00  0.00     0.010 A 
ATOM     28  C   UNL A   1      40.351  26.217  26.915  1.00  0.00     0.010 A 
ATOM     29  C   UNL A   1      39.965  26.257  28.265  1.00  0.00    -0.014 A 
BRANCH  29  30
ATOM     30  C   UNL A   1      40.297  27.395  29.173  1.00  0.00     0.031 A 
ATOM     31  C   UNL A   1      41.633  27.420  29.877  1.00  0.00     0.074 A 
ATOM     32  C   UNL A   1      39.516  28.494  29.239  1.00  0.00     0.049 A 
ATOM     33  N   UNL A   1      42.074  28.246  30.791  1.00  0.00    -0.248 NA
ATOM     34  C   UNL A   1      42.610  26.392  29.480  1.00  0.00     0.031 C 
ATOM     35  C   UNL A   1      38.286  28.712  28.474  1.00  0.00     0.029 A 
ATOM     36  N   UNL A   1      39.668  29.658  29.954  1.00  0.00    -0.354 N 
ATOM     37  C   UNL A   1      43.351  27.805  31.122  1.00  0.00     0.074 A 
ATOM     38  C   UNL A   1      43.623  26.649  30.296  1.00  0.00     0.031 C 
ATOM     39  C   UNL A   1      37.820  29.942  28.732  1.00  0.00     0.029 A 
ATOM     40  C   UNL A   1      38.649  30.562  29.761  1.00  0.00     0.049 A 
ATOM     41  H   UNL A   1      40.435  29.830  30.547  1.00  0.00     0.167 HD
ATOM     42  C   UNL A   1      44.212  28.310  32.038  1.00  0.00     0.037 A 
ATOM     43  C   UNL A   1      38.372  31.726  30.382  1.00  0.00     0.037 A 
ATOM     44  C   UNL A   1      43.961  29.490  32.824  1.00  0.00     0.049 A 
ATOM     45  C   UNL A   1      39.277  32.206  31.485  1.00  0.00     0.074 A 
ATOM     46  C   UNL A   1      44.747  30.044  33.821  1.00  0.00     0.029 A 
ATOM     47  N   UNL A   1      42.853  30.312  32.688  1.00  0.00    -0.354 N 
ATOM     48  N   UNL A   1      40.413  31.699  31.900  1.00  0.00    -0.248 NA
ATOM     49  C   UNL A   1      38.846  33.400  32.228  1.00  0.00     0.031 C 
ATOM     50  C   UNL A   1      44.093  31.178  34.316  1.00  0.00     0.029 A 
ATOM     51  C   UNL A   1      42.923  31.357  33.595  1.00  0.00     0.049 A 
ATOM     52  H   UNL A   1      42.123  30.172  32.044  1.00  0.00     0.167 HD
ATOM     53  C   UNL A   1      40.834  32.516  32.945  1.00  0.00     0.074 A 
ATOM     54  C   UNL A   1      39.844  33.563  33.084  1.00  0.00     0.031 C 
ATOM     55  C   UNL A   1      41.938  32.400  33.725  1.00  0.00     0.037 A 
BRANCH  42  56
ATOM     56  C   UNL A   1      45.478  27.543  32.300  1.00  0.00     0.058 A 
ATOM     57  C   UNL A   1      45.523  26.432  33.155  1.00  0.00     0.135 A 
ATOM     58  C   UNL A   1      46.666  27.920  31.651  1.00  0.00     0.135 A 
ATOM     59  F   UNL A   1      44.421  26.043  33.816  1.00  0.00    -0.206 F 
ATOM     60  C   UNL A   1      46.708  25.734  33.373  1.00  0.00     0.059 A 
ATOM     61  C   UNL A   1      47.854  27.222  31.835  1.00  0.00     0.059 A 
ATOM     62  F   UNL A   1      46.676  28.978  30.824  1.00  0.00    -0.206 F 
ATOM     63  C   UNL A   1      47.869  26.137  32.710  1.00  0.00     0.060 A 
BRANCH  63  64
ATOM     64  S   UNL A   1      49.398  25.224  32.999  1.00  0.00     0.124 S 
ATOM     65  O   UNL A   1      50.216  26.232  33.668  1.00  0.00    -0.237 OA
ATOM     66  O   UNL A   1      48.950  24.116  33.835  1.00  0.00    -0.237 OA
ATOM     67  O   UNL A   1      49.834  24.855  31.656  1.00  0.00    -0.744 OA
ENDBRANCH  63  64
ENDBRANCH  42  56
BRANCH  43  68
ATOM     68  C   UNL A   1      37.129  32.472  30.045  1.00  0.00     0.058 A 
ATOM     69  C   UNL A   1      37.126  33.503  29.096  1.00  0.00     0.135 A 
ATOM     70  C   UNL A   1      35.914  32.171  30.684  1.00  0.00     0.135 A 
ATOM     71  F   UNL A   1      38.265  33.843  28.472  1.00  0.00    -0.206 F 
ATOM     72  C   UNL A   1      35.969  34.217  28.799  1.00  0.00     0.059 A 
ATOM     73  C   UNL A   1      34.738  32.845  30.381  1.00  0.00     0.059 A 
ATOM     74  F   UNL A   1      35.860  31.192  31.602  1.00  0.00    -0.206 F 
ATOM     75  C   UNL A   1      34.778  33.877  29.446  1.00  0.00     0.060 A 
BRANCH  75  76
ATOM     76  S   UNL A   1      33.268  34.775  29.027  1.00  0.00     0.124 S 
ATOM     77  O   UNL A   1      32.614  34.867  30.327  1.00  0.00    -0.237 OA
ATOM     78  O   UNL A   1      33.792  36.026  28.486  1.00  0.00    -0.237 OA
ATOM     79  O   UNL A   1      32.621  33.903  28.052  1.00  0.00    -0.744 OA
ENDBRANCH  75  76
ENDBRANCH  43  68
BRANCH  55  80
ATOM     80  C   UNL A   1      42.154  33.445  34.784  1.00  0.00     0.058 A 
ATOM     81  C   UNL A   1      42.711  34.697  34.480  1.00  0.00     0.135 A 
ATOM     82  C   UNL A   1      41.748  33.212  36.108  1.00  0.00     0.135 A 
ATOM     83  F   UNL A   1      43.122  34.968  33.231  1.00  0.00    -0.206 F 
ATOM     84  C   UNL A   1      42.878  35.675  35.456  1.00  0.00     0.059 A 
ATOM     85  C   UNL A   1      41.882  34.185  37.095  1.00  0.00     0.059 A 
ATOM     86  F   UNL A   1      41.200  32.036  36.450  1.00  0.00    -0.206 F 
ATOM     87  C   UNL A   1      42.458  35.410  36.762  1.00  0.00     0.060 A 
BRANCH  87  88
ATOM     88  S   UNL A   1      42.647  36.699  38.012  1.00  0.00     0.124 S 
ATOM     89  O   UNL A   1      41.270  37.154  38.175  1.00  0.00    -0.237 OA
ATOM     90  O   UNL A   1      43.209  35.964  39.141  1.00  0.00    -0.237 OA
ATOM     91  O   UNL A   1      43.553  37.654  37.380  1.00  0.00    -0.744 OA
ENDBRANCH  87  88
ENDBRANCH  55  80
ENDBRANCH  29  30
ENDBRANCH  22  24
ENDBRANCH  21  22
ENDBRANCH   1  21
TORSDOF 17
ENDMDL
MODEL 2
REMARK VINA RESULT:     -10.0      3.462      9.516
REMARK SMILES CCC(CC)(C(=O)OCCOC(=O)c1ccc(-c2c3nc(c(-c4c(F)cc(S(=O)(=O)[O-])cc4F)c4ccc([nH]4)c(-c4c(F)cc(S(=O)(=O)[O-])cc4F)c4nc(c(-c5c(F)cc(S(=O)(=O)[O-])cc5F)c5ccc2[nH]5)C=C4)C=C3)cc1)N1C(=O)[C@@H]2[C@H](C1=O)C2(C)C
REMARK SMILES IDX 10 1 9 2 8 3 6 4 7 5 3 6 2 7 1 8 4 9 5 10 80 11 81 12 85 13
REMARK SMILES IDX 82 14 83 15 84 16 86 17 87 18 88 19 89 20 11 21 12 22 13 23
REMARK SMILES IDX 14 24 15 25 79 26 16 27 78 28 17 29 18 30 19 31 72 32 20 33
REMARK SMILES IDX 77 34 71 35 73 36 21 37 76 38 70 39 69 40 22 42 56 43 35 44
REMARK SMILES IDX 55 45 36 46 39 47 54 48 74 49 37 50 38 51 53 53 75 54 40 55
REMARK SMILES IDX 23 56 24 57 33 58 25 59 26 60 32 61 34 62 27 63 28 64 29 65
REMARK SMILES IDX 30 66 31 67 57 68 58 69 67 70 59 71 60 72 66 73 68 74 61 75
REMARK SMILES IDX 62 76 63 77 64 78 65 79 41 80 42 81 51 82 43 83 44 84 50 85
REMARK SMILES IDX 52 86 45 87 46 88 47 89 48 90 49 91
REMARK H PARENT 73 41 39 52
REMARK Flexibility Score: inf
ROOT
ATOM      1  C   UNL A   1      33.610  28.021  26.179  1.00  0.00     0.275 C 
ENDROOT
BRANCH   1   2
ATOM      2  C   UNL A   1      32.590  26.883  26.173  1.00  0.00     0.274 C 
BRANCH   2   3
ATOM      3  O   UNL A   1      33.155  25.658  25.648  1.00  0.00    -0.460 OA
BRANCH   3   4
ATOM      4  C   UNL A   1      32.314  24.833  24.951  1.00  0.00     0.332 C 
ATOM      5  O   UNL A   1      31.316  25.268  24.395  1.00  0.00    -0.249 OA
BRANCH   4   6
ATOM      6  C   UNL A   1      32.706  23.299  25.071  1.00  0.00     0.147 C 
BRANCH   6   7
ATOM      7  C   UNL A   1      31.882  22.673  26.258  1.00  0.00     0.038 C 
ATOM      8  C   UNL A   1      30.415  23.090  26.404  1.00  0.00     0.007 C 
ENDBRANCH   6   7
BRANCH   6   9
ATOM      9  C   UNL A   1      32.327  22.650  23.703  1.00  0.00     0.038 C 
ATOM     10  C   UNL A   1      32.542  21.144  23.587  1.00  0.00     0.007 C 
ENDBRANCH   6   9
BRANCH   6  11
ATOM     11  N   UNL A   1      34.217  23.105  25.274  1.00  0.00    -0.265 N 
ATOM     12  C   UNL A   1      34.797  22.892  26.506  1.00  0.00     0.234 C 
ATOM     13  C   UNL A   1      35.198  23.474  24.383  1.00  0.00     0.234 C 
ATOM     14  O   UNL A   1      34.248  22.771  27.588  1.00  0.00    -0.274 OA
ATOM     15  C   UNL A   1      36.272  23.102  26.471  1.00  0.00     0.098 C 
ATOM     16  C   UNL A   1      36.477  23.732  25.111  1.00  0.00     0.098 C 
ATOM     17  O   UNL A   1      35.158  23.558  23.171  1.00  0.00    -0.274 OA
ATOM     18  C   UNL A   1      37.392  22.625  25.537  1.00  0.00    -0.011 C 
ATOM     19  C   UNL A   1      37.409  21.432  24.625  1.00  0.00     0.013 C 
ATOM     20  C   UNL A   1      38.778  22.940  26.064  1.00  0.00     0.013 C 
ENDBRANCH   6  11
ENDBRANCH   4   6
ENDBRANCH   3   4
ENDBRANCH   2   3
ENDBRANCH   1   2
BRANCH   1  21
ATOM     21  O   UNL A   1      33.854  28.455  27.525  1.00  0.00    -0.458 OA
BRANCH  21  22
ATOM     22  C   UNL A   1      34.273  29.734  27.671  1.00  0.00     0.338 C 
ATOM     23  O   UNL A   1      33.602  30.749  27.623  1.00  0.00    -0.246 OA
BRANCH  22  24
ATOM     24  C   UNL A   1      35.687  29.706  28.072  1.00  0.00     0.060 A 
ATOM     25  C   UNL A   1      36.623  29.974  27.085  1.00  0.00     0.016 A 
ATOM     26  C   UNL A   1      36.108  29.353  29.352  1.00  0.00     0.016 A 
ATOM     27  C   UNL A   1      37.977  29.888  27.356  1.00  0.00     0.010 A 
ATOM     28  C   UNL A   1      37.486  29.240  29.616  1.00  0.00     0.010 A 
ATOM     29  C   UNL A   1      38.435  29.467  28.605  1.00  0.00    -0.014 A 
BRANCH  29  30
ATOM     30  C   UNL A   1      39.881  29.124  28.754  1.00  0.00     0.031 A 
ATOM     31  C   UNL A   1      40.820  30.119  29.393  1.00  0.00     0.074 A 
ATOM     32  C   UNL A   1      40.338  27.879  28.504  1.00  0.00     0.049 A 
ATOM     33  N   UNL A   1      42.122  30.072  29.514  1.00  0.00    -0.248 NA
ATOM     34  C   UNL A   1      40.207  31.313  29.998  1.00  0.00     0.031 C 
ATOM     35  C   UNL A   1      39.523  26.745  28.064  1.00  0.00     0.029 A 
ATOM     36  N   UNL A   1      41.600  27.346  28.631  1.00  0.00    -0.354 N 
ATOM     37  C   UNL A   1      42.490  31.253  30.151  1.00  0.00     0.074 A 
ATOM     38  C   UNL A   1      41.272  31.988  30.411  1.00  0.00     0.031 C 
ATOM     39  C   UNL A   1      40.294  25.650  27.993  1.00  0.00     0.029 A 
ATOM     40  C   UNL A   1      41.678  26.020  28.274  1.00  0.00     0.049 A 
ATOM     41  H   UNL A   1      42.374  27.865  28.949  1.00  0.00     0.167 HD
ATOM     42  C   UNL A   1      43.731  31.688  30.478  1.00  0.00     0.037 A 
ATOM     43  C   UNL A   1      42.742  25.207  28.126  1.00  0.00     0.037 A 
ATOM     44  C   UNL A   1      44.939  30.935  30.265  1.00  0.00     0.049 A 
ATOM     45  C   UNL A   1      44.125  25.750  28.376  1.00  0.00     0.074 A 
ATOM     46  C   UNL A   1      46.248  31.317  30.508  1.00  0.00     0.029 A 
ATOM     47  N   UNL A   1      44.988  29.636  29.781  1.00  0.00    -0.354 N 
ATOM     48  N   UNL A   1      44.478  26.925  28.838  1.00  0.00    -0.248 NA
ATOM     49  C   UNL A   1      45.255  24.866  28.054  1.00  0.00     0.031 C 
ATOM     50  C   UNL A   1      47.090  30.265  30.131  1.00  0.00     0.029 A 
ATOM     51  C   UNL A   1      46.303  29.209  29.699  1.00  0.00     0.049 A 
ATOM     52  H   UNL A   1      44.203  29.098  29.530  1.00  0.00     0.167 HD
ATOM     53  C   UNL A   1      45.869  26.918  28.867  1.00  0.00     0.074 A 
ATOM     54  C   UNL A   1      46.292  25.615  28.401  1.00  0.00     0.031 C 
ATOM     55  C   UNL A   1      46.719  27.909  29.240  1.00  0.00     0.037 A 
BRANCH  42  56
ATOM     56  C   UNL A   1      43.856  33.080  31.032  1.00  0.00     0.058 A 
ATOM     57  C   UNL A   1      44.081  34.198  30.216  1.00  0.00     0.135 A 
ATOM     58  C   UNL A   1      43.716  33.293  32.414  1.00  0.00     0.135 A 
ATOM     59  F   UNL A   1      44.242  34.048  28.892  1.00  0.00    -0.206 F 
ATOM     60  C   UNL A   1      44.183  35.479  30.755  1.00  0.00     0.059 A 
ATOM     61  C   UNL A   1      43.791  34.565  32.970  1.00  0.00     0.059 A 
ATOM     62  F   UNL A   1      43.502  32.255  33.239  1.00  0.00    -0.206 F 
ATOM     63  C   UNL A   1      44.038  35.652  32.133  1.00  0.00     0.060 A 
BRANCH  63  64
ATOM     64  S   UNL A   1      44.172  37.315  32.821  1.00  0.00     0.124 S 
ATOM     65  O   UNL A   1      42.945  37.404  33.607  1.00  0.00    -0.237 OA
ATOM     66  O   UNL A   1      45.411  37.240  33.587  1.00  0.00    -0.237 OA
ATOM     67  O   UNL A   1      44.222  38.170  31.638  1.00  0.00    -0.744 OA
ENDBRANCH  63  64
ENDBRANCH  42  56
BRANCH  43  68
ATOM     68  C   UNL A   1      42.554  23.819  27.624  1.00  0.00     0.058 A 
ATOM     69  C   UNL A   1      42.485  22.725  28.497  1.00  0.00     0.135 A 
ATOM     70  C   UNL A   1      42.456  23.560  26.246  1.00  0.00     0.135 A 
ATOM     71  F   UNL A   1      42.594  22.916  29.821  1.00  0.00    -0.206 F 
ATOM     72  C   UNL A   1      42.333  21.424  28.025  1.00  0.00     0.059 A 
ATOM     73  C   UNL A   1      42.271  22.275  25.751  1.00  0.00     0.059 A 
ATOM     74  F   UNL A   1      42.518  24.571  25.364  1.00  0.00    -0.206 F 
ATOM     75  C   UNL A   1      42.224  21.211  26.648  1.00  0.00     0.060 A 
BRANCH  75  76
ATOM     76  S   UNL A   1      41.985  19.527  26.041  1.00  0.00     0.124 S 
ATOM     77  O   UNL A   1      40.548  19.508  25.793  1.00  0.00    -0.237 OA
ATOM     78  O   UNL A   1      42.838  19.500  24.857  1.00  0.00    -0.237 OA
ATOM     79  O   UNL A   1      42.446  18.703  27.154  1.00  0.00    -0.744 OA
ENDBRANCH  75  76
ENDBRANCH  43  68
BRANCH  55  80
ATOM     80  C   UNL A   1      48.192  27.618  29.185  1.00  0.00     0.058 A 
ATOM     81  C   UNL A   1      48.970  27.967  28.070  1.00  0.00     0.135 A 
ATOM     82  C   UNL A   1      48.846  27.035  30.283  1.00  0.00     0.135 A 
ATOM     83  F   UNL A   1      48.394  28.521  26.991  1.00  0.00    -0.206 F 
ATOM     84  C   UNL A   1      50.341  27.728  28.035  1.00  0.00     0.059 A 
ATOM     85  C   UNL A   1      50.219  26.810  30.280  1.00  0.00     0.059 A 
ATOM     86  F   UNL A   1      48.151  26.691  31.378  1.00  0.00    -0.206 F 
ATOM     87  C   UNL A   1      50.957  27.150  29.148  1.00  0.00     0.060 A 
BRANCH  87  88
ATOM     88  S   UNL A   1      52.742  26.878  29.106  1.00  0.00     0.124 S 
ATOM     89  O   UNL A   1      53.243  28.240  28.956  1.00  0.00    -0.237 OA
ATOM     90  O   UNL A   1      52.995  26.248  30.399  1.00  0.00    -0.237 OA
ATOM     91  O   UNL A   1      52.926  26.010  27.946  1.00  0.00    -0.744 OA
ENDBRANCH  87  88
ENDBRANCH  55  80
ENDBRANCH  29  30
ENDBRANCH  22  24
ENDBRANCH  21  22
ENDBRANCH   1  21
TORSDOF 17
ENDMDL
MODEL 3
REMARK VINA RESULT:      -9.9      3.643      9.612
REMARK SMILES CCC(CC)(C(=O)OCCOC(=O)c1ccc(-c2c3nc(c(-c4c(F)cc(S(=O)(=O)[O-])cc4F)c4ccc([nH]4)c(-c4c(F)cc(S(=O)(=O)[O-])cc4F)c4nc(c(-c5c(F)cc(S(=O)(=O)[O-])cc5F)c5ccc2[nH]5)C=C4)C=C3)cc1)N1C(=O)[C@@H]2[C@H](C1=O)C2(C)C
REMARK SMILES IDX 10 1 9 2 8 3 6 4 7 5 3 6 2 7 1 8 4 9 5 10 80 11 81 12 85 13
REMARK SMILES IDX 82 14 83 15 84 16 86 17 87 18 88 19 89 20 11 21 12 22 13 23
REMARK SMILES IDX 14 24 15 25 79 26 16 27 78 28 17 29 18 30 19 31 72 32 20 33
REMARK SMILES IDX 77 34 71 35 73 36 21 37 76 38 70 39 69 40 22 42 56 43 35 44
REMARK SMILES IDX 55 45 36 46 39 47 54 48 74 49 37 50 38 51 53 53 75 54 40 55
REMARK SMILES IDX 23 56 24 57 33 58 25 59 26 60 32 61 34 62 27 63 28 64 29 65
REMARK SMILES IDX 30 66 31 67 57 68 58 69 67 70 59 71 60 72 66 73 68 74 61 75
REMARK SMILES IDX 62 76 63 77 64 78 65 79 41 80 42 81 51 82 43 83 44 84 50 85
REMARK SMILES IDX 52 86 45 87 46 88 47 89 48 90 49 91
REMARK H PARENT 73 41 39 52
REMARK Flexibility Score: inf
ROOT
ATOM      1  C   UNL A   1      32.848  28.522  26.600  1.00  0.00     0.275 C 
ENDROOT
BRANCH   1   2
ATOM      2  C   UNL A   1      31.888  27.415  27.038  1.00  0.00     0.274 C 
BRANCH   2   3
ATOM      3  O   UNL A   1      32.408  26.100  26.729  1.00  0.00    -0.460 OA
BRANCH   3   4
ATOM      4  C   UNL A   1      31.921  25.486  25.607  1.00  0.00     0.332 C 
ATOM      5  O   UNL A   1      30.725  25.277  25.467  1.00  0.00    -0.249 OA
BRANCH   4   6
ATOM      6  C   UNL A   1      33.063  24.981  24.627  1.00  0.00     0.147 C 
BRANCH   6   7
ATOM      7  C   UNL A   1      32.918  25.754  23.264  1.00  0.00     0.038 C 
ATOM      8  C   UNL A   1      33.337  27.227  23.233  1.00  0.00     0.007 C 
ENDBRANCH   6   7
BRANCH   6   9
ATOM      9  C   UNL A   1      34.414  25.312  25.335  1.00  0.00     0.038 C 
ATOM     10  C   UNL A   1      35.463  24.203  25.343  1.00  0.00     0.007 C 
ENDBRANCH   6   9
BRANCH   6  11
ATOM     11  N   UNL A   1      33.010  23.458  24.417  1.00  0.00    -0.265 N 
ATOM     12  C   UNL A   1      33.038  22.862  23.175  1.00  0.00     0.234 C 
ATOM     13  C   UNL A   1      32.566  22.539  25.338  1.00  0.00     0.234 C 
ATOM     14  O   UNL A   1      33.158  23.393  22.084  1.00  0.00    -0.274 OA
ATOM     15  C   UNL A   1      32.611  21.435  23.233  1.00  0.00     0.098 C 
ATOM     16  C   UNL A   1      32.062  21.318  24.639  1.00  0.00     0.098 C 
ATOM     17  O   UNL A   1      32.582  22.582  26.553  1.00  0.00    -0.274 OA
ATOM     18  C   UNL A   1      32.982  20.250  24.133  1.00  0.00    -0.011 C 
ATOM     19  C   UNL A   1      34.225  20.046  24.951  1.00  0.00     0.013 C 
ATOM     20  C   UNL A   1      32.422  18.931  23.639  1.00  0.00     0.013 C 
ENDBRANCH   6  11
ENDBRANCH   4   6
ENDBRANCH   3   4
ENDBRANCH   2   3
ENDBRANCH   1   2
BRANCH   1  21
ATOM     21  O   UNL A   1      33.962  28.592  27.504  1.00  0.00    -0.458 OA
BRANCH  21  22
ATOM     22  C   UNL A   1      34.352  29.836  27.871  1.00  0.00     0.338 C 
ATOM     23  O   UNL A   1      33.655  30.824  28.013  1.00  0.00    -0.246 OA
BRANCH  22  24
ATOM     24  C   UNL A   1      35.772  29.774  28.244  1.00  0.00     0.060 A 
ATOM     25  C   UNL A   1      36.690  30.134  27.271  1.00  0.00     0.016 A 
ATOM     26  C   UNL A   1      36.214  29.306  29.479  1.00  0.00     0.016 A 
ATOM     27  C   UNL A   1      38.049  30.026  27.510  1.00  0.00     0.010 A 
ATOM     28  C   UNL A   1      37.597  29.173  29.709  1.00  0.00     0.010 A 
ATOM     29  C   UNL A   1      38.529  29.494  28.707  1.00  0.00    -0.014 A 
BRANCH  29  30
ATOM     30  C   UNL A   1      39.977  29.142  28.800  1.00  0.00     0.031 A 
ATOM     31  C   UNL A   1      40.948  30.136  29.393  1.00  0.00     0.074 A 
ATOM     32  C   UNL A   1      40.416  27.892  28.542  1.00  0.00     0.049 A 
ATOM     33  N   UNL A   1      42.254  30.082  29.461  1.00  0.00    -0.248 NA
ATOM     34  C   UNL A   1      40.368  31.339  30.012  1.00  0.00     0.031 C 
ATOM     35  C   UNL A   1      39.576  26.760  28.145  1.00  0.00     0.029 A 
ATOM     36  N   UNL A   1      41.678  27.352  28.622  1.00  0.00    -0.354 N 
ATOM     37  C   UNL A   1      42.655  31.264  30.073  1.00  0.00     0.074 A 
ATOM     38  C   UNL A   1      41.452  32.010  30.376  1.00  0.00     0.031 C 
ATOM     39  C   UNL A   1      40.336  25.659  28.052  1.00  0.00     0.029 A 
ATOM     40  C   UNL A   1      41.732  26.023  28.273  1.00  0.00     0.049 A 
ATOM     41  H   UNL A   1      42.467  27.868  28.904  1.00  0.00     0.167 HD
ATOM     42  C   UNL A   1      43.910  31.694  30.346  1.00  0.00     0.037 A 
ATOM     43  C   UNL A   1      42.785  25.201  28.089  1.00  0.00     0.037 A 
ATOM     44  C   UNL A   1      45.104  30.931  30.090  1.00  0.00     0.049 A 
ATOM     45  C   UNL A   1      44.180  25.737  28.278  1.00  0.00     0.074 A 
ATOM     46  C   UNL A   1      46.424  31.306  30.276  1.00  0.00     0.029 A 
ATOM     47  N   UNL A   1      45.124  29.628  29.615  1.00  0.00    -0.354 N 
ATOM     48  N   UNL A   1      44.559  26.913  28.715  1.00  0.00    -0.248 NA
ATOM     49  C   UNL A   1      45.290  24.843  27.917  1.00  0.00     0.031 C 
ATOM     50  C   UNL A   1      47.243  30.245  29.874  1.00  0.00     0.029 A 
ATOM     51  C   UNL A   1      46.433  29.192  29.483  1.00  0.00     0.049 A 
ATOM     52  H   UNL A   1      44.327  29.093  29.401  1.00  0.00     0.167 HD
ATOM     53  C   UNL A   1      45.950  26.897  28.688  1.00  0.00     0.074 A 
ATOM     54  C   UNL A   1      46.346  25.587  28.215  1.00  0.00     0.031 C 
ATOM     55  C   UNL A   1      46.821  27.884  29.018  1.00  0.00     0.037 A 
BRANCH  42  56
ATOM     56  C   UNL A   1      44.067  33.089  30.883  1.00  0.00     0.058 A 
ATOM     57  C   UNL A   1      44.004  33.380  32.253  1.00  0.00     0.135 A 
ATOM     58  C   UNL A   1      44.314  34.151  29.997  1.00  0.00     0.135 A 
ATOM     59  F   UNL A   1      43.750  32.406  33.141  1.00  0.00    -0.206 F 
ATOM     60  C   UNL A   1      44.162  34.681  32.725  1.00  0.00     0.059 A 
ATOM     61  C   UNL A   1      44.498  35.453  30.448  1.00  0.00     0.059 A 
ATOM     62  F   UNL A   1      44.380  33.926  28.675  1.00  0.00    -0.206 F 
ATOM     63  C   UNL A   1      44.407  35.711  31.815  1.00  0.00     0.060 A 
BRANCH  63  64
ATOM     64  S   UNL A   1      44.611  37.393  32.437  1.00  0.00     0.124 S 
ATOM     65  O   UNL A   1      43.959  37.302  33.740  1.00  0.00    -0.237 OA
ATOM     66  O   UNL A   1      46.062  37.544  32.465  1.00  0.00    -0.237 OA
ATOM     67  O   UNL A   1      43.918  38.210  31.445  1.00  0.00    -0.744 OA
ENDBRANCH  63  64
ENDBRANCH  42  56
BRANCH  43  68
ATOM     68  C   UNL A   1      42.568  23.810  27.606  1.00  0.00     0.058 A 
ATOM     69  C   UNL A   1      42.431  22.737  28.496  1.00  0.00     0.135 A 
ATOM     70  C   UNL A   1      42.508  23.528  26.230  1.00  0.00     0.135 A 
ATOM     71  F   UNL A   1      42.501  22.950  29.819  1.00  0.00    -0.206 F 
ATOM     72  C   UNL A   1      42.253  21.433  28.043  1.00  0.00     0.059 A 
ATOM     73  C   UNL A   1      42.297  22.241  25.753  1.00  0.00     0.059 A 
ATOM     74  F   UNL A   1      42.634  24.519  25.333  1.00  0.00    -0.206 F 
ATOM     75  C   UNL A   1      42.183  21.196  26.668  1.00  0.00     0.060 A 
BRANCH  75  76
ATOM     76  S   UNL A   1      41.909  19.510  26.084  1.00  0.00     0.124 S 
ATOM     77  O   UNL A   1      40.488  19.542  25.756  1.00  0.00    -0.237 OA
ATOM     78  O   UNL A   1      42.824  19.421  24.950  1.00  0.00    -0.237 OA
ATOM     79  O   UNL A   1      42.273  18.694  27.238  1.00  0.00    -0.744 OA
ENDBRANCH  75  76
ENDBRANCH  43  68
BRANCH  55  80
ATOM     80  C   UNL A   1      48.289  27.584  28.905  1.00  0.00     0.058 A 
ATOM     81  C   UNL A   1      49.030  27.948  27.770  1.00  0.00     0.135 A 
ATOM     82  C   UNL A   1      48.975  26.974  29.969  1.00  0.00     0.135 A 
ATOM     83  F   UNL A   1      48.421  28.527  26.723  1.00  0.00    -0.206 F 
ATOM     84  C   UNL A   1      50.396  27.699  27.683  1.00  0.00     0.059 A 
ATOM     85  C   UNL A   1      50.346  26.739  29.913  1.00  0.00     0.059 A 
ATOM     86  F   UNL A   1      48.317  26.615  31.081  1.00  0.00    -0.206 F 
ATOM     87  C   UNL A   1      51.047  27.094  28.762  1.00  0.00     0.060 A 
BRANCH  87  88
ATOM     88  S   UNL A   1      52.827  26.810  28.652  1.00  0.00     0.124 S 
ATOM     89  O   UNL A   1      52.902  25.842  27.563  1.00  0.00    -0.237 OA
ATOM     90  O   UNL A   1      53.340  28.143  28.352  1.00  0.00    -0.237 OA
ATOM     91  O   UNL A   1      53.170  26.295  29.975  1.00  0.00    -0.744 OA
ENDBRANCH  87  88
ENDBRANCH  55  80
ENDBRANCH  29  30
ENDBRANCH  22  24
ENDBRANCH  21  22
ENDBRANCH   1  21
TORSDOF 17
ENDMDL
