MODEL 1
REMARK VINA RESULT:     -11.0      0.000      0.000
REMARK SMILES Cc1nc(CNC(=O)[C@H]2CCO[C@H]2C)sc1C(=O)OCCOC(=O)c1ccc(-c2c3nc(c(-c4c(F)cc(S(=O)(=O)[O-])cc4F)c4ccc([nH]4)c(-c4c(F)cc(S(=O)(=O)[O-])cc4F)c4nc(c(-c5c(F)cc(S(=O)(=O)[O-])cc5F)c5ccc2[nH]5)C=C4)C=C3)cc1
REMARK SMILES IDX 20 1 19 2 17 3 18 4 16 5 1 6 2 7 3 8 4 9 15 10 5 11 6 12
REMARK SMILES IDX 7 13 8 15 9 16 10 17 13 18 11 19 12 20 14 21 21 22 22 23
REMARK SMILES IDX 23 24 24 25 25 26 26 27 90 28 27 29 89 30 28 31 29 32 30 33
REMARK SMILES IDX 83 34 31 35 88 36 82 37 84 38 32 39 87 40 81 41 80 42 33 44
REMARK SMILES IDX 67 45 46 46 66 47 47 48 50 49 65 50 85 51 48 52 49 53 64 55
REMARK SMILES IDX 86 56 51 57 34 58 35 59 44 60 36 61 37 62 43 63 45 64 38 65
REMARK SMILES IDX 39 66 40 67 41 68 42 69 68 70 69 71 78 72 70 73 71 74 77 75
REMARK SMILES IDX 79 76 72 77 73 78 74 79 75 80 76 81 52 82 53 83 62 84 54 85
REMARK SMILES IDX 55 86 61 87 63 88 56 89 57 90 58 91 59 92 60 93
REMARK H PARENT 6 14 84 43 50 54
REMARK Flexibility Score: inf
ROOT
ATOM      1  C   UNL A   1      33.455  30.243  27.216  1.00  0.00     0.275 C 
ENDROOT
BRANCH   1   2
ATOM      2  O   UNL A   1      33.636  28.816  27.328  1.00  0.00    -0.458 OA
BRANCH   2   3
ATOM      3  C   UNL A   1      32.508  28.047  27.288  1.00  0.00     0.350 C 
ATOM      4  O   UNL A   1      31.805  27.827  28.264  1.00  0.00    -0.245 OA
BRANCH   3   5
ATOM      5  C   UNL A   1      32.215  27.626  25.930  1.00  0.00     0.135 A 
ATOM      6  C   UNL A   1      34.103  26.002  25.204  1.00  0.00     0.068 C 
ATOM      7  C   UNL A   1      32.898  26.850  25.004  1.00  0.00     0.063 A 
ATOM      8  N   UNL A   1      32.355  26.871  23.720  1.00  0.00    -0.244 NA
ATOM      9  C   UNL A   1      31.268  27.614  23.686  1.00  0.00     0.113 A 
ATOM     10  S   UNL A   1      30.716  28.118  25.227  1.00  0.00    -0.110 S 
BRANCH   9  11
ATOM     11  C   UNL A   1      30.474  27.996  22.467  1.00  0.00     0.183 C 
BRANCH  11  12
ATOM     12  N   UNL A   1      29.053  28.069  22.759  1.00  0.00    -0.349 N 
ATOM     13  C   UNL A   1      28.176  29.083  22.520  1.00  0.00     0.226 C 
ATOM     14  H   UNL A   1      28.669  27.272  23.192  1.00  0.00     0.163 HD
ATOM     15  O   UNL A   1      26.983  28.912  22.772  1.00  0.00    -0.275 OA
BRANCH  13  16
ATOM     16  C   UNL A   1      28.701  30.382  21.951  1.00  0.00     0.109 C 
ATOM     17  C   UNL A   1      27.865  30.961  20.827  1.00  0.00     0.044 C 
ATOM     18  C   UNL A   1      28.722  31.536  22.949  1.00  0.00     0.127 C 
ATOM     19  C   UNL A   1      28.333  32.399  20.809  1.00  0.00     0.161 C 
ATOM     20  O   UNL A   1      28.688  32.745  22.155  1.00  0.00    -0.378 OA
ATOM     21  C   UNL A   1      27.538  31.598  23.911  1.00  0.00     0.039 C 
ENDBRANCH  13  16
ENDBRANCH  11  12
ENDBRANCH   9  11
ENDBRANCH   3   5
ENDBRANCH   2   3
ENDBRANCH   1   2
BRANCH   1  22
ATOM     22  C   UNL A   1      34.619  31.014  27.846  1.00  0.00     0.275 C 
BRANCH  22  23
ATOM     23  O   UNL A   1      35.384  30.185  28.743  1.00  0.00    -0.458 OA
BRANCH  23  24
ATOM     24  C   UNL A   1      36.392  30.823  29.383  1.00  0.00     0.338 C 
ATOM     25  O   UNL A   1      36.289  31.699  30.225  1.00  0.00    -0.246 OA
BRANCH  24  26
ATOM     26  C   UNL A   1      37.677  30.191  29.051  1.00  0.00     0.060 A 
ATOM     27  C   UNL A   1      38.605  30.083  30.082  1.00  0.00     0.016 A 
ATOM     28  C   UNL A   1      38.023  29.822  27.754  1.00  0.00     0.016 A 
ATOM     29  C   UNL A   1      39.900  29.647  29.831  1.00  0.00     0.010 A 
ATOM     30  C   UNL A   1      39.319  29.343  27.504  1.00  0.00     0.010 A 
ATOM     31  C   UNL A   1      40.274  29.270  28.537  1.00  0.00    -0.014 A 
BRANCH  31  32
ATOM     32  C   UNL A   1      41.676  28.845  28.279  1.00  0.00     0.031 A 
ATOM     33  C   UNL A   1      42.791  29.853  28.327  1.00  0.00     0.074 A 
ATOM     34  C   UNL A   1      41.953  27.546  28.045  1.00  0.00     0.049 A 
ATOM     35  N   UNL A   1      44.058  29.701  28.037  1.00  0.00    -0.248 NA
ATOM     36  C   UNL A   1      42.436  31.216  28.757  1.00  0.00     0.031 C 
ATOM     37  C   UNL A   1      40.966  26.463  28.024  1.00  0.00     0.029 A 
ATOM     38  N   UNL A   1      43.142  26.913  27.781  1.00  0.00    -0.354 N 
ATOM     39  C   UNL A   1      44.643  30.949  28.215  1.00  0.00     0.074 A 
ATOM     40  C   UNL A   1      43.590  31.853  28.623  1.00  0.00     0.031 C 
ATOM     41  C   UNL A   1      41.592  25.302  27.776  1.00  0.00     0.029 A 
ATOM     42  C   UNL A   1      43.009  25.564  27.548  1.00  0.00     0.049 A 
ATOM     43  H   UNL A   1      44.008  27.381  27.761  1.00  0.00     0.167 HD
ATOM     44  C   UNL A   1      45.942  31.305  28.057  1.00  0.00     0.037 A 
ATOM     45  C   UNL A   1      43.914  24.648  27.152  1.00  0.00     0.037 A 
ATOM     46  C   UNL A   1      46.987  30.390  27.672  1.00  0.00     0.049 A 
ATOM     47  C   UNL A   1      45.337  25.079  26.924  1.00  0.00     0.074 A 
ATOM     48  C   UNL A   1      48.335  30.649  27.489  1.00  0.00     0.029 A 
ATOM     49  N   UNL A   1      46.804  29.038  27.415  1.00  0.00    -0.354 N 
ATOM     50  N   UNL A   1      45.871  26.269  27.074  1.00  0.00    -0.248 NA
ATOM     51  C   UNL A   1      46.280  24.050  26.466  1.00  0.00     0.031 C 
ATOM     52  C   UNL A   1      48.957  29.468  27.075  1.00  0.00     0.029 A 
ATOM     53  C   UNL A   1      48.009  28.457  27.056  1.00  0.00     0.049 A 
ATOM     54  H   UNL A   1      45.945  28.563  27.478  1.00  0.00     0.167 HD
ATOM     55  C   UNL A   1      47.215  26.125  26.749  1.00  0.00     0.074 A 
ATOM     56  C   UNL A   1      47.416  24.730  26.413  1.00  0.00     0.031 C 
ATOM     57  C   UNL A   1      48.195  27.063  26.732  1.00  0.00     0.037 A 
BRANCH  44  58
ATOM     58  C   UNL A   1      46.304  32.752  28.265  1.00  0.00     0.058 A 
ATOM     59  C   UNL A   1      46.751  33.237  29.504  1.00  0.00     0.135 A 
ATOM     60  C   UNL A   1      46.238  33.659  27.195  1.00  0.00     0.135 A 
ATOM     61  F   UNL A   1      46.817  32.419  30.567  1.00  0.00    -0.206 F 
ATOM     62  C   UNL A   1      47.094  34.575  29.682  1.00  0.00     0.059 A 
ATOM     63  C   UNL A   1      46.605  34.995  27.342  1.00  0.00     0.059 A 
ATOM     64  F   UNL A   1      45.818  33.251  25.987  1.00  0.00    -0.206 F 
ATOM     65  C   UNL A   1      47.018  35.445  28.593  1.00  0.00     0.060 A 
BRANCH  65  66
ATOM     66  S   UNL A   1      47.470  37.176  28.839  1.00  0.00     0.124 S 
ATOM     67  O   UNL A   1      48.852  37.187  28.369  1.00  0.00    -0.237 OA
ATOM     68  O   UNL A   1      46.507  37.872  27.990  1.00  0.00    -0.237 OA
ATOM     69  O   UNL A   1      47.294  37.375  30.274  1.00  0.00    -0.744 OA
ENDBRANCH  65  66
ENDBRANCH  44  58
BRANCH  45  70
ATOM     70  C   UNL A   1      43.491  23.242  26.907  1.00  0.00     0.058 A 
ATOM     71  C   UNL A   1      43.389  22.727  25.607  1.00  0.00     0.135 A 
ATOM     72  C   UNL A   1      43.187  22.381  27.975  1.00  0.00     0.135 A 
ATOM     73  F   UNL A   1      43.659  23.510  24.552  1.00  0.00    -0.206 F 
ATOM     74  C   UNL A   1      42.988  21.415  25.372  1.00  0.00     0.059 A 
ATOM     75  C   UNL A   1      42.814  21.058  27.767  1.00  0.00     0.059 A 
ATOM     76  F   UNL A   1      43.278  22.820  29.241  1.00  0.00    -0.206 F 
ATOM     77  C   UNL A   1      42.706  20.587  26.461  1.00  0.00     0.060 A 
BRANCH  77  78
ATOM     78  S   UNL A   1      42.231  18.873  26.147  1.00  0.00     0.124 S 
ATOM     79  O   UNL A   1      43.137  18.511  25.064  1.00  0.00    -0.237 OA
ATOM     80  O   UNL A   1      42.492  18.242  27.437  1.00  0.00    -0.237 OA
ATOM     81  O   UNL A   1      40.821  18.977  25.782  1.00  0.00    -0.744 OA
ENDBRANCH  77  78
ENDBRANCH  45  70
BRANCH  57  82
ATOM     82  C   UNL A   1      49.583  26.606  26.375  1.00  0.00     0.058 A 
ATOM     83  C   UNL A   1      50.074  26.681  25.061  1.00  0.00     0.135 A 
ATOM     84  C   UNL A   1      50.450  26.130  27.373  1.00  0.00     0.135 A 
ATOM     85  F   UNL A   1      49.284  27.121  24.069  1.00  0.00    -0.206 F 
ATOM     86  C   UNL A   1      51.368  26.279  24.745  1.00  0.00     0.059 A 
ATOM     87  C   UNL A   1      51.757  25.751  27.084  1.00  0.00     0.059 A 
ATOM     88  F   UNL A   1      50.035  26.046  28.646  1.00  0.00    -0.206 F 
ATOM     89  C   UNL A   1      52.203  25.817  25.765  1.00  0.00     0.060 A 
BRANCH  89  90
ATOM     90  S   UNL A   1      53.890  25.330  25.347  1.00  0.00     0.124 S 
ATOM     91  O   UNL A   1      54.647  25.924  26.444  1.00  0.00    -0.237 OA
ATOM     92  O   UNL A   1      53.805  23.872  25.352  1.00  0.00    -0.237 OA
ATOM     93  O   UNL A   1      54.105  25.935  24.036  1.00  0.00    -0.744 OA
ENDBRANCH  89  90
ENDBRANCH  57  82
ENDBRANCH  31  32
ENDBRANCH  24  26
ENDBRANCH  23  24
ENDBRANCH  22  23
ENDBRANCH   1  22
TORSDOF 17
ENDMDL
MODEL 2
REMARK VINA RESULT:     -10.9      7.070     11.965
REMARK SMILES Cc1nc(CNC(=O)[C@H]2CCO[C@H]2C)sc1C(=O)OCCOC(=O)c1ccc(-c2c3nc(c(-c4c(F)cc(S(=O)(=O)[O-])cc4F)c4ccc([nH]4)c(-c4c(F)cc(S(=O)(=O)[O-])cc4F)c4nc(c(-c5c(F)cc(S(=O)(=O)[O-])cc5F)c5ccc2[nH]5)C=C4)C=C3)cc1
REMARK SMILES IDX 20 1 19 2 17 3 18 4 16 5 1 6 2 7 3 8 4 9 15 10 5 11 6 12
REMARK SMILES IDX 7 13 8 15 9 16 10 17 13 18 11 19 12 20 14 21 21 22 22 23
REMARK SMILES IDX 23 24 24 25 25 26 26 27 90 28 27 29 89 30 28 31 29 32 30 33
REMARK SMILES IDX 83 34 31 35 88 36 82 37 84 38 32 39 87 40 81 41 80 42 33 44
REMARK SMILES IDX 67 45 46 46 66 47 47 48 50 49 65 50 85 51 48 52 49 53 64 55
REMARK SMILES IDX 86 56 51 57 34 58 35 59 44 60 36 61 37 62 43 63 45 64 38 65
REMARK SMILES IDX 39 66 40 67 41 68 42 69 68 70 69 71 78 72 70 73 71 74 77 75
REMARK SMILES IDX 79 76 72 77 73 78 74 79 75 80 76 81 52 82 53 83 62 84 54 85
REMARK SMILES IDX 55 86 61 87 63 88 56 89 57 90 58 91 59 92 60 93
REMARK H PARENT 6 14 84 43 50 54
REMARK Flexibility Score: inf
ROOT
ATOM      1  C   UNL A   1      39.588  21.546  26.043  1.00  0.00     0.275 C 
ENDROOT
BRANCH   1   2
ATOM      2  O   UNL A   1      38.181  21.744  25.791  1.00  0.00    -0.458 OA
BRANCH   2   3
ATOM      3  C   UNL A   1      37.532  20.751  25.113  1.00  0.00     0.350 C 
ATOM      4  O   UNL A   1      37.967  19.614  25.000  1.00  0.00    -0.245 OA
BRANCH   3   5
ATOM      5  C   UNL A   1      36.235  21.204  24.646  1.00  0.00     0.135 A 
ATOM      6  C   UNL A   1      36.636  23.301  23.173  1.00  0.00     0.068 C 
ATOM      7  C   UNL A   1      35.816  22.306  23.914  1.00  0.00     0.063 A 
ATOM      8  N   UNL A   1      34.433  22.479  23.869  1.00  0.00    -0.244 NA
ATOM      9  C   UNL A   1      33.821  21.511  24.518  1.00  0.00     0.113 A 
ATOM     10  S   UNL A   1      34.852  20.231  25.001  1.00  0.00    -0.110 S 
BRANCH   9  11
ATOM     11  C   UNL A   1      32.350  21.411  24.812  1.00  0.00     0.183 C 
BRANCH  11  12
ATOM     12  N   UNL A   1      32.031  21.952  26.122  1.00  0.00    -0.349 N 
ATOM     13  C   UNL A   1      31.440  23.136  26.445  1.00  0.00     0.226 C 
ATOM     14  H   UNL A   1      32.277  21.381  26.886  1.00  0.00     0.163 HD
ATOM     15  O   UNL A   1      31.181  23.372  27.625  1.00  0.00    -0.275 OA
BRANCH  13  16
ATOM     16  C   UNL A   1      31.122  24.117  25.338  1.00  0.00     0.109 C 
ATOM     17  C   UNL A   1      30.152  25.214  25.728  1.00  0.00     0.044 C 
ATOM     18  C   UNL A   1      32.325  24.923  24.855  1.00  0.00     0.127 C 
ATOM     19  C   UNL A   1      30.402  26.241  24.648  1.00  0.00     0.161 C 
ATOM     20  O   UNL A   1      31.781  26.128  24.270  1.00  0.00    -0.378 OA
ATOM     21  C   UNL A   1      33.308  25.355  25.941  1.00  0.00     0.039 C 
ENDBRANCH  13  16
ENDBRANCH  11  12
ENDBRANCH   9  11
ENDBRANCH   3   5
ENDBRANCH   2   3
ENDBRANCH   1   2
BRANCH   1  22
ATOM     22  C   UNL A   1      40.133  22.569  27.045  1.00  0.00     0.275 C 
BRANCH  22  23
ATOM     23  O   UNL A   1      39.677  23.903  26.747  1.00  0.00    -0.458 OA
BRANCH  23  24
ATOM     24  C   UNL A   1      40.648  24.846  26.736  1.00  0.00     0.338 C 
ATOM     25  O   UNL A   1      41.544  24.966  25.917  1.00  0.00    -0.246 OA
BRANCH  24  26
ATOM     26  C   UNL A   1      40.386  25.850  27.777  1.00  0.00     0.060 A 
ATOM     27  C   UNL A   1      41.322  26.870  27.912  1.00  0.00     0.016 A 
ATOM     28  C   UNL A   1      39.329  25.744  28.678  1.00  0.00     0.016 A 
ATOM     29  C   UNL A   1      41.245  27.771  28.965  1.00  0.00     0.010 A 
ATOM     30  C   UNL A   1      39.226  26.678  29.720  1.00  0.00     0.010 A 
ATOM     31  C   UNL A   1      40.194  27.687  29.884  1.00  0.00    -0.014 A 
BRANCH  31  32
ATOM     32  C   UNL A   1      40.151  28.636  31.030  1.00  0.00     0.031 A 
ATOM     33  C   UNL A   1      39.180  29.786  31.020  1.00  0.00     0.074 A 
ATOM     34  C   UNL A   1      40.951  28.440  32.096  1.00  0.00     0.049 A 
ATOM     35  N   UNL A   1      39.057  30.771  31.872  1.00  0.00    -0.248 NA
ATOM     36  C   UNL A   1      38.222  29.837  29.904  1.00  0.00     0.031 C 
ATOM     37  C   UNL A   1      41.897  27.332  32.249  1.00  0.00     0.029 A 
ATOM     38  N   UNL A   1      41.098  29.161  33.255  1.00  0.00    -0.354 N 
ATOM     39  C   UNL A   1      38.035  31.575  31.381  1.00  0.00     0.074 A 
ATOM     40  C   UNL A   1      37.582  30.972  30.146  1.00  0.00     0.031 C 
ATOM     41  C   UNL A   1      42.515  27.440  33.436  1.00  0.00     0.029 A 
ATOM     42  C   UNL A   1      42.064  28.661  34.097  1.00  0.00     0.049 A 
ATOM     43  H   UNL A   1      40.562  29.960  33.464  1.00  0.00     0.167 HD
ATOM     44  C   UNL A   1      37.520  32.710  31.914  1.00  0.00     0.037 A 
ATOM     45  C   UNL A   1      42.565  29.150  35.249  1.00  0.00     0.037 A 
ATOM     46  C   UNL A   1      37.963  33.289  33.157  1.00  0.00     0.049 A 
ATOM     47  C   UNL A   1      42.019  30.443  35.790  1.00  0.00     0.074 A 
ATOM     48  C   UNL A   1      37.504  34.434  33.786  1.00  0.00     0.029 A 
ATOM     49  N   UNL A   1      38.966  32.769  33.963  1.00  0.00    -0.354 N 
ATOM     50  N   UNL A   1      41.069  31.205  35.301  1.00  0.00    -0.248 NA
ATOM     51  C   UNL A   1      42.616  30.949  37.033  1.00  0.00     0.031 C 
ATOM     52  C   UNL A   1      38.260  34.631  34.946  1.00  0.00     0.029 A 
ATOM     53  C   UNL A   1      39.153  33.579  35.071  1.00  0.00     0.049 A 
ATOM     54  H   UNL A   1      39.471  31.945  33.775  1.00  0.00     0.167 HD
ATOM     55  C   UNL A   1      40.940  32.267  36.188  1.00  0.00     0.074 A 
ATOM     56  C   UNL A   1      41.898  32.041  37.252  1.00  0.00     0.031 C 
ATOM     57  C   UNL A   1      40.105  33.335  36.128  1.00  0.00     0.037 A 
BRANCH  44  58
ATOM     58  C   UNL A   1      36.441  33.423  31.142  1.00  0.00     0.058 A 
ATOM     59  C   UNL A   1      36.710  34.118  29.953  1.00  0.00     0.135 A 
ATOM     60  C   UNL A   1      35.107  33.375  31.581  1.00  0.00     0.135 A 
ATOM     61  F   UNL A   1      37.969  34.211  29.495  1.00  0.00    -0.206 F 
ATOM     62  C   UNL A   1      35.702  34.762  29.241  1.00  0.00     0.059 A 
ATOM     63  C   UNL A   1      34.078  33.987  30.870  1.00  0.00     0.059 A 
ATOM     64  F   UNL A   1      34.791  32.725  32.713  1.00  0.00    -0.206 F 
ATOM     65  C   UNL A   1      34.389  34.690  29.708  1.00  0.00     0.060 A 
BRANCH  65  66
ATOM     66  S   UNL A   1      33.092  35.529  28.773  1.00  0.00     0.124 S 
ATOM     67  O   UNL A   1      32.532  34.427  27.997  1.00  0.00    -0.237 OA
ATOM     68  O   UNL A   1      32.237  36.057  29.831  1.00  0.00    -0.237 OA
ATOM     69  O   UNL A   1      33.821  36.531  28.002  1.00  0.00    -0.744 OA
ENDBRANCH  65  66
ENDBRANCH  44  58
BRANCH  45  70
ATOM     70  C   UNL A   1      43.669  28.434  35.943  1.00  0.00     0.058 A 
ATOM     71  C   UNL A   1      45.010  28.788  35.739  1.00  0.00     0.135 A 
ATOM     72  C   UNL A   1      43.402  27.381  36.834  1.00  0.00     0.135 A 
ATOM     73  F   UNL A   1      45.320  29.781  34.891  1.00  0.00    -0.206 F 
ATOM     74  C   UNL A   1      46.048  28.118  36.381  1.00  0.00     0.059 A 
ATOM     75  C   UNL A   1      44.419  26.717  37.511  1.00  0.00     0.059 A 
ATOM     76  F   UNL A   1      42.135  27.007  37.074  1.00  0.00    -0.206 F 
ATOM     77  C   UNL A   1      45.740  27.085  37.269  1.00  0.00     0.060 A 
BRANCH  77  78
ATOM     78  S   UNL A   1      47.091  26.252  38.132  1.00  0.00     0.124 S 
ATOM     79  O   UNL A   1      46.538  26.110  39.473  1.00  0.00    -0.237 OA
ATOM     80  O   UNL A   1      47.230  25.018  37.363  1.00  0.00    -0.237 OA
ATOM     81  O   UNL A   1      48.201  27.191  38.002  1.00  0.00    -0.744 OA
ENDBRANCH  77  78
ENDBRANCH  45  70
BRANCH  57  82
ATOM     82  C   UNL A   1      40.159  34.320  37.263  1.00  0.00     0.058 A 
ATOM     83  C   UNL A   1      39.366  34.171  38.412  1.00  0.00     0.135 A 
ATOM     84  C   UNL A   1      41.055  35.402  37.219  1.00  0.00     0.135 A 
ATOM     85  F   UNL A   1      38.489  33.160  38.501  1.00  0.00    -0.206 F 
ATOM     86  C   UNL A   1      39.442  35.074  39.468  1.00  0.00     0.059 A 
ATOM     87  C   UNL A   1      41.168  36.299  38.276  1.00  0.00     0.059 A 
ATOM     88  F   UNL A   1      41.843  35.585  36.148  1.00  0.00    -0.206 F 
ATOM     89  C   UNL A   1      40.348  36.135  39.391  1.00  0.00     0.060 A 
BRANCH  89  90
ATOM     90  S   UNL A   1      40.459  37.279  40.783  1.00  0.00     0.124 S 
ATOM     91  O   UNL A   1      39.060  37.650  40.970  1.00  0.00    -0.237 OA
ATOM     92  O   UNL A   1      41.039  36.442  41.829  1.00  0.00    -0.237 OA
ATOM     93  O   UNL A   1      41.328  38.340  40.283  1.00  0.00    -0.744 OA
ENDBRANCH  89  90
ENDBRANCH  57  82
ENDBRANCH  31  32
ENDBRANCH  24  26
ENDBRANCH  23  24
ENDBRANCH  22  23
ENDBRANCH   1  22
TORSDOF 17
ENDMDL
MODEL 3
REMARK VINA RESULT:     -10.9      1.977      3.798
REMARK SMILES Cc1nc(CNC(=O)[C@H]2CCO[C@H]2C)sc1C(=O)OCCOC(=O)c1ccc(-c2c3nc(c(-c4c(F)cc(S(=O)(=O)[O-])cc4F)c4ccc([nH]4)c(-c4c(F)cc(S(=O)(=O)[O-])cc4F)c4nc(c(-c5c(F)cc(S(=O)(=O)[O-])cc5F)c5ccc2[nH]5)C=C4)C=C3)cc1
REMARK SMILES IDX 20 1 19 2 17 3 18 4 16 5 1 6 2 7 3 8 4 9 15 10 5 11 6 12
REMARK SMILES IDX 7 13 8 15 9 16 10 17 13 18 11 19 12 20 14 21 21 22 22 23
REMARK SMILES IDX 23 24 24 25 25 26 26 27 90 28 27 29 89 30 28 31 29 32 30 33
REMARK SMILES IDX 83 34 31 35 88 36 82 37 84 38 32 39 87 40 81 41 80 42 33 44
REMARK SMILES IDX 67 45 46 46 66 47 47 48 50 49 65 50 85 51 48 52 49 53 64 55
REMARK SMILES IDX 86 56 51 57 34 58 35 59 44 60 36 61 37 62 43 63 45 64 38 65
REMARK SMILES IDX 39 66 40 67 41 68 42 69 68 70 69 71 78 72 70 73 71 74 77 75
REMARK SMILES IDX 79 76 72 77 73 78 74 79 75 80 76 81 52 82 53 83 62 84 54 85
REMARK SMILES IDX 55 86 61 87 63 88 56 89 57 90 58 91 59 92 60 93
REMARK H PARENT 6 14 84 43 50 54
REMARK Flexibility Score: inf
ROOT
ATOM      1  C   UNL A   1      33.553  29.531  26.296  1.00  0.00     0.275 C 
ENDROOT
BRANCH   1   2
ATOM      2  O   UNL A   1      32.276  28.860  26.269  1.00  0.00    -0.458 OA
BRANCH   2   3
ATOM      3  C   UNL A   1      31.897  28.307  25.079  1.00  0.00     0.350 C 
ATOM      4  O   UNL A   1      31.943  28.902  24.012  1.00  0.00    -0.245 OA
BRANCH   3   5
ATOM      5  C   UNL A   1      31.539  26.911  25.246  1.00  0.00     0.135 A 
ATOM      6  C   UNL A   1      29.257  26.554  24.065  1.00  0.00     0.068 C 
ATOM      7  C   UNL A   1      30.413  26.168  24.917  1.00  0.00     0.063 A 
ATOM      8  N   UNL A   1      30.389  24.883  25.459  1.00  0.00    -0.244 NA
ATOM      9  C   UNL A   1      31.486  24.648  26.147  1.00  0.00     0.113 A 
ATOM     10  S   UNL A   1      32.692  25.853  25.978  1.00  0.00    -0.110 S 
BRANCH   9  11
ATOM     11  C   UNL A   1      31.780  23.437  26.990  1.00  0.00     0.183 C 
BRANCH  11  12
ATOM     12  N   UNL A   1      31.481  22.207  26.277  1.00  0.00    -0.349 N 
ATOM     13  C   UNL A   1      32.327  21.367  25.618  1.00  0.00     0.226 C 
ATOM     14  H   UNL A   1      30.533  21.943  26.268  1.00  0.00     0.163 HD
ATOM     15  O   UNL A   1      31.880  20.322  25.144  1.00  0.00    -0.275 OA
BRANCH  13  16
ATOM     16  C   UNL A   1      33.786  21.749  25.496  1.00  0.00     0.109 C 
ATOM     17  C   UNL A   1      34.713  20.596  25.168  1.00  0.00     0.044 C 
ATOM     18  C   UNL A   1      34.082  22.720  24.357  1.00  0.00     0.127 C 
ATOM     19  C   UNL A   1      35.936  21.324  24.658  1.00  0.00     0.161 C 
ATOM     20  O   UNL A   1      35.478  22.531  24.031  1.00  0.00    -0.378 OA
ATOM     21  C   UNL A   1      33.287  22.494  23.074  1.00  0.00     0.039 C 
ENDBRANCH  13  16
ENDBRANCH  11  12
ENDBRANCH   9  11
ENDBRANCH   3   5
ENDBRANCH   2   3
ENDBRANCH   1   2
BRANCH   1  22
ATOM     22  C   UNL A   1      34.175  29.510  27.696  1.00  0.00     0.275 C 
BRANCH  22  23
ATOM     23  O   UNL A   1      35.614  29.506  27.641  1.00  0.00    -0.458 OA
BRANCH  23  24
ATOM     24  C   UNL A   1      36.225  30.057  28.716  1.00  0.00     0.338 C 
ATOM     25  O   UNL A   1      35.686  30.542  29.697  1.00  0.00    -0.246 OA
BRANCH  24  26
ATOM     26  C   UNL A   1      37.676  29.843  28.635  1.00  0.00     0.060 A 
ATOM     27  C   UNL A   1      38.216  29.693  27.361  1.00  0.00     0.016 A 
ATOM     28  C   UNL A   1      38.478  29.671  29.761  1.00  0.00     0.016 A 
ATOM     29  C   UNL A   1      39.545  29.330  27.189  1.00  0.00     0.010 A 
ATOM     30  C   UNL A   1      39.832  29.344  29.590  1.00  0.00     0.010 A 
ATOM     31  C   UNL A   1      40.372  29.151  28.303  1.00  0.00    -0.014 A 
BRANCH  31  32
ATOM     32  C   UNL A   1      41.783  28.723  28.102  1.00  0.00     0.031 A 
ATOM     33  C   UNL A   1      42.897  29.730  28.191  1.00  0.00     0.074 A 
ATOM     34  C   UNL A   1      42.067  27.423  27.884  1.00  0.00     0.049 A 
ATOM     35  N   UNL A   1      44.174  29.575  27.951  1.00  0.00    -0.248 NA
ATOM     36  C   UNL A   1      42.527  31.094  28.601  1.00  0.00     0.031 C 
ATOM     37  C   UNL A   1      41.080  26.341  27.828  1.00  0.00     0.029 A 
ATOM     38  N   UNL A   1      43.264  26.788  27.669  1.00  0.00    -0.354 N 
ATOM     39  C   UNL A   1      44.754  30.822  28.148  1.00  0.00     0.074 A 
ATOM     40  C   UNL A   1      43.687  31.730  28.511  1.00  0.00     0.031 C 
ATOM     41  C   UNL A   1      41.713  25.178  27.609  1.00  0.00     0.029 A 
ATOM     42  C   UNL A   1      43.139  25.438  27.436  1.00  0.00     0.049 A 
ATOM     43  H   UNL A   1      44.131  27.254  27.682  1.00  0.00     0.167 HD
ATOM     44  C   UNL A   1      46.058  31.176  28.039  1.00  0.00     0.037 A 
ATOM     45  C   UNL A   1      44.057  24.519  27.079  1.00  0.00     0.037 A 
ATOM     46  C   UNL A   1      47.116  30.258  27.699  1.00  0.00     0.049 A 
ATOM     47  C   UNL A   1      45.488  24.947  26.906  1.00  0.00     0.074 A 
ATOM     48  C   UNL A   1      48.470  30.515  27.568  1.00  0.00     0.029 A 
ATOM     49  N   UNL A   1      46.941  28.905  27.440  1.00  0.00    -0.354 N 
ATOM     50  N   UNL A   1      46.018  26.136  27.072  1.00  0.00    -0.248 NA
ATOM     51  C   UNL A   1      46.447  23.915  26.489  1.00  0.00     0.031 C 
ATOM     52  C   UNL A   1      49.106  29.331  27.184  1.00  0.00     0.029 A 
ATOM     53  C   UNL A   1      48.159  28.321  27.130  1.00  0.00     0.049 A 
ATOM     54  H   UNL A   1      46.079  28.432  27.471  1.00  0.00     0.167 HD
ATOM     55  C   UNL A   1      47.374  25.989  26.801  1.00  0.00     0.074 A 
ATOM     56  C   UNL A   1      47.585  24.593  26.478  1.00  0.00     0.031 C 
ATOM     57  C   UNL A   1      48.355  26.926  26.819  1.00  0.00     0.037 A 
BRANCH  44  58
ATOM     58  C   UNL A   1      46.414  32.623  28.257  1.00  0.00     0.058 A 
ATOM     59  C   UNL A   1      46.843  33.106  29.503  1.00  0.00     0.135 A 
ATOM     60  C   UNL A   1      46.361  33.534  27.188  1.00  0.00     0.135 A 
ATOM     61  F   UNL A   1      46.897  32.285  30.564  1.00  0.00    -0.206 F 
ATOM     62  C   UNL A   1      47.181  34.444  29.689  1.00  0.00     0.059 A 
ATOM     63  C   UNL A   1      46.722  34.869  27.343  1.00  0.00     0.059 A 
ATOM     64  F   UNL A   1      45.957  33.127  25.973  1.00  0.00    -0.206 F 
ATOM     65  C   UNL A   1      47.118  35.318  28.601  1.00  0.00     0.060 A 
BRANCH  65  66
ATOM     66  S   UNL A   1      47.562  37.049  28.858  1.00  0.00     0.124 S 
ATOM     67  O   UNL A   1      49.019  36.979  28.863  1.00  0.00    -0.237 OA
ATOM     68  O   UNL A   1      46.963  37.698  27.696  1.00  0.00    -0.237 OA
ATOM     69  O   UNL A   1      46.946  37.373  30.141  1.00  0.00    -0.744 OA
ENDBRANCH  65  66
ENDBRANCH  44  58
BRANCH  45  70
ATOM     70  C   UNL A   1      43.641  23.112  26.823  1.00  0.00     0.058 A 
ATOM     71  C   UNL A   1      43.663  22.569  25.531  1.00  0.00     0.135 A 
ATOM     72  C   UNL A   1      43.220  22.280  27.873  1.00  0.00     0.135 A 
ATOM     73  F   UNL A   1      44.048  23.326  24.492  1.00  0.00    -0.206 F 
ATOM     74  C   UNL A   1      43.270  21.257  25.285  1.00  0.00     0.059 A 
ATOM     75  C   UNL A   1      42.852  20.956  27.657  1.00  0.00     0.059 A 
ATOM     76  F   UNL A   1      43.190  22.745  29.132  1.00  0.00    -0.206 F 
ATOM     77  C   UNL A   1      42.869  20.457  26.357  1.00  0.00     0.060 A 
BRANCH  77  78
ATOM     78  S   UNL A   1      42.405  18.742  26.033  1.00  0.00     0.124 S 
ATOM     79  O   UNL A   1      43.292  18.401  24.928  1.00  0.00    -0.237 OA
ATOM     80  O   UNL A   1      42.699  18.099  27.311  1.00  0.00    -0.237 OA
ATOM     81  O   UNL A   1      40.987  18.836  25.699  1.00  0.00    -0.744 OA
ENDBRANCH  77  78
ENDBRANCH  45  70
BRANCH  57  82
ATOM     82  C   UNL A   1      49.755  26.466  26.518  1.00  0.00     0.058 A 
ATOM     83  C   UNL A   1      50.287  26.510  25.220  1.00  0.00     0.135 A 
ATOM     84  C   UNL A   1      50.591  26.020  27.555  1.00  0.00     0.135 A 
ATOM     85  F   UNL A   1      49.528  26.920  24.192  1.00  0.00    -0.206 F 
ATOM     86  C   UNL A   1      51.592  26.105  24.956  1.00  0.00     0.059 A 
ATOM     87  C   UNL A   1      51.908  25.638  27.319  1.00  0.00     0.059 A 
ATOM     88  F   UNL A   1      50.136  25.966  28.816  1.00  0.00    -0.206 F 
ATOM     89  C   UNL A   1      52.396  25.672  26.013  1.00  0.00     0.060 A 
BRANCH  89  90
ATOM     90  S   UNL A   1      54.097  25.181  25.661  1.00  0.00     0.124 S 
ATOM     91  O   UNL A   1      54.264  25.662  24.293  1.00  0.00    -0.237 OA
ATOM     92  O   UNL A   1      54.848  25.905  26.684  1.00  0.00    -0.237 OA
ATOM     93  O   UNL A   1      54.073  23.730  25.818  1.00  0.00    -0.744 OA
ENDBRANCH  89  90
ENDBRANCH  57  82
ENDBRANCH  31  32
ENDBRANCH  24  26
ENDBRANCH  23  24
ENDBRANCH  22  23
ENDBRANCH   1  22
TORSDOF 17
ENDMDL
