MODEL 1
REMARK VINA RESULT:     -12.5      0.000      0.000
REMARK SMILES O=C(OCCOC(=O)c1ccc2[nH]c3c(c2c1)CN(C(=O)C1CC1)CC3)c1ccc(-c2c3nc(c(-c4c(F)cc(S(=O)(=O)[O-])cc4F)c4ccc([nH]4)c(-c4c(F)cc(S(=O)(=O)[O-])cc4F)c4nc(c(-c5c(F)cc(S(=O)(=O)[O-])cc5F)c5ccc2[nH]5)C=C4)C=C3)cc1
REMARK SMILES IDX 4 1 3 2 2 3 1 4 27 5 28 6 92 7 29 8 91 9 30 10 31 11 32 12
REMARK SMILES IDX 85 13 33 14 90 15 84 16 86 17 34 18 89 19 83 20 82 21 35 23
REMARK SMILES IDX 69 24 48 25 68 26 49 27 52 28 67 29 87 30 50 31 51 32 66 34
REMARK SMILES IDX 88 35 53 36 36 37 37 38 46 39 38 40 39 41 45 42 47 43 40 44
REMARK SMILES IDX 41 45 42 46 43 47 44 48 70 49 71 50 80 51 72 52 73 53 79 54
REMARK SMILES IDX 81 55 74 56 75 57 76 58 77 59 78 60 54 61 55 62 64 63 56 64
REMARK SMILES IDX 57 65 63 66 65 67 58 68 59 69 60 70 61 71 62 72 5 73 6 74
REMARK SMILES IDX 7 75 8 76 9 77 10 78 17 79 11 80 16 81 12 82 15 83 13 84
REMARK SMILES IDX 14 85 18 86 26 88 19 89 25 90 20 91 21 92 22 93 23 94 24 95
REMARK H PARENT 86 22 52 33 13 87
REMARK Flexibility Score: inf
ROOT
ATOM      1  C   UNL A   1      45.473  20.146  24.286  1.00  0.00     0.275 C 
ENDROOT
BRANCH   1   2
ATOM      2  O   UNL A   1      44.731  21.351  23.939  1.00  0.00    -0.458 OA
BRANCH   2   3
ATOM      3  C   UNL A   1      45.072  22.641  24.226  1.00  0.00     0.338 C 
ATOM      4  O   UNL A   1      45.991  23.214  23.655  1.00  0.00    -0.246 OA
BRANCH   3   5
ATOM      5  C   UNL A   1      44.379  23.275  25.364  1.00  0.00     0.060 A 
ATOM      6  C   UNL A   1      43.278  24.061  25.053  1.00  0.00     0.016 A 
ATOM      7  C   UNL A   1      44.973  23.336  26.628  1.00  0.00     0.016 A 
ATOM      8  C   UNL A   1      43.009  25.136  25.878  1.00  0.00     0.010 A 
ATOM      9  C   UNL A   1      44.695  24.417  27.457  1.00  0.00     0.010 A 
ATOM     10  C   UNL A   1      43.787  25.381  27.028  1.00  0.00    -0.014 A 
BRANCH  10  11
ATOM     11  C   UNL A   1      43.364  26.507  27.877  1.00  0.00     0.031 A 
ATOM     12  C   UNL A   1      44.431  27.547  27.877  1.00  0.00     0.074 A 
ATOM     13  C   UNL A   1      42.177  26.659  28.507  1.00  0.00     0.049 A 
ATOM     14  N   UNL A   1      45.132  27.965  28.880  1.00  0.00    -0.248 NA
ATOM     15  C   UNL A   1      44.969  27.945  26.557  1.00  0.00     0.031 C 
ATOM     16  C   UNL A   1      41.003  25.786  28.434  1.00  0.00     0.029 A 
ATOM     17  N   UNL A   1      41.721  27.690  29.290  1.00  0.00    -0.354 N 
ATOM     18  C   UNL A   1      46.042  28.858  28.325  1.00  0.00     0.074 A 
ATOM     19  C   UNL A   1      46.062  28.617  26.910  1.00  0.00     0.031 C 
ATOM     20  C   UNL A   1      39.920  26.441  28.916  1.00  0.00     0.029 A 
ATOM     21  C   UNL A   1      40.330  27.737  29.429  1.00  0.00     0.049 A 
ATOM     22  H   UNL A   1      42.323  28.343  29.716  1.00  0.00     0.167 HD
ATOM     23  C   UNL A   1      46.446  29.957  29.010  1.00  0.00     0.037 A 
ATOM     24  C   UNL A   1      39.575  28.785  29.864  1.00  0.00     0.037 A 
ATOM     25  C   UNL A   1      46.297  29.777  30.427  1.00  0.00     0.049 A 
ATOM     26  C   UNL A   1      40.482  29.685  30.614  1.00  0.00     0.074 A 
ATOM     27  C   UNL A   1      46.852  28.937  31.369  1.00  0.00     0.029 A 
ATOM     28  N   UNL A   1      45.158  30.300  30.979  1.00  0.00    -0.354 N 
ATOM     29  N   UNL A   1      41.021  29.393  31.762  1.00  0.00    -0.248 NA
ATOM     30  C   UNL A   1      41.104  30.786  29.893  1.00  0.00     0.031 C 
ATOM     31  C   UNL A   1      45.829  28.719  32.337  1.00  0.00     0.029 A 
ATOM     32  C   UNL A   1      44.713  29.475  31.977  1.00  0.00     0.049 A 
ATOM     33  H   UNL A   1      44.725  31.141  30.703  1.00  0.00     0.167 HD
ATOM     34  C   UNL A   1      42.284  29.956  31.708  1.00  0.00     0.074 A 
ATOM     35  C   UNL A   1      42.229  30.904  30.600  1.00  0.00     0.031 C 
ATOM     36  C   UNL A   1      43.324  29.387  32.379  1.00  0.00     0.037 A 
BRANCH  23  37
ATOM     37  C   UNL A   1      46.506  31.311  28.344  1.00  0.00     0.058 A 
ATOM     38  C   UNL A   1      45.334  31.893  27.834  1.00  0.00     0.135 A 
ATOM     39  C   UNL A   1      47.716  31.940  27.958  1.00  0.00     0.135 A 
ATOM     40  F   UNL A   1      44.135  31.346  28.091  1.00  0.00    -0.206 F 
ATOM     41  C   UNL A   1      45.365  33.007  26.992  1.00  0.00     0.059 A 
ATOM     42  C   UNL A   1      47.767  33.084  27.180  1.00  0.00     0.059 A 
ATOM     43  F   UNL A   1      48.919  31.417  28.226  1.00  0.00    -0.206 F 
ATOM     44  C   UNL A   1      46.589  33.596  26.675  1.00  0.00     0.060 A 
BRANCH  44  45
ATOM     45  S   UNL A   1      46.646  35.000  25.553  1.00  0.00     0.124 S 
ATOM     46  O   UNL A   1      45.716  34.577  24.512  1.00  0.00    -0.237 OA
ATOM     47  O   UNL A   1      46.196  36.089  26.414  1.00  0.00    -0.237 OA
ATOM     48  O   UNL A   1      48.050  35.060  25.160  1.00  0.00    -0.744 OA
ENDBRANCH  44  45
ENDBRANCH  23  37
BRANCH  24  49
ATOM     49  C   UNL A   1      38.223  29.256  29.419  1.00  0.00     0.058 A 
ATOM     50  C   UNL A   1      37.213  29.569  30.357  1.00  0.00     0.135 A 
ATOM     51  C   UNL A   1      37.991  29.712  28.108  1.00  0.00     0.135 A 
ATOM     52  F   UNL A   1      37.335  29.182  31.637  1.00  0.00    -0.206 F 
ATOM     53  C   UNL A   1      36.098  30.358  30.036  1.00  0.00     0.059 A 
ATOM     54  C   UNL A   1      36.883  30.489  27.762  1.00  0.00     0.059 A 
ATOM     55  F   UNL A   1      38.887  29.501  27.133  1.00  0.00    -0.206 F 
ATOM     56  C   UNL A   1      35.959  30.841  28.737  1.00  0.00     0.060 A 
BRANCH  56  57
ATOM     57  S   UNL A   1      34.648  32.033  28.361  1.00  0.00     0.124 S 
ATOM     58  O   UNL A   1      33.693  31.214  27.625  1.00  0.00    -0.237 OA
ATOM     59  O   UNL A   1      34.230  32.460  29.692  1.00  0.00    -0.237 OA
ATOM     60  O   UNL A   1      35.336  33.052  27.571  1.00  0.00    -0.744 OA
ENDBRANCH  56  57
ENDBRANCH  24  49
BRANCH  36  61
ATOM     61  C   UNL A   1      43.006  28.461  33.524  1.00  0.00     0.058 A 
ATOM     62  C   UNL A   1      43.120  27.061  33.498  1.00  0.00     0.135 A 
ATOM     63  C   UNL A   1      42.694  29.059  34.756  1.00  0.00     0.135 A 
ATOM     64  F   UNL A   1      43.492  26.418  32.381  1.00  0.00    -0.206 F 
ATOM     65  C   UNL A   1      42.912  26.290  34.647  1.00  0.00     0.059 A 
ATOM     66  C   UNL A   1      42.519  28.316  35.917  1.00  0.00     0.059 A 
ATOM     67  F   UNL A   1      42.616  30.397  34.854  1.00  0.00    -0.206 F 
ATOM     68  C   UNL A   1      42.621  26.929  35.854  1.00  0.00     0.060 A 
BRANCH  68  69
ATOM     69  S   UNL A   1      42.445  25.948  37.360  1.00  0.00     0.124 S 
ATOM     70  O   UNL A   1      41.069  26.228  37.751  1.00  0.00    -0.237 OA
ATOM     71  O   UNL A   1      42.709  24.593  36.885  1.00  0.00    -0.237 OA
ATOM     72  O   UNL A   1      43.469  26.495  38.247  1.00  0.00    -0.744 OA
ENDBRANCH  68  69
ENDBRANCH  36  61
ENDBRANCH  10  11
ENDBRANCH   3   5
ENDBRANCH   2   3
ENDBRANCH   1   2
BRANCH   1  73
ATOM     73  C   UNL A   1      44.671  18.969  24.870  1.00  0.00     0.275 C 
BRANCH  73  74
ATOM     74  O   UNL A   1      43.267  19.190  24.753  1.00  0.00    -0.458 OA
BRANCH  74  75
ATOM     75  C   UNL A   1      42.454  18.799  25.749  1.00  0.00     0.338 C 
ATOM     76  O   UNL A   1      42.361  17.687  26.244  1.00  0.00    -0.246 OA
BRANCH  75  77
ATOM     77  C   UNL A   1      41.694  19.995  26.158  1.00  0.00     0.060 A 
ATOM     78  C   UNL A   1      42.311  20.966  26.949  1.00  0.00     0.018 A 
ATOM     79  C   UNL A   1      40.338  20.092  25.804  1.00  0.00     0.026 A 
ATOM     80  C   UNL A   1      41.577  22.049  27.443  1.00  0.00     0.027 A 
ATOM     81  C   UNL A   1      39.604  21.218  26.228  1.00  0.00     0.006 A 
ATOM     82  C   UNL A   1      40.237  22.159  27.051  1.00  0.00     0.046 A 
ATOM     83  C   UNL A   1      38.297  21.722  25.946  1.00  0.00     0.000 A 
ATOM     84  N   UNL A   1      39.324  23.157  27.324  1.00  0.00    -0.358 N 
ATOM     85  C   UNL A   1      38.223  22.965  26.546  1.00  0.00     0.023 A 
ATOM     86  C   UNL A   1      37.239  21.203  25.010  1.00  0.00     0.157 C 
ATOM     87  H   UNL A   1      39.448  23.886  27.973  1.00  0.00     0.166 HD
ATOM     88  C   UNL A   1      37.193  23.979  26.202  1.00  0.00     0.075 C 
ATOM     89  N   UNL A   1      36.260  22.275  24.669  1.00  0.00    -0.338 N 
ATOM     90  C   UNL A   1      36.775  23.652  24.750  1.00  0.00     0.126 C 
BRANCH  89  91
ATOM     91  C   UNL A   1      35.000  21.856  24.258  1.00  0.00     0.225 C 
ATOM     92  O   UNL A   1      34.477  22.341  23.253  1.00  0.00    -0.275 OA
BRANCH  91  93
ATOM     93  C   UNL A   1      34.170  20.823  24.958  1.00  0.00     0.079 C 
ATOM     94  C   UNL A   1      32.941  20.063  24.553  1.00  0.00     0.014 C 
ATOM     95  C   UNL A   1      34.276  19.370  24.558  1.00  0.00     0.014 C 
ENDBRANCH  91  93
ENDBRANCH  89  91
ENDBRANCH  75  77
ENDBRANCH  74  75
ENDBRANCH  73  74
ENDBRANCH   1  73
TORSDOF 16
ENDMDL
MODEL 2
REMARK VINA RESULT:     -12.2      1.922      3.338
REMARK SMILES O=C(OCCOC(=O)c1ccc2[nH]c3c(c2c1)CN(C(=O)C1CC1)CC3)c1ccc(-c2c3nc(c(-c4c(F)cc(S(=O)(=O)[O-])cc4F)c4ccc([nH]4)c(-c4c(F)cc(S(=O)(=O)[O-])cc4F)c4nc(c(-c5c(F)cc(S(=O)(=O)[O-])cc5F)c5ccc2[nH]5)C=C4)C=C3)cc1
REMARK SMILES IDX 4 1 3 2 2 3 1 4 27 5 28 6 92 7 29 8 91 9 30 10 31 11 32 12
REMARK SMILES IDX 85 13 33 14 90 15 84 16 86 17 34 18 89 19 83 20 82 21 35 23
REMARK SMILES IDX 69 24 48 25 68 26 49 27 52 28 67 29 87 30 50 31 51 32 66 34
REMARK SMILES IDX 88 35 53 36 36 37 37 38 46 39 38 40 39 41 45 42 47 43 40 44
REMARK SMILES IDX 41 45 42 46 43 47 44 48 70 49 71 50 80 51 72 52 73 53 79 54
REMARK SMILES IDX 81 55 74 56 75 57 76 58 77 59 78 60 54 61 55 62 64 63 56 64
REMARK SMILES IDX 57 65 63 66 65 67 58 68 59 69 60 70 61 71 62 72 5 73 6 74
REMARK SMILES IDX 7 75 8 76 9 77 10 78 17 79 11 80 16 81 12 82 15 83 13 84
REMARK SMILES IDX 14 85 18 86 26 88 19 89 25 90 20 91 21 92 22 93 23 94 24 95
REMARK H PARENT 86 22 52 33 13 87
REMARK Flexibility Score: inf
ROOT
ATOM      1  C   UNL A   1      41.788  20.179  26.794  1.00  0.00     0.275 C 
ENDROOT
BRANCH   1   2
ATOM      2  O   UNL A   1      42.494  20.354  25.532  1.00  0.00    -0.458 OA
BRANCH   2   3
ATOM      3  C   UNL A   1      43.730  20.906  25.347  1.00  0.00     0.338 C 
ATOM      4  O   UNL A   1      44.707  20.228  25.058  1.00  0.00    -0.246 OA
BRANCH   3   5
ATOM      5  C   UNL A   1      43.870  22.341  25.656  1.00  0.00     0.060 A 
ATOM      6  C   UNL A   1      44.581  22.655  26.807  1.00  0.00     0.016 A 
ATOM      7  C   UNL A   1      43.081  23.299  25.014  1.00  0.00     0.016 A 
ATOM      8  C   UNL A   1      44.220  23.803  27.485  1.00  0.00     0.010 A 
ATOM      9  C   UNL A   1      42.725  24.455  25.699  1.00  0.00     0.010 A 
ATOM     10  C   UNL A   1      43.211  24.654  26.988  1.00  0.00    -0.014 A 
BRANCH  10  11
ATOM     11  C   UNL A   1      42.961  25.888  27.749  1.00  0.00     0.031 A 
ATOM     12  C   UNL A   1      44.109  26.819  27.564  1.00  0.00     0.074 A 
ATOM     13  C   UNL A   1      41.850  26.209  28.451  1.00  0.00     0.049 A 
ATOM     14  N   UNL A   1      44.927  27.260  28.463  1.00  0.00    -0.248 NA
ATOM     15  C   UNL A   1      44.565  27.040  26.173  1.00  0.00     0.031 C 
ATOM     16  C   UNL A   1      40.603  25.447  28.556  1.00  0.00     0.029 A 
ATOM     17  N   UNL A   1      41.553  27.346  29.159  1.00  0.00    -0.354 N 
ATOM     18  C   UNL A   1      45.860  28.008  27.753  1.00  0.00     0.074 A 
ATOM     19  C   UNL A   1      45.738  27.636  26.372  1.00  0.00     0.031 C 
ATOM     20  C   UNL A   1      39.626  26.242  29.052  1.00  0.00     0.029 A 
ATOM     21  C   UNL A   1      40.188  27.536  29.400  1.00  0.00     0.049 A 
ATOM     22  H   UNL A   1      42.243  27.976  29.471  1.00  0.00     0.167 HD
ATOM     23  C   UNL A   1      46.415  29.122  28.292  1.00  0.00     0.037 A 
ATOM     24  C   UNL A   1      39.567  28.687  29.785  1.00  0.00     0.037 A 
ATOM     25  C   UNL A   1      46.372  29.089  29.727  1.00  0.00     0.049 A 
ATOM     26  C   UNL A   1      40.609  29.563  30.369  1.00  0.00     0.074 A 
ATOM     27  C   UNL A   1      46.932  28.292  30.703  1.00  0.00     0.029 A 
ATOM     28  N   UNL A   1      45.334  29.766  30.310  1.00  0.00    -0.354 N 
ATOM     29  N   UNL A   1      41.217  29.328  31.496  1.00  0.00    -0.248 NA
ATOM     30  C   UNL A   1      41.259  30.529  29.496  1.00  0.00     0.031 C 
ATOM     31  C   UNL A   1      45.981  28.261  31.764  1.00  0.00     0.029 A 
ATOM     32  C   UNL A   1      44.907  29.082  31.417  1.00  0.00     0.049 A 
ATOM     33  H   UNL A   1      44.954  30.615  29.985  1.00  0.00     0.167 HD
ATOM     34  C   UNL A   1      42.514  29.763  31.289  1.00  0.00     0.074 A 
ATOM     35  C   UNL A   1      42.447  30.605  30.099  1.00  0.00     0.031 C 
ATOM     36  C   UNL A   1      43.555  29.163  31.931  1.00  0.00     0.037 A 
BRANCH  23  37
ATOM     37  C   UNL A   1      46.534  30.398  27.492  1.00  0.00     0.058 A 
ATOM     38  C   UNL A   1      47.768  31.066  27.421  1.00  0.00     0.135 A 
ATOM     39  C   UNL A   1      45.419  31.125  27.008  1.00  0.00     0.135 A 
ATOM     40  F   UNL A   1      48.882  30.491  27.902  1.00  0.00    -0.206 F 
ATOM     41  C   UNL A   1      47.879  32.365  26.919  1.00  0.00     0.059 A 
ATOM     42  C   UNL A   1      45.516  32.387  26.445  1.00  0.00     0.059 A 
ATOM     43  F   UNL A   1      44.159  30.697  27.153  1.00  0.00    -0.206 F 
ATOM     44  C   UNL A   1      46.746  33.014  26.431  1.00  0.00     0.060 A 
BRANCH  44  45
ATOM     45  S   UNL A   1      46.868  34.704  25.829  1.00  0.00     0.124 S 
ATOM     46  O   UNL A   1      45.599  34.855  25.127  1.00  0.00    -0.237 OA
ATOM     47  O   UNL A   1      47.008  35.453  27.073  1.00  0.00    -0.237 OA
ATOM     48  O   UNL A   1      48.058  34.675  24.985  1.00  0.00    -0.744 OA
ENDBRANCH  44  45
ENDBRANCH  23  37
BRANCH  24  49
ATOM     49  C   UNL A   1      38.227  29.240  29.400  1.00  0.00     0.058 A 
ATOM     50  C   UNL A   1      37.279  29.608  30.383  1.00  0.00     0.135 A 
ATOM     51  C   UNL A   1      37.966  29.714  28.101  1.00  0.00     0.135 A 
ATOM     52  F   UNL A   1      37.433  29.209  31.655  1.00  0.00    -0.206 F 
ATOM     53  C   UNL A   1      36.201  30.463  30.112  1.00  0.00     0.059 A 
ATOM     54  C   UNL A   1      36.893  30.558  27.806  1.00  0.00     0.059 A 
ATOM     55  F   UNL A   1      38.805  29.454  27.088  1.00  0.00    -0.206 F 
ATOM     56  C   UNL A   1      36.035  30.960  28.822  1.00  0.00     0.060 A 
BRANCH  56  57
ATOM     57  S   UNL A   1      34.783  32.230  28.506  1.00  0.00     0.124 S 
ATOM     58  O   UNL A   1      34.504  32.724  29.849  1.00  0.00    -0.237 OA
ATOM     59  O   UNL A   1      35.492  33.148  27.622  1.00  0.00    -0.237 OA
ATOM     60  O   UNL A   1      33.695  31.482  27.878  1.00  0.00    -0.744 OA
ENDBRANCH  56  57
ENDBRANCH  24  49
BRANCH  36  61
ATOM     61  C   UNL A   1      43.257  28.381  33.185  1.00  0.00     0.058 A 
ATOM     62  C   UNL A   1      42.923  28.936  34.432  1.00  0.00     0.135 A 
ATOM     63  C   UNL A   1      43.182  26.984  33.059  1.00  0.00     0.135 A 
ATOM     64  F   UNL A   1      42.892  30.264  34.613  1.00  0.00    -0.206 F 
ATOM     65  C   UNL A   1      42.550  28.129  35.512  1.00  0.00     0.059 A 
ATOM     66  C   UNL A   1      42.779  26.167  34.108  1.00  0.00     0.059 A 
ATOM     67  F   UNL A   1      43.446  26.400  31.878  1.00  0.00    -0.206 F 
ATOM     68  C   UNL A   1      42.472  26.745  35.337  1.00  0.00     0.060 A 
BRANCH  68  69
ATOM     69  S   UNL A   1      41.899  25.706  36.698  1.00  0.00     0.124 S 
ATOM     70  O   UNL A   1      40.742  26.447  37.186  1.00  0.00    -0.237 OA
ATOM     71  O   UNL A   1      41.610  24.442  36.028  1.00  0.00    -0.237 OA
ATOM     72  O   UNL A   1      43.044  25.670  37.606  1.00  0.00    -0.744 OA
ENDBRANCH  68  69
ENDBRANCH  36  61
ENDBRANCH  10  11
ENDBRANCH   3   5
ENDBRANCH   2   3
ENDBRANCH   1   2
BRANCH   1  73
ATOM     73  C   UNL A   1      40.715  21.224  27.150  1.00  0.00     0.275 C 
BRANCH  73  74
ATOM     74  O   UNL A   1      39.752  21.356  26.106  1.00  0.00    -0.458 OA
BRANCH  74  75
ATOM     75  C   UNL A   1      39.004  22.470  26.039  1.00  0.00     0.338 C 
ATOM     76  O   UNL A   1      39.368  23.625  26.196  1.00  0.00    -0.246 OA
BRANCH  75  77
ATOM     77  C   UNL A   1      37.635  22.032  25.711  1.00  0.00     0.060 A 
ATOM     78  C   UNL A   1      37.416  20.721  25.281  1.00  0.00     0.018 A 
ATOM     79  C   UNL A   1      36.590  22.968  25.769  1.00  0.00     0.026 A 
ATOM     80  C   UNL A   1      36.146  20.318  24.857  1.00  0.00     0.027 A 
ATOM     81  C   UNL A   1      35.287  22.556  25.419  1.00  0.00     0.006 A 
ATOM     82  C   UNL A   1      35.102  21.246  24.956  1.00  0.00     0.046 A 
ATOM     83  C   UNL A   1      33.994  23.158  25.496  1.00  0.00     0.000 A 
ATOM     84  N   UNL A   1      33.759  21.085  24.686  1.00  0.00    -0.358 N 
ATOM     85  C   UNL A   1      33.087  22.176  25.149  1.00  0.00     0.023 A 
ATOM     86  C   UNL A   1      33.579  24.493  26.056  1.00  0.00     0.157 C 
ATOM     87  H   UNL A   1      33.353  20.311  24.235  1.00  0.00     0.166 HD
ATOM     88  C   UNL A   1      31.634  22.262  25.445  1.00  0.00     0.075 C 
ATOM     89  N   UNL A   1      32.122  24.504  26.373  1.00  0.00    -0.338 N 
ATOM     90  C   UNL A   1      31.529  23.190  26.677  1.00  0.00     0.126 C 
BRANCH  89  91
ATOM     91  C   UNL A   1      31.505  25.749  26.406  1.00  0.00     0.225 C 
ATOM     92  O   UNL A   1      30.276  25.838  26.392  1.00  0.00    -0.275 OA
BRANCH  91  93
ATOM     93  C   UNL A   1      32.225  27.062  26.449  1.00  0.00     0.079 C 
ATOM     94  C   UNL A   1      31.771  28.478  26.241  1.00  0.00     0.014 C 
ATOM     95  C   UNL A   1      32.048  27.982  27.634  1.00  0.00     0.014 C 
ENDBRANCH  91  93
ENDBRANCH  89  91
ENDBRANCH  75  77
ENDBRANCH  74  75
ENDBRANCH  73  74
ENDBRANCH   1  73
TORSDOF 16
ENDMDL
MODEL 3
REMARK VINA RESULT:     -11.9      3.515     10.967
REMARK SMILES O=C(OCCOC(=O)c1ccc2[nH]c3c(c2c1)CN(C(=O)C1CC1)CC3)c1ccc(-c2c3nc(c(-c4c(F)cc(S(=O)(=O)[O-])cc4F)c4ccc([nH]4)c(-c4c(F)cc(S(=O)(=O)[O-])cc4F)c4nc(c(-c5c(F)cc(S(=O)(=O)[O-])cc5F)c5ccc2[nH]5)C=C4)C=C3)cc1
REMARK SMILES IDX 4 1 3 2 2 3 1 4 27 5 28 6 92 7 29 8 91 9 30 10 31 11 32 12
REMARK SMILES IDX 85 13 33 14 90 15 84 16 86 17 34 18 89 19 83 20 82 21 35 23
REMARK SMILES IDX 69 24 48 25 68 26 49 27 52 28 67 29 87 30 50 31 51 32 66 34
REMARK SMILES IDX 88 35 53 36 36 37 37 38 46 39 38 40 39 41 45 42 47 43 40 44
REMARK SMILES IDX 41 45 42 46 43 47 44 48 70 49 71 50 80 51 72 52 73 53 79 54
REMARK SMILES IDX 81 55 74 56 75 57 76 58 77 59 78 60 54 61 55 62 64 63 56 64
REMARK SMILES IDX 57 65 63 66 65 67 58 68 59 69 60 70 61 71 62 72 5 73 6 74
REMARK SMILES IDX 7 75 8 76 9 77 10 78 17 79 11 80 16 81 12 82 15 83 13 84
REMARK SMILES IDX 14 85 18 86 26 88 19 89 25 90 20 91 21 92 22 93 23 94 24 95
REMARK H PARENT 86 22 52 33 13 87
REMARK Flexibility Score: inf
ROOT
ATOM      1  C   UNL A   1      33.797  35.877  32.671  1.00  0.00     0.275 C 
ENDROOT
BRANCH   1   2
ATOM      2  O   UNL A   1      33.809  34.508  33.171  1.00  0.00    -0.458 OA
BRANCH   2   3
ATOM      3  C   UNL A   1      34.871  33.833  33.702  1.00  0.00     0.338 C 
ATOM      4  O   UNL A   1      35.058  33.762  34.909  1.00  0.00    -0.246 OA
BRANCH   3   5
ATOM      5  C   UNL A   1      35.871  33.314  32.751  1.00  0.00     0.060 A 
ATOM      6  C   UNL A   1      35.782  31.963  32.442  1.00  0.00     0.016 A 
ATOM      7  C   UNL A   1      37.014  34.051  32.430  1.00  0.00     0.016 A 
ATOM      8  C   UNL A   1      36.955  31.300  32.139  1.00  0.00     0.010 A 
ATOM      9  C   UNL A   1      38.191  33.379  32.121  1.00  0.00     0.010 A 
ATOM     10  C   UNL A   1      38.185  31.988  32.084  1.00  0.00    -0.014 A 
BRANCH  10  11
ATOM     11  C   UNL A   1      39.359  31.199  31.677  1.00  0.00     0.031 A 
ATOM     12  C   UNL A   1      40.261  31.023  32.850  1.00  0.00     0.074 A 
ATOM     13  C   UNL A   1      39.589  30.632  30.471  1.00  0.00     0.049 A 
ATOM     14  N   UNL A   1      41.472  31.452  32.992  1.00  0.00    -0.248 NA
ATOM     15  C   UNL A   1      39.629  30.573  34.111  1.00  0.00     0.031 C 
ATOM     16  C   UNL A   1      38.696  30.597  29.310  1.00  0.00     0.029 A 
ATOM     17  N   UNL A   1      40.648  29.873  30.042  1.00  0.00    -0.354 N 
ATOM     18  C   UNL A   1      41.817  31.107  34.293  1.00  0.00     0.074 A 
ATOM     19  C   UNL A   1      40.598  30.809  34.991  1.00  0.00     0.031 C 
ATOM     20  C   UNL A   1      39.129  29.661  28.433  1.00  0.00     0.029 A 
ATOM     21  C   UNL A   1      40.382  29.099  28.907  1.00  0.00     0.049 A 
ATOM     22  H   UNL A   1      41.522  29.871  30.496  1.00  0.00     0.167 HD
ATOM     23  C   UNL A   1      43.088  30.749  34.605  1.00  0.00     0.037 A 
ATOM     24  C   UNL A   1      41.099  28.038  28.440  1.00  0.00     0.037 A 
ATOM     25  C   UNL A   1      44.032  31.289  33.666  1.00  0.00     0.049 A 
ATOM     26  C   UNL A   1      42.450  28.135  29.039  1.00  0.00     0.074 A 
ATOM     27  C   UNL A   1      44.435  32.557  33.307  1.00  0.00     0.029 A 
ATOM     28  N   UNL A   1      44.427  30.444  32.664  1.00  0.00    -0.354 N 
ATOM     29  N   UNL A   1      43.320  29.056  28.739  1.00  0.00    -0.248 NA
ATOM     30  C   UNL A   1      42.704  27.413  30.277  1.00  0.00     0.031 C 
ATOM     31  C   UNL A   1      44.760  32.477  31.922  1.00  0.00     0.029 A 
ATOM     32  C   UNL A   1      44.594  31.155  31.506  1.00  0.00     0.049 A 
ATOM     33  H   UNL A   1      44.571  29.474  32.760  1.00  0.00     0.167 HD
ATOM     34  C   UNL A   1      43.964  29.329  29.934  1.00  0.00     0.074 A 
ATOM     35  C   UNL A   1      43.638  28.205  30.805  1.00  0.00     0.031 C 
ATOM     36  C   UNL A   1      44.453  30.576  30.186  1.00  0.00     0.037 A 
BRANCH  23  37
ATOM     37  C   UNL A   1      43.368  29.538  35.464  1.00  0.00     0.058 A 
ATOM     38  C   UNL A   1      44.188  29.659  36.598  1.00  0.00     0.135 A 
ATOM     39  C   UNL A   1      43.073  28.211  35.065  1.00  0.00     0.135 A 
ATOM     40  F   UNL A   1      44.576  30.869  37.031  1.00  0.00    -0.206 F 
ATOM     41  C   UNL A   1      44.686  28.544  37.275  1.00  0.00     0.059 A 
ATOM     42  C   UNL A   1      43.501  27.092  35.760  1.00  0.00     0.059 A 
ATOM     43  F   UNL A   1      42.443  27.924  33.919  1.00  0.00    -0.206 F 
ATOM     44  C   UNL A   1      44.332  27.264  36.848  1.00  0.00     0.060 A 
BRANCH  44  45
ATOM     45  S   UNL A   1      45.008  25.820  37.681  1.00  0.00     0.124 S 
ATOM     46  O   UNL A   1      44.156  24.759  37.158  1.00  0.00    -0.237 OA
ATOM     47  O   UNL A   1      46.390  25.827  37.212  1.00  0.00    -0.237 OA
ATOM     48  O   UNL A   1      44.831  26.135  39.095  1.00  0.00    -0.744 OA
ENDBRANCH  44  45
ENDBRANCH  23  37
BRANCH  24  49
ATOM     49  C   UNL A   1      40.637  26.767  27.792  1.00  0.00     0.058 A 
ATOM     50  C   UNL A   1      41.314  26.229  26.674  1.00  0.00     0.135 A 
ATOM     51  C   UNL A   1      39.737  25.893  28.432  1.00  0.00     0.135 A 
ATOM     52  F   UNL A   1      42.195  26.978  25.992  1.00  0.00    -0.206 F 
ATOM     53  C   UNL A   1      41.177  24.891  26.277  1.00  0.00     0.059 A 
ATOM     54  C   UNL A   1      39.576  24.560  28.047  1.00  0.00     0.059 A 
ATOM     55  F   UNL A   1      39.054  26.277  29.520  1.00  0.00    -0.206 F 
ATOM     56  C   UNL A   1      40.325  24.053  26.993  1.00  0.00     0.060 A 
BRANCH  56  57
ATOM     57  S   UNL A   1      40.301  22.279  26.630  1.00  0.00     0.124 S 
ATOM     58  O   UNL A   1      38.982  22.108  26.032  1.00  0.00    -0.237 OA
ATOM     59  O   UNL A   1      41.436  22.135  25.724  1.00  0.00    -0.237 OA
ATOM     60  O   UNL A   1      40.476  21.663  27.943  1.00  0.00    -0.744 OA
ENDBRANCH  56  57
ENDBRANCH  24  49
BRANCH  36  61
ATOM     61  C   UNL A   1      44.713  31.485  29.013  1.00  0.00     0.058 A 
ATOM     62  C   UNL A   1      43.845  32.490  28.552  1.00  0.00     0.135 A 
ATOM     63  C   UNL A   1      45.981  31.405  28.416  1.00  0.00     0.135 A 
ATOM     64  F   UNL A   1      42.647  32.685  29.123  1.00  0.00    -0.206 F 
ATOM     65  C   UNL A   1      44.220  33.363  27.525  1.00  0.00     0.059 A 
ATOM     66  C   UNL A   1      46.388  32.284  27.420  1.00  0.00     0.059 A 
ATOM     67  F   UNL A   1      46.871  30.493  28.846  1.00  0.00    -0.206 F 
ATOM     68  C   UNL A   1      45.499  33.257  26.972  1.00  0.00     0.060 A 
BRANCH  68  69
ATOM     69  S   UNL A   1      46.025  34.441  25.713  1.00  0.00     0.124 S 
ATOM     70  O   UNL A   1      45.228  34.039  24.561  1.00  0.00    -0.237 OA
ATOM     71  O   UNL A   1      45.669  35.721  26.318  1.00  0.00    -0.237 OA
ATOM     72  O   UNL A   1      47.460  34.199  25.594  1.00  0.00    -0.744 OA
ENDBRANCH  68  69
ENDBRANCH  36  61
ENDBRANCH  10  11
ENDBRANCH   3   5
ENDBRANCH   2   3
ENDBRANCH   1   2
BRANCH   1  73
ATOM     73  C   UNL A   1      32.665  36.261  31.700  1.00  0.00     0.275 C 
BRANCH  73  74
ATOM     74  O   UNL A   1      32.528  35.298  30.656  1.00  0.00    -0.458 OA
BRANCH  74  75
ATOM     75  C   UNL A   1      33.009  35.580  29.434  1.00  0.00     0.338 C 
ATOM     76  O   UNL A   1      32.858  36.607  28.791  1.00  0.00    -0.246 OA
BRANCH  75  77
ATOM     77  C   UNL A   1      33.789  34.402  29.012  1.00  0.00     0.060 A 
ATOM     78  C   UNL A   1      35.143  34.318  29.342  1.00  0.00     0.018 A 
ATOM     79  C   UNL A   1      33.166  33.423  28.221  1.00  0.00     0.026 A 
ATOM     80  C   UNL A   1      35.928  33.268  28.856  1.00  0.00     0.027 A 
ATOM     81  C   UNL A   1      33.924  32.315  27.788  1.00  0.00     0.006 A 
ATOM     82  C   UNL A   1      35.289  32.275  28.102  1.00  0.00     0.046 A 
ATOM     83  C   UNL A   1      33.612  31.090  27.124  1.00  0.00     0.000 A 
ATOM     84  N   UNL A   1      35.803  31.107  27.579  1.00  0.00    -0.358 N 
ATOM     85  C   UNL A   1      34.772  30.340  27.128  1.00  0.00     0.023 A 
ATOM     86  C   UNL A   1      32.282  30.534  26.690  1.00  0.00     0.157 C 
ATOM     87  H   UNL A   1      36.757  30.867  27.538  1.00  0.00     0.166 HD
ATOM     88  C   UNL A   1      34.801  28.876  26.873  1.00  0.00     0.075 C 
ATOM     89  N   UNL A   1      32.363  29.059  26.491  1.00  0.00    -0.338 N 
ATOM     90  C   UNL A   1      33.399  28.369  27.279  1.00  0.00     0.126 C 
BRANCH  89  91
ATOM     91  C   UNL A   1      31.421  28.496  25.637  1.00  0.00     0.225 C 
ATOM     92  O   UNL A   1      30.914  29.167  24.737  1.00  0.00    -0.275 OA
BRANCH  91  93
ATOM     93  C   UNL A   1      30.931  27.082  25.714  1.00  0.00     0.079 C 
ATOM     94  C   UNL A   1      30.425  26.124  24.676  1.00  0.00     0.014 C 
ATOM     95  C   UNL A   1      31.811  25.951  25.235  1.00  0.00     0.014 C 
ENDBRANCH  91  93
ENDBRANCH  89  91
ENDBRANCH  75  77
ENDBRANCH  74  75
ENDBRANCH  73  74
ENDBRANCH   1  73
TORSDOF 16
ENDMDL
