MODEL 1
REMARK VINA RESULT:     -11.0      0.000      0.000
REMARK SMILES CCOc1cc(/C=C2/SC(=S)N([C@H](CC)C(=O)OCCOC(=O)c3ccc(-c4c5nc(c(-c6c(F)cc(S(=O)(=O)[O-])cc6F)c6ccc([nH]6)c(-c6c(F)cc(S(=O)(=O)[O-])cc6F)c6nc(c(-c7c(F)cc(S(=O)(=O)[O-])cc7F)c7ccc4[nH]7)C=C6)C=C5)cc3)C2=O)ccc1O
REMARK SMILES IDX 19 1 18 2 16 3 17 4 13 5 12 6 7 7 8 8 9 9 90 10 10 11 91 12
REMARK SMILES IDX 11 13 6 14 4 15 5 16 94 17 93 18 92 19 3 20 2 21 1 22 95 23
REMARK SMILES IDX 14 25 15 26 20 27 21 28 22 29 23 30 24 31 25 32 89 33 26 34
REMARK SMILES IDX 88 35 27 36 28 37 29 38 82 39 30 40 87 41 81 42 83 43 31 44
REMARK SMILES IDX 86 45 80 46 79 47 32 49 66 50 45 51 65 52 46 53 49 54 64 55
REMARK SMILES IDX 84 56 47 57 48 58 63 60 85 61 50 62 33 63 34 64 43 65 35 66
REMARK SMILES IDX 36 67 42 68 44 69 37 70 38 71 39 72 40 73 41 74 67 75 68 76
REMARK SMILES IDX 77 77 69 78 70 79 76 80 78 81 71 82 72 83 73 84 74 85 75 86
REMARK SMILES IDX 51 87 52 88 61 89 53 90 54 91 60 92 62 93 55 94 56 95 57 96
REMARK SMILES IDX 58 97 59 98
REMARK H PARENT 95 24 83 48 49 59
REMARK Flexibility Score: inf
ROOT
ATOM      1  C   UNL A   1      34.544  29.041  27.190  1.00  0.00     0.274 C 
ENDROOT
BRANCH   1   2
ATOM      2  O   UNL A   1      34.068  29.326  25.862  1.00  0.00    -0.461 OA
BRANCH   2   3
ATOM      3  C   UNL A   1      32.740  29.145  25.612  1.00  0.00     0.329 C 
ATOM      4  O   UNL A   1      31.908  30.043  25.568  1.00  0.00    -0.250 OA
BRANCH   3   5
ATOM      5  C   UNL A   1      32.386  27.652  25.485  1.00  0.00     0.201 C 
BRANCH   5   6
ATOM      6  N   UNL A   1      32.735  27.043  24.177  1.00  0.00    -0.278 N 
ATOM      7  C   UNL A   1      33.653  23.924  22.652  1.00  0.00     0.029 C 
ATOM      8  C   UNL A   1      33.532  25.239  22.884  1.00  0.00     0.081 C 
ATOM      9  S   UNL A   1      32.969  26.344  21.697  1.00  0.00    -0.054 SA
ATOM     10  C   UNL A   1      33.571  25.934  24.199  1.00  0.00     0.266 C 
ATOM     11  C   UNL A   1      32.198  27.342  22.939  1.00  0.00     0.149 C 
ATOM     12  O   UNL A   1      34.226  25.544  25.155  1.00  0.00    -0.268 OA
ATOM     13  S   UNL A   1      30.994  28.415  22.517  1.00  0.00    -0.052 S 
BRANCH   7  14
ATOM     14  C   UNL A   1      33.691  22.918  23.717  1.00  0.00    -0.020 A 
ATOM     15  C   UNL A   1      34.920  21.473  25.248  1.00  0.00     0.161 A 
ATOM     16  C   UNL A   1      34.898  22.403  24.197  1.00  0.00     0.058 A 
ATOM     17  C   UNL A   1      33.705  21.098  25.829  1.00  0.00     0.157 A 
ATOM     18  C   UNL A   1      32.492  21.557  25.318  1.00  0.00     0.051 A 
ATOM     19  C   UNL A   1      32.484  22.460  24.260  1.00  0.00     0.012 A 
BRANCH  15  20
ATOM     20  O   UNL A   1      36.181  21.057  25.569  1.00  0.00    -0.490 OA
BRANCH  20  21
ATOM     21  C   UNL A   1      37.320  21.533  24.860  1.00  0.00     0.226 C 
ATOM     22  C   UNL A   1      38.527  21.772  25.753  1.00  0.00     0.049 C 
ENDBRANCH  20  21
ENDBRANCH  15  20
BRANCH  17  23
ATOM     23  O   UNL A   1      33.606  20.325  26.948  1.00  0.00    -0.504 OA
ATOM     24  H   UNL A   1      34.072  20.563  27.725  1.00  0.00     0.293 HD
ENDBRANCH  17  23
ENDBRANCH   7  14
ENDBRANCH   5   6
BRANCH   5  25
ATOM     25  C   UNL A   1      30.967  27.292  25.987  1.00  0.00     0.034 C 
ATOM     26  C   UNL A   1      30.826  25.846  26.461  1.00  0.00     0.007 C 
ENDBRANCH   5  25
ENDBRANCH   3   5
ENDBRANCH   2   3
ENDBRANCH   1   2
BRANCH   1  27
ATOM     27  C   UNL A   1      34.843  30.330  27.957  1.00  0.00     0.275 C 
BRANCH  27  28
ATOM     28  O   UNL A   1      35.614  30.064  29.141  1.00  0.00    -0.458 OA
BRANCH  28  29
ATOM     29  C   UNL A   1      36.627  30.937  29.362  1.00  0.00     0.338 C 
ATOM     30  O   UNL A   1      36.556  32.015  29.930  1.00  0.00    -0.246 OA
BRANCH  29  31
ATOM     31  C   UNL A   1      37.909  30.324  28.979  1.00  0.00     0.060 A 
ATOM     32  C   UNL A   1      38.928  30.324  29.935  1.00  0.00     0.016 A 
ATOM     33  C   UNL A   1      38.135  29.816  27.698  1.00  0.00     0.016 A 
ATOM     34  C   UNL A   1      40.181  29.817  29.617  1.00  0.00     0.010 A 
ATOM     35  C   UNL A   1      39.402  29.318  27.374  1.00  0.00     0.010 A 
ATOM     36  C   UNL A   1      40.435  29.329  28.329  1.00  0.00    -0.014 A 
BRANCH  36  37
ATOM     37  C   UNL A   1      41.812  28.903  27.988  1.00  0.00     0.031 A 
ATOM     38  C   UNL A   1      42.930  29.906  28.017  1.00  0.00     0.074 A 
ATOM     39  C   UNL A   1      42.064  27.606  27.732  1.00  0.00     0.049 A 
ATOM     40  N   UNL A   1      44.207  29.727  27.801  1.00  0.00    -0.248 NA
ATOM     41  C   UNL A   1      42.562  31.294  28.336  1.00  0.00     0.031 C 
ATOM     42  C   UNL A   1      41.060  26.542  27.709  1.00  0.00     0.029 A 
ATOM     43  N   UNL A   1      43.244  26.963  27.456  1.00  0.00    -0.354 N 
ATOM     44  C   UNL A   1      44.797  30.975  27.952  1.00  0.00     0.074 A 
ATOM     45  C   UNL A   1      43.734  31.910  28.253  1.00  0.00     0.031 C 
ATOM     46  C   UNL A   1      41.670  25.373  27.447  1.00  0.00     0.029 A 
ATOM     47  C   UNL A   1      43.099  25.612  27.256  1.00  0.00     0.049 A 
ATOM     48  H   UNL A   1      44.111  27.426  27.407  1.00  0.00     0.167 HD
ATOM     49  C   UNL A   1      46.106  31.308  27.857  1.00  0.00     0.037 A 
ATOM     50  C   UNL A   1      44.015  24.674  26.946  1.00  0.00     0.037 A 
ATOM     51  C   UNL A   1      47.160  30.370  27.561  1.00  0.00     0.049 A 
ATOM     52  C   UNL A   1      45.459  25.076  26.812  1.00  0.00     0.074 A 
ATOM     53  C   UNL A   1      48.519  30.607  27.449  1.00  0.00     0.029 A 
ATOM     54  N   UNL A   1      46.972  29.015  27.329  1.00  0.00    -0.354 N 
ATOM     55  N   UNL A   1      46.004  26.261  26.966  1.00  0.00    -0.248 NA
ATOM     56  C   UNL A   1      46.414  24.014  26.471  1.00  0.00     0.031 C 
ATOM     57  C   UNL A   1      49.148  29.403  27.110  1.00  0.00     0.029 A 
ATOM     58  C   UNL A   1      48.186  28.407  27.057  1.00  0.00     0.049 A 
ATOM     59  H   UNL A   1      46.102  28.554  27.354  1.00  0.00     0.167 HD
ATOM     60  C   UNL A   1      47.366  26.083  26.753  1.00  0.00     0.074 A 
ATOM     61  C   UNL A   1      47.564  24.673  26.482  1.00  0.00     0.031 C 
ATOM     62  C   UNL A   1      48.363  27.002  26.779  1.00  0.00     0.037 A 
BRANCH  49  63
ATOM     63  C   UNL A   1      46.469  32.755  28.049  1.00  0.00     0.058 A 
ATOM     64  C   UNL A   1      46.342  33.693  27.013  1.00  0.00     0.135 A 
ATOM     65  C   UNL A   1      46.930  33.213  29.294  1.00  0.00     0.135 A 
ATOM     66  F   UNL A   1      45.922  33.306  25.798  1.00  0.00    -0.206 F 
ATOM     67  C   UNL A   1      46.683  35.029  27.196  1.00  0.00     0.059 A 
ATOM     68  C   UNL A   1      47.256  34.549  29.507  1.00  0.00     0.059 A 
ATOM     69  F   UNL A   1      47.074  32.356  30.318  1.00  0.00    -0.206 F 
ATOM     70  C   UNL A   1      47.143  35.448  28.447  1.00  0.00     0.060 A 
BRANCH  70  71
ATOM     71  S   UNL A   1      47.587  37.183  28.671  1.00  0.00     0.124 S 
ATOM     72  O   UNL A   1      49.022  37.151  28.405  1.00  0.00    -0.237 OA
ATOM     73  O   UNL A   1      46.770  37.848  27.660  1.00  0.00    -0.237 OA
ATOM     74  O   UNL A   1      47.211  37.455  30.054  1.00  0.00    -0.744 OA
ENDBRANCH  70  71
ENDBRANCH  49  63
BRANCH  50  75
ATOM     75  C   UNL A   1      43.592  23.264  26.739  1.00  0.00     0.058 A 
ATOM     76  C   UNL A   1      43.587  22.686  25.462  1.00  0.00     0.135 A 
ATOM     77  C   UNL A   1      43.192  22.464  27.821  1.00  0.00     0.135 A 
ATOM     78  F   UNL A   1      43.952  23.414  24.394  1.00  0.00    -0.206 F 
ATOM     79  C   UNL A   1      43.188  21.369  25.259  1.00  0.00     0.059 A 
ATOM     80  C   UNL A   1      42.812  21.138  27.648  1.00  0.00     0.059 A 
ATOM     81  F   UNL A   1      43.189  22.967  29.065  1.00  0.00    -0.206 F 
ATOM     82  C   UNL A   1      42.803  20.601  26.360  1.00  0.00     0.060 A 
BRANCH  82  83
ATOM     83  S   UNL A   1      42.336  18.877  26.099  1.00  0.00     0.124 S 
ATOM     84  O   UNL A   1      43.231  18.491  25.014  1.00  0.00    -0.237 OA
ATOM     85  O   UNL A   1      42.616  18.279  27.401  1.00  0.00    -0.237 OA
ATOM     86  O   UNL A   1      40.921  18.963  25.750  1.00  0.00    -0.744 OA
ENDBRANCH  82  83
ENDBRANCH  50  75
BRANCH  62  87
ATOM     87  C   UNL A   1      49.758  26.501  26.525  1.00  0.00     0.058 A 
ATOM     88  C   UNL A   1      50.300  26.456  25.231  1.00  0.00     0.135 A 
ATOM     89  C   UNL A   1      50.566  26.070  27.590  1.00  0.00     0.135 A 
ATOM     90  F   UNL A   1      49.568  26.853  24.178  1.00  0.00    -0.206 F 
ATOM     91  C   UNL A   1      51.580  25.964  24.995  1.00  0.00     0.059 A 
ATOM     92  C   UNL A   1      51.858  25.598  27.381  1.00  0.00     0.059 A 
ATOM     93  F   UNL A   1      50.103  26.106  28.849  1.00  0.00    -0.206 F 
ATOM     94  C   UNL A   1      52.348  25.529  26.077  1.00  0.00     0.060 A 
BRANCH  94  95
ATOM     95  S   UNL A   1      54.006  24.887  25.763  1.00  0.00     0.124 S 
ATOM     96  O   UNL A   1      54.671  25.159  27.033  1.00  0.00    -0.237 OA
ATOM     97  O   UNL A   1      53.750  23.479  25.471  1.00  0.00    -0.237 OA
ATOM     98  O   UNL A   1      54.468  25.680  24.628  1.00  0.00    -0.744 OA
ENDBRANCH  94  95
ENDBRANCH  62  87
ENDBRANCH  36  37
ENDBRANCH  29  31
ENDBRANCH  28  29
ENDBRANCH  27  28
ENDBRANCH   1  27
TORSDOF 20
ENDMDL
MODEL 2
REMARK VINA RESULT:     -10.9      0.825      8.243
REMARK SMILES CCOc1cc(/C=C2/SC(=S)N([C@H](CC)C(=O)OCCOC(=O)c3ccc(-c4c5nc(c(-c6c(F)cc(S(=O)(=O)[O-])cc6F)c6ccc([nH]6)c(-c6c(F)cc(S(=O)(=O)[O-])cc6F)c6nc(c(-c7c(F)cc(S(=O)(=O)[O-])cc7F)c7ccc4[nH]7)C=C6)C=C5)cc3)C2=O)ccc1O
REMARK SMILES IDX 19 1 18 2 16 3 17 4 13 5 12 6 7 7 8 8 9 9 90 10 10 11 91 12
REMARK SMILES IDX 11 13 6 14 4 15 5 16 94 17 93 18 92 19 3 20 2 21 1 22 95 23
REMARK SMILES IDX 14 25 15 26 20 27 21 28 22 29 23 30 24 31 25 32 89 33 26 34
REMARK SMILES IDX 88 35 27 36 28 37 29 38 82 39 30 40 87 41 81 42 83 43 31 44
REMARK SMILES IDX 86 45 80 46 79 47 32 49 66 50 45 51 65 52 46 53 49 54 64 55
REMARK SMILES IDX 84 56 47 57 48 58 63 60 85 61 50 62 33 63 34 64 43 65 35 66
REMARK SMILES IDX 36 67 42 68 44 69 37 70 38 71 39 72 40 73 41 74 67 75 68 76
REMARK SMILES IDX 77 77 69 78 70 79 76 80 78 81 71 82 72 83 73 84 74 85 75 86
REMARK SMILES IDX 51 87 52 88 61 89 53 90 54 91 60 92 62 93 55 94 56 95 57 96
REMARK SMILES IDX 58 97 59 98
REMARK H PARENT 95 24 83 48 49 59
REMARK Flexibility Score: inf
ROOT
ATOM      1  C   UNL A   1      34.458  28.704  26.642  1.00  0.00     0.274 C 
ENDROOT
BRANCH   1   2
ATOM      2  O   UNL A   1      33.654  29.211  25.561  1.00  0.00    -0.461 OA
BRANCH   2   3
ATOM      3  C   UNL A   1      32.340  28.845  25.524  1.00  0.00     0.329 C 
ATOM      4  O   UNL A   1      31.396  29.616  25.643  1.00  0.00    -0.250 OA
BRANCH   3   5
ATOM      5  C   UNL A   1      32.181  27.318  25.408  1.00  0.00     0.201 C 
BRANCH   5   6
ATOM      6  N   UNL A   1      32.272  26.789  24.025  1.00  0.00    -0.278 N 
ATOM      7  C   UNL A   1      33.436  23.966  22.135  1.00  0.00     0.029 C 
ATOM      8  C   UNL A   1      33.073  25.214  22.463  1.00  0.00     0.081 C 
ATOM      9  S   UNL A   1      31.940  26.122  21.547  1.00  0.00    -0.054 SA
ATOM     10  C   UNL A   1      33.322  25.922  23.747  1.00  0.00     0.266 C 
ATOM     11  C   UNL A   1      31.344  26.922  23.010  1.00  0.00     0.149 C 
ATOM     12  O   UNL A   1      34.300  25.725  24.454  1.00  0.00    -0.268 OA
ATOM     13  S   UNL A   1      29.847  27.655  23.007  1.00  0.00    -0.052 S 
BRANCH   7  14
ATOM     14  C   UNL A   1      34.024  23.021  23.090  1.00  0.00    -0.020 A 
ATOM     15  C   UNL A   1      33.806  21.246  24.746  1.00  0.00     0.161 A 
ATOM     16  C   UNL A   1      33.228  22.177  23.869  1.00  0.00     0.058 A 
ATOM     17  C   UNL A   1      35.200  21.158  24.798  1.00  0.00     0.157 A 
ATOM     18  C   UNL A   1      36.003  22.037  24.072  1.00  0.00     0.051 A 
ATOM     19  C   UNL A   1      35.416  22.971  23.224  1.00  0.00     0.012 A 
BRANCH  15  20
ATOM     20  O   UNL A   1      32.882  20.525  25.447  1.00  0.00    -0.490 OA
BRANCH  20  21
ATOM     21  C   UNL A   1      32.579  19.177  25.105  1.00  0.00     0.226 C 
ATOM     22  C   UNL A   1      32.607  18.916  23.607  1.00  0.00     0.049 C 
ENDBRANCH  20  21
ENDBRANCH  15  20
BRANCH  17  23
ATOM     23  O   UNL A   1      35.875  20.197  25.491  1.00  0.00    -0.504 OA
ATOM     24  H   UNL A   1      36.281  20.407  26.309  1.00  0.00     0.293 HD
ENDBRANCH  17  23
ENDBRANCH   7  14
ENDBRANCH   5   6
BRANCH   5  25
ATOM     25  C   UNL A   1      30.999  26.741  26.225  1.00  0.00     0.034 C 
ATOM     26  C   UNL A   1      30.912  25.215  26.195  1.00  0.00     0.007 C 
ENDBRANCH   5  25
ENDBRANCH   3   5
ENDBRANCH   2   3
ENDBRANCH   1   2
BRANCH   1  27
ATOM     27  C   UNL A   1      34.826  29.818  27.623  1.00  0.00     0.275 C 
BRANCH  27  28
ATOM     28  O   UNL A   1      35.700  29.334  28.657  1.00  0.00    -0.458 OA
BRANCH  28  29
ATOM     29  C   UNL A   1      36.367  30.301  29.332  1.00  0.00     0.338 C 
ATOM     30  O   UNL A   1      35.888  31.138  30.079  1.00  0.00    -0.246 OA
BRANCH  29  31
ATOM     31  C   UNL A   1      37.818  30.101  29.190  1.00  0.00     0.060 A 
ATOM     32  C   UNL A   1      38.317  29.951  27.893  1.00  0.00     0.016 A 
ATOM     33  C   UNL A   1      38.666  30.001  30.294  1.00  0.00     0.016 A 
ATOM     34  C   UNL A   1      39.668  29.697  27.693  1.00  0.00     0.010 A 
ATOM     35  C   UNL A   1      40.024  29.733  30.092  1.00  0.00     0.010 A 
ATOM     36  C   UNL A   1      40.528  29.566  28.790  1.00  0.00    -0.014 A 
BRANCH  36  37
ATOM     37  C   UNL A   1      41.939  29.182  28.546  1.00  0.00     0.031 A 
ATOM     38  C   UNL A   1      42.269  27.769  28.160  1.00  0.00     0.074 A 
ATOM     39  C   UNL A   1      42.902  30.120  28.596  1.00  0.00     0.049 A 
ATOM     40  N   UNL A   1      43.428  27.244  27.857  1.00  0.00    -0.248 NA
ATOM     41  C   UNL A   1      41.146  26.821  28.103  1.00  0.00     0.031 C 
ATOM     42  C   UNL A   1      42.690  31.529  28.928  1.00  0.00     0.029 A 
ATOM     43  N   UNL A   1      44.249  30.031  28.353  1.00  0.00    -0.354 N 
ATOM     44  C   UNL A   1      43.178  25.906  27.578  1.00  0.00     0.074 A 
ATOM     45  C   UNL A   1      41.760  25.693  27.773  1.00  0.00     0.031 C 
ATOM     46  C   UNL A   1      43.865  32.176  28.856  1.00  0.00     0.029 A 
ATOM     47  C   UNL A   1      44.914  31.224  28.500  1.00  0.00     0.049 A 
ATOM     48  H   UNL A   1      44.696  29.191  28.098  1.00  0.00     0.167 HD
ATOM     49  C   UNL A   1      44.051  24.948  27.186  1.00  0.00     0.037 A 
ATOM     50  C   UNL A   1      46.224  31.513  28.370  1.00  0.00     0.037 A 
ATOM     51  C   UNL A   1      45.461  25.170  26.990  1.00  0.00     0.049 A 
ATOM     52  C   UNL A   1      47.178  30.421  27.968  1.00  0.00     0.074 A 
ATOM     53  C   UNL A   1      46.429  24.265  26.589  1.00  0.00     0.029 A 
ATOM     54  N   UNL A   1      46.107  26.383  27.183  1.00  0.00    -0.354 N 
ATOM     55  N   UNL A   1      46.926  29.161  27.699  1.00  0.00    -0.248 NA
ATOM     56  C   UNL A   1      48.594  30.791  27.843  1.00  0.00     0.031 C 
ATOM     57  C   UNL A   1      47.665  24.922  26.577  1.00  0.00     0.029 A 
ATOM     58  C   UNL A   1      47.461  26.247  26.926  1.00  0.00     0.049 A 
ATOM     59  H   UNL A   1      45.666  27.218  27.461  1.00  0.00     0.167 HD
ATOM     60  C   UNL A   1      48.149  28.592  27.360  1.00  0.00     0.074 A 
ATOM     61  C   UNL A   1      49.135  29.651  27.437  1.00  0.00     0.031 C 
ATOM     62  C   UNL A   1      48.431  27.311  27.017  1.00  0.00     0.037 A 
BRANCH  49  63
ATOM     63  C   UNL A   1      43.507  23.563  26.970  1.00  0.00     0.058 A 
ATOM     64  C   UNL A   1      43.221  22.704  28.043  1.00  0.00     0.135 A 
ATOM     65  C   UNL A   1      43.249  23.096  25.671  1.00  0.00     0.135 A 
ATOM     66  F   UNL A   1      43.465  23.094  29.304  1.00  0.00    -0.206 F 
ATOM     67  C   UNL A   1      42.722  21.422  27.836  1.00  0.00     0.059 A 
ATOM     68  C   UNL A   1      42.728  21.825  25.441  1.00  0.00     0.059 A 
ATOM     69  F   UNL A   1      43.508  23.875  24.609  1.00  0.00    -0.206 F 
ATOM     70  C   UNL A   1      42.482  20.990  26.529  1.00  0.00     0.060 A 
BRANCH  70  71
ATOM     71  S   UNL A   1      41.839  19.323  26.273  1.00  0.00     0.124 S 
ATOM     72  O   UNL A   1      42.575  18.908  25.083  1.00  0.00    -0.237 OA
ATOM     73  O   UNL A   1      42.211  18.650  27.514  1.00  0.00    -0.237 OA
ATOM     74  O   UNL A   1      40.408  19.535  26.084  1.00  0.00    -0.744 OA
ENDBRANCH  70  71
ENDBRANCH  49  63
BRANCH  50  75
ATOM     75  C   UNL A   1      46.707  32.895  28.627  1.00  0.00     0.058 A 
ATOM     76  C   UNL A   1      47.143  33.289  29.899  1.00  0.00     0.135 A 
ATOM     77  C   UNL A   1      46.749  33.847  27.595  1.00  0.00     0.135 A 
ATOM     78  F   UNL A   1      47.112  32.417  30.919  1.00  0.00    -0.206 F 
ATOM     79  C   UNL A   1      47.592  34.582  30.147  1.00  0.00     0.059 A 
ATOM     80  C   UNL A   1      47.217  35.139  27.813  1.00  0.00     0.059 A 
ATOM     81  F   UNL A   1      46.353  33.517  26.357  1.00  0.00    -0.206 F 
ATOM     82  C   UNL A   1      47.628  35.500  29.096  1.00  0.00     0.060 A 
BRANCH  82  83
ATOM     83  S   UNL A   1      48.260  37.162  29.412  1.00  0.00     0.124 S 
ATOM     84  O   UNL A   1      47.365  37.976  28.596  1.00  0.00    -0.237 OA
ATOM     85  O   UNL A   1      48.097  37.286  30.857  1.00  0.00    -0.237 OA
ATOM     86  O   UNL A   1      49.642  37.088  28.949  1.00  0.00    -0.744 OA
ENDBRANCH  82  83
ENDBRANCH  50  75
BRANCH  62  87
ATOM     87  C   UNL A   1      49.862  26.995  26.682  1.00  0.00     0.058 A 
ATOM     88  C   UNL A   1      50.343  27.066  25.366  1.00  0.00     0.135 A 
ATOM     89  C   UNL A   1      50.766  26.625  27.692  1.00  0.00     0.135 A 
ATOM     90  F   UNL A   1      49.521  27.410  24.363  1.00  0.00    -0.206 F 
ATOM     91  C   UNL A   1      51.661  26.743  25.055  1.00  0.00     0.059 A 
ATOM     92  C   UNL A   1      52.094  26.324  27.408  1.00  0.00     0.059 A 
ATOM     93  F   UNL A   1      50.362  26.556  28.970  1.00  0.00    -0.206 F 
ATOM     94  C   UNL A   1      52.527  26.365  26.083  1.00  0.00     0.060 A 
BRANCH  94  95
ATOM     95  S   UNL A   1      54.233  25.943  25.671  1.00  0.00     0.124 S 
ATOM     96  O   UNL A   1      54.523  24.906  26.655  1.00  0.00    -0.237 OA
ATOM     97  O   UNL A   1      54.122  25.489  24.287  1.00  0.00    -0.237 OA
ATOM     98  O   UNL A   1      54.948  27.202  25.855  1.00  0.00    -0.744 OA
ENDBRANCH  94  95
ENDBRANCH  62  87
ENDBRANCH  36  37
ENDBRANCH  29  31
ENDBRANCH  28  29
ENDBRANCH  27  28
ENDBRANCH   1  27
TORSDOF 20
ENDMDL
MODEL 3
REMARK VINA RESULT:     -10.2      6.771     13.376
REMARK SMILES CCOc1cc(/C=C2/SC(=S)N([C@H](CC)C(=O)OCCOC(=O)c3ccc(-c4c5nc(c(-c6c(F)cc(S(=O)(=O)[O-])cc6F)c6ccc([nH]6)c(-c6c(F)cc(S(=O)(=O)[O-])cc6F)c6nc(c(-c7c(F)cc(S(=O)(=O)[O-])cc7F)c7ccc4[nH]7)C=C6)C=C5)cc3)C2=O)ccc1O
REMARK SMILES IDX 19 1 18 2 16 3 17 4 13 5 12 6 7 7 8 8 9 9 90 10 10 11 91 12
REMARK SMILES IDX 11 13 6 14 4 15 5 16 94 17 93 18 92 19 3 20 2 21 1 22 95 23
REMARK SMILES IDX 14 25 15 26 20 27 21 28 22 29 23 30 24 31 25 32 89 33 26 34
REMARK SMILES IDX 88 35 27 36 28 37 29 38 82 39 30 40 87 41 81 42 83 43 31 44
REMARK SMILES IDX 86 45 80 46 79 47 32 49 66 50 45 51 65 52 46 53 49 54 64 55
REMARK SMILES IDX 84 56 47 57 48 58 63 60 85 61 50 62 33 63 34 64 43 65 35 66
REMARK SMILES IDX 36 67 42 68 44 69 37 70 38 71 39 72 40 73 41 74 67 75 68 76
REMARK SMILES IDX 77 77 69 78 70 79 76 80 78 81 71 82 72 83 73 84 74 85 75 86
REMARK SMILES IDX 51 87 52 88 61 89 53 90 54 91 60 92 62 93 55 94 56 95 57 96
REMARK SMILES IDX 58 97 59 98
REMARK H PARENT 95 24 83 48 49 59
REMARK Flexibility Score: inf
ROOT
ATOM      1  C   UNL A   1      44.462  26.149  25.543  1.00  0.00     0.274 C 
ENDROOT
BRANCH   1   2
ATOM      2  O   UNL A   1      44.388  27.568  25.309  1.00  0.00    -0.461 OA
BRANCH   2   3
ATOM      3  C   UNL A   1      45.559  28.265  25.270  1.00  0.00     0.329 C 
ATOM      4  O   UNL A   1      46.375  28.211  24.359  1.00  0.00    -0.250 OA
BRANCH   3   5
ATOM      5  C   UNL A   1      45.783  29.066  26.567  1.00  0.00     0.201 C 
BRANCH   5   6
ATOM      6  N   UNL A   1      46.600  28.369  27.591  1.00  0.00    -0.278 N 
ATOM      7  C   UNL A   1      46.708  25.388  29.590  1.00  0.00     0.029 C 
ATOM      8  C   UNL A   1      46.900  26.649  29.176  1.00  0.00     0.081 C 
ATOM      9  S   UNL A   1      48.454  27.375  29.098  1.00  0.00    -0.054 SA
ATOM     10  C   UNL A   1      45.929  27.527  28.469  1.00  0.00     0.266 C 
ATOM     11  C   UNL A   1      47.978  28.326  27.681  1.00  0.00     0.149 C 
ATOM     12  O   UNL A   1      44.718  27.471  28.630  1.00  0.00    -0.268 OA
ATOM     13  S   UNL A   1      49.146  28.977  26.686  1.00  0.00    -0.052 S 
BRANCH   7  14
ATOM     14  C   UNL A   1      45.515  24.604  29.260  1.00  0.00    -0.020 A 
ATOM     15  C   UNL A   1      44.302  23.075  27.799  1.00  0.00     0.161 A 
ATOM     16  C   UNL A   1      45.433  23.858  28.081  1.00  0.00     0.058 A 
ATOM     17  C   UNL A   1      43.271  23.034  28.742  1.00  0.00     0.157 A 
ATOM     18  C   UNL A   1      43.315  23.822  29.891  1.00  0.00     0.051 A 
ATOM     19  C   UNL A   1      44.432  24.611  30.146  1.00  0.00     0.012 A 
BRANCH  15  20
ATOM     20  O   UNL A   1      44.379  22.437  26.594  1.00  0.00    -0.490 OA
BRANCH  20  21
ATOM     21  C   UNL A   1      45.609  22.345  25.882  1.00  0.00     0.226 C 
ATOM     22  C   UNL A   1      45.445  22.490  24.378  1.00  0.00     0.049 C 
ENDBRANCH  20  21
ENDBRANCH  15  20
BRANCH  17  23
ATOM     23  O   UNL A   1      42.196  22.198  28.655  1.00  0.00    -0.504 OA
ATOM     24  H   UNL A   1      42.073  21.671  27.890  1.00  0.00     0.293 HD
ENDBRANCH  17  23
ENDBRANCH   7  14
ENDBRANCH   5   6
BRANCH   5  25
ATOM     25  C   UNL A   1      44.504  29.731  27.129  1.00  0.00     0.034 C 
ATOM     26  C   UNL A   1      44.300  31.173  26.665  1.00  0.00     0.007 C 
ENDBRANCH   5  25
ENDBRANCH   3   5
ENDBRANCH   2   3
ENDBRANCH   1   2
BRANCH   1  27
ATOM     27  C   UNL A   1      43.316  25.415  24.845  1.00  0.00     0.275 C 
BRANCH  27  28
ATOM     28  O   UNL A   1      42.040  25.948  25.240  1.00  0.00    -0.458 OA
BRANCH  28  29
ATOM     29  C   UNL A   1      41.404  25.238  26.203  1.00  0.00     0.338 C 
ATOM     30  O   UNL A   1      41.272  24.026  26.254  1.00  0.00    -0.246 OA
BRANCH  29  31
ATOM     31  C   UNL A   1      41.033  26.125  27.317  1.00  0.00     0.060 A 
ATOM     32  C   UNL A   1      41.573  27.414  27.313  1.00  0.00     0.016 A 
ATOM     33  C   UNL A   1      40.226  25.695  28.372  1.00  0.00     0.016 A 
ATOM     34  C   UNL A   1      41.312  28.281  28.367  1.00  0.00     0.010 A 
ATOM     35  C   UNL A   1      39.974  26.564  29.439  1.00  0.00     0.010 A 
ATOM     36  C   UNL A   1      40.528  27.857  29.448  1.00  0.00    -0.014 A 
BRANCH  36  37
ATOM     37  C   UNL A   1      40.364  28.764  30.607  1.00  0.00     0.031 A 
ATOM     38  C   UNL A   1      41.279  28.633  31.790  1.00  0.00     0.074 A 
ATOM     39  C   UNL A   1      39.449  29.749  30.558  1.00  0.00     0.049 A 
ATOM     40  N   UNL A   1      41.333  29.356  32.878  1.00  0.00    -0.248 NA
ATOM     41  C   UNL A   1      42.268  27.544  31.742  1.00  0.00     0.031 C 
ATOM     42  C   UNL A   1      38.529  29.990  29.445  1.00  0.00     0.029 A 
ATOM     43  N   UNL A   1      39.151  30.739  31.460  1.00  0.00    -0.354 N 
ATOM     44  C   UNL A   1      42.355  28.812  33.646  1.00  0.00     0.074 A 
ATOM     45  C   UNL A   1      42.878  27.680  32.911  1.00  0.00     0.031 C 
ATOM     46  C   UNL A   1      37.778  31.068  29.725  1.00  0.00     0.029 A 
ATOM     47  C   UNL A   1      38.144  31.575  31.046  1.00  0.00     0.049 A 
ATOM     48  H   UNL A   1      39.617  30.839  32.322  1.00  0.00     0.167 HD
ATOM     49  C   UNL A   1      42.819  29.225  34.849  1.00  0.00     0.037 A 
ATOM     50  C   UNL A   1      37.575  32.628  31.666  1.00  0.00     0.037 A 
ATOM     51  C   UNL A   1      42.296  30.357  35.573  1.00  0.00     0.049 A 
ATOM     52  C   UNL A   1      38.086  33.045  33.018  1.00  0.00     0.074 A 
ATOM     53  C   UNL A   1      42.702  30.860  36.798  1.00  0.00     0.029 A 
ATOM     54  N   UNL A   1      41.251  31.160  35.139  1.00  0.00    -0.354 N 
ATOM     55  N   UNL A   1      39.060  32.525  33.730  1.00  0.00    -0.248 NA
ATOM     56  C   UNL A   1      37.428  34.196  33.650  1.00  0.00     0.031 C 
ATOM     57  C   UNL A   1      41.877  31.943  37.121  1.00  0.00     0.029 A 
ATOM     58  C   UNL A   1      40.987  32.143  36.079  1.00  0.00     0.049 A 
ATOM     59  H   UNL A   1      40.769  31.047  34.289  1.00  0.00     0.167 HD
ATOM     60  C   UNL A   1      39.139  33.294  34.885  1.00  0.00     0.074 A 
ATOM     61  C   UNL A   1      38.130  34.328  34.766  1.00  0.00     0.031 C 
ATOM     62  C   UNL A   1      39.971  33.159  35.948  1.00  0.00     0.037 A 
BRANCH  49  63
ATOM     63  C   UNL A   1      43.935  28.431  35.471  1.00  0.00     0.058 A 
ATOM     64  C   UNL A   1      43.684  27.323  36.296  1.00  0.00     0.135 A 
ATOM     65  C   UNL A   1      45.274  28.770  35.221  1.00  0.00     0.135 A 
ATOM     66  F   UNL A   1      42.421  26.966  36.582  1.00  0.00    -0.206 F 
ATOM     67  C   UNL A   1      44.719  26.595  36.872  1.00  0.00     0.059 A 
ATOM     68  C   UNL A   1      46.327  28.043  35.768  1.00  0.00     0.059 A 
ATOM     69  F   UNL A   1      45.571  29.823  34.443  1.00  0.00    -0.206 F 
ATOM     70  C   UNL A   1      46.040  26.965  36.605  1.00  0.00     0.060 A 
BRANCH  70  71
ATOM     71  S   UNL A   1      47.375  26.016  37.362  1.00  0.00     0.124 S 
ATOM     72  O   UNL A   1      46.636  24.927  37.993  1.00  0.00    -0.237 OA
ATOM     73  O   UNL A   1      48.188  25.644  36.208  1.00  0.00    -0.237 OA
ATOM     74  O   UNL A   1      47.993  26.969  38.278  1.00  0.00    -0.744 OA
ENDBRANCH  70  71
ENDBRANCH  49  63
BRANCH  50  75
ATOM     75  C   UNL A   1      36.455  33.356  31.014  1.00  0.00     0.058 A 
ATOM     76  C   UNL A   1      36.672  34.174  29.897  1.00  0.00     0.135 A 
ATOM     77  C   UNL A   1      35.141  33.237  31.494  1.00  0.00     0.135 A 
ATOM     78  F   UNL A   1      37.913  34.327  29.408  1.00  0.00    -0.206 F 
ATOM     79  C   UNL A   1      35.629  34.862  29.284  1.00  0.00     0.059 A 
ATOM     80  C   UNL A   1      34.078  33.895  30.884  1.00  0.00     0.059 A 
ATOM     81  F   UNL A   1      34.879  32.457  32.554  1.00  0.00    -0.206 F 
ATOM     82  C   UNL A   1      34.334  34.715  29.784  1.00  0.00     0.060 A 
BRANCH  82  83
ATOM     83  S   UNL A   1      32.977  35.568  28.954  1.00  0.00     0.124 S 
ATOM     84  O   UNL A   1      32.403  34.494  28.150  1.00  0.00    -0.237 OA
ATOM     85  O   UNL A   1      32.167  36.028  30.077  1.00  0.00    -0.237 OA
ATOM     86  O   UNL A   1      33.653  36.624  28.206  1.00  0.00    -0.744 OA
ENDBRANCH  82  83
ENDBRANCH  50  75
BRANCH  62  87
ATOM     87  C   UNL A   1      39.831  34.167  37.055  1.00  0.00     0.058 A 
ATOM     88  C   UNL A   1      40.413  35.441  36.969  1.00  0.00     0.135 A 
ATOM     89  C   UNL A   1      39.096  33.858  38.212  1.00  0.00     0.135 A 
ATOM     90  F   UNL A   1      41.128  35.786  35.886  1.00  0.00    -0.206 F 
ATOM     91  C   UNL A   1      40.308  36.360  38.008  1.00  0.00     0.059 A 
ATOM     92  C   UNL A   1      38.956  34.771  39.252  1.00  0.00     0.059 A 
ATOM     93  F   UNL A   1      38.506  32.659  38.339  1.00  0.00    -0.206 F 
ATOM     94  C   UNL A   1      39.583  36.012  39.150  1.00  0.00     0.060 A 
BRANCH  94  95
ATOM     95  S   UNL A   1      39.455  37.208  40.496  1.00  0.00     0.124 S 
ATOM     96  O   UNL A   1      40.859  37.444  40.813  1.00  0.00    -0.237 OA
ATOM     97  O   UNL A   1      38.753  38.322  39.864  1.00  0.00    -0.237 OA
ATOM     98  O   UNL A   1      38.692  36.492  41.514  1.00  0.00    -0.744 OA
ENDBRANCH  94  95
ENDBRANCH  62  87
ENDBRANCH  36  37
ENDBRANCH  29  31
ENDBRANCH  28  29
ENDBRANCH  27  28
ENDBRANCH   1  27
TORSDOF 20
ENDMDL
