MODEL 1
REMARK VINA RESULT:     -10.5      0.000      0.000
REMARK SMILES COc1cc(/C=C/C(=O)OCCOC(=O)c2ccc(-c3c4nc(c(-c5c(F)cc(S(=O)(=O)[O-])cc5F)c5ccc([nH]5)c(-c5c(F)cc(S(=O)(=O)[O-])cc5F)c5nc(c(-c6c(F)cc(S(=O)(=O)[O-])cc6F)c6ccc3[nH]6)C=C5)C=C4)cc2)cc(OC)c1O
REMARK SMILES IDX 12 1 11 2 10 3 8 4 9 5 7 6 6 7 5 8 3 9 4 10 86 11 83 12
REMARK SMILES IDX 82 13 2 14 1 15 87 16 84 18 85 19 13 20 14 21 15 22 16 23
REMARK SMILES IDX 17 24 81 25 18 26 80 27 19 28 20 29 21 30 74 31 22 32 79 33
REMARK SMILES IDX 73 34 75 35 23 36 78 37 72 38 71 39 24 41 58 42 37 43 57 44
REMARK SMILES IDX 38 45 41 46 56 47 76 48 39 49 40 50 55 52 77 53 42 54 25 55
REMARK SMILES IDX 26 56 35 57 27 58 28 59 34 60 36 61 29 62 30 63 31 64 32 65
REMARK SMILES IDX 33 66 59 67 60 68 69 69 61 70 62 71 68 72 70 73 63 74 64 75
REMARK SMILES IDX 65 76 66 77 67 78 43 79 44 80 53 81 45 82 46 83 52 84 54 85
REMARK SMILES IDX 47 86 48 87 49 88 50 89 51 90
REMARK H PARENT 87 17 75 40 41 51
REMARK Flexibility Score: inf
ROOT
ATOM      1  C   UNL A   1      41.508  22.493  26.299  1.00  0.00     0.275 C 
ENDROOT
BRANCH   1   2
ATOM      2  C   UNL A   1      40.135  22.101  26.856  1.00  0.00     0.275 C 
BRANCH   2   3
ATOM      3  O   UNL A   1      39.193  21.816  25.804  1.00  0.00    -0.459 OA
BRANCH   3   4
ATOM      4  C   UNL A   1      38.065  22.566  25.814  1.00  0.00     0.330 C 
ATOM      5  O   UNL A   1      38.009  23.780  25.947  1.00  0.00    -0.247 OA
BRANCH   4   6
ATOM      6  C   UNL A   1      36.840  21.773  25.584  1.00  0.00     0.094 C 
ATOM      7  C   UNL A   1      36.787  20.535  25.066  1.00  0.00     0.016 C 
BRANCH   7   8
ATOM      8  C   UNL A   1      35.517  19.850  24.779  1.00  0.00    -0.018 A 
ATOM      9  C   UNL A   1      34.213  17.818  24.471  1.00  0.00     0.165 A 
ATOM     10  C   UNL A   1      35.444  18.457  24.656  1.00  0.00     0.058 A 
ATOM     11  C   UNL A   1      33.029  18.569  24.450  1.00  0.00     0.200 A 
ATOM     12  C   UNL A   1      33.082  19.966  24.536  1.00  0.00     0.165 A 
ATOM     13  C   UNL A   1      34.329  20.589  24.714  1.00  0.00     0.058 A 
BRANCH   9  14
ATOM     14  O   UNL A   1      34.259  16.447  24.452  1.00  0.00    -0.493 OA
ATOM     15  C   UNL A   1      35.257  15.851  25.282  1.00  0.00     0.278 C 
ENDBRANCH   9  14
BRANCH  11  16
ATOM     16  O   UNL A   1      31.828  17.914  24.446  1.00  0.00    -0.502 OA
ATOM     17  H   UNL A   1      31.779  17.027  24.147  1.00  0.00     0.293 HD
ENDBRANCH  11  16
BRANCH  12  18
ATOM     18  O   UNL A   1      32.038  20.856  24.533  1.00  0.00    -0.493 OA
ATOM     19  C   UNL A   1      31.887  21.711  25.657  1.00  0.00     0.278 C 
ENDBRANCH  12  18
ENDBRANCH   7   8
ENDBRANCH   4   6
ENDBRANCH   3   4
ENDBRANCH   2   3
ENDBRANCH   1   2
BRANCH   1  20
ATOM     20  O   UNL A   1      42.024  23.685  26.918  1.00  0.00    -0.458 OA
BRANCH  20  21
ATOM     21  C   UNL A   1      41.537  24.848  26.418  1.00  0.00     0.338 C 
ATOM     22  O   UNL A   1      41.215  25.075  25.265  1.00  0.00    -0.246 OA
BRANCH  21  23
ATOM     23  C   UNL A   1      41.328  25.806  27.517  1.00  0.00     0.060 A 
ATOM     24  C   UNL A   1      42.286  26.806  27.706  1.00  0.00     0.016 A 
ATOM     25  C   UNL A   1      40.234  25.699  28.379  1.00  0.00     0.016 A 
ATOM     26  C   UNL A   1      42.145  27.716  28.751  1.00  0.00     0.010 A 
ATOM     27  C   UNL A   1      40.096  26.613  29.430  1.00  0.00     0.010 A 
ATOM     28  C   UNL A   1      41.049  27.627  29.621  1.00  0.00    -0.014 A 
BRANCH  28  29
ATOM     29  C   UNL A   1      40.896  28.611  30.722  1.00  0.00     0.031 A 
ATOM     30  C   UNL A   1      41.781  28.542  31.932  1.00  0.00     0.074 A 
ATOM     31  C   UNL A   1      39.958  29.572  30.621  1.00  0.00     0.049 A 
ATOM     32  N   UNL A   1      41.765  29.285  33.009  1.00  0.00    -0.248 NA
ATOM     33  C   UNL A   1      42.821  27.503  31.931  1.00  0.00     0.031 C 
ATOM     34  C   UNL A   1      39.060  29.753  29.481  1.00  0.00     0.029 A 
ATOM     35  N   UNL A   1      39.602  30.570  31.491  1.00  0.00    -0.354 N 
ATOM     36  C   UNL A   1      42.785  28.803  33.819  1.00  0.00     0.074 A 
ATOM     37  C   UNL A   1      43.387  27.687  33.117  1.00  0.00     0.031 C 
ATOM     38  C   UNL A   1      38.255  30.801  29.721  1.00  0.00     0.029 A 
ATOM     39  C   UNL A   1      38.551  31.337  31.047  1.00  0.00     0.049 A 
ATOM     40  H   UNL A   1      40.055  30.724  32.352  1.00  0.00     0.167 HD
ATOM     41  C   UNL A   1      43.185  29.254  35.033  1.00  0.00     0.037 A 
ATOM     42  C   UNL A   1      37.882  32.339  31.651  1.00  0.00     0.037 A 
ATOM     43  C   UNL A   1      42.579  30.364  35.725  1.00  0.00     0.049 A 
ATOM     44  C   UNL A   1      38.293  32.770  33.032  1.00  0.00     0.074 A 
ATOM     45  C   UNL A   1      42.935  30.918  36.942  1.00  0.00     0.029 A 
ATOM     46  N   UNL A   1      41.481  31.079  35.268  1.00  0.00    -0.354 N 
ATOM     47  N   UNL A   1      39.277  32.323  33.775  1.00  0.00    -0.248 NA
ATOM     48  C   UNL A   1      37.496  33.831  33.663  1.00  0.00     0.031 C 
ATOM     49  C   UNL A   1      42.023  31.936  37.245  1.00  0.00     0.029 A 
ATOM     50  C   UNL A   1      41.124  32.046  36.196  1.00  0.00     0.049 A 
ATOM     51  H   UNL A   1      41.023  30.924  34.410  1.00  0.00     0.167 HD
ATOM     52  C   UNL A   1      39.222  33.051  34.958  1.00  0.00     0.074 A 
ATOM     53  C   UNL A   1      38.120  33.981  34.824  1.00  0.00     0.031 C 
ATOM     54  C   UNL A   1      40.012  32.955  36.056  1.00  0.00     0.037 A 
BRANCH  41  55
ATOM     55  C   UNL A   1      44.319  28.529  35.704  1.00  0.00     0.058 A 
ATOM     56  C   UNL A   1      45.658  28.880  35.477  1.00  0.00     0.135 A 
ATOM     57  C   UNL A   1      44.060  27.484  36.606  1.00  0.00     0.135 A 
ATOM     58  F   UNL A   1      45.963  29.864  34.616  1.00  0.00    -0.206 F 
ATOM     59  C   UNL A   1      46.703  28.200  36.096  1.00  0.00     0.059 A 
ATOM     60  C   UNL A   1      45.088  26.805  37.253  1.00  0.00     0.059 A 
ATOM     61  F   UNL A   1      42.796  27.109  36.861  1.00  0.00    -0.206 F 
ATOM     62  C   UNL A   1      46.408  27.159  36.978  1.00  0.00     0.060 A 
BRANCH  62  63
ATOM     63  S   UNL A   1      47.774  26.275  37.761  1.00  0.00     0.124 S 
ATOM     64  O   UNL A   1      47.138  25.009  38.108  1.00  0.00    -0.237 OA
ATOM     65  O   UNL A   1      48.763  26.214  36.689  1.00  0.00    -0.237 OA
ATOM     66  O   UNL A   1      48.130  27.129  38.889  1.00  0.00    -0.744 OA
ENDBRANCH  62  63
ENDBRANCH  41  55
BRANCH  42  67
ATOM     67  C   UNL A   1      36.739  32.984  30.954  1.00  0.00     0.058 A 
ATOM     68  C   UNL A   1      35.416  32.694  31.313  1.00  0.00     0.135 A 
ATOM     69  C   UNL A   1      36.951  33.926  29.935  1.00  0.00     0.135 A 
ATOM     70  F   UNL A   1      35.164  31.791  32.273  1.00  0.00    -0.206 F 
ATOM     71  C   UNL A   1      34.340  33.317  30.689  1.00  0.00     0.059 A 
ATOM     72  C   UNL A   1      35.892  34.579  29.312  1.00  0.00     0.059 A 
ATOM     73  F   UNL A   1      38.201  34.243  29.560  1.00  0.00    -0.206 F 
ATOM     74  C   UNL A   1      34.589  34.264  29.693  1.00  0.00     0.060 A 
BRANCH  74  75
ATOM     75  S   UNL A   1      33.188  35.116  28.936  1.00  0.00     0.124 S 
ATOM     76  O   UNL A   1      32.317  35.326  30.085  1.00  0.00    -0.237 OA
ATOM     77  O   UNL A   1      33.818  36.313  28.385  1.00  0.00    -0.237 OA
ATOM     78  O   UNL A   1      32.709  34.157  27.945  1.00  0.00    -0.744 OA
ENDBRANCH  74  75
ENDBRANCH  42  67
BRANCH  54  79
ATOM     79  C   UNL A   1      39.712  33.878  37.205  1.00  0.00     0.058 A 
ATOM     80  C   UNL A   1      38.992  33.437  38.326  1.00  0.00     0.135 A 
ATOM     81  C   UNL A   1      40.195  35.196  37.212  1.00  0.00     0.135 A 
ATOM     82  F   UNL A   1      38.500  32.188  38.364  1.00  0.00    -0.206 F 
ATOM     83  C   UNL A   1      38.750  34.274  39.409  1.00  0.00     0.059 A 
ATOM     84  C   UNL A   1      39.983  36.045  38.295  1.00  0.00     0.059 A 
ATOM     85  F   UNL A   1      40.895  35.665  36.167  1.00  0.00    -0.206 F 
ATOM     86  C   UNL A   1      39.252  35.577  39.385  1.00  0.00     0.060 A 
BRANCH  86  87
ATOM     87  S   UNL A   1      38.970  36.640  40.817  1.00  0.00     0.124 S 
ATOM     88  O   UNL A   1      37.923  35.910  41.524  1.00  0.00    -0.237 OA
ATOM     89  O   UNL A   1      40.280  36.653  41.462  1.00  0.00    -0.237 OA
ATOM     90  O   UNL A   1      38.559  37.908  40.223  1.00  0.00    -0.744 OA
ENDBRANCH  86  87
ENDBRANCH  54  79
ENDBRANCH  28  29
ENDBRANCH  21  23
ENDBRANCH  20  21
ENDBRANCH   1  20
TORSDOF 18
ENDMDL
MODEL 2
REMARK VINA RESULT:     -10.4      1.163      2.285
REMARK SMILES COc1cc(/C=C/C(=O)OCCOC(=O)c2ccc(-c3c4nc(c(-c5c(F)cc(S(=O)(=O)[O-])cc5F)c5ccc([nH]5)c(-c5c(F)cc(S(=O)(=O)[O-])cc5F)c5nc(c(-c6c(F)cc(S(=O)(=O)[O-])cc6F)c6ccc3[nH]6)C=C5)C=C4)cc2)cc(OC)c1O
REMARK SMILES IDX 12 1 11 2 10 3 8 4 9 5 7 6 6 7 5 8 3 9 4 10 86 11 83 12
REMARK SMILES IDX 82 13 2 14 1 15 87 16 84 18 85 19 13 20 14 21 15 22 16 23
REMARK SMILES IDX 17 24 81 25 18 26 80 27 19 28 20 29 21 30 74 31 22 32 79 33
REMARK SMILES IDX 73 34 75 35 23 36 78 37 72 38 71 39 24 41 58 42 37 43 57 44
REMARK SMILES IDX 38 45 41 46 56 47 76 48 39 49 40 50 55 52 77 53 42 54 25 55
REMARK SMILES IDX 26 56 35 57 27 58 28 59 34 60 36 61 29 62 30 63 31 64 32 65
REMARK SMILES IDX 33 66 59 67 60 68 69 69 61 70 62 71 68 72 70 73 63 74 64 75
REMARK SMILES IDX 65 76 66 77 67 78 43 79 44 80 53 81 45 82 46 83 52 84 54 85
REMARK SMILES IDX 47 86 48 87 49 88 50 89 51 90
REMARK H PARENT 87 17 75 40 41 51
REMARK Flexibility Score: inf
ROOT
ATOM      1  C   UNL A   1      41.460  22.710  26.410  1.00  0.00     0.275 C 
ENDROOT
BRANCH   1   2
ATOM      2  C   UNL A   1      40.637  21.453  26.709  1.00  0.00     0.275 C 
BRANCH   2   3
ATOM      3  O   UNL A   1      39.260  21.609  26.315  1.00  0.00    -0.459 OA
BRANCH   3   4
ATOM      4  C   UNL A   1      38.750  20.600  25.569  1.00  0.00     0.330 C 
ATOM      5  O   UNL A   1      39.295  19.529  25.338  1.00  0.00    -0.247 OA
BRANCH   4   6
ATOM      6  C   UNL A   1      37.387  20.879  25.070  1.00  0.00     0.094 C 
ATOM      7  C   UNL A   1      36.997  21.987  24.421  1.00  0.00     0.016 C 
BRANCH   7   8
ATOM      8  C   UNL A   1      35.596  22.231  24.043  1.00  0.00    -0.018 A 
ATOM      9  C   UNL A   1      33.904  23.495  22.833  1.00  0.00     0.165 A 
ATOM     10  C   UNL A   1      35.227  23.330  23.256  1.00  0.00     0.058 A 
ATOM     11  C   UNL A   1      32.938  22.533  23.160  1.00  0.00     0.200 A 
ATOM     12  C   UNL A   1      33.276  21.446  23.974  1.00  0.00     0.165 A 
ATOM     13  C   UNL A   1      34.610  21.301  24.395  1.00  0.00     0.058 A 
BRANCH   9  14
ATOM     14  O   UNL A   1      33.684  24.560  21.997  1.00  0.00    -0.493 OA
ATOM     15  C   UNL A   1      33.016  25.678  22.583  1.00  0.00     0.278 C 
ENDBRANCH   9  14
BRANCH  11  16
ATOM     16  O   UNL A   1      31.696  22.621  22.591  1.00  0.00    -0.502 OA
ATOM     17  H   UNL A   1      31.001  22.072  22.896  1.00  0.00     0.293 HD
ENDBRANCH  11  16
BRANCH  12  18
ATOM     18  O   UNL A   1      32.472  20.416  24.392  1.00  0.00    -0.493 OA
ATOM     19  C   UNL A   1      32.904  19.638  25.499  1.00  0.00     0.278 C 
ENDBRANCH  12  18
ENDBRANCH   7   8
ENDBRANCH   4   6
ENDBRANCH   3   4
ENDBRANCH   2   3
ENDBRANCH   1   2
BRANCH   1  20
ATOM     20  O   UNL A   1      40.648  23.898  26.392  1.00  0.00    -0.458 OA
BRANCH  20  21
ATOM     21  C   UNL A   1      41.321  25.050  26.150  1.00  0.00     0.338 C 
ATOM     22  O   UNL A   1      41.919  25.352  25.132  1.00  0.00    -0.246 OA
BRANCH  21  23
ATOM     23  C   UNL A   1      41.127  25.978  27.277  1.00  0.00     0.060 A 
ATOM     24  C   UNL A   1      42.016  27.049  27.404  1.00  0.00     0.016 A 
ATOM     25  C   UNL A   1      40.119  25.778  28.222  1.00  0.00     0.016 A 
ATOM     26  C   UNL A   1      41.890  27.936  28.471  1.00  0.00     0.010 A 
ATOM     27  C   UNL A   1      39.996  26.668  29.294  1.00  0.00     0.010 A 
ATOM     28  C   UNL A   1      40.878  27.753  29.425  1.00  0.00    -0.014 A 
BRANCH  28  29
ATOM     29  C   UNL A   1      40.739  28.711  30.548  1.00  0.00     0.031 A 
ATOM     30  C   UNL A   1      41.616  28.595  31.762  1.00  0.00     0.074 A 
ATOM     31  C   UNL A   1      39.821  29.693  30.468  1.00  0.00     0.049 A 
ATOM     32  N   UNL A   1      41.609  29.310  32.857  1.00  0.00    -0.248 NA
ATOM     33  C   UNL A   1      42.636  27.536  31.739  1.00  0.00     0.031 C 
ATOM     34  C   UNL A   1      38.933  29.921  29.328  1.00  0.00     0.029 A 
ATOM     35  N   UNL A   1      39.480  30.677  31.361  1.00  0.00    -0.354 N 
ATOM     36  C   UNL A   1      42.615  28.788  33.659  1.00  0.00     0.074 A 
ATOM     37  C   UNL A   1      43.198  27.678  32.932  1.00  0.00     0.031 C 
ATOM     38  C   UNL A   1      38.148  30.979  29.591  1.00  0.00     0.029 A 
ATOM     39  C   UNL A   1      38.447  31.475  30.931  1.00  0.00     0.049 A 
ATOM     40  H   UNL A   1      39.931  30.800  32.228  1.00  0.00     0.167 HD
ATOM     41  C   UNL A   1      43.018  29.201  34.886  1.00  0.00     0.037 A 
ATOM     42  C   UNL A   1      37.796  32.474  31.557  1.00  0.00     0.037 A 
ATOM     43  C   UNL A   1      42.430  30.304  35.603  1.00  0.00     0.049 A 
ATOM     44  C   UNL A   1      38.207  32.862  32.950  1.00  0.00     0.074 A 
ATOM     45  C   UNL A   1      42.790  30.821  36.835  1.00  0.00     0.029 A 
ATOM     46  N   UNL A   1      41.349  31.053  35.159  1.00  0.00    -0.354 N 
ATOM     47  N   UNL A   1      39.178  32.377  33.687  1.00  0.00    -0.248 NA
ATOM     48  C   UNL A   1      37.428  33.923  33.604  1.00  0.00     0.031 C 
ATOM     49  C   UNL A   1      41.897  31.849  37.159  1.00  0.00     0.029 A 
ATOM     50  C   UNL A   1      41.006  32.003  36.109  1.00  0.00     0.049 A 
ATOM     51  H   UNL A   1      40.893  30.928  34.295  1.00  0.00     0.167 HD
ATOM     52  C   UNL A   1      39.131  33.077  34.888  1.00  0.00     0.074 A 
ATOM     53  C   UNL A   1      38.048  34.032  34.772  1.00  0.00     0.031 C 
ATOM     54  C   UNL A   1      39.913  32.937  35.986  1.00  0.00     0.037 A 
BRANCH  41  55
ATOM     55  C   UNL A   1      44.133  28.436  35.544  1.00  0.00     0.058 A 
ATOM     56  C   UNL A   1      43.881  27.349  36.395  1.00  0.00     0.135 A 
ATOM     57  C   UNL A   1      45.473  28.779  35.299  1.00  0.00     0.135 A 
ATOM     58  F   UNL A   1      42.619  26.985  36.673  1.00  0.00    -0.206 F 
ATOM     59  C   UNL A   1      44.918  26.650  37.007  1.00  0.00     0.059 A 
ATOM     60  C   UNL A   1      46.525  28.079  35.881  1.00  0.00     0.059 A 
ATOM     61  F   UNL A   1      45.769  29.809  34.490  1.00  0.00    -0.206 F 
ATOM     62  C   UNL A   1      46.237  27.026  36.748  1.00  0.00     0.060 A 
BRANCH  62  63
ATOM     63  S   UNL A   1      47.571  26.120  37.561  1.00  0.00     0.124 S 
ATOM     64  O   UNL A   1      48.084  25.311  36.461  1.00  0.00    -0.237 OA
ATOM     65  O   UNL A   1      48.446  27.196  38.019  1.00  0.00    -0.237 OA
ATOM     66  O   UNL A   1      46.886  25.383  38.618  1.00  0.00    -0.744 OA
ENDBRANCH  62  63
ENDBRANCH  41  55
BRANCH  42  67
ATOM     67  C   UNL A   1      36.669  33.160  30.871  1.00  0.00     0.058 A 
ATOM     68  C   UNL A   1      35.340  32.915  31.241  1.00  0.00     0.135 A 
ATOM     69  C   UNL A   1      36.904  34.096  29.851  1.00  0.00     0.135 A 
ATOM     70  F   UNL A   1      35.065  32.019  32.202  1.00  0.00    -0.206 F 
ATOM     71  C   UNL A   1      34.281  33.575  30.627  1.00  0.00     0.059 A 
ATOM     72  C   UNL A   1      35.863  34.786  29.239  1.00  0.00     0.059 A 
ATOM     73  F   UNL A   1      38.161  34.370  29.466  1.00  0.00    -0.206 F 
ATOM     74  C   UNL A   1      34.554  34.514  29.630  1.00  0.00     0.060 A 
BRANCH  74  75
ATOM     75  S   UNL A   1      33.176  35.416  28.887  1.00  0.00     0.124 S 
ATOM     76  O   UNL A   1      33.875  36.425  28.101  1.00  0.00    -0.237 OA
ATOM     77  O   UNL A   1      32.498  34.370  28.127  1.00  0.00    -0.237 OA
ATOM     78  O   UNL A   1      32.440  35.915  30.045  1.00  0.00    -0.744 OA
ENDBRANCH  74  75
ENDBRANCH  42  67
BRANCH  54  79
ATOM     79  C   UNL A   1      39.626  33.836  37.157  1.00  0.00     0.058 A 
ATOM     80  C   UNL A   1      38.820  33.410  38.224  1.00  0.00     0.135 A 
ATOM     81  C   UNL A   1      40.202  35.114  37.240  1.00  0.00     0.135 A 
ATOM     82  F   UNL A   1      38.236  32.201  38.189  1.00  0.00    -0.206 F 
ATOM     83  C   UNL A   1      38.587  34.222  39.328  1.00  0.00     0.059 A 
ATOM     84  C   UNL A   1      40.001  35.935  38.345  1.00  0.00     0.059 A 
ATOM     85  F   UNL A   1      40.986  35.567  36.248  1.00  0.00    -0.206 F 
ATOM     86  C   UNL A   1      39.184  35.483  39.381  1.00  0.00     0.060 A 
BRANCH  86  87
ATOM     87  S   UNL A   1      38.911  36.511  40.840  1.00  0.00     0.124 S 
ATOM     88  O   UNL A   1      38.440  37.755  40.240  1.00  0.00    -0.237 OA
ATOM     89  O   UNL A   1      37.911  35.746  41.580  1.00  0.00    -0.237 OA
ATOM     90  O   UNL A   1      40.229  36.574  41.463  1.00  0.00    -0.744 OA
ENDBRANCH  86  87
ENDBRANCH  54  79
ENDBRANCH  28  29
ENDBRANCH  21  23
ENDBRANCH  20  21
ENDBRANCH   1  20
TORSDOF 18
ENDMDL
MODEL 3
REMARK VINA RESULT:     -10.3      6.791     12.198
REMARK SMILES COc1cc(/C=C/C(=O)OCCOC(=O)c2ccc(-c3c4nc(c(-c5c(F)cc(S(=O)(=O)[O-])cc5F)c5ccc([nH]5)c(-c5c(F)cc(S(=O)(=O)[O-])cc5F)c5nc(c(-c6c(F)cc(S(=O)(=O)[O-])cc6F)c6ccc3[nH]6)C=C5)C=C4)cc2)cc(OC)c1O
REMARK SMILES IDX 12 1 11 2 10 3 8 4 9 5 7 6 6 7 5 8 3 9 4 10 86 11 83 12
REMARK SMILES IDX 82 13 2 14 1 15 87 16 84 18 85 19 13 20 14 21 15 22 16 23
REMARK SMILES IDX 17 24 81 25 18 26 80 27 19 28 20 29 21 30 74 31 22 32 79 33
REMARK SMILES IDX 73 34 75 35 23 36 78 37 72 38 71 39 24 41 58 42 37 43 57 44
REMARK SMILES IDX 38 45 41 46 56 47 76 48 39 49 40 50 55 52 77 53 42 54 25 55
REMARK SMILES IDX 26 56 35 57 27 58 28 59 34 60 36 61 29 62 30 63 31 64 32 65
REMARK SMILES IDX 33 66 59 67 60 68 69 69 61 70 62 71 68 72 70 73 63 74 64 75
REMARK SMILES IDX 65 76 66 77 67 78 43 79 44 80 53 81 45 82 46 83 52 84 54 85
REMARK SMILES IDX 47 86 48 87 49 88 50 89 51 90
REMARK H PARENT 87 17 75 40 41 51
REMARK Flexibility Score: inf
ROOT
ATOM      1  C   UNL A   1      34.498  31.274  28.048  1.00  0.00     0.275 C 
ENDROOT
BRANCH   1   2
ATOM      2  C   UNL A   1      33.462  30.646  27.110  1.00  0.00     0.275 C 
BRANCH   2   3
ATOM      3  O   UNL A   1      33.908  29.377  26.594  1.00  0.00    -0.459 OA
BRANCH   3   4
ATOM      4  C   UNL A   1      32.943  28.596  26.052  1.00  0.00     0.330 C 
ATOM      5  O   UNL A   1      31.955  28.989  25.448  1.00  0.00    -0.247 OA
BRANCH   4   6
ATOM      6  C   UNL A   1      33.212  27.152  26.204  1.00  0.00     0.094 C 
ATOM      7  C   UNL A   1      33.980  26.403  25.397  1.00  0.00     0.016 C 
BRANCH   7   8
ATOM      8  C   UNL A   1      34.119  24.947  25.562  1.00  0.00    -0.018 A 
ATOM      9  C   UNL A   1      35.491  22.948  25.770  1.00  0.00     0.165 A 
ATOM     10  C   UNL A   1      35.370  24.319  25.522  1.00  0.00     0.058 A 
ATOM     11  C   UNL A   1      34.357  22.193  26.105  1.00  0.00     0.200 A 
ATOM     12  C   UNL A   1      33.092  22.794  26.117  1.00  0.00     0.165 A 
ATOM     13  C   UNL A   1      32.992  24.171  25.858  1.00  0.00     0.058 A 
BRANCH   9  14
ATOM     14  O   UNL A   1      36.775  22.464  25.789  1.00  0.00    -0.493 OA
ATOM     15  C   UNL A   1      37.803  23.446  25.919  1.00  0.00     0.278 C 
ENDBRANCH   9  14
BRANCH  11  16
ATOM     16  O   UNL A   1      34.521  20.898  26.514  1.00  0.00    -0.502 OA
ATOM     17  H   UNL A   1      34.481  20.686  27.426  1.00  0.00     0.293 HD
ENDBRANCH  11  16
BRANCH  12  18
ATOM     18  O   UNL A   1      31.884  22.219  26.418  1.00  0.00    -0.493 OA
ATOM     19  C   UNL A   1      30.780  23.078  26.669  1.00  0.00     0.278 C 
ENDBRANCH  12  18
ENDBRANCH   7   8
ENDBRANCH   4   6
ENDBRANCH   3   4
ENDBRANCH   2   3
ENDBRANCH   1   2
BRANCH   1  20
ATOM     20  O   UNL A   1      35.439  30.305  28.543  1.00  0.00    -0.458 OA
BRANCH  20  21
ATOM     21  C   UNL A   1      36.199  30.723  29.585  1.00  0.00     0.338 C 
ATOM     22  O   UNL A   1      35.813  31.261  30.608  1.00  0.00    -0.246 OA
BRANCH  21  23
ATOM     23  C   UNL A   1      37.598  30.317  29.367  1.00  0.00     0.060 A 
ATOM     24  C   UNL A   1      38.000  30.029  28.059  1.00  0.00     0.016 A 
ATOM     25  C   UNL A   1      38.492  30.176  30.431  1.00  0.00     0.016 A 
ATOM     26  C   UNL A   1      39.306  29.614  27.808  1.00  0.00     0.010 A 
ATOM     27  C   UNL A   1      39.802  29.755  30.176  1.00  0.00     0.010 A 
ATOM     28  C   UNL A   1      40.218  29.474  28.864  1.00  0.00    -0.014 A 
BRANCH  28  29
ATOM     29  C   UNL A   1      41.611  29.047  28.587  1.00  0.00     0.031 A 
ATOM     30  C   UNL A   1      42.736  30.039  28.639  1.00  0.00     0.074 A 
ATOM     31  C   UNL A   1      41.859  27.756  28.294  1.00  0.00     0.049 A 
ATOM     32  N   UNL A   1      44.007  29.860  28.384  1.00  0.00    -0.248 NA
ATOM     33  C   UNL A   1      42.387  31.413  29.031  1.00  0.00     0.031 C 
ATOM     34  C   UNL A   1      40.850  26.698  28.242  1.00  0.00     0.029 A 
ATOM     35  N   UNL A   1      43.032  27.118  27.981  1.00  0.00    -0.354 N 
ATOM     36  C   UNL A   1      44.612  31.096  28.576  1.00  0.00     0.074 A 
ATOM     37  C   UNL A   1      43.562  32.023  28.949  1.00  0.00     0.031 C 
ATOM     38  C   UNL A   1      41.449  25.541  27.916  1.00  0.00     0.029 A 
ATOM     39  C   UNL A   1      42.871  25.782  27.695  1.00  0.00     0.049 A 
ATOM     40  H   UNL A   1      43.906  27.571  27.962  1.00  0.00     0.167 HD
ATOM     41  C   UNL A   1      45.921  31.423  28.459  1.00  0.00     0.037 A 
ATOM     42  C   UNL A   1      43.763  24.865  27.275  1.00  0.00     0.037 A 
ATOM     43  C   UNL A   1      46.958  30.494  28.085  1.00  0.00     0.049 A 
ATOM     44  C   UNL A   1      45.198  25.271  27.074  1.00  0.00     0.074 A 
ATOM     45  C   UNL A   1      48.319  30.722  27.972  1.00  0.00     0.029 A 
ATOM     46  N   UNL A   1      46.748  29.164  27.749  1.00  0.00    -0.354 N 
ATOM     47  N   UNL A   1      45.760  26.436  27.285  1.00  0.00    -0.248 NA
ATOM     48  C   UNL A   1      46.115  24.242  26.564  1.00  0.00     0.031 C 
ATOM     49  C   UNL A   1      48.925  29.544  27.521  1.00  0.00     0.029 A 
ATOM     50  C   UNL A   1      47.949  28.569  27.394  1.00  0.00     0.049 A 
ATOM     51  H   UNL A   1      45.875  28.710  27.762  1.00  0.00     0.167 HD
ATOM     52  C   UNL A   1      47.099  26.281  26.942  1.00  0.00     0.074 A 
ATOM     53  C   UNL A   1      47.265  24.904  26.526  1.00  0.00     0.031 C 
ATOM     54  C   UNL A   1      48.097  27.198  26.966  1.00  0.00     0.037 A 
BRANCH  41  55
ATOM     55  C   UNL A   1      46.304  32.855  28.711  1.00  0.00     0.058 A 
ATOM     56  C   UNL A   1      46.249  33.824  27.698  1.00  0.00     0.135 A 
ATOM     57  C   UNL A   1      46.707  33.269  29.992  1.00  0.00     0.135 A 
ATOM     58  F   UNL A   1      45.881  33.481  26.453  1.00  0.00    -0.206 F 
ATOM     59  C   UNL A   1      46.611  35.147  27.936  1.00  0.00     0.059 A 
ATOM     60  C   UNL A   1      47.051  34.590  30.258  1.00  0.00     0.059 A 
ATOM     61  F   UNL A   1      46.775  32.383  30.998  1.00  0.00    -0.206 F 
ATOM     62  C   UNL A   1      47.017  35.520  29.219  1.00  0.00     0.060 A 
BRANCH  62  63
ATOM     63  S   UNL A   1      47.500  37.235  29.510  1.00  0.00     0.124 S 
ATOM     64  O   UNL A   1      46.357  37.733  30.268  1.00  0.00    -0.237 OA
ATOM     65  O   UNL A   1      48.743  37.087  30.262  1.00  0.00    -0.237 OA
ATOM     66  O   UNL A   1      47.647  37.780  28.164  1.00  0.00    -0.744 OA
ENDBRANCH  62  63
ENDBRANCH  41  55
BRANCH  42  67
ATOM     67  C   UNL A   1      43.313  23.476  26.996  1.00  0.00     0.058 A 
ATOM     68  C   UNL A   1      43.113  23.031  25.683  1.00  0.00     0.135 A 
ATOM     69  C   UNL A   1      43.103  22.560  28.039  1.00  0.00     0.135 A 
ATOM     70  F   UNL A   1      43.289  23.874  24.654  1.00  0.00    -0.206 F 
ATOM     71  C   UNL A   1      42.722  21.724  25.410  1.00  0.00     0.059 A 
ATOM     72  C   UNL A   1      42.735  21.242  27.790  1.00  0.00     0.059 A 
ATOM     73  F   UNL A   1      43.288  22.937  29.313  1.00  0.00    -0.206 F 
ATOM     74  C   UNL A   1      42.542  20.834  26.471  1.00  0.00     0.060 A 
BRANCH  74  75
ATOM     75  S   UNL A   1      42.102  19.122  26.103  1.00  0.00     0.124 S 
ATOM     76  O   UNL A   1      42.522  18.442  27.321  1.00  0.00    -0.237 OA
ATOM     77  O   UNL A   1      40.661  19.214  25.888  1.00  0.00    -0.237 OA
ATOM     78  O   UNL A   1      42.887  18.824  24.908  1.00  0.00    -0.744 OA
ENDBRANCH  74  75
ENDBRANCH  42  67
BRANCH  54  79
ATOM     79  C   UNL A   1      49.461  26.745  26.527  1.00  0.00     0.058 A 
ATOM     80  C   UNL A   1      50.304  26.025  27.388  1.00  0.00     0.135 A 
ATOM     81  C   UNL A   1      49.910  26.983  25.218  1.00  0.00     0.135 A 
ATOM     82  F   UNL A   1      49.926  25.781  28.654  1.00  0.00    -0.206 F 
ATOM     83  C   UNL A   1      51.549  25.567  26.971  1.00  0.00     0.059 A 
ATOM     84  C   UNL A   1      51.143  26.514  24.773  1.00  0.00     0.059 A 
ATOM     85  F   UNL A   1      49.140  27.660  24.352  1.00  0.00    -0.206 F 
ATOM     86  C   UNL A   1      51.959  25.814  25.660  1.00  0.00     0.060 A 
BRANCH  86  87
ATOM     87  S   UNL A   1      53.558  25.175  25.117  1.00  0.00     0.124 S 
ATOM     88  O   UNL A   1      54.477  25.904  25.985  1.00  0.00    -0.237 OA
ATOM     89  O   UNL A   1      53.432  23.745  25.386  1.00  0.00    -0.237 OA
ATOM     90  O   UNL A   1      53.607  25.538  23.705  1.00  0.00    -0.744 OA
ENDBRANCH  86  87
ENDBRANCH  54  79
ENDBRANCH  28  29
ENDBRANCH  21  23
ENDBRANCH  20  21
ENDBRANCH   1  20
TORSDOF 18
ENDMDL
