MODEL 1
REMARK VINA RESULT:     -11.3      0.000      0.000
REMARK SMILES COc1ncccc1C[C@H](C(=O)OCCOC(=O)c1ccc(-c2c3nc(c(-c4c(F)cc(S(=O)(=O)[O-])cc4F)c4ccc([nH]4)c(-c4c(F)cc(S(=O)(=O)[O-])cc4F)c4nc(c(-c5c(F)cc(S(=O)(=O)[O-])cc5F)c5ccc2[nH]5)C=C4)C=C3)cc1)c1ccc(F)cc1
REMARK SMILES IDX 14 1 13 2 11 3 12 4 10 5 9 6 8 7 3 8 4 9 5 10 7 11 6 12 2 13
REMARK SMILES IDX 1 14 85 15 86 16 91 17 87 18 90 19 88 20 89 21 15 22 16 23
REMARK SMILES IDX 17 24 18 25 19 26 20 27 84 28 21 29 83 30 22 31 23 32 24 33
REMARK SMILES IDX 77 34 25 35 82 36 76 37 78 38 26 39 81 40 75 41 74 42 27 44
REMARK SMILES IDX 61 45 40 46 60 47 41 48 44 49 59 50 79 51 42 52 43 53 58 55
REMARK SMILES IDX 80 56 45 57 28 58 29 59 38 60 30 61 31 62 37 63 39 64 32 65
REMARK SMILES IDX 33 66 34 67 35 68 36 69 62 70 63 71 72 72 64 73 65 74 71 75
REMARK SMILES IDX 73 76 66 77 67 78 68 79 69 80 70 81 46 82 47 83 56 84 48 85
REMARK SMILES IDX 49 86 55 87 57 88 50 89 51 90 52 91 53 92 54 93
REMARK H PARENT 78 43 44 54
REMARK Flexibility Score: inf
ROOT
ATOM      1  C   UNL A   1      33.141  30.266  27.328  1.00  0.00     0.274 C 
ENDROOT
BRANCH   1   2
ATOM      2  O   UNL A   1      33.447  28.881  27.074  1.00  0.00    -0.462 OA
BRANCH   2   3
ATOM      3  C   UNL A   1      32.401  28.020  27.081  1.00  0.00     0.313 C 
ATOM      4  O   UNL A   1      31.482  28.092  27.891  1.00  0.00    -0.252 OA
BRANCH   3   5
ATOM      5  C   UNL A   1      32.418  27.017  25.908  1.00  0.00     0.134 C 
BRANCH   5   6
ATOM      6  C   UNL A   1      32.217  25.512  26.218  1.00  0.00     0.061 C 
BRANCH   6   7
ATOM      7  C   UNL A   1      33.179  24.543  25.577  1.00  0.00     0.015 A 
ATOM      8  C   UNL A   1      33.218  23.192  25.907  1.00  0.00     0.216 A 
ATOM      9  N   UNL A   1      34.027  22.287  25.317  1.00  0.00    -0.222 NA
ATOM     10  C   UNL A   1      34.827  22.748  24.329  1.00  0.00     0.115 A 
ATOM     11  C   UNL A   1      34.062  24.984  24.585  1.00  0.00     0.011 A 
ATOM     12  C   UNL A   1      34.889  24.075  23.939  1.00  0.00     0.021 A 
BRANCH   8  13
ATOM     13  O   UNL A   1      32.484  22.773  26.992  1.00  0.00    -0.481 OA
ATOM     14  C   UNL A   1      33.326  22.152  27.954  1.00  0.00     0.280 C 
ENDBRANCH   8  13
ENDBRANCH   6   7
ENDBRANCH   5   6
BRANCH   5  15
ATOM     15  C   UNL A   1      31.382  27.484  24.873  1.00  0.00    -0.033 A 
ATOM     16  C   UNL A   1      30.317  26.645  24.495  1.00  0.00     0.007 A 
ATOM     17  C   UNL A   1      31.406  28.804  24.391  1.00  0.00     0.007 A 
ATOM     18  C   UNL A   1      29.314  27.107  23.645  1.00  0.00     0.039 A 
ATOM     19  C   UNL A   1      30.391  29.268  23.550  1.00  0.00     0.039 A 
ATOM     20  C   UNL A   1      29.357  28.415  23.184  1.00  0.00     0.123 A 
ATOM     21  F   UNL A   1      28.377  28.861  22.388  1.00  0.00    -0.207 F 
ENDBRANCH   5  15
ENDBRANCH   3   5
ENDBRANCH   2   3
ENDBRANCH   1   2
BRANCH   1  22
ATOM     22  C   UNL A   1      34.398  31.016  27.755  1.00  0.00     0.275 C 
BRANCH  22  23
ATOM     23  O   UNL A   1      35.356  30.093  28.303  1.00  0.00    -0.458 OA
BRANCH  23  24
ATOM     24  C   UNL A   1      36.129  30.590  29.296  1.00  0.00     0.338 C 
ATOM     25  O   UNL A   1      35.766  31.219  30.274  1.00  0.00    -0.246 OA
BRANCH  24  26
ATOM     26  C   UNL A   1      37.544  30.286  29.034  1.00  0.00     0.060 A 
ATOM     27  C   UNL A   1      37.973  29.966  27.746  1.00  0.00     0.016 A 
ATOM     28  C   UNL A   1      38.423  30.200  30.115  1.00  0.00     0.016 A 
ATOM     29  C   UNL A   1      39.275  29.500  27.547  1.00  0.00     0.010 A 
ATOM     30  C   UNL A   1      39.748  29.810  29.900  1.00  0.00     0.010 A 
ATOM     31  C   UNL A   1      40.183  29.434  28.619  1.00  0.00    -0.014 A 
BRANCH  31  32
ATOM     32  C   UNL A   1      41.590  28.999  28.400  1.00  0.00     0.031 A 
ATOM     33  C   UNL A   1      42.726  29.986  28.480  1.00  0.00     0.074 A 
ATOM     34  C   UNL A   1      41.848  27.708  28.109  1.00  0.00     0.049 A 
ATOM     35  N   UNL A   1      43.988  29.817  28.177  1.00  0.00    -0.248 NA
ATOM     36  C   UNL A   1      42.402  31.341  28.954  1.00  0.00     0.031 C 
ATOM     37  C   UNL A   1      40.844  26.645  28.006  1.00  0.00     0.029 A 
ATOM     38  N   UNL A   1      43.033  27.068  27.841  1.00  0.00    -0.354 N 
ATOM     39  C   UNL A   1      44.604  31.046  28.391  1.00  0.00     0.074 A 
ATOM     40  C   UNL A   1      43.574  31.956  28.846  1.00  0.00     0.031 C 
ATOM     41  C   UNL A   1      41.457  25.485  27.728  1.00  0.00     0.029 A 
ATOM     42  C   UNL A   1      42.885  25.729  27.565  1.00  0.00     0.049 A 
ATOM     43  H   UNL A   1      43.905  27.525  27.849  1.00  0.00     0.167 HD
ATOM     44  C   UNL A   1      45.906  31.382  28.223  1.00  0.00     0.037 A 
ATOM     45  C   UNL A   1      43.788  24.806  27.188  1.00  0.00     0.037 A 
ATOM     46  C   UNL A   1      46.937  30.468  27.800  1.00  0.00     0.049 A 
ATOM     47  C   UNL A   1      45.222  25.208  27.001  1.00  0.00     0.074 A 
ATOM     48  C   UNL A   1      48.284  30.722  27.600  1.00  0.00     0.029 A 
ATOM     49  N   UNL A   1      46.742  29.123  27.528  1.00  0.00    -0.354 N 
ATOM     50  N   UNL A   1      45.773  26.386  27.160  1.00  0.00    -0.248 NA
ATOM     51  C   UNL A   1      46.153  24.158  26.565  1.00  0.00     0.031 C 
ATOM     52  C   UNL A   1      48.900  29.534  27.188  1.00  0.00     0.029 A 
ATOM     53  C   UNL A   1      47.942  28.535  27.160  1.00  0.00     0.049 A 
ATOM     54  H   UNL A   1      45.878  28.654  27.587  1.00  0.00     0.167 HD
ATOM     55  C   UNL A   1      47.116  26.220  26.845  1.00  0.00     0.074 A 
ATOM     56  C   UNL A   1      47.300  24.823  26.509  1.00  0.00     0.031 C 
ATOM     57  C   UNL A   1      48.107  27.145  26.824  1.00  0.00     0.037 A 
BRANCH  44  58
ATOM     58  C   UNL A   1      46.303  32.807  28.485  1.00  0.00     0.058 A 
ATOM     59  C   UNL A   1      46.735  33.229  29.751  1.00  0.00     0.135 A 
ATOM     60  C   UNL A   1      46.328  33.743  27.437  1.00  0.00     0.135 A 
ATOM     61  F   UNL A   1      46.716  32.378  30.789  1.00  0.00    -0.206 F 
ATOM     62  C   UNL A   1      47.175  34.531  29.972  1.00  0.00     0.059 A 
ATOM     63  C   UNL A   1      46.778  35.045  27.632  1.00  0.00     0.059 A 
ATOM     64  F   UNL A   1      45.923  33.389  26.208  1.00  0.00    -0.206 F 
ATOM     65  C   UNL A   1      47.195  35.432  28.905  1.00  0.00     0.060 A 
BRANCH  65  66
ATOM     66  S   UNL A   1      47.802  37.109  29.194  1.00  0.00     0.124 S 
ATOM     67  O   UNL A   1      48.878  36.867  30.150  1.00  0.00    -0.237 OA
ATOM     68  O   UNL A   1      48.221  37.527  27.861  1.00  0.00    -0.237 OA
ATOM     69  O   UNL A   1      46.634  37.805  29.726  1.00  0.00    -0.744 OA
ENDBRANCH  65  66
ENDBRANCH  44  58
BRANCH  45  70
ATOM     70  C   UNL A   1      43.352  23.411  26.925  1.00  0.00     0.058 A 
ATOM     71  C   UNL A   1      43.231  22.928  25.615  1.00  0.00     0.135 A 
ATOM     72  C   UNL A   1      43.060  22.533  27.980  1.00  0.00     0.135 A 
ATOM     73  F   UNL A   1      43.494  23.735  24.576  1.00  0.00    -0.206 F 
ATOM     74  C   UNL A   1      42.824  21.623  25.356  1.00  0.00     0.059 A 
ATOM     75  C   UNL A   1      42.672  21.218  27.747  1.00  0.00     0.059 A 
ATOM     76  F   UNL A   1      43.175  22.946  29.252  1.00  0.00    -0.206 F 
ATOM     77  C   UNL A   1      42.546  20.776  26.431  1.00  0.00     0.060 A 
BRANCH  77  78
ATOM     78  S   UNL A   1      42.068  19.067  26.101  1.00  0.00     0.124 S 
ATOM     79  O   UNL A   1      42.856  18.767  24.912  1.00  0.00    -0.237 OA
ATOM     80  O   UNL A   1      42.475  18.383  27.326  1.00  0.00    -0.237 OA
ATOM     81  O   UNL A   1      40.625  19.162  25.899  1.00  0.00    -0.744 OA
ENDBRANCH  77  78
ENDBRANCH  45  70
BRANCH  57  82
ATOM     82  C   UNL A   1      49.474  26.664  26.439  1.00  0.00     0.058 A 
ATOM     83  C   UNL A   1      50.317  26.038  27.370  1.00  0.00     0.135 A 
ATOM     84  C   UNL A   1      49.945  26.825  25.127  1.00  0.00     0.135 A 
ATOM     85  F   UNL A   1      49.913  25.868  28.640  1.00  0.00    -0.206 F 
ATOM     86  C   UNL A   1      51.593  25.613  27.022  1.00  0.00     0.059 A 
ATOM     87  C   UNL A   1      51.212  26.391  24.752  1.00  0.00     0.059 A 
ATOM     88  F   UNL A   1      49.173  27.412  24.200  1.00  0.00    -0.206 F 
ATOM     89  C   UNL A   1      52.036  25.801  25.711  1.00  0.00     0.060 A 
BRANCH  89  90
ATOM     90  S   UNL A   1      53.695  25.248  25.262  1.00  0.00     0.124 S 
ATOM     91  O   UNL A   1      53.578  23.803  25.433  1.00  0.00    -0.237 OA
ATOM     92  O   UNL A   1      53.825  25.714  23.885  1.00  0.00    -0.237 OA
ATOM     93  O   UNL A   1      54.550  25.929  26.230  1.00  0.00    -0.744 OA
ENDBRANCH  89  90
ENDBRANCH  57  82
ENDBRANCH  31  32
ENDBRANCH  24  26
ENDBRANCH  23  24
ENDBRANCH  22  23
ENDBRANCH   1  22
TORSDOF 18
ENDMDL
MODEL 2
REMARK VINA RESULT:     -11.1      6.826     12.063
REMARK SMILES COc1ncccc1C[C@H](C(=O)OCCOC(=O)c1ccc(-c2c3nc(c(-c4c(F)cc(S(=O)(=O)[O-])cc4F)c4ccc([nH]4)c(-c4c(F)cc(S(=O)(=O)[O-])cc4F)c4nc(c(-c5c(F)cc(S(=O)(=O)[O-])cc5F)c5ccc2[nH]5)C=C4)C=C3)cc1)c1ccc(F)cc1
REMARK SMILES IDX 14 1 13 2 11 3 12 4 10 5 9 6 8 7 3 8 4 9 5 10 7 11 6 12 2 13
REMARK SMILES IDX 1 14 85 15 86 16 91 17 87 18 90 19 88 20 89 21 15 22 16 23
REMARK SMILES IDX 17 24 18 25 19 26 20 27 84 28 21 29 83 30 22 31 23 32 24 33
REMARK SMILES IDX 77 34 25 35 82 36 76 37 78 38 26 39 81 40 75 41 74 42 27 44
REMARK SMILES IDX 61 45 40 46 60 47 41 48 44 49 59 50 79 51 42 52 43 53 58 55
REMARK SMILES IDX 80 56 45 57 28 58 29 59 38 60 30 61 31 62 37 63 39 64 32 65
REMARK SMILES IDX 33 66 34 67 35 68 36 69 62 70 63 71 72 72 64 73 65 74 71 75
REMARK SMILES IDX 73 76 66 77 67 78 68 79 69 80 70 81 46 82 47 83 56 84 48 85
REMARK SMILES IDX 49 86 55 87 57 88 50 89 51 90 52 91 53 92 54 93
REMARK H PARENT 78 43 44 54
REMARK Flexibility Score: inf
ROOT
ATOM      1  C   UNL A   1      37.654  22.563  25.076  1.00  0.00     0.274 C 
ENDROOT
BRANCH   1   2
ATOM      2  O   UNL A   1      36.400  23.177  25.429  1.00  0.00    -0.462 OA
BRANCH   2   3
ATOM      3  C   UNL A   1      35.509  23.351  24.423  1.00  0.00     0.313 C 
ATOM      4  O   UNL A   1      35.835  23.387  23.241  1.00  0.00    -0.252 OA
BRANCH   3   5
ATOM      5  C   UNL A   1      34.040  23.386  24.896  1.00  0.00     0.134 C 
BRANCH   5   6
ATOM      6  C   UNL A   1      33.109  24.492  24.339  1.00  0.00     0.061 C 
BRANCH   6   7
ATOM      7  C   UNL A   1      32.731  25.610  25.277  1.00  0.00     0.015 A 
ATOM      8  C   UNL A   1      31.513  25.649  25.949  1.00  0.00     0.216 A 
ATOM      9  N   UNL A   1      31.163  26.605  26.835  1.00  0.00    -0.222 NA
ATOM     10  C   UNL A   1      32.083  27.564  27.083  1.00  0.00     0.115 A 
ATOM     11  C   UNL A   1      33.631  26.653  25.525  1.00  0.00     0.011 A 
ATOM     12  C   UNL A   1      33.313  27.638  26.451  1.00  0.00     0.021 A 
BRANCH   8  13
ATOM     13  O   UNL A   1      30.552  24.733  25.593  1.00  0.00    -0.481 OA
ATOM     14  C   UNL A   1      30.560  23.629  26.490  1.00  0.00     0.280 C 
ENDBRANCH   8  13
ENDBRANCH   6   7
ENDBRANCH   5   6
BRANCH   5  15
ATOM     15  C   UNL A   1      33.428  22.001  24.635  1.00  0.00    -0.033 A 
ATOM     16  C   UNL A   1      32.669  21.759  23.475  1.00  0.00     0.007 A 
ATOM     17  C   UNL A   1      33.730  20.920  25.482  1.00  0.00     0.007 A 
ATOM     18  C   UNL A   1      32.209  20.477  23.179  1.00  0.00     0.039 A 
ATOM     19  C   UNL A   1      33.279  19.634  25.175  1.00  0.00     0.039 A 
ATOM     20  C   UNL A   1      32.523  19.425  24.029  1.00  0.00     0.123 A 
ATOM     21  F   UNL A   1      32.099  18.191  23.726  1.00  0.00    -0.207 F 
ENDBRANCH   5  15
ENDBRANCH   3   5
ENDBRANCH   2   3
ENDBRANCH   1   2
BRANCH   1  22
ATOM     22  C   UNL A   1      38.697  22.831  26.156  1.00  0.00     0.275 C 
BRANCH  22  23
ATOM     23  O   UNL A   1      39.099  24.212  26.116  1.00  0.00    -0.458 OA
BRANCH  23  24
ATOM     24  C   UNL A   1      40.331  24.466  26.615  1.00  0.00     0.338 C 
ATOM     25  O   UNL A   1      41.366  23.874  26.371  1.00  0.00    -0.246 OA
BRANCH  24  26
ATOM     26  C   UNL A   1      40.269  25.592  27.560  1.00  0.00     0.060 A 
ATOM     27  C   UNL A   1      41.207  26.623  27.497  1.00  0.00     0.016 A 
ATOM     28  C   UNL A   1      39.336  25.546  28.597  1.00  0.00     0.016 A 
ATOM     29  C   UNL A   1      41.248  27.581  28.511  1.00  0.00     0.010 A 
ATOM     30  C   UNL A   1      39.330  26.551  29.567  1.00  0.00     0.010 A 
ATOM     31  C   UNL A   1      40.299  27.568  29.549  1.00  0.00    -0.014 A 
BRANCH  31  32
ATOM     32  C   UNL A   1      40.301  28.625  30.597  1.00  0.00     0.031 A 
ATOM     33  C   UNL A   1      41.262  28.564  31.756  1.00  0.00     0.074 A 
ATOM     34  C   UNL A   1      39.418  29.641  30.517  1.00  0.00     0.049 A 
ATOM     35  N   UNL A   1      41.308  29.311  32.830  1.00  0.00    -0.248 NA
ATOM     36  C   UNL A   1      42.302  27.523  31.708  1.00  0.00     0.031 C 
ATOM     37  C   UNL A   1      38.436  29.827  29.445  1.00  0.00     0.029 A 
ATOM     38  N   UNL A   1      39.200  30.708  31.352  1.00  0.00    -0.354 N 
ATOM     39  C   UNL A   1      42.355  28.816  33.600  1.00  0.00     0.074 A 
ATOM     40  C   UNL A   1      42.918  27.698  32.871  1.00  0.00     0.031 C 
ATOM     41  C   UNL A   1      37.743  30.953  29.673  1.00  0.00     0.029 A 
ATOM     42  C   UNL A   1      38.181  31.533  30.936  1.00  0.00     0.049 A 
ATOM     43  H   UNL A   1      39.724  30.868  32.169  1.00  0.00     0.167 HD
ATOM     44  C   UNL A   1      42.804  29.253  34.801  1.00  0.00     0.037 A 
ATOM     45  C   UNL A   1      37.633  32.614  31.521  1.00  0.00     0.037 A 
ATOM     46  C   UNL A   1      42.265  30.386  35.511  1.00  0.00     0.049 A 
ATOM     47  C   UNL A   1      38.144  33.072  32.856  1.00  0.00     0.074 A 
ATOM     48  C   UNL A   1      42.656  30.900  36.737  1.00  0.00     0.029 A 
ATOM     49  N   UNL A   1      41.232  31.189  35.056  1.00  0.00    -0.354 N 
ATOM     50  N   UNL A   1      39.101  32.559  33.589  1.00  0.00    -0.248 NA
ATOM     51  C   UNL A   1      37.487  34.244  33.451  1.00  0.00     0.031 C 
ATOM     52  C   UNL A   1      41.846  32.003  37.031  1.00  0.00     0.029 A 
ATOM     53  C   UNL A   1      40.970  32.193  35.976  1.00  0.00     0.049 A 
ATOM     54  H   UNL A   1      40.753  31.065  34.204  1.00  0.00     0.167 HD
ATOM     55  C   UNL A   1      39.163  33.346  34.733  1.00  0.00     0.074 A 
ATOM     56  C   UNL A   1      38.164  34.383  34.583  1.00  0.00     0.031 C 
ATOM     57  C   UNL A   1      39.969  33.214  35.814  1.00  0.00     0.037 A 
BRANCH  44  58
ATOM     58  C   UNL A   1      43.936  28.503  35.444  1.00  0.00     0.058 A 
ATOM     59  C   UNL A   1      43.704  27.426  36.314  1.00  0.00     0.135 A 
ATOM     60  C   UNL A   1      45.268  28.814  35.125  1.00  0.00     0.135 A 
ATOM     61  F   UNL A   1      42.450  27.099  36.663  1.00  0.00    -0.206 F 
ATOM     62  C   UNL A   1      44.754  26.686  36.849  1.00  0.00     0.059 A 
ATOM     63  C   UNL A   1      46.332  28.076  35.635  1.00  0.00     0.059 A 
ATOM     64  F   UNL A   1      45.543  29.835  34.299  1.00  0.00    -0.206 F 
ATOM     65  C   UNL A   1      46.066  27.017  36.502  1.00  0.00     0.060 A 
BRANCH  65  66
ATOM     66  S   UNL A   1      47.419  26.025  37.172  1.00  0.00     0.124 S 
ATOM     67  O   UNL A   1      47.411  26.432  38.573  1.00  0.00    -0.237 OA
ATOM     68  O   UNL A   1      46.973  24.662  36.905  1.00  0.00    -0.237 OA
ATOM     69  O   UNL A   1      48.576  26.464  36.397  1.00  0.00    -0.744 OA
ENDBRANCH  65  66
ENDBRANCH  44  58
BRANCH  45  70
ATOM     70  C   UNL A   1      36.506  33.320  30.859  1.00  0.00     0.058 A 
ATOM     71  C   UNL A   1      35.191  33.173  31.322  1.00  0.00     0.135 A 
ATOM     72  C   UNL A   1      36.727  34.163  29.759  1.00  0.00     0.135 A 
ATOM     73  F   UNL A   1      34.934  32.370  32.366  1.00  0.00    -0.206 F 
ATOM     74  C   UNL A   1      34.128  33.829  30.710  1.00  0.00     0.059 A 
ATOM     75  C   UNL A   1      35.684  34.847  29.145  1.00  0.00     0.059 A 
ATOM     76  F   UNL A   1      37.971  34.347  29.290  1.00  0.00    -0.206 F 
ATOM     77  C   UNL A   1      34.386  34.664  29.621  1.00  0.00     0.060 A 
BRANCH  77  78
ATOM     78  S   UNL A   1      33.017  35.559  28.856  1.00  0.00     0.124 S 
ATOM     79  O   UNL A   1      32.386  34.508  28.068  1.00  0.00    -0.237 OA
ATOM     80  O   UNL A   1      32.261  36.029  30.015  1.00  0.00    -0.237 OA
ATOM     81  O   UNL A   1      33.692  36.605  28.094  1.00  0.00    -0.744 OA
ENDBRANCH  77  78
ENDBRANCH  45  70
BRANCH  57  82
ATOM     82  C   UNL A   1      39.805  34.227  36.908  1.00  0.00     0.058 A 
ATOM     83  C   UNL A   1      39.050  33.945  38.057  1.00  0.00     0.135 A 
ATOM     84  C   UNL A   1      40.410  35.489  36.810  1.00  0.00     0.135 A 
ATOM     85  F   UNL A   1      38.445  32.753  38.192  1.00  0.00    -0.206 F 
ATOM     86  C   UNL A   1      38.876  34.891  39.060  1.00  0.00     0.059 A 
ATOM     87  C   UNL A   1      40.263  36.445  37.810  1.00  0.00     0.059 A 
ATOM     88  F   UNL A   1      41.146  35.804  35.733  1.00  0.00    -0.206 F 
ATOM     89  C   UNL A   1      39.481  36.142  38.924  1.00  0.00     0.060 A 
BRANCH  89  90
ATOM     90  S   UNL A   1      39.252  37.368  40.230  1.00  0.00     0.124 S 
ATOM     91  O   UNL A   1      38.711  36.549  41.309  1.00  0.00    -0.237 OA
ATOM     92  O   UNL A   1      40.606  37.872  40.435  1.00  0.00    -0.237 OA
ATOM     93  O   UNL A   1      38.320  38.322  39.636  1.00  0.00    -0.744 OA
ENDBRANCH  89  90
ENDBRANCH  57  82
ENDBRANCH  31  32
ENDBRANCH  24  26
ENDBRANCH  23  24
ENDBRANCH  22  23
ENDBRANCH   1  22
TORSDOF 18
ENDMDL
MODEL 3
REMARK VINA RESULT:     -10.8      2.554      3.275
REMARK SMILES COc1ncccc1C[C@H](C(=O)OCCOC(=O)c1ccc(-c2c3nc(c(-c4c(F)cc(S(=O)(=O)[O-])cc4F)c4ccc([nH]4)c(-c4c(F)cc(S(=O)(=O)[O-])cc4F)c4nc(c(-c5c(F)cc(S(=O)(=O)[O-])cc5F)c5ccc2[nH]5)C=C4)C=C3)cc1)c1ccc(F)cc1
REMARK SMILES IDX 14 1 13 2 11 3 12 4 10 5 9 6 8 7 3 8 4 9 5 10 7 11 6 12 2 13
REMARK SMILES IDX 1 14 85 15 86 16 91 17 87 18 90 19 88 20 89 21 15 22 16 23
REMARK SMILES IDX 17 24 18 25 19 26 20 27 84 28 21 29 83 30 22 31 23 32 24 33
REMARK SMILES IDX 77 34 25 35 82 36 76 37 78 38 26 39 81 40 75 41 74 42 27 44
REMARK SMILES IDX 61 45 40 46 60 47 41 48 44 49 59 50 79 51 42 52 43 53 58 55
REMARK SMILES IDX 80 56 45 57 28 58 29 59 38 60 30 61 31 62 37 63 39 64 32 65
REMARK SMILES IDX 33 66 34 67 35 68 36 69 62 70 63 71 72 72 64 73 65 74 71 75
REMARK SMILES IDX 73 76 66 77 67 78 68 79 69 80 70 81 46 82 47 83 56 84 48 85
REMARK SMILES IDX 49 86 55 87 57 88 50 89 51 90 52 91 53 92 54 93
REMARK H PARENT 78 43 44 54
REMARK Flexibility Score: inf
ROOT
ATOM      1  C   UNL A   1      33.165  28.713  25.239  1.00  0.00     0.274 C 
ENDROOT
BRANCH   1   2
ATOM      2  O   UNL A   1      32.480  27.664  24.529  1.00  0.00    -0.462 OA
BRANCH   2   3
ATOM      3  C   UNL A   1      32.728  27.572  23.200  1.00  0.00     0.313 C 
ATOM      4  O   UNL A   1      33.825  27.816  22.707  1.00  0.00    -0.252 OA
BRANCH   3   5
ATOM      5  C   UNL A   1      31.538  27.023  22.385  1.00  0.00     0.134 C 
BRANCH   5   6
ATOM      6  C   UNL A   1      31.041  25.585  22.677  1.00  0.00     0.061 C 
BRANCH   6   7
ATOM      7  C   UNL A   1      32.065  24.587  23.155  1.00  0.00     0.015 A 
ATOM      8  C   UNL A   1      32.037  24.032  24.431  1.00  0.00     0.216 A 
ATOM      9  N   UNL A   1      32.904  23.098  24.875  1.00  0.00    -0.222 NA
ATOM     10  C   UNL A   1      33.838  22.676  23.992  1.00  0.00     0.115 A 
ATOM     11  C   UNL A   1      33.082  24.158  22.294  1.00  0.00     0.011 A 
ATOM     12  C   UNL A   1      33.974  23.178  22.709  1.00  0.00     0.021 A 
BRANCH   8  13
ATOM     13  O   UNL A   1      31.156  24.562  25.344  1.00  0.00    -0.481 OA
ATOM     14  C   UNL A   1      31.833  24.918  26.543  1.00  0.00     0.280 C 
ENDBRANCH   8  13
ENDBRANCH   6   7
ENDBRANCH   5   6
BRANCH   5  15
ATOM     15  C   UNL A   1      30.376  28.020  22.518  1.00  0.00    -0.033 A 
ATOM     16  C   UNL A   1      29.187  27.652  23.177  1.00  0.00     0.007 A 
ATOM     17  C   UNL A   1      30.534  29.354  22.105  1.00  0.00     0.007 A 
ATOM     18  C   UNL A   1      28.178  28.587  23.399  1.00  0.00     0.039 A 
ATOM     19  C   UNL A   1      29.526  30.292  22.343  1.00  0.00     0.039 A 
ATOM     20  C   UNL A   1      28.358  29.899  22.985  1.00  0.00     0.123 A 
ATOM     21  F   UNL A   1      27.395  30.799  23.225  1.00  0.00    -0.207 F 
ENDBRANCH   5  15
ENDBRANCH   3   5
ENDBRANCH   2   3
ENDBRANCH   1   2
BRANCH   1  22
ATOM     22  C   UNL A   1      33.963  28.131  26.402  1.00  0.00     0.275 C 
BRANCH  22  23
ATOM     23  O   UNL A   1      33.615  28.811  27.621  1.00  0.00    -0.458 OA
BRANCH  23  24
ATOM     24  C   UNL A   1      34.187  30.025  27.786  1.00  0.00     0.338 C 
ATOM     25  O   UNL A   1      33.654  31.116  27.687  1.00  0.00    -0.246 OA
BRANCH  24  26
ATOM     26  C   UNL A   1      35.618  29.872  28.093  1.00  0.00     0.060 A 
ATOM     27  C   UNL A   1      36.580  30.060  27.100  1.00  0.00     0.016 A 
ATOM     28  C   UNL A   1      35.987  29.412  29.358  1.00  0.00     0.016 A 
ATOM     29  C   UNL A   1      37.912  29.730  27.358  1.00  0.00     0.010 A 
ATOM     30  C   UNL A   1      37.332  29.159  29.637  1.00  0.00     0.010 A 
ATOM     31  C   UNL A   1      38.308  29.293  28.634  1.00  0.00    -0.014 A 
BRANCH  31  32
ATOM     32  C   UNL A   1      39.737  29.001  28.931  1.00  0.00     0.031 A 
ATOM     33  C   UNL A   1      40.630  30.051  29.540  1.00  0.00     0.074 A 
ATOM     34  C   UNL A   1      40.242  27.787  28.635  1.00  0.00     0.049 A 
ATOM     35  N   UNL A   1      41.925  30.022  29.731  1.00  0.00    -0.248 NA
ATOM     36  C   UNL A   1      39.988  31.298  29.985  1.00  0.00     0.031 C 
ATOM     37  C   UNL A   1      39.487  26.675  28.049  1.00  0.00     0.029 A 
ATOM     38  N   UNL A   1      41.510  27.282  28.781  1.00  0.00    -0.354 N 
ATOM     39  C   UNL A   1      42.260  31.253  30.286  1.00  0.00     0.074 A 
ATOM     40  C   UNL A   1      41.031  32.010  30.398  1.00  0.00     0.031 C 
ATOM     41  C   UNL A   1      40.298  25.615  27.914  1.00  0.00     0.029 A 
ATOM     42  C   UNL A   1      41.642  25.987  28.338  1.00  0.00     0.049 A 
ATOM     43  H   UNL A   1      42.253  27.798  29.169  1.00  0.00     0.167 HD
ATOM     44  C   UNL A   1      43.479  31.707  30.666  1.00  0.00     0.037 A 
ATOM     45  C   UNL A   1      42.728  25.196  28.247  1.00  0.00     0.037 A 
ATOM     46  C   UNL A   1      44.697  30.942  30.584  1.00  0.00     0.049 A 
ATOM     47  C   UNL A   1      44.067  25.729  28.667  1.00  0.00     0.074 A 
ATOM     48  C   UNL A   1      45.980  31.323  30.943  1.00  0.00     0.029 A 
ATOM     49  N   UNL A   1      44.785  29.637  30.125  1.00  0.00    -0.354 N 
ATOM     50  N   UNL A   1      44.369  26.912  29.142  1.00  0.00    -0.248 NA
ATOM     51  C   UNL A   1      45.215  24.823  28.521  1.00  0.00     0.031 C 
ATOM     52  C   UNL A   1      46.846  30.254  30.684  1.00  0.00     0.029 A 
ATOM     53  C   UNL A   1      46.099  29.199  30.190  1.00  0.00     0.049 A 
ATOM     54  H   UNL A   1      44.027  29.100  29.800  1.00  0.00     0.167 HD
ATOM     55  C   UNL A   1      45.742  26.894  29.353  1.00  0.00     0.074 A 
ATOM     56  C   UNL A   1      46.208  25.576  28.977  1.00  0.00     0.031 C 
ATOM     57  C   UNL A   1      46.547  27.886  29.808  1.00  0.00     0.037 A 
BRANCH  44  58
ATOM     58  C   UNL A   1      43.571  33.108  31.201  1.00  0.00     0.058 A 
ATOM     59  C   UNL A   1      43.500  33.376  32.576  1.00  0.00     0.135 A 
ATOM     60  C   UNL A   1      43.813  34.186  30.334  1.00  0.00     0.135 A 
ATOM     61  F   UNL A   1      43.256  32.383  33.446  1.00  0.00    -0.206 F 
ATOM     62  C   UNL A   1      43.662  34.666  33.074  1.00  0.00     0.059 A 
ATOM     63  C   UNL A   1      43.993  35.481  30.810  1.00  0.00     0.059 A 
ATOM     64  F   UNL A   1      43.887  33.983  29.009  1.00  0.00    -0.206 F 
ATOM     65  C   UNL A   1      43.910  35.713  32.183  1.00  0.00     0.060 A 
BRANCH  65  66
ATOM     66  S   UNL A   1      44.156  37.376  32.843  1.00  0.00     0.124 S 
ATOM     67  O   UNL A   1      43.975  38.193  31.648  1.00  0.00    -0.237 OA
ATOM     68  O   UNL A   1      43.101  37.477  33.846  1.00  0.00    -0.237 OA
ATOM     69  O   UNL A   1      45.516  37.332  33.374  1.00  0.00    -0.744 OA
ENDBRANCH  65  66
ENDBRANCH  44  58
BRANCH  45  70
ATOM     70  C   UNL A   1      42.596  23.822  27.699  1.00  0.00     0.058 A 
ATOM     71  C   UNL A   1      42.607  23.593  26.317  1.00  0.00     0.135 A 
ATOM     72  C   UNL A   1      42.470  22.713  28.550  1.00  0.00     0.135 A 
ATOM     73  F   UNL A   1      42.719  24.626  25.467  1.00  0.00    -0.206 F 
ATOM     74  C   UNL A   1      42.485  22.311  25.792  1.00  0.00     0.059 A 
ATOM     75  C   UNL A   1      42.369  21.420  28.050  1.00  0.00     0.059 A 
ATOM     76  F   UNL A   1      42.469  22.882  29.881  1.00  0.00    -0.206 F 
ATOM     77  C   UNL A   1      42.366  21.230  26.668  1.00  0.00     0.060 A 
BRANCH  77  78
ATOM     78  S   UNL A   1      42.260  19.559  25.993  1.00  0.00     0.124 S 
ATOM     79  O   UNL A   1      40.836  19.451  25.704  1.00  0.00    -0.237 OA
ATOM     80  O   UNL A   1      43.144  19.631  24.833  1.00  0.00    -0.237 OA
ATOM     81  O   UNL A   1      42.750  18.729  27.091  1.00  0.00    -0.744 OA
ENDBRANCH  77  78
ENDBRANCH  45  70
BRANCH  57  82
ATOM     82  C   UNL A   1      48.007  27.568  29.932  1.00  0.00     0.058 A 
ATOM     83  C   UNL A   1      48.537  27.019  31.109  1.00  0.00     0.135 A 
ATOM     84  C   UNL A   1      48.884  27.810  28.864  1.00  0.00     0.135 A 
ATOM     85  F   UNL A   1      47.738  26.777  32.161  1.00  0.00    -0.206 F 
ATOM     86  C   UNL A   1      49.894  26.747  31.236  1.00  0.00     0.059 A 
ATOM     87  C   UNL A   1      50.244  27.529  28.962  1.00  0.00     0.059 A 
ATOM     88  F   UNL A   1      48.424  28.329  27.715  1.00  0.00    -0.206 F 
ATOM     89  C   UNL A   1      50.742  27.013  30.158  1.00  0.00     0.060 A 
BRANCH  89  90
ATOM     90  S   UNL A   1      52.504  26.658  30.326  1.00  0.00     0.124 S 
ATOM     91  O   UNL A   1      52.493  25.575  31.304  1.00  0.00    -0.237 OA
ATOM     92  O   UNL A   1      52.884  26.281  28.969  1.00  0.00    -0.237 OA
ATOM     93  O   UNL A   1      53.059  27.924  30.795  1.00  0.00    -0.744 OA
ENDBRANCH  89  90
ENDBRANCH  57  82
ENDBRANCH  31  32
ENDBRANCH  24  26
ENDBRANCH  23  24
ENDBRANCH  22  23
ENDBRANCH   1  22
TORSDOF 18
ENDMDL
