MODEL 1
REMARK VINA RESULT:     -11.0      0.000      0.000
REMARK SMILES COc1cccc(CC(=O)N[C@@](C)(C(=O)OCCOC(=O)c2ccc(-c3c4nc(c(-c5c(F)cc(S(=O)(=O)[O-])cc5F)c5ccc([nH]5)c(-c5c(F)cc(S(=O)(=O)[O-])cc5F)c5nc(c(-c6c(F)cc(S(=O)(=O)[O-])cc6F)c6ccc3[nH]6)C=C5)C=C4)cc2)C(F)(F)F)c1
REMARK SMILES IDX 17 1 16 2 14 3 15 4 12 5 13 6 11 7 9 8 10 9 8 11 7 12 3 13
REMARK SMILES IDX 4 14 92 15 5 16 6 17 2 18 1 19 88 20 89 21 90 22 91 23 18 24
REMARK SMILES IDX 19 25 20 26 21 27 22 28 23 29 87 30 24 31 86 32 25 33 26 34
REMARK SMILES IDX 27 35 80 36 28 37 85 38 79 39 81 40 29 41 84 42 78 43 77 44
REMARK SMILES IDX 30 46 64 47 43 48 63 49 44 50 47 51 62 52 82 53 45 54 46 55
REMARK SMILES IDX 61 57 83 58 48 59 31 60 32 61 41 62 33 63 34 64 40 65 42 66
REMARK SMILES IDX 35 67 36 68 37 69 38 70 39 71 65 72 66 73 75 74 67 75 68 76
REMARK SMILES IDX 74 77 76 78 69 79 70 80 71 81 72 82 73 83 49 84 50 85 59 86
REMARK SMILES IDX 51 87 52 88 58 89 60 90 53 91 54 92 55 93 56 94 57 95
REMARK H PARENT 11 10 81 45 47 56
REMARK Flexibility Score: inf
ROOT
ATOM      1  C   UNL A   1      31.738  29.944  27.200  1.00  0.00     0.274 C 
ENDROOT
BRANCH   1   2
ATOM      2  O   UNL A   1      31.415  29.001  26.156  1.00  0.00    -0.460 OA
BRANCH   2   3
ATOM      3  C   UNL A   1      31.573  27.682  26.488  1.00  0.00     0.341 C 
ATOM      4  O   UNL A   1      31.363  27.248  27.613  1.00  0.00    -0.249 OA
BRANCH   3   5
ATOM      5  C   UNL A   1      32.251  26.888  25.367  1.00  0.00     0.231 C 
ATOM      6  C   UNL A   1      33.577  26.364  25.966  1.00  0.00     0.058 C 
BRANCH   5   7
ATOM      7  N   UNL A   1      32.669  27.764  24.211  1.00  0.00    -0.333 N 
ATOM      8  C   UNL A   1      32.213  28.115  22.983  1.00  0.00     0.225 C 
ATOM      9  O   UNL A   1      32.921  28.924  22.372  1.00  0.00    -0.275 OA
ATOM     10  H   UNL A   1      33.524  28.211  24.404  1.00  0.00     0.164 HD
BRANCH   8  11
ATOM     11  C   UNL A   1      30.938  27.598  22.347  1.00  0.00     0.135 C 
BRANCH  11  12
ATOM     12  C   UNL A   1      29.731  28.494  22.473  1.00  0.00    -0.035 A 
ATOM     13  C   UNL A   1      28.797  30.730  22.220  1.00  0.00     0.119 A 
ATOM     14  C   UNL A   1      27.643  30.313  22.882  1.00  0.00     0.046 A 
ATOM     15  C   UNL A   1      29.802  29.801  21.958  1.00  0.00     0.050 A 
ATOM     16  C   UNL A   1      27.509  28.989  23.303  1.00  0.00     0.004 A 
ATOM     17  C   UNL A   1      28.550  28.079  23.102  1.00  0.00     0.004 A 
BRANCH  13  18
ATOM     18  O   UNL A   1      28.850  32.059  21.901  1.00  0.00    -0.497 OA
ATOM     19  C   UNL A   1      27.999  32.480  20.837  1.00  0.00     0.278 C 
ENDBRANCH  13  18
ENDBRANCH  11  12
ENDBRANCH   8  11
ENDBRANCH   5   7
BRANCH   5  20
ATOM     20  C   UNL A   1      31.370  25.658  25.119  1.00  0.00     0.422 C 
ATOM     21  F   UNL A   1      31.659  25.054  23.951  1.00  0.00    -0.168 F 
ATOM     22  F   UNL A   1      31.513  24.764  26.121  1.00  0.00    -0.168 F 
ATOM     23  F   UNL A   1      30.050  25.960  25.096  1.00  0.00    -0.168 F 
ENDBRANCH   5  20
ENDBRANCH   3   5
ENDBRANCH   2   3
ENDBRANCH   1   2
BRANCH   1  24
ATOM     24  C   UNL A   1      33.113  30.566  26.992  1.00  0.00     0.275 C 
BRANCH  24  25
ATOM     25  O   UNL A   1      34.099  29.852  27.753  1.00  0.00    -0.458 OA
BRANCH  25  26
ATOM     26  C   UNL A   1      34.911  30.624  28.509  1.00  0.00     0.338 C 
ATOM     27  O   UNL A   1      34.618  31.651  29.104  1.00  0.00    -0.246 OA
BRANCH  26  28
ATOM     28  C   UNL A   1      36.256  30.035  28.554  1.00  0.00     0.060 A 
ATOM     29  C   UNL A   1      36.749  29.542  29.760  1.00  0.00     0.016 A 
ATOM     30  C   UNL A   1      37.075  30.091  27.429  1.00  0.00     0.016 A 
ATOM     31  C   UNL A   1      38.092  29.183  29.867  1.00  0.00     0.010 A 
ATOM     32  C   UNL A   1      38.397  29.643  27.518  1.00  0.00     0.010 A 
ATOM     33  C   UNL A   1      38.934  29.215  28.746  1.00  0.00    -0.014 A 
BRANCH  33  34
ATOM     34  C   UNL A   1      40.376  28.848  28.852  1.00  0.00     0.031 A 
ATOM     35  C   UNL A   1      41.384  29.874  29.310  1.00  0.00     0.074 A 
ATOM     36  C   UNL A   1      40.799  27.604  28.547  1.00  0.00     0.049 A 
ATOM     37  N   UNL A   1      42.690  29.847  29.224  1.00  0.00    -0.248 NA
ATOM     38  C   UNL A   1      40.851  31.093  29.939  1.00  0.00     0.031 C 
ATOM     39  C   UNL A   1      39.944  26.482  28.154  1.00  0.00     0.029 A 
ATOM     40  N   UNL A   1      42.067  27.072  28.523  1.00  0.00    -0.354 N 
ATOM     41  C   UNL A   1      43.131  31.062  29.734  1.00  0.00     0.074 A 
ATOM     42  C   UNL A   1      41.954  31.804  30.133  1.00  0.00     0.031 C 
ATOM     43  C   UNL A   1      40.702  25.392  27.965  1.00  0.00     0.029 A 
ATOM     44  C   UNL A   1      42.106  25.756  28.123  1.00  0.00     0.049 A 
ATOM     45  H   UNL A   1      42.871  27.583  28.769  1.00  0.00     0.167 HD
ATOM     46  C   UNL A   1      44.401  31.520  29.853  1.00  0.00     0.037 A 
ATOM     47  C   UNL A   1      43.149  24.947  27.852  1.00  0.00     0.037 A 
ATOM     48  C   UNL A   1      45.573  30.760  29.504  1.00  0.00     0.049 A 
ATOM     49  C   UNL A   1      44.546  25.493  27.932  1.00  0.00     0.074 A 
ATOM     50  C   UNL A   1      46.902  31.146  29.562  1.00  0.00     0.029 A 
ATOM     51  N   UNL A   1      45.559  29.447  29.061  1.00  0.00    -0.354 N 
ATOM     52  N   UNL A   1      44.945  26.687  28.300  1.00  0.00    -0.248 NA
ATOM     53  C   UNL A   1      45.636  24.595  27.519  1.00  0.00     0.031 C 
ATOM     54  C   UNL A   1      47.690  30.071  29.135  1.00  0.00     0.029 A 
ATOM     55  C   UNL A   1      46.854  29.008  28.837  1.00  0.00     0.049 A 
ATOM     56  H   UNL A   1      44.748  28.905  28.923  1.00  0.00     0.167 HD
ATOM     57  C   UNL A   1      46.327  26.685  28.157  1.00  0.00     0.074 A 
ATOM     58  C   UNL A   1      46.701  25.366  27.694  1.00  0.00     0.031 C 
ATOM     59  C   UNL A   1      47.207  27.691  28.376  1.00  0.00     0.037 A 
BRANCH  46  60
ATOM     60  C   UNL A   1      44.597  32.922  30.356  1.00  0.00     0.058 A 
ATOM     61  C   UNL A   1      44.528  34.031  29.501  1.00  0.00     0.135 A 
ATOM     62  C   UNL A   1      44.804  33.159  31.725  1.00  0.00     0.135 A 
ATOM     63  F   UNL A   1      44.349  33.856  28.182  1.00  0.00    -0.206 F 
ATOM     64  C   UNL A   1      44.670  35.329  29.982  1.00  0.00     0.059 A 
ATOM     65  C   UNL A   1      44.930  34.448  32.231  1.00  0.00     0.059 A 
ATOM     66  F   UNL A   1      44.880  32.131  32.585  1.00  0.00    -0.206 F 
ATOM     67  C   UNL A   1      44.871  35.527  31.351  1.00  0.00     0.060 A 
BRANCH  67  68
ATOM     68  S   UNL A   1      45.039  37.216  31.968  1.00  0.00     0.124 S 
ATOM     69  O   UNL A   1      45.046  36.999  33.411  1.00  0.00    -0.237 OA
ATOM     70  O   UNL A   1      46.308  37.641  31.385  1.00  0.00    -0.237 OA
ATOM     71  O   UNL A   1      43.856  37.889  31.441  1.00  0.00    -0.744 OA
ENDBRANCH  67  68
ENDBRANCH  46  60
BRANCH  47  72
ATOM     72  C   UNL A   1      42.911  23.551  27.400  1.00  0.00     0.058 A 
ATOM     73  C   UNL A   1      42.889  23.229  26.035  1.00  0.00     0.135 A 
ATOM     74  C   UNL A   1      42.699  22.514  28.321  1.00  0.00     0.135 A 
ATOM     75  F   UNL A   1      43.074  24.189  25.117  1.00  0.00    -0.206 F 
ATOM     76  C   UNL A   1      42.655  21.929  25.599  1.00  0.00     0.059 A 
ATOM     77  C   UNL A   1      42.487  21.203  27.910  1.00  0.00     0.059 A 
ATOM     78  F   UNL A   1      42.719  22.769  29.639  1.00  0.00    -0.206 F 
ATOM     79  C   UNL A   1      42.454  20.922  26.544  1.00  0.00     0.060 A 
BRANCH  79  80
ATOM     80  S   UNL A   1      42.198  19.226  25.983  1.00  0.00     0.124 S 
ATOM     81  O   UNL A   1      42.638  18.464  27.146  1.00  0.00    -0.237 OA
ATOM     82  O   UNL A   1      40.765  19.199  25.708  1.00  0.00    -0.237 OA
ATOM     83  O   UNL A   1      43.054  19.135  24.804  1.00  0.00    -0.744 OA
ENDBRANCH  79  80
ENDBRANCH  47  72
BRANCH  59  84
ATOM     84  C   UNL A   1      48.658  27.404  28.127  1.00  0.00     0.058 A 
ATOM     85  C   UNL A   1      49.258  27.709  26.897  1.00  0.00     0.135 A 
ATOM     86  C   UNL A   1      49.467  26.869  29.141  1.00  0.00     0.135 A 
ATOM     87  F   UNL A   1      48.522  28.213  25.894  1.00  0.00    -0.206 F 
ATOM     88  C   UNL A   1      50.612  27.485  26.675  1.00  0.00     0.059 A 
ATOM     89  C   UNL A   1      50.827  26.651  28.948  1.00  0.00     0.059 A 
ATOM     90  F   UNL A   1      48.939  26.565  30.337  1.00  0.00    -0.206 F 
ATOM     91  C   UNL A   1      51.390  26.957  27.709  1.00  0.00     0.060 A 
BRANCH  91  92
ATOM     92  S   UNL A   1      53.156  26.712  27.426  1.00  0.00     0.124 S 
ATOM     93  O   UNL A   1      53.434  27.719  26.408  1.00  0.00    -0.237 OA
ATOM     94  O   UNL A   1      53.725  26.971  28.745  1.00  0.00    -0.237 OA
ATOM     95  O   UNL A   1      53.237  25.325  26.978  1.00  0.00    -0.744 OA
ENDBRANCH  91  92
ENDBRANCH  59  84
ENDBRANCH  33  34
ENDBRANCH  26  28
ENDBRANCH  25  26
ENDBRANCH  24  25
ENDBRANCH   1  24
TORSDOF 19
ENDMDL
MODEL 2
REMARK VINA RESULT:     -10.7      1.826      3.884
REMARK SMILES COc1cccc(CC(=O)N[C@@](C)(C(=O)OCCOC(=O)c2ccc(-c3c4nc(c(-c5c(F)cc(S(=O)(=O)[O-])cc5F)c5ccc([nH]5)c(-c5c(F)cc(S(=O)(=O)[O-])cc5F)c5nc(c(-c6c(F)cc(S(=O)(=O)[O-])cc6F)c6ccc3[nH]6)C=C5)C=C4)cc2)C(F)(F)F)c1
REMARK SMILES IDX 17 1 16 2 14 3 15 4 12 5 13 6 11 7 9 8 10 9 8 11 7 12 3 13
REMARK SMILES IDX 4 14 92 15 5 16 6 17 2 18 1 19 88 20 89 21 90 22 91 23 18 24
REMARK SMILES IDX 19 25 20 26 21 27 22 28 23 29 87 30 24 31 86 32 25 33 26 34
REMARK SMILES IDX 27 35 80 36 28 37 85 38 79 39 81 40 29 41 84 42 78 43 77 44
REMARK SMILES IDX 30 46 64 47 43 48 63 49 44 50 47 51 62 52 82 53 45 54 46 55
REMARK SMILES IDX 61 57 83 58 48 59 31 60 32 61 41 62 33 63 34 64 40 65 42 66
REMARK SMILES IDX 35 67 36 68 37 69 38 70 39 71 65 72 66 73 75 74 67 75 68 76
REMARK SMILES IDX 74 77 76 78 69 79 70 80 71 81 72 82 73 83 49 84 50 85 59 86
REMARK SMILES IDX 51 87 52 88 58 89 60 90 53 91 54 92 55 93 56 94 57 95
REMARK H PARENT 11 10 81 45 47 56
REMARK Flexibility Score: inf
ROOT
ATOM      1  C   UNL A   1      31.732  28.634  27.450  1.00  0.00     0.274 C 
ENDROOT
BRANCH   1   2
ATOM      2  O   UNL A   1      31.232  28.161  26.180  1.00  0.00    -0.460 OA
BRANCH   2   3
ATOM      3  C   UNL A   1      32.009  27.218  25.560  1.00  0.00     0.341 C 
ATOM      4  O   UNL A   1      32.758  26.467  26.168  1.00  0.00    -0.249 OA
BRANCH   3   5
ATOM      5  C   UNL A   1      31.994  27.380  24.036  1.00  0.00     0.231 C 
ATOM      6  C   UNL A   1      30.635  28.037  23.698  1.00  0.00     0.058 C 
BRANCH   5   7
ATOM      7  N   UNL A   1      31.973  26.055  23.315  1.00  0.00    -0.333 N 
ATOM      8  C   UNL A   1      32.847  25.092  22.930  1.00  0.00     0.225 C 
ATOM      9  O   UNL A   1      32.339  24.122  22.355  1.00  0.00    -0.275 OA
ATOM     10  H   UNL A   1      31.057  25.820  23.043  1.00  0.00     0.164 HD
BRANCH   8  11
ATOM     11  C   UNL A   1      34.344  25.133  23.159  1.00  0.00     0.135 C 
BRANCH  11  12
ATOM     12  C   UNL A   1      34.924  23.971  23.928  1.00  0.00    -0.035 A 
ATOM     13  C   UNL A   1      35.036  22.755  26.036  1.00  0.00     0.119 A 
ATOM     14  C   UNL A   1      36.100  22.006  25.537  1.00  0.00     0.046 A 
ATOM     15  C   UNL A   1      34.410  23.683  25.206  1.00  0.00     0.050 A 
ATOM     16  C   UNL A   1      36.552  22.203  24.232  1.00  0.00     0.004 A 
ATOM     17  C   UNL A   1      35.969  23.185  23.427  1.00  0.00     0.004 A 
BRANCH  13  18
ATOM     18  O   UNL A   1      34.710  22.523  27.345  1.00  0.00    -0.497 OA
ATOM     19  C   UNL A   1      33.741  21.501  27.574  1.00  0.00     0.278 C 
ENDBRANCH  13  18
ENDBRANCH  11  12
ENDBRANCH   8  11
ENDBRANCH   5   7
BRANCH   5  20
ATOM     20  C   UNL A   1      33.072  28.418  23.705  1.00  0.00     0.422 C 
ATOM     21  F   UNL A   1      32.699  29.666  24.048  1.00  0.00    -0.168 F 
ATOM     22  F   UNL A   1      34.228  28.119  24.338  1.00  0.00    -0.168 F 
ATOM     23  F   UNL A   1      33.382  28.444  22.387  1.00  0.00    -0.168 F 
ENDBRANCH   5  20
ENDBRANCH   3   5
ENDBRANCH   2   3
ENDBRANCH   1   2
BRANCH   1  24
ATOM     24  C   UNL A   1      32.429  29.981  27.314  1.00  0.00     0.275 C 
BRANCH  24  25
ATOM     25  O   UNL A   1      33.851  29.796  27.235  1.00  0.00    -0.458 OA
BRANCH  25  26
ATOM     26  C   UNL A   1      34.576  30.545  28.094  1.00  0.00     0.338 C 
ATOM     27  O   UNL A   1      34.209  31.534  28.711  1.00  0.00    -0.246 OA
BRANCH  26  28
ATOM     28  C   UNL A   1      35.928  29.984  28.224  1.00  0.00     0.060 A 
ATOM     29  C   UNL A   1      36.340  29.464  29.448  1.00  0.00     0.016 A 
ATOM     30  C   UNL A   1      36.828  30.094  27.167  1.00  0.00     0.016 A 
ATOM     31  C   UNL A   1      37.678  29.130  29.647  1.00  0.00     0.010 A 
ATOM     32  C   UNL A   1      38.150  29.671  27.343  1.00  0.00     0.010 A 
ATOM     33  C   UNL A   1      38.602  29.216  28.595  1.00  0.00    -0.014 A 
BRANCH  33  34
ATOM     34  C   UNL A   1      40.041  28.876  28.800  1.00  0.00     0.031 A 
ATOM     35  C   UNL A   1      40.992  29.916  29.339  1.00  0.00     0.074 A 
ATOM     36  C   UNL A   1      40.510  27.644  28.513  1.00  0.00     0.049 A 
ATOM     37  N   UNL A   1      42.300  29.916  29.347  1.00  0.00    -0.248 NA
ATOM     38  C   UNL A   1      40.390  31.117  29.942  1.00  0.00     0.031 C 
ATOM     39  C   UNL A   1      39.708  26.511  28.047  1.00  0.00     0.029 A 
ATOM     40  N   UNL A   1      41.787  27.138  28.573  1.00  0.00    -0.354 N 
ATOM     41  C   UNL A   1      42.679  31.134  29.900  1.00  0.00     0.074 A 
ATOM     42  C   UNL A   1      41.462  31.847  30.223  1.00  0.00     0.031 C 
ATOM     43  C   UNL A   1      40.500  25.439  27.900  1.00  0.00     0.029 A 
ATOM     44  C   UNL A   1      41.881  25.829  28.162  1.00  0.00     0.049 A 
ATOM     45  H   UNL A   1      42.560  27.662  28.882  1.00  0.00     0.167 HD
ATOM     46  C   UNL A   1      43.927  31.615  30.115  1.00  0.00     0.037 A 
ATOM     47  C   UNL A   1      42.958  25.044  27.958  1.00  0.00     0.037 A 
ATOM     48  C   UNL A   1      45.137  30.883  29.843  1.00  0.00     0.049 A 
ATOM     49  C   UNL A   1      44.334  25.617  28.143  1.00  0.00     0.074 A 
ATOM     50  C   UNL A   1      46.450  31.294  29.999  1.00  0.00     0.029 A 
ATOM     51  N   UNL A   1      45.182  29.575  29.385  1.00  0.00    -0.354 N 
ATOM     52  N   UNL A   1      44.681  26.814  28.552  1.00  0.00    -0.248 NA
ATOM     53  C   UNL A   1      45.469  24.746  27.800  1.00  0.00     0.031 C 
ATOM     54  C   UNL A   1      47.289  30.241  29.618  1.00  0.00     0.029 A 
ATOM     55  C   UNL A   1      46.498  29.165  29.250  1.00  0.00     0.049 A 
ATOM     56  H   UNL A   1      44.394  29.019  29.184  1.00  0.00     0.167 HD
ATOM     57  C   UNL A   1      46.070  26.841  28.509  1.00  0.00     0.074 A 
ATOM     58  C   UNL A   1      46.503  25.535  28.059  1.00  0.00     0.031 C 
ATOM     59  C   UNL A   1      46.910  27.862  28.801  1.00  0.00     0.037 A 
BRANCH  46  60
ATOM     60  C   UNL A   1      44.059  33.014  30.646  1.00  0.00     0.058 A 
ATOM     61  C   UNL A   1      44.196  33.275  32.018  1.00  0.00     0.135 A 
ATOM     62  C   UNL A   1      44.102  34.105  29.762  1.00  0.00     0.135 A 
ATOM     63  F   UNL A   1      44.143  32.267  32.904  1.00  0.00    -0.206 F 
ATOM     64  C   UNL A   1      44.358  34.570  32.498  1.00  0.00     0.059 A 
ATOM     65  C   UNL A   1      44.284  35.407  30.219  1.00  0.00     0.059 A 
ATOM     66  F   UNL A   1      43.975  33.909  28.440  1.00  0.00    -0.206 F 
ATOM     67  C   UNL A   1      44.401  35.631  31.590  1.00  0.00     0.060 A 
BRANCH  67  68
ATOM     68  S   UNL A   1      44.628  37.307  32.221  1.00  0.00     0.124 S 
ATOM     69  O   UNL A   1      44.330  38.108  31.038  1.00  0.00    -0.237 OA
ATOM     70  O   UNL A   1      43.644  37.375  33.297  1.00  0.00    -0.237 OA
ATOM     71  O   UNL A   1      46.023  37.321  32.653  1.00  0.00    -0.744 OA
ENDBRANCH  67  68
ENDBRANCH  46  60
BRANCH  47  72
ATOM     72  C   UNL A   1      42.782  23.649  27.475  1.00  0.00     0.058 A 
ATOM     73  C   UNL A   1      42.535  22.601  28.375  1.00  0.00     0.135 A 
ATOM     74  C   UNL A   1      42.861  23.335  26.110  1.00  0.00     0.135 A 
ATOM     75  F   UNL A   1      42.465  22.851  29.692  1.00  0.00    -0.206 F 
ATOM     76  C   UNL A   1      42.383  21.289  27.939  1.00  0.00     0.059 A 
ATOM     77  C   UNL A   1      42.687  22.036  25.648  1.00  0.00     0.059 A 
ATOM     78  F   UNL A   1      43.087  24.303  25.209  1.00  0.00    -0.206 F 
ATOM     79  C   UNL A   1      42.461  21.016  26.572  1.00  0.00     0.060 A 
BRANCH  79  80
ATOM     80  S   UNL A   1      42.215  19.322  25.998  1.00  0.00     0.124 S 
ATOM     81  O   UNL A   1      43.074  19.287  24.819  1.00  0.00    -0.237 OA
ATOM     82  O   UNL A   1      42.666  18.534  27.140  1.00  0.00    -0.237 OA
ATOM     83  O   UNL A   1      40.779  19.267  25.738  1.00  0.00    -0.744 OA
ENDBRANCH  79  80
ENDBRANCH  47  72
BRANCH  59  84
ATOM     84  C   UNL A   1      48.382  27.606  28.653  1.00  0.00     0.058 A 
ATOM     85  C   UNL A   1      49.151  27.154  29.735  1.00  0.00     0.135 A 
ATOM     86  C   UNL A   1      49.015  27.762  27.411  1.00  0.00     0.135 A 
ATOM     87  F   UNL A   1      48.591  26.999  30.945  1.00  0.00    -0.206 F 
ATOM     88  C   UNL A   1      50.506  26.873  29.593  1.00  0.00     0.059 A 
ATOM     89  C   UNL A   1      50.365  27.472  27.242  1.00  0.00     0.059 A 
ATOM     90  F   UNL A   1      48.318  28.188  26.346  1.00  0.00    -0.206 F 
ATOM     91  C   UNL A   1      51.104  27.034  28.341  1.00  0.00     0.060 A 
BRANCH  91  92
ATOM     92  S   UNL A   1      52.852  26.624  28.156  1.00  0.00     0.124 S 
ATOM     93  O   UNL A   1      52.797  25.523  27.201  1.00  0.00    -0.237 OA
ATOM     94  O   UNL A   1      53.417  27.872  27.652  1.00  0.00    -0.237 OA
ATOM     95  O   UNL A   1      53.260  26.263  29.510  1.00  0.00    -0.744 OA
ENDBRANCH  91  92
ENDBRANCH  59  84
ENDBRANCH  33  34
ENDBRANCH  26  28
ENDBRANCH  25  26
ENDBRANCH  24  25
ENDBRANCH   1  24
TORSDOF 19
ENDMDL
MODEL 3
REMARK VINA RESULT:     -10.7      4.867     10.684
REMARK SMILES COc1cccc(CC(=O)N[C@@](C)(C(=O)OCCOC(=O)c2ccc(-c3c4nc(c(-c5c(F)cc(S(=O)(=O)[O-])cc5F)c5ccc([nH]5)c(-c5c(F)cc(S(=O)(=O)[O-])cc5F)c5nc(c(-c6c(F)cc(S(=O)(=O)[O-])cc6F)c6ccc3[nH]6)C=C5)C=C4)cc2)C(F)(F)F)c1
REMARK SMILES IDX 17 1 16 2 14 3 15 4 12 5 13 6 11 7 9 8 10 9 8 11 7 12 3 13
REMARK SMILES IDX 4 14 92 15 5 16 6 17 2 18 1 19 88 20 89 21 90 22 91 23 18 24
REMARK SMILES IDX 19 25 20 26 21 27 22 28 23 29 87 30 24 31 86 32 25 33 26 34
REMARK SMILES IDX 27 35 80 36 28 37 85 38 79 39 81 40 29 41 84 42 78 43 77 44
REMARK SMILES IDX 30 46 64 47 43 48 63 49 44 50 47 51 62 52 82 53 45 54 46 55
REMARK SMILES IDX 61 57 83 58 48 59 31 60 32 61 41 62 33 63 34 64 40 65 42 66
REMARK SMILES IDX 35 67 36 68 37 69 38 70 39 71 65 72 66 73 75 74 67 75 68 76
REMARK SMILES IDX 74 77 76 78 69 79 70 80 71 81 72 82 73 83 49 84 50 85 59 86
REMARK SMILES IDX 51 87 52 88 58 89 60 90 53 91 54 92 55 93 56 94 57 95
REMARK H PARENT 11 10 81 45 47 56
REMARK Flexibility Score: inf
ROOT
ATOM      1  C   UNL A   1      36.727  22.554  23.498  1.00  0.00     0.274 C 
ENDROOT
BRANCH   1   2
ATOM      2  O   UNL A   1      35.298  22.356  23.548  1.00  0.00    -0.460 OA
BRANCH   2   3
ATOM      3  C   UNL A   1      34.545  23.495  23.436  1.00  0.00     0.341 C 
ATOM      4  O   UNL A   1      34.859  24.434  22.718  1.00  0.00    -0.249 OA
BRANCH   3   5
ATOM      5  C   UNL A   1      33.417  23.537  24.472  1.00  0.00     0.231 C 
ATOM      6  C   UNL A   1      33.524  24.921  25.153  1.00  0.00     0.058 C 
BRANCH   5   7
ATOM      7  N   UNL A   1      33.620  22.540  25.587  1.00  0.00    -0.333 N 
ATOM      8  C   UNL A   1      33.123  21.343  25.985  1.00  0.00     0.225 C 
ATOM      9  O   UNL A   1      33.643  20.872  27.004  1.00  0.00    -0.275 OA
ATOM     10  H   UNL A   1      34.317  22.851  26.209  1.00  0.00     0.164 HD
BRANCH   8  11
ATOM     11  C   UNL A   1      32.020  20.581  25.281  1.00  0.00     0.135 C 
BRANCH  11  12
ATOM     12  C   UNL A   1      32.429  19.283  24.629  1.00  0.00    -0.035 A 
ATOM     13  C   UNL A   1      33.407  17.068  24.897  1.00  0.00     0.119 A 
ATOM     14  C   UNL A   1      33.450  16.929  23.511  1.00  0.00     0.046 A 
ATOM     15  C   UNL A   1      32.834  18.213  25.447  1.00  0.00     0.050 A 
ATOM     16  C   UNL A   1      32.951  17.936  22.684  1.00  0.00     0.004 A 
ATOM     17  C   UNL A   1      32.443  19.113  23.238  1.00  0.00     0.004 A 
BRANCH  13  18
ATOM     18  O   UNL A   1      33.973  16.049  25.613  1.00  0.00    -0.497 OA
ATOM     19  C   UNL A   1      35.351  15.792  25.350  1.00  0.00     0.278 C 
ENDBRANCH  13  18
ENDBRANCH  11  12
ENDBRANCH   8  11
ENDBRANCH   5   7
BRANCH   5  20
ATOM     20  C   UNL A   1      32.106  23.543  23.678  1.00  0.00     0.422 C 
ATOM     21  F   UNL A   1      31.026  23.467  24.479  1.00  0.00    -0.168 F 
ATOM     22  F   UNL A   1      32.014  24.661  22.925  1.00  0.00    -0.168 F 
ATOM     23  F   UNL A   1      32.024  22.514  22.801  1.00  0.00    -0.168 F 
ENDBRANCH   5  20
ENDBRANCH   3   5
ENDBRANCH   2   3
ENDBRANCH   1   2
BRANCH   1  24
ATOM     24  C   UNL A   1      37.427  21.911  24.688  1.00  0.00     0.275 C 
BRANCH  24  25
ATOM     25  O   UNL A   1      37.678  22.894  25.704  1.00  0.00    -0.458 OA
BRANCH  25  26
ATOM     26  C   UNL A   1      38.966  22.992  26.102  1.00  0.00     0.338 C 
ATOM     27  O   UNL A   1      39.869  22.192  25.904  1.00  0.00    -0.246 OA
BRANCH  26  28
ATOM     28  C   UNL A   1      39.169  24.257  26.821  1.00  0.00     0.060 A 
ATOM     29  C   UNL A   1      40.021  25.220  26.286  1.00  0.00     0.016 A 
ATOM     30  C   UNL A   1      38.616  24.430  28.087  1.00  0.00     0.016 A 
ATOM     31  C   UNL A   1      40.391  26.323  27.054  1.00  0.00     0.010 A 
ATOM     32  C   UNL A   1      38.918  25.584  28.817  1.00  0.00     0.010 A 
ATOM     33  C   UNL A   1      39.837  26.530  28.326  1.00  0.00    -0.014 A 
BRANCH  33  34
ATOM     34  C   UNL A   1      40.237  27.699  29.163  1.00  0.00     0.031 A 
ATOM     35  C   UNL A   1      41.550  27.679  29.907  1.00  0.00     0.074 A 
ATOM     36  C   UNL A   1      39.443  28.784  29.263  1.00  0.00     0.049 A 
ATOM     37  N   UNL A   1      41.964  28.455  30.876  1.00  0.00    -0.248 NA
ATOM     38  C   UNL A   1      42.520  26.643  29.515  1.00  0.00     0.031 C 
ATOM     39  C   UNL A   1      38.177  28.986  28.556  1.00  0.00     0.029 A 
ATOM     40  N   UNL A   1      39.587  29.931  30.008  1.00  0.00    -0.354 N 
ATOM     41  C   UNL A   1      43.212  27.971  31.247  1.00  0.00     0.074 A 
ATOM     42  C   UNL A   1      43.494  26.835  30.395  1.00  0.00     0.031 C 
ATOM     43  C   UNL A   1      37.682  30.193  28.869  1.00  0.00     0.029 A 
ATOM     44  C   UNL A   1      38.538  30.811  29.875  1.00  0.00     0.049 A 
ATOM     45  H   UNL A   1      40.368  30.108  30.580  1.00  0.00     0.167 HD
ATOM     46  C   UNL A   1      44.046  28.427  32.213  1.00  0.00     0.037 A 
ATOM     47  C   UNL A   1      38.257  31.955  30.530  1.00  0.00     0.037 A 
ATOM     48  C   UNL A   1      43.788  29.590  33.023  1.00  0.00     0.049 A 
ATOM     49  C   UNL A   1      39.164  32.411  31.639  1.00  0.00     0.074 A 
ATOM     50  C   UNL A   1      44.557  30.117  34.047  1.00  0.00     0.029 A 
ATOM     51  N   UNL A   1      42.689  30.423  32.882  1.00  0.00    -0.354 N 
ATOM     52  N   UNL A   1      40.283  31.874  32.062  1.00  0.00    -0.248 NA
ATOM     53  C   UNL A   1      38.747  33.607  32.389  1.00  0.00     0.031 C 
ATOM     54  C   UNL A   1      43.913  31.258  34.537  1.00  0.00     0.029 A 
ATOM     55  C   UNL A   1      42.757  31.457  33.801  1.00  0.00     0.049 A 
ATOM     56  H   UNL A   1      41.966  30.298  32.226  1.00  0.00     0.167 HD
ATOM     57  C   UNL A   1      40.699  32.662  33.129  1.00  0.00     0.074 A 
ATOM     58  C   UNL A   1      39.729  33.726  33.273  1.00  0.00     0.031 C 
ATOM     59  C   UNL A   1      41.782  32.507  33.929  1.00  0.00     0.037 A 
BRANCH  46  60
ATOM     60  C   UNL A   1      45.308  27.656  32.473  1.00  0.00     0.058 A 
ATOM     61  C   UNL A   1      45.336  26.553  33.339  1.00  0.00     0.135 A 
ATOM     62  C   UNL A   1      46.495  27.995  31.802  1.00  0.00     0.135 A 
ATOM     63  F   UNL A   1      44.232  26.200  34.017  1.00  0.00    -0.206 F 
ATOM     64  C   UNL A   1      46.500  25.819  33.543  1.00  0.00     0.059 A 
ATOM     65  C   UNL A   1      47.665  27.263  31.976  1.00  0.00     0.059 A 
ATOM     66  F   UNL A   1      46.521  29.042  30.963  1.00  0.00    -0.206 F 
ATOM     67  C   UNL A   1      47.661  26.182  32.856  1.00  0.00     0.060 A 
BRANCH  67  68
ATOM     68  S   UNL A   1      49.163  25.213  33.115  1.00  0.00     0.124 S 
ATOM     69  O   UNL A   1      49.598  24.978  31.742  1.00  0.00    -0.237 OA
ATOM     70  O   UNL A   1      49.995  26.124  33.895  1.00  0.00    -0.237 OA
ATOM     71  O   UNL A   1      48.687  24.035  33.833  1.00  0.00    -0.744 OA
ENDBRANCH  67  68
ENDBRANCH  46  60
BRANCH  47  72
ATOM     72  C   UNL A   1      37.020  32.714  30.210  1.00  0.00     0.058 A 
ATOM     73  C   UNL A   1      37.004  33.662  29.175  1.00  0.00     0.135 A 
ATOM     74  C   UNL A   1      35.834  32.510  30.931  1.00  0.00     0.135 A 
ATOM     75  F   UNL A   1      38.118  33.900  28.467  1.00  0.00    -0.206 F 
ATOM     76  C   UNL A   1      35.857  34.388  28.874  1.00  0.00     0.059 A 
ATOM     77  C   UNL A   1      34.669  33.206  30.631  1.00  0.00     0.059 A 
ATOM     78  F   UNL A   1      35.796  31.609  31.924  1.00  0.00    -0.206 F 
ATOM     79  C   UNL A   1      34.693  34.154  29.608  1.00  0.00     0.060 A 
BRANCH  79  80
ATOM     80  S   UNL A   1      33.189  35.060  29.188  1.00  0.00     0.124 S 
ATOM     81  O   UNL A   1      33.737  36.308  28.669  1.00  0.00    -0.237 OA
ATOM     82  O   UNL A   1      32.558  34.183  28.207  1.00  0.00    -0.237 OA
ATOM     83  O   UNL A   1      32.493  35.156  30.468  1.00  0.00    -0.744 OA
ENDBRANCH  79  80
ENDBRANCH  47  72
BRANCH  59  84
ATOM     84  C   UNL A   1      41.980  33.516  35.022  1.00  0.00     0.058 A 
ATOM     85  C   UNL A   1      42.668  34.715  34.786  1.00  0.00     0.135 A 
ATOM     86  C   UNL A   1      41.434  33.306  36.297  1.00  0.00     0.135 A 
ATOM     87  F   UNL A   1      43.215  34.955  33.584  1.00  0.00    -0.206 F 
ATOM     88  C   UNL A   1      42.816  35.673  35.783  1.00  0.00     0.059 A 
ATOM     89  C   UNL A   1      41.557  34.257  37.305  1.00  0.00     0.059 A 
ATOM     90  F   UNL A   1      40.764  32.176  36.568  1.00  0.00    -0.206 F 
ATOM     91  C   UNL A   1      42.255  35.435  37.040  1.00  0.00     0.060 A 
BRANCH  91  92
ATOM     92  S   UNL A   1      42.414  36.704  38.315  1.00  0.00     0.124 S 
ATOM     93  O   UNL A   1      41.030  37.134  38.477  1.00  0.00    -0.237 OA
ATOM     94  O   UNL A   1      42.981  35.958  39.434  1.00  0.00    -0.237 OA
ATOM     95  O   UNL A   1      43.309  37.684  37.707  1.00  0.00    -0.744 OA
ENDBRANCH  91  92
ENDBRANCH  59  84
ENDBRANCH  33  34
ENDBRANCH  26  28
ENDBRANCH  25  26
ENDBRANCH  24  25
ENDBRANCH   1  24
TORSDOF 19
ENDMDL
