MODEL 1
REMARK VINA RESULT:     -13.4      0.000      0.000
REMARK SMILES Cc1ccc(/C=C(\NC(=O)c2cccc(C)c2)C(=O)OCCOC(=O)c2ccc(-c3c4nc(c(-c5c(F)cc(S(=O)(=O)[O-])cc5F)c5ccc([nH]5)c(-c5c(F)cc(S(=O)(=O)[O-])cc5F)c5nc(c(-c6c(F)cc(S(=O)(=O)[O-])cc6F)c6ccc3[nH]6)C=C5)C=C4)cc2)cc1
REMARK SMILES IDX 22 1 21 2 20 3 18 4 19 5 7 6 6 7 5 8 1 9 2 10 3 11 93 12
REMARK SMILES IDX 4 13 92 14 8 15 9 16 10 18 11 19 12 20 17 21 13 22 15 23
REMARK SMILES IDX 14 24 16 25 23 26 24 27 25 28 26 29 27 30 91 31 28 32 90 33
REMARK SMILES IDX 29 34 30 35 31 36 84 37 32 38 89 39 83 40 85 41 33 42 88 43
REMARK SMILES IDX 82 44 81 45 34 47 68 48 47 49 67 50 48 51 51 52 66 53 86 54
REMARK SMILES IDX 49 55 50 56 65 58 87 59 52 60 35 61 36 62 45 63 37 64 38 65
REMARK SMILES IDX 44 66 46 67 39 68 40 69 41 70 42 71 43 72 69 73 70 74 79 75
REMARK SMILES IDX 71 76 72 77 78 78 80 79 73 80 74 81 75 82 76 83 77 84 53 85
REMARK SMILES IDX 54 86 63 87 55 88 56 89 62 90 64 91 57 92 58 93 59 94 60 95
REMARK SMILES IDX 61 96
REMARK H PARENT 8 17 85 46 51 57
REMARK Flexibility Score: inf
ROOT
ATOM      1  C   UNL A   1      33.770  28.810  27.088  1.00  0.00     0.275 C 
ENDROOT
BRANCH   1   2
ATOM      2  C   UNL A   1      33.300  28.942  25.631  1.00  0.00     0.275 C 
BRANCH   2   3
ATOM      3  O   UNL A   1      32.089  28.197  25.362  1.00  0.00    -0.457 OA
BRANCH   3   4
ATOM      4  C   UNL A   1      32.299  27.122  24.571  1.00  0.00     0.354 C 
ATOM      5  O   UNL A   1      31.943  27.054  23.407  1.00  0.00    -0.244 OA
BRANCH   4   6
ATOM      6  C   UNL A   1      32.964  25.971  25.215  1.00  0.00     0.128 C 
ATOM      7  C   UNL A   1      34.116  25.583  24.614  1.00  0.00     0.042 C 
BRANCH   7   8
ATOM      8  C   UNL A   1      35.032  24.411  24.728  1.00  0.00    -0.023 A 
ATOM      9  C   UNL A   1      37.717  20.971  24.677  1.00  0.00     0.044 C 
ATOM     10  C   UNL A   1      36.792  22.154  24.688  1.00  0.00    -0.051 A 
ATOM     11  C   UNL A   1      36.591  22.901  25.854  1.00  0.00     0.004 A 
ATOM     12  C   UNL A   1      36.115  22.544  23.535  1.00  0.00     0.004 A 
ATOM     13  C   UNL A   1      35.734  24.022  25.872  1.00  0.00     0.008 A 
ATOM     14  C   UNL A   1      35.255  23.653  23.558  1.00  0.00     0.008 A 
ENDBRANCH   7   8
BRANCH   6  15
ATOM     15  N   UNL A   1      32.351  25.313  26.255  1.00  0.00    -0.316 N 
ATOM     16  C   UNL A   1      31.735  24.081  26.405  1.00  0.00     0.255 C 
ATOM     17  H   UNL A   1      32.347  25.841  27.085  1.00  0.00     0.170 HD
ATOM     18  O   UNL A   1      30.852  24.055  27.274  1.00  0.00    -0.269 OA
BRANCH  16  19
ATOM     19  C   UNL A   1      32.032  22.782  25.706  1.00  0.00     0.040 A 
ATOM     20  C   UNL A   1      32.866  21.875  26.378  1.00  0.00     0.014 A 
ATOM     21  C   UNL A   1      31.768  22.504  24.362  1.00  0.00     0.017 A 
ATOM     22  C   UNL A   1      33.418  20.764  25.727  1.00  0.00     0.001 A 
ATOM     23  C   UNL A   1      32.288  21.374  23.694  1.00  0.00    -0.050 A 
ATOM     24  C   UNL A   1      33.139  20.520  24.387  1.00  0.00     0.003 A 
ATOM     25  C   UNL A   1      32.039  21.130  22.232  1.00  0.00     0.044 C 
ENDBRANCH  16  19
ENDBRANCH   6  15
ENDBRANCH   4   6
ENDBRANCH   3   4
ENDBRANCH   2   3
ENDBRANCH   1   2
BRANCH   1  26
ATOM     26  O   UNL A   1      35.196  28.926  27.229  1.00  0.00    -0.458 OA
BRANCH  26  27
ATOM     27  C   UNL A   1      35.726  30.162  27.459  1.00  0.00     0.338 C 
ATOM     28  O   UNL A   1      35.119  31.215  27.344  1.00  0.00    -0.246 OA
BRANCH  27  29
ATOM     29  C   UNL A   1      36.976  29.963  28.259  1.00  0.00     0.060 A 
ATOM     30  C   UNL A   1      36.927  29.266  29.483  1.00  0.00     0.016 A 
ATOM     31  C   UNL A   1      38.179  30.058  27.574  1.00  0.00     0.016 A 
ATOM     32  C   UNL A   1      38.018  28.484  29.916  1.00  0.00     0.010 A 
ATOM     33  C   UNL A   1      39.190  29.200  27.932  1.00  0.00     0.010 A 
ATOM     34  C   UNL A   1      39.139  28.392  29.098  1.00  0.00    -0.014 A 
BRANCH  34  35
ATOM     35  C   UNL A   1      40.363  27.598  29.324  1.00  0.00     0.031 A 
ATOM     36  C   UNL A   1      40.598  26.166  28.957  1.00  0.00     0.074 A 
ATOM     37  C   UNL A   1      41.407  28.403  29.642  1.00  0.00     0.049 A 
ATOM     38  N   UNL A   1      41.784  25.652  28.948  1.00  0.00    -0.248 NA
ATOM     39  C   UNL A   1      39.606  25.180  28.520  1.00  0.00     0.031 C 
ATOM     40  C   UNL A   1      42.845  28.221  29.541  1.00  0.00     0.029 A 
ATOM     41  N   UNL A   1      41.285  29.629  30.310  1.00  0.00    -0.354 N 
ATOM     42  C   UNL A   1      41.775  24.436  28.296  1.00  0.00     0.074 A 
ATOM     43  C   UNL A   1      40.380  24.179  28.050  1.00  0.00     0.031 C 
ATOM     44  C   UNL A   1      43.443  29.080  30.389  1.00  0.00     0.029 A 
ATOM     45  C   UNL A   1      42.382  29.716  31.162  1.00  0.00     0.049 A 
ATOM     46  H   UNL A   1      40.568  30.295  30.199  1.00  0.00     0.167 HD
ATOM     47  C   UNL A   1      42.988  23.881  27.992  1.00  0.00     0.037 A 
ATOM     48  C   UNL A   1      42.131  29.526  32.492  1.00  0.00     0.037 A 
ATOM     49  C   UNL A   1      44.004  24.471  28.862  1.00  0.00     0.049 A 
ATOM     50  C   UNL A   1      42.836  28.287  32.985  1.00  0.00     0.074 A 
ATOM     51  C   UNL A   1      45.035  25.373  28.683  1.00  0.00     0.029 A 
ATOM     52  N   UNL A   1      43.845  24.306  30.234  1.00  0.00    -0.354 N 
ATOM     53  N   UNL A   1      43.079  27.234  32.249  1.00  0.00    -0.248 NA
ATOM     54  C   UNL A   1      43.446  28.208  34.305  1.00  0.00     0.031 C 
ATOM     55  C   UNL A   1      45.374  25.878  29.973  1.00  0.00     0.029 A 
ATOM     56  C   UNL A   1      44.582  25.243  30.919  1.00  0.00     0.049 A 
ATOM     57  H   UNL A   1      43.283  23.617  30.655  1.00  0.00     0.167 HD
ATOM     58  C   UNL A   1      43.938  26.409  32.921  1.00  0.00     0.074 A 
ATOM     59  C   UNL A   1      44.106  27.040  34.219  1.00  0.00     0.031 C 
ATOM     60  C   UNL A   1      44.515  25.302  32.370  1.00  0.00     0.037 A 
BRANCH  47  61
ATOM     61  C   UNL A   1      43.361  22.905  26.881  1.00  0.00     0.058 A 
ATOM     62  C   UNL A   1      42.889  21.565  26.925  1.00  0.00     0.135 A 
ATOM     63  C   UNL A   1      44.299  23.153  25.860  1.00  0.00     0.135 A 
ATOM     64  F   UNL A   1      41.977  21.178  27.830  1.00  0.00    -0.206 F 
ATOM     65  C   UNL A   1      43.345  20.554  26.073  1.00  0.00     0.059 A 
ATOM     66  C   UNL A   1      44.751  22.157  24.973  1.00  0.00     0.059 A 
ATOM     67  F   UNL A   1      44.847  24.365  25.700  1.00  0.00    -0.206 F 
ATOM     68  C   UNL A   1      44.291  20.852  25.106  1.00  0.00     0.060 A 
BRANCH  68  69
ATOM     69  S   UNL A   1      44.907  19.518  24.051  1.00  0.00     0.124 S 
ATOM     70  O   UNL A   1      44.228  18.351  24.609  1.00  0.00    -0.237 OA
ATOM     71  O   UNL A   1      44.462  19.931  22.724  1.00  0.00    -0.237 OA
ATOM     72  O   UNL A   1      46.352  19.554  24.259  1.00  0.00    -0.744 OA
ENDBRANCH  68  69
ENDBRANCH  47  61
BRANCH  48  73
ATOM     73  C   UNL A   1      40.763  30.030  32.889  1.00  0.00     0.058 A 
ATOM     74  C   UNL A   1      40.549  31.430  32.844  1.00  0.00     0.135 A 
ATOM     75  C   UNL A   1      39.613  29.224  32.879  1.00  0.00     0.135 A 
ATOM     76  F   UNL A   1      41.603  32.265  32.830  1.00  0.00    -0.206 F 
ATOM     77  C   UNL A   1      39.285  31.992  32.663  1.00  0.00     0.059 A 
ATOM     78  C   UNL A   1      38.328  29.772  32.725  1.00  0.00     0.059 A 
ATOM     79  F   UNL A   1      39.723  27.887  32.916  1.00  0.00    -0.206 F 
ATOM     80  C   UNL A   1      38.180  31.152  32.568  1.00  0.00     0.060 A 
BRANCH  80  81
ATOM     81  S   UNL A   1      36.585  31.891  32.118  1.00  0.00     0.124 S 
ATOM     82  O   UNL A   1      35.700  30.731  32.138  1.00  0.00    -0.237 OA
ATOM     83  O   UNL A   1      36.372  32.859  33.191  1.00  0.00    -0.237 OA
ATOM     84  O   UNL A   1      36.830  32.470  30.800  1.00  0.00    -0.744 OA
ENDBRANCH  80  81
ENDBRANCH  48  73
BRANCH  60  85
ATOM     85  C   UNL A   1      45.158  24.205  33.176  1.00  0.00     0.058 A 
ATOM     86  C   UNL A   1      46.465  24.305  33.682  1.00  0.00     0.135 A 
ATOM     87  C   UNL A   1      44.415  23.083  33.608  1.00  0.00     0.135 A 
ATOM     88  F   UNL A   1      47.217  25.394  33.464  1.00  0.00    -0.206 F 
ATOM     89  C   UNL A   1      47.039  23.308  34.464  1.00  0.00     0.059 A 
ATOM     90  C   UNL A   1      44.950  22.103  34.440  1.00  0.00     0.059 A 
ATOM     91  F   UNL A   1      43.134  22.906  33.248  1.00  0.00    -0.206 F 
ATOM     92  C   UNL A   1      46.277  22.205  34.830  1.00  0.00     0.060 A 
BRANCH  92  93
ATOM     93  S   UNL A   1      47.016  20.924  35.854  1.00  0.00     0.124 S 
ATOM     94  O   UNL A   1      47.640  21.722  36.904  1.00  0.00    -0.237 OA
ATOM     95  O   UNL A   1      45.859  20.134  36.267  1.00  0.00    -0.237 OA
ATOM     96  O   UNL A   1      47.931  20.251  34.938  1.00  0.00    -0.744 OA
ENDBRANCH  92  93
ENDBRANCH  60  85
ENDBRANCH  34  35
ENDBRANCH  27  29
ENDBRANCH  26  27
ENDBRANCH   1  26
TORSDOF 17
ENDMDL
MODEL 2
REMARK VINA RESULT:     -13.2      1.157      2.498
REMARK SMILES Cc1ccc(/C=C(\NC(=O)c2cccc(C)c2)C(=O)OCCOC(=O)c2ccc(-c3c4nc(c(-c5c(F)cc(S(=O)(=O)[O-])cc5F)c5ccc([nH]5)c(-c5c(F)cc(S(=O)(=O)[O-])cc5F)c5nc(c(-c6c(F)cc(S(=O)(=O)[O-])cc6F)c6ccc3[nH]6)C=C5)C=C4)cc2)cc1
REMARK SMILES IDX 22 1 21 2 20 3 18 4 19 5 7 6 6 7 5 8 1 9 2 10 3 11 93 12
REMARK SMILES IDX 4 13 92 14 8 15 9 16 10 18 11 19 12 20 17 21 13 22 15 23
REMARK SMILES IDX 14 24 16 25 23 26 24 27 25 28 26 29 27 30 91 31 28 32 90 33
REMARK SMILES IDX 29 34 30 35 31 36 84 37 32 38 89 39 83 40 85 41 33 42 88 43
REMARK SMILES IDX 82 44 81 45 34 47 68 48 47 49 67 50 48 51 51 52 66 53 86 54
REMARK SMILES IDX 49 55 50 56 65 58 87 59 52 60 35 61 36 62 45 63 37 64 38 65
REMARK SMILES IDX 44 66 46 67 39 68 40 69 41 70 42 71 43 72 69 73 70 74 79 75
REMARK SMILES IDX 71 76 72 77 78 78 80 79 73 80 74 81 75 82 76 83 77 84 53 85
REMARK SMILES IDX 54 86 63 87 55 88 56 89 62 90 64 91 57 92 58 93 59 94 60 95
REMARK SMILES IDX 61 96
REMARK H PARENT 8 17 85 46 51 57
REMARK Flexibility Score: inf
ROOT
ATOM      1  C   UNL A   1      34.329  30.789  27.255  1.00  0.00     0.275 C 
ENDROOT
BRANCH   1   2
ATOM      2  C   UNL A   1      32.982  30.051  27.306  1.00  0.00     0.275 C 
BRANCH   2   3
ATOM      3  O   UNL A   1      32.966  28.855  26.492  1.00  0.00    -0.457 OA
BRANCH   3   4
ATOM      4  C   UNL A   1      32.082  27.933  26.931  1.00  0.00     0.354 C 
ATOM      5  O   UNL A   1      31.501  28.002  28.001  1.00  0.00    -0.244 OA
BRANCH   4   6
ATOM      6  C   UNL A   1      31.876  26.768  26.045  1.00  0.00     0.128 C 
ATOM      7  C   UNL A   1      31.969  25.568  26.670  1.00  0.00     0.042 C 
BRANCH   7   8
ATOM      8  C   UNL A   1      32.042  24.145  26.230  1.00  0.00    -0.023 A 
ATOM      9  C   UNL A   1      32.508  19.922  25.230  1.00  0.00     0.044 C 
ATOM     10  C   UNL A   1      32.353  21.375  25.579  1.00  0.00    -0.051 A 
ATOM     11  C   UNL A   1      31.300  22.133  25.055  1.00  0.00     0.004 A 
ATOM     12  C   UNL A   1      33.250  22.005  26.439  1.00  0.00     0.004 A 
ATOM     13  C   UNL A   1      31.138  23.496  25.386  1.00  0.00     0.008 A 
ATOM     14  C   UNL A   1      33.093  23.362  26.758  1.00  0.00     0.008 A 
ENDBRANCH   7   8
BRANCH   6  15
ATOM     15  N   UNL A   1      31.734  26.950  24.691  1.00  0.00    -0.316 N 
ATOM     16  C   UNL A   1      32.499  26.642  23.577  1.00  0.00     0.255 C 
ATOM     17  H   UNL A   1      30.893  27.404  24.457  1.00  0.00     0.170 HD
ATOM     18  O   UNL A   1      32.334  27.409  22.618  1.00  0.00    -0.269 OA
BRANCH  16  19
ATOM     19  C   UNL A   1      33.441  25.489  23.365  1.00  0.00     0.040 A 
ATOM     20  C   UNL A   1      33.012  24.468  22.503  1.00  0.00     0.014 A 
ATOM     21  C   UNL A   1      34.579  25.217  24.130  1.00  0.00     0.017 A 
ATOM     22  C   UNL A   1      33.678  23.237  22.433  1.00  0.00     0.001 A 
ATOM     23  C   UNL A   1      35.284  23.995  24.053  1.00  0.00    -0.050 A 
ATOM     24  C   UNL A   1      34.804  22.998  23.213  1.00  0.00     0.003 A 
ATOM     25  C   UNL A   1      36.468  23.705  24.933  1.00  0.00     0.044 C 
ENDBRANCH  16  19
ENDBRANCH   6  15
ENDBRANCH   4   6
ENDBRANCH   3   4
ENDBRANCH   2   3
ENDBRANCH   1   2
BRANCH   1  26
ATOM     26  O   UNL A   1      34.846  31.104  28.558  1.00  0.00    -0.458 OA
BRANCH  26  27
ATOM     27  C   UNL A   1      36.174  31.392  28.678  1.00  0.00     0.338 C 
ATOM     28  O   UNL A   1      36.627  32.384  29.225  1.00  0.00    -0.246 OA
BRANCH  27  29
ATOM     29  C   UNL A   1      36.924  30.121  28.423  1.00  0.00     0.060 A 
ATOM     30  C   UNL A   1      37.780  30.019  27.307  1.00  0.00     0.016 A 
ATOM     31  C   UNL A   1      37.112  29.277  29.508  1.00  0.00     0.016 A 
ATOM     32  C   UNL A   1      38.947  29.230  27.359  1.00  0.00     0.010 A 
ATOM     33  C   UNL A   1      38.309  28.611  29.603  1.00  0.00     0.010 A 
ATOM     34  C   UNL A   1      39.255  28.571  28.545  1.00  0.00    -0.014 A 
BRANCH  34  35
ATOM     35  C   UNL A   1      40.440  27.741  28.840  1.00  0.00     0.031 A 
ATOM     36  C   UNL A   1      40.606  26.274  28.595  1.00  0.00     0.074 A 
ATOM     37  C   UNL A   1      41.521  28.520  29.092  1.00  0.00     0.049 A 
ATOM     38  N   UNL A   1      41.767  25.706  28.632  1.00  0.00    -0.248 NA
ATOM     39  C   UNL A   1      39.568  25.303  28.240  1.00  0.00     0.031 C 
ATOM     40  C   UNL A   1      42.949  28.262  29.010  1.00  0.00     0.029 A 
ATOM     41  N   UNL A   1      41.459  29.802  29.654  1.00  0.00    -0.354 N 
ATOM     42  C   UNL A   1      41.699  24.441  28.084  1.00  0.00     0.074 A 
ATOM     43  C   UNL A   1      40.292  24.230  27.857  1.00  0.00     0.031 C 
ATOM     44  C   UNL A   1      43.589  29.160  29.784  1.00  0.00     0.029 A 
ATOM     45  C   UNL A   1      42.561  29.908  30.499  1.00  0.00     0.049 A 
ATOM     46  H   UNL A   1      40.775  30.489  29.486  1.00  0.00     0.167 HD
ATOM     47  C   UNL A   1      42.884  23.805  27.830  1.00  0.00     0.037 A 
ATOM     48  C   UNL A   1      42.303  29.842  31.840  1.00  0.00     0.037 A 
ATOM     49  C   UNL A   1      43.928  24.417  28.650  1.00  0.00     0.049 A 
ATOM     50  C   UNL A   1      42.948  28.617  32.436  1.00  0.00     0.074 A 
ATOM     51  C   UNL A   1      45.000  25.251  28.399  1.00  0.00     0.029 A 
ATOM     52  N   UNL A   1      43.763  24.376  30.031  1.00  0.00    -0.354 N 
ATOM     53  N   UNL A   1      43.140  27.495  31.792  1.00  0.00    -0.248 NA
ATOM     54  C   UNL A   1      43.557  28.620  33.760  1.00  0.00     0.031 C 
ATOM     55  C   UNL A   1      45.365  25.846  29.643  1.00  0.00     0.029 A 
ATOM     56  C   UNL A   1      44.545  25.331  30.637  1.00  0.00     0.049 A 
ATOM     57  H   UNL A   1      43.169  23.751  30.507  1.00  0.00     0.167 HD
ATOM     58  C   UNL A   1      43.960  26.689  32.533  1.00  0.00     0.074 A 
ATOM     59  C   UNL A   1      44.160  27.419  33.774  1.00  0.00     0.031 C 
ATOM     60  C   UNL A   1      44.483  25.514  32.078  1.00  0.00     0.037 A 
BRANCH  47  61
ATOM     61  C   UNL A   1      43.208  22.724  26.807  1.00  0.00     0.058 A 
ATOM     62  C   UNL A   1      42.711  21.404  26.986  1.00  0.00     0.135 A 
ATOM     63  C   UNL A   1      44.123  22.856  25.744  1.00  0.00     0.135 A 
ATOM     64  F   UNL A   1      41.817  21.122  27.945  1.00  0.00    -0.206 F 
ATOM     65  C   UNL A   1      43.125  20.308  26.221  1.00  0.00     0.059 A 
ATOM     66  C   UNL A   1      44.532  21.772  24.942  1.00  0.00     0.059 A 
ATOM     67  F   UNL A   1      44.690  24.035  25.458  1.00  0.00    -0.206 F 
ATOM     68  C   UNL A   1      44.051  20.495  25.207  1.00  0.00     0.060 A 
BRANCH  68  69
ATOM     69  S   UNL A   1      44.612  19.056  24.266  1.00  0.00     0.124 S 
ATOM     70  O   UNL A   1      43.664  18.029  24.688  1.00  0.00    -0.237 OA
ATOM     71  O   UNL A   1      44.479  19.508  22.885  1.00  0.00    -0.237 OA
ATOM     72  O   UNL A   1      45.985  18.860  24.724  1.00  0.00    -0.744 OA
ENDBRANCH  68  69
ENDBRANCH  47  61
BRANCH  48  73
ATOM     73  C   UNL A   1      40.961  30.442  32.190  1.00  0.00     0.058 A 
ATOM     74  C   UNL A   1      40.033  29.608  32.862  1.00  0.00     0.135 A 
ATOM     75  C   UNL A   1      40.737  31.825  32.283  1.00  0.00     0.135 A 
ATOM     76  F   UNL A   1      40.194  28.274  32.833  1.00  0.00    -0.206 F 
ATOM     77  C   UNL A   1      39.028  30.114  33.687  1.00  0.00     0.059 A 
ATOM     78  C   UNL A   1      39.712  32.355  33.088  1.00  0.00     0.059 A 
ATOM     79  F   UNL A   1      41.568  32.688  31.680  1.00  0.00    -0.206 F 
ATOM     80  C   UNL A   1      38.896  31.492  33.824  1.00  0.00     0.060 A 
BRANCH  80  81
ATOM     81  S   UNL A   1      37.728  32.117  35.064  1.00  0.00     0.124 S 
ATOM     82  O   UNL A   1      37.758  31.056  36.066  1.00  0.00    -0.237 OA
ATOM     83  O   UNL A   1      38.343  33.378  35.470  1.00  0.00    -0.237 OA
ATOM     84  O   UNL A   1      36.474  32.246  34.326  1.00  0.00    -0.744 OA
ENDBRANCH  80  81
ENDBRANCH  48  73
BRANCH  60  85
ATOM     85  C   UNL A   1      45.075  24.460  32.975  1.00  0.00     0.058 A 
ATOM     86  C   UNL A   1      46.338  24.598  33.574  1.00  0.00     0.135 A 
ATOM     87  C   UNL A   1      44.313  23.344  33.394  1.00  0.00     0.135 A 
ATOM     88  F   UNL A   1      47.092  25.688  33.370  1.00  0.00    -0.206 F 
ATOM     89  C   UNL A   1      46.861  23.641  34.438  1.00  0.00     0.059 A 
ATOM     90  C   UNL A   1      44.793  22.407  34.303  1.00  0.00     0.059 A 
ATOM     91  F   UNL A   1      43.066  23.136  32.945  1.00  0.00    -0.206 F 
ATOM     92  C   UNL A   1      46.085  22.543  34.789  1.00  0.00     0.060 A 
BRANCH  92  93
ATOM     93  S   UNL A   1      46.758  21.314  35.917  1.00  0.00     0.124 S 
ATOM     94  O   UNL A   1      46.556  20.086  35.155  1.00  0.00    -0.237 OA
ATOM     95  O   UNL A   1      48.146  21.740  36.068  1.00  0.00    -0.237 OA
ATOM     96  O   UNL A   1      45.930  21.466  37.109  1.00  0.00    -0.744 OA
ENDBRANCH  92  93
ENDBRANCH  60  85
ENDBRANCH  34  35
ENDBRANCH  27  29
ENDBRANCH  26  27
ENDBRANCH   1  26
TORSDOF 17
ENDMDL
MODEL 3
REMARK VINA RESULT:     -13.0      4.624     10.946
REMARK SMILES Cc1ccc(/C=C(\NC(=O)c2cccc(C)c2)C(=O)OCCOC(=O)c2ccc(-c3c4nc(c(-c5c(F)cc(S(=O)(=O)[O-])cc5F)c5ccc([nH]5)c(-c5c(F)cc(S(=O)(=O)[O-])cc5F)c5nc(c(-c6c(F)cc(S(=O)(=O)[O-])cc6F)c6ccc3[nH]6)C=C5)C=C4)cc2)cc1
REMARK SMILES IDX 22 1 21 2 20 3 18 4 19 5 7 6 6 7 5 8 1 9 2 10 3 11 93 12
REMARK SMILES IDX 4 13 92 14 8 15 9 16 10 18 11 19 12 20 17 21 13 22 15 23
REMARK SMILES IDX 14 24 16 25 23 26 24 27 25 28 26 29 27 30 91 31 28 32 90 33
REMARK SMILES IDX 29 34 30 35 31 36 84 37 32 38 89 39 83 40 85 41 33 42 88 43
REMARK SMILES IDX 82 44 81 45 34 47 68 48 47 49 67 50 48 51 51 52 66 53 86 54
REMARK SMILES IDX 49 55 50 56 65 58 87 59 52 60 35 61 36 62 45 63 37 64 38 65
REMARK SMILES IDX 44 66 46 67 39 68 40 69 41 70 42 71 43 72 69 73 70 74 79 75
REMARK SMILES IDX 71 76 72 77 78 78 80 79 73 80 74 81 75 82 76 83 77 84 53 85
REMARK SMILES IDX 54 86 63 87 55 88 56 89 62 90 64 91 57 92 58 93 59 94 60 95
REMARK SMILES IDX 61 96
REMARK H PARENT 8 17 85 46 51 57
REMARK Flexibility Score: inf
ROOT
ATOM      1  C   UNL A   1      38.921  22.770  26.498  1.00  0.00     0.275 C 
ENDROOT
BRANCH   1   2
ATOM      2  C   UNL A   1      38.612  21.546  25.622  1.00  0.00     0.275 C 
BRANCH   2   3
ATOM      3  O   UNL A   1      37.557  21.795  24.663  1.00  0.00    -0.457 OA
BRANCH   3   4
ATOM      4  C   UNL A   1      36.477  21.006  24.855  1.00  0.00     0.354 C 
ATOM      5  O   UNL A   1      36.530  19.793  24.960  1.00  0.00    -0.244 OA
BRANCH   4   6
ATOM      6  C   UNL A   1      35.173  21.701  24.890  1.00  0.00     0.128 C 
ATOM      7  C   UNL A   1      35.234  22.982  25.329  1.00  0.00     0.042 C 
BRANCH   7   8
ATOM      8  C   UNL A   1      34.236  24.016  25.731  1.00  0.00    -0.023 A 
ATOM      9  C   UNL A   1      31.430  27.243  26.600  1.00  0.00     0.044 C 
ATOM     10  C   UNL A   1      32.398  26.137  26.296  1.00  0.00    -0.051 A 
ATOM     11  C   UNL A   1      32.282  24.886  26.915  1.00  0.00     0.004 A 
ATOM     12  C   UNL A   1      33.435  26.322  25.384  1.00  0.00     0.004 A 
ATOM     13  C   UNL A   1      33.179  23.836  26.627  1.00  0.00     0.008 A 
ATOM     14  C   UNL A   1      34.332  25.279  25.108  1.00  0.00     0.008 A 
ENDBRANCH   7   8
BRANCH   6  15
ATOM     15  N   UNL A   1      34.018  21.012  24.609  1.00  0.00    -0.316 N 
ATOM     16  C   UNL A   1      32.727  21.370  24.255  1.00  0.00     0.255 C 
ATOM     17  H   UNL A   1      34.134  20.037  24.676  1.00  0.00     0.170 HD
ATOM     18  O   UNL A   1      31.858  20.561  24.609  1.00  0.00    -0.269 OA
BRANCH  16  19
ATOM     19  C   UNL A   1      32.258  22.559  23.461  1.00  0.00     0.040 A 
ATOM     20  C   UNL A   1      33.098  23.006  22.429  1.00  0.00     0.014 A 
ATOM     21  C   UNL A   1      31.203  23.406  23.812  1.00  0.00     0.017 A 
ATOM     22  C   UNL A   1      32.897  24.243  21.803  1.00  0.00     0.001 A 
ATOM     23  C   UNL A   1      30.964  24.642  23.174  1.00  0.00    -0.050 A 
ATOM     24  C   UNL A   1      31.840  25.063  22.181  1.00  0.00     0.003 A 
ATOM     25  C   UNL A   1      29.858  25.562  23.612  1.00  0.00     0.044 C 
ENDBRANCH  16  19
ENDBRANCH   6  15
ENDBRANCH   4   6
ENDBRANCH   3   4
ENDBRANCH   2   3
ENDBRANCH   1   2
BRANCH   1  26
ATOM     26  O   UNL A   1      40.280  23.220  26.373  1.00  0.00    -0.458 OA
BRANCH  26  27
ATOM     27  C   UNL A   1      40.861  23.838  27.442  1.00  0.00     0.338 C 
ATOM     28  O   UNL A   1      41.957  23.559  27.899  1.00  0.00    -0.246 OA
BRANCH  27  29
ATOM     29  C   UNL A   1      40.137  25.132  27.649  1.00  0.00     0.060 A 
ATOM     30  C   UNL A   1      39.377  25.336  28.819  1.00  0.00     0.016 A 
ATOM     31  C   UNL A   1      40.599  26.228  26.933  1.00  0.00     0.016 A 
ATOM     32  C   UNL A   1      39.258  26.619  29.391  1.00  0.00     0.010 A 
ATOM     33  C   UNL A   1      40.587  27.452  27.556  1.00  0.00     0.010 A 
ATOM     34  C   UNL A   1      39.929  27.682  28.793  1.00  0.00    -0.014 A 
BRANCH  34  35
ATOM     35  C   UNL A   1      39.989  29.086  29.245  1.00  0.00     0.031 A 
ATOM     36  C   UNL A   1      38.965  30.156  29.025  1.00  0.00     0.074 A 
ATOM     37  C   UNL A   1      40.963  29.251  30.174  1.00  0.00     0.049 A 
ATOM     38  N   UNL A   1      38.986  31.263  29.691  1.00  0.00    -0.248 NA
ATOM     39  C   UNL A   1      37.811  30.118  28.123  1.00  0.00     0.031 C 
ATOM     40  C   UNL A   1      41.161  30.249  31.211  1.00  0.00     0.029 A 
ATOM     41  N   UNL A   1      42.139  28.491  30.230  1.00  0.00    -0.354 N 
ATOM     42  C   UNL A   1      37.793  31.940  29.533  1.00  0.00     0.074 A 
ATOM     43  C   UNL A   1      37.087  31.181  28.533  1.00  0.00     0.031 C 
ATOM     44  C   UNL A   1      42.466  30.257  31.550  1.00  0.00     0.029 A 
ATOM     45  C   UNL A   1      43.148  29.369  30.616  1.00  0.00     0.049 A 
ATOM     46  H   UNL A   1      42.233  27.530  30.037  1.00  0.00     0.167 HD
ATOM     47  C   UNL A   1      37.565  33.005  30.361  1.00  0.00     0.037 A 
ATOM     48  C   UNL A   1      44.025  29.749  29.638  1.00  0.00     0.037 A 
ATOM     49  C   UNL A   1      38.847  33.474  30.885  1.00  0.00     0.049 A 
ATOM     50  C   UNL A   1      43.910  31.230  29.381  1.00  0.00     0.074 A 
ATOM     51  C   UNL A   1      39.480  33.413  32.111  1.00  0.00     0.029 A 
ATOM     52  N   UNL A   1      39.794  33.906  29.962  1.00  0.00    -0.354 N 
ATOM     53  N   UNL A   1      42.809  31.921  29.521  1.00  0.00    -0.248 NA
ATOM     54  C   UNL A   1      45.068  32.065  29.088  1.00  0.00     0.031 C 
ATOM     55  C   UNL A   1      40.867  33.647  31.875  1.00  0.00     0.029 A 
ATOM     56  C   UNL A   1      41.050  33.896  30.522  1.00  0.00     0.049 A 
ATOM     57  H   UNL A   1      39.594  34.180  29.038  1.00  0.00     0.167 HD
ATOM     58  C   UNL A   1      43.106  33.254  29.453  1.00  0.00     0.074 A 
ATOM     59  C   UNL A   1      44.525  33.293  29.139  1.00  0.00     0.031 C 
ATOM     60  C   UNL A   1      42.208  34.247  29.717  1.00  0.00     0.037 A 
BRANCH  47  61
ATOM     61  C   UNL A   1      36.246  33.609  30.830  1.00  0.00     0.058 A 
ATOM     62  C   UNL A   1      35.366  34.209  29.890  1.00  0.00     0.135 A 
ATOM     63  C   UNL A   1      35.865  33.790  32.175  1.00  0.00     0.135 A 
ATOM     64  F   UNL A   1      35.582  34.107  28.570  1.00  0.00    -0.206 F 
ATOM     65  C   UNL A   1      34.245  34.966  30.250  1.00  0.00     0.059 A 
ATOM     66  C   UNL A   1      34.726  34.524  32.559  1.00  0.00     0.059 A 
ATOM     67  F   UNL A   1      36.602  33.295  33.177  1.00  0.00    -0.206 F 
ATOM     68  C   UNL A   1      33.938  35.134  31.590  1.00  0.00     0.060 A 
BRANCH  68  69
ATOM     69  S   UNL A   1      32.516  36.161  32.034  1.00  0.00     0.124 S 
ATOM     70  O   UNL A   1      33.076  37.022  33.072  1.00  0.00    -0.237 OA
ATOM     71  O   UNL A   1      32.195  36.821  30.773  1.00  0.00    -0.237 OA
ATOM     72  O   UNL A   1      31.525  35.193  32.497  1.00  0.00    -0.744 OA
ENDBRANCH  68  69
ENDBRANCH  47  61
BRANCH  48  73
ATOM     73  C   UNL A   1      44.256  28.652  28.626  1.00  0.00     0.058 A 
ATOM     74  C   UNL A   1      43.855  28.905  27.291  1.00  0.00     0.135 A 
ATOM     75  C   UNL A   1      45.191  27.619  28.809  1.00  0.00     0.135 A 
ATOM     76  F   UNL A   1      42.978  29.891  27.035  1.00  0.00    -0.206 F 
ATOM     77  C   UNL A   1      44.442  28.270  26.195  1.00  0.00     0.059 A 
ATOM     78  C   UNL A   1      45.775  26.949  27.720  1.00  0.00     0.059 A 
ATOM     79  F   UNL A   1      45.629  27.314  30.040  1.00  0.00    -0.206 F 
ATOM     80  C   UNL A   1      45.430  27.316  26.417  1.00  0.00     0.060 A 
BRANCH  80  81
ATOM     81  S   UNL A   1      46.325  26.668  24.979  1.00  0.00     0.124 S 
ATOM     82  O   UNL A   1      46.148  27.741  24.005  1.00  0.00    -0.237 OA
ATOM     83  O   UNL A   1      47.683  26.511  25.496  1.00  0.00    -0.237 OA
ATOM     84  O   UNL A   1      45.630  25.421  24.670  1.00  0.00    -0.744 OA
ENDBRANCH  80  81
ENDBRANCH  48  73
BRANCH  60  85
ATOM     85  C   UNL A   1      42.404  35.682  29.306  1.00  0.00     0.058 A 
ATOM     86  C   UNL A   1      43.275  36.552  29.983  1.00  0.00     0.135 A 
ATOM     87  C   UNL A   1      41.842  36.183  28.109  1.00  0.00     0.135 A 
ATOM     88  F   UNL A   1      43.982  36.143  31.047  1.00  0.00    -0.206 F 
ATOM     89  C   UNL A   1      43.486  37.864  29.572  1.00  0.00     0.059 A 
ATOM     90  C   UNL A   1      42.088  37.472  27.646  1.00  0.00     0.059 A 
ATOM     91  F   UNL A   1      41.046  35.428  27.336  1.00  0.00    -0.206 F 
ATOM     92  C   UNL A   1      42.880  38.319  28.407  1.00  0.00     0.060 A 
BRANCH  92  93
ATOM     93  S   UNL A   1      43.165  40.011  27.868  1.00  0.00     0.124 S 
ATOM     94  O   UNL A   1      42.139  40.727  28.619  1.00  0.00    -0.237 OA
ATOM     95  O   UNL A   1      44.541  40.257  28.291  1.00  0.00    -0.237 OA
ATOM     96  O   UNL A   1      42.964  39.941  26.425  1.00  0.00    -0.744 OA
ENDBRANCH  92  93
ENDBRANCH  60  85
ENDBRANCH  34  35
ENDBRANCH  27  29
ENDBRANCH  26  27
ENDBRANCH   1  26
TORSDOF 17
ENDMDL
