MODEL 1
REMARK VINA RESULT:     -10.7      0.000      0.000
REMARK SMILES CCC[C@H](CNC(=O)N1CCN2C(=O)NC[C@H]2C1)C(=O)OCCOC(=O)c1ccc(-c2c3nc(c(-c4c(F)cc(S(=O)(=O)[O-])cc4F)c4ccc([nH]4)c(-c4c(F)cc(S(=O)(=O)[O-])cc4F)c4nc(c(-c5c(F)cc(S(=O)(=O)[O-])cc5F)c5ccc2[nH]5)C=C4)C=C3)cc1
REMARK SMILES IDX 22 1 21 2 19 3 20 4 4 5 3 6 2 7 1 8 5 9 6 10 7 11 8 13 9 14
REMARK SMILES IDX 10 15 18 16 11 17 17 18 12 19 16 20 13 21 15 22 14 23 23 25
REMARK SMILES IDX 24 26 25 27 26 28 27 29 28 30 92 31 29 32 91 33 30 34 31 35
REMARK SMILES IDX 32 36 85 37 33 38 90 39 84 40 86 41 34 42 89 43 83 44 82 45
REMARK SMILES IDX 35 47 69 48 48 49 68 50 49 51 52 52 67 53 87 54 50 55 51 56
REMARK SMILES IDX 66 58 88 59 53 60 36 61 37 62 46 63 38 64 39 65 45 66 47 67
REMARK SMILES IDX 40 68 41 69 42 70 43 71 44 72 70 73 71 74 80 75 72 76 73 77
REMARK SMILES IDX 79 78 81 79 74 80 75 81 76 82 77 83 78 84 54 85 55 86 64 87
REMARK SMILES IDX 56 88 57 89 63 90 65 91 58 92 59 93 60 94 61 95 62 96
REMARK H PARENT 6 12 15 24 86 46 52 57
REMARK Flexibility Score: inf
ROOT
ATOM      1  C   UNL A   1      34.640  30.423  27.216  1.00  0.00     0.274 C 
ENDROOT
BRANCH   1   2
ATOM      2  O   UNL A   1      34.546  28.992  27.033  1.00  0.00    -0.462 OA
BRANCH   2   3
ATOM      3  C   UNL A   1      33.305  28.498  26.787  1.00  0.00     0.310 C 
ATOM      4  O   UNL A   1      32.480  28.262  27.663  1.00  0.00    -0.252 OA
BRANCH   3   5
ATOM      5  C   UNL A   1      33.016  28.208  25.312  1.00  0.00     0.118 C 
BRANCH   5   6
ATOM      6  C   UNL A   1      31.488  28.261  25.107  1.00  0.00     0.017 C 
BRANCH   6   7
ATOM      7  C   UNL A   1      31.066  28.880  23.767  1.00  0.00    -0.002 C 
ATOM      8  C   UNL A   1      30.025  29.979  23.883  1.00  0.00     0.004 C 
ENDBRANCH   6   7
ENDBRANCH   5   6
BRANCH   5   9
ATOM      9  C   UNL A   1      33.658  26.918  24.766  1.00  0.00     0.133 C 
BRANCH   9  10
ATOM     10  N   UNL A   1      33.623  26.828  23.307  1.00  0.00    -0.337 N 
ATOM     11  C   UNL A   1      33.186  25.829  22.500  1.00  0.00     0.317 C 
ATOM     12  H   UNL A   1      33.971  27.618  22.835  1.00  0.00     0.165 HD
ATOM     13  O   UNL A   1      33.662  25.772  21.365  1.00  0.00    -0.249 OA
BRANCH  11  14
ATOM     14  N   UNL A   1      32.277  24.915  22.954  1.00  0.00    -0.321 N 
ATOM     15  C   UNL A   1      30.867  25.155  23.284  1.00  0.00     0.143 C 
ATOM     16  C   UNL A   1      32.706  23.516  23.129  1.00  0.00     0.148 C 
ATOM     17  C   UNL A   1      30.524  24.711  24.720  1.00  0.00     0.143 C 
ATOM     18  C   UNL A   1      32.472  23.125  24.587  1.00  0.00     0.125 C 
ATOM     19  N   UNL A   1      31.121  23.425  25.034  1.00  0.00    -0.317 N 
ATOM     20  C   UNL A   1      32.641  21.672  24.991  1.00  0.00     0.144 C 
ATOM     21  C   UNL A   1      30.767  22.579  26.068  1.00  0.00     0.317 C 
ATOM     22  N   UNL A   1      31.703  21.550  26.088  1.00  0.00    -0.336 N 
ATOM     23  O   UNL A   1      29.832  22.697  26.838  1.00  0.00    -0.249 OA
ATOM     24  H   UNL A   1      31.725  20.831  26.760  1.00  0.00     0.165 HD
ENDBRANCH  11  14
ENDBRANCH   9  10
ENDBRANCH   5   9
ENDBRANCH   3   5
ENDBRANCH   2   3
ENDBRANCH   1   2
BRANCH   1  25
ATOM     25  C   UNL A   1      34.650  30.841  28.695  1.00  0.00     0.275 C 
BRANCH  25  26
ATOM     26  O   UNL A   1      35.964  31.167  29.195  1.00  0.00    -0.458 OA
BRANCH  26  27
ATOM     27  C   UNL A   1      36.528  30.184  29.933  1.00  0.00     0.338 C 
ATOM     28  O   UNL A   1      36.002  29.590  30.856  1.00  0.00    -0.246 OA
BRANCH  27  29
ATOM     29  C   UNL A   1      37.838  29.768  29.432  1.00  0.00     0.060 A 
ATOM     30  C   UNL A   1      38.830  29.559  30.391  1.00  0.00     0.016 A 
ATOM     31  C   UNL A   1      38.144  29.742  28.073  1.00  0.00     0.016 A 
ATOM     32  C   UNL A   1      40.136  29.321  30.003  1.00  0.00     0.010 A 
ATOM     33  C   UNL A   1      39.458  29.469  27.678  1.00  0.00     0.010 A 
ATOM     34  C   UNL A   1      40.458  29.252  28.643  1.00  0.00    -0.014 A 
BRANCH  34  35
ATOM     35  C   UNL A   1      41.839  28.870  28.277  1.00  0.00     0.031 A 
ATOM     36  C   UNL A   1      42.955  29.867  28.319  1.00  0.00     0.074 A 
ATOM     37  C   UNL A   1      42.073  27.580  27.970  1.00  0.00     0.049 A 
ATOM     38  N   UNL A   1      44.220  29.691  28.041  1.00  0.00    -0.248 NA
ATOM     39  C   UNL A   1      42.609  31.239  28.717  1.00  0.00     0.031 C 
ATOM     40  C   UNL A   1      41.050  26.529  27.928  1.00  0.00     0.029 A 
ATOM     41  N   UNL A   1      43.234  26.927  27.659  1.00  0.00    -0.354 N 
ATOM     42  C   UNL A   1      44.822  30.932  28.205  1.00  0.00     0.074 A 
ATOM     43  C   UNL A   1      43.778  31.855  28.598  1.00  0.00     0.031 C 
ATOM     44  C   UNL A   1      41.636  25.359  27.640  1.00  0.00     0.029 A 
ATOM     45  C   UNL A   1      43.061  25.584  27.427  1.00  0.00     0.049 A 
ATOM     46  H   UNL A   1      44.109  27.375  27.609  1.00  0.00     0.167 HD
ATOM     47  C   UNL A   1      46.127  31.261  28.038  1.00  0.00     0.037 A 
ATOM     48  C   UNL A   1      43.948  24.640  27.066  1.00  0.00     0.037 A 
ATOM     49  C   UNL A   1      47.154  30.319  27.666  1.00  0.00     0.049 A 
ATOM     50  C   UNL A   1      45.386  25.031  26.896  1.00  0.00     0.074 A 
ATOM     51  C   UNL A   1      48.507  30.546  27.485  1.00  0.00     0.029 A 
ATOM     52  N   UNL A   1      46.940  28.969  27.420  1.00  0.00    -0.354 N 
ATOM     53  N   UNL A   1      45.939  26.212  27.044  1.00  0.00    -0.248 NA
ATOM     54  C   UNL A   1      46.320  23.968  26.509  1.00  0.00     0.031 C 
ATOM     55  C   UNL A   1      49.106  29.341  27.095  1.00  0.00     0.029 A 
ATOM     56  C   UNL A   1      48.134  28.353  27.074  1.00  0.00     0.049 A 
ATOM     57  H   UNL A   1      46.070  28.515  27.482  1.00  0.00     0.167 HD
ATOM     58  C   UNL A   1      47.290  26.034  26.777  1.00  0.00     0.074 A 
ATOM     59  C   UNL A   1      47.471  24.625  26.481  1.00  0.00     0.031 C 
ATOM     60  C   UNL A   1      48.288  26.952  26.771  1.00  0.00     0.037 A 
BRANCH  47  61
ATOM     61  C   UNL A   1      46.506  32.705  28.218  1.00  0.00     0.058 A 
ATOM     62  C   UNL A   1      47.065  33.187  29.412  1.00  0.00     0.135 A 
ATOM     63  C   UNL A   1      46.329  33.620  27.166  1.00  0.00     0.135 A 
ATOM     64  F   UNL A   1      47.245  32.361  30.455  1.00  0.00    -0.206 F 
ATOM     65  C   UNL A   1      47.406  34.528  29.569  1.00  0.00     0.059 A 
ATOM     66  C   UNL A   1      46.683  34.960  27.292  1.00  0.00     0.059 A 
ATOM     67  F   UNL A   1      45.799  33.215  26.001  1.00  0.00    -0.206 F 
ATOM     68  C   UNL A   1      47.206  35.408  28.503  1.00  0.00     0.060 A 
BRANCH  68  69
ATOM     69  S   UNL A   1      47.642  37.147  28.719  1.00  0.00     0.124 S 
ATOM     70  O   UNL A   1      47.017  37.448  30.004  1.00  0.00    -0.237 OA
ATOM     71  O   UNL A   1      49.101  37.110  28.717  1.00  0.00    -0.237 OA
ATOM     72  O   UNL A   1      47.035  37.796  27.560  1.00  0.00    -0.744 OA
ENDBRANCH  68  69
ENDBRANCH  47  61
BRANCH  48  73
ATOM     73  C   UNL A   1      43.484  23.247  26.839  1.00  0.00     0.058 A 
ATOM     74  C   UNL A   1      43.398  22.711  25.547  1.00  0.00     0.135 A 
ATOM     75  C   UNL A   1      43.171  22.408  27.920  1.00  0.00     0.135 A 
ATOM     76  F   UNL A   1      43.686  23.476  24.484  1.00  0.00    -0.206 F 
ATOM     77  C   UNL A   1      43.014  21.392  25.333  1.00  0.00     0.059 A 
ATOM     78  C   UNL A   1      42.808  21.079  27.733  1.00  0.00     0.059 A 
ATOM     79  F   UNL A   1      43.255  22.870  29.178  1.00  0.00    -0.206 F 
ATOM     80  C   UNL A   1      42.727  20.581  26.434  1.00  0.00     0.060 A 
BRANCH  80  81
ATOM     81  S   UNL A   1      42.301  18.849  26.153  1.00  0.00     0.124 S 
ATOM     82  O   UNL A   1      40.899  18.952  25.764  1.00  0.00    -0.237 OA
ATOM     83  O   UNL A   1      43.232  18.468  25.094  1.00  0.00    -0.237 OA
ATOM     84  O   UNL A   1      42.554  18.228  27.449  1.00  0.00    -0.744 OA
ENDBRANCH  80  81
ENDBRANCH  48  73
BRANCH  60  85
ATOM     85  C   UNL A   1      49.664  26.443  26.446  1.00  0.00     0.058 A 
ATOM     86  C   UNL A   1      50.478  25.848  27.423  1.00  0.00     0.135 A 
ATOM     87  C   UNL A   1      50.176  26.558  25.143  1.00  0.00     0.135 A 
ATOM     88  F   UNL A   1      50.036  25.723  28.685  1.00  0.00    -0.206 F 
ATOM     89  C   UNL A   1      51.768  25.422  27.131  1.00  0.00     0.059 A 
ATOM     90  C   UNL A   1      51.454  26.115  24.823  1.00  0.00     0.059 A 
ATOM     91  F   UNL A   1      49.434  27.110  24.171  1.00  0.00    -0.206 F 
ATOM     92  C   UNL A   1      52.251  25.567  25.829  1.00  0.00     0.060 A 
BRANCH  92  93
ATOM     93  S   UNL A   1      53.931  25.021  25.458  1.00  0.00     0.124 S 
ATOM     94  O   UNL A   1      54.669  25.556  26.597  1.00  0.00    -0.237 OA
ATOM     95  O   UNL A   1      53.790  23.568  25.421  1.00  0.00    -0.237 OA
ATOM     96  O   UNL A   1      54.215  25.650  24.172  1.00  0.00    -0.744 OA
ENDBRANCH  92  93
ENDBRANCH  60  85
ENDBRANCH  34  35
ENDBRANCH  27  29
ENDBRANCH  26  27
ENDBRANCH  25  26
ENDBRANCH   1  25
TORSDOF 19
ENDMDL
MODEL 2
REMARK VINA RESULT:     -10.6      2.647      8.797
REMARK SMILES CCC[C@H](CNC(=O)N1CCN2C(=O)NC[C@H]2C1)C(=O)OCCOC(=O)c1ccc(-c2c3nc(c(-c4c(F)cc(S(=O)(=O)[O-])cc4F)c4ccc([nH]4)c(-c4c(F)cc(S(=O)(=O)[O-])cc4F)c4nc(c(-c5c(F)cc(S(=O)(=O)[O-])cc5F)c5ccc2[nH]5)C=C4)C=C3)cc1
REMARK SMILES IDX 22 1 21 2 19 3 20 4 4 5 3 6 2 7 1 8 5 9 6 10 7 11 8 13 9 14
REMARK SMILES IDX 10 15 18 16 11 17 17 18 12 19 16 20 13 21 15 22 14 23 23 25
REMARK SMILES IDX 24 26 25 27 26 28 27 29 28 30 92 31 29 32 91 33 30 34 31 35
REMARK SMILES IDX 32 36 85 37 33 38 90 39 84 40 86 41 34 42 89 43 83 44 82 45
REMARK SMILES IDX 35 47 69 48 48 49 68 50 49 51 52 52 67 53 87 54 50 55 51 56
REMARK SMILES IDX 66 58 88 59 53 60 36 61 37 62 46 63 38 64 39 65 45 66 47 67
REMARK SMILES IDX 40 68 41 69 42 70 43 71 44 72 70 73 71 74 80 75 72 76 73 77
REMARK SMILES IDX 79 78 81 79 74 80 75 81 76 82 77 83 78 84 54 85 55 86 64 87
REMARK SMILES IDX 56 88 57 89 63 90 65 91 58 92 59 93 60 94 61 95 62 96
REMARK H PARENT 6 12 15 24 86 46 52 57
REMARK Flexibility Score: inf
ROOT
ATOM      1  C   UNL A   1      32.599  28.913  25.520  1.00  0.00     0.274 C 
ENDROOT
BRANCH   1   2
ATOM      2  O   UNL A   1      32.707  27.561  26.021  1.00  0.00    -0.462 OA
BRANCH   2   3
ATOM      3  C   UNL A   1      31.557  26.991  26.464  1.00  0.00     0.310 C 
ATOM      4  O   UNL A   1      30.971  27.342  27.483  1.00  0.00    -0.252 OA
BRANCH   3   5
ATOM      5  C   UNL A   1      31.054  25.823  25.611  1.00  0.00     0.118 C 
BRANCH   5   6
ATOM      6  C   UNL A   1      30.071  24.997  26.466  1.00  0.00     0.017 C 
BRANCH   6   7
ATOM      7  C   UNL A   1      30.455  23.516  26.591  1.00  0.00    -0.002 C 
ATOM      8  C   UNL A   1      29.410  22.652  27.274  1.00  0.00     0.004 C 
ENDBRANCH   6   7
ENDBRANCH   5   6
BRANCH   5   9
ATOM      9  C   UNL A   1      32.161  24.970  24.962  1.00  0.00     0.133 C 
BRANCH   9  10
ATOM     10  N   UNL A   1      32.527  25.423  23.620  1.00  0.00    -0.337 N 
ATOM     11  C   UNL A   1      33.334  24.851  22.691  1.00  0.00     0.317 C 
ATOM     12  H   UNL A   1      32.123  26.278  23.347  1.00  0.00     0.165 HD
ATOM     13  O   UNL A   1      33.851  25.598  21.859  1.00  0.00    -0.249 OA
BRANCH  11  14
ATOM     14  N   UNL A   1      33.576  23.507  22.712  1.00  0.00    -0.321 N 
ATOM     15  C   UNL A   1      32.665  22.436  22.288  1.00  0.00     0.143 C 
ATOM     16  C   UNL A   1      34.887  23.029  23.184  1.00  0.00     0.148 C 
ATOM     17  C   UNL A   1      32.438  21.394  23.401  1.00  0.00     0.143 C 
ATOM     18  C   UNL A   1      34.654  22.090  24.366  1.00  0.00     0.125 C 
ATOM     19  N   UNL A   1      33.682  21.051  24.068  1.00  0.00    -0.317 N 
ATOM     20  C   UNL A   1      35.829  21.300  24.914  1.00  0.00     0.144 C 
ATOM     21  C   UNL A   1      33.919  19.942  24.858  1.00  0.00     0.317 C 
ATOM     22  N   UNL A   1      35.183  20.104  25.416  1.00  0.00    -0.336 N 
ATOM     23  O   UNL A   1      33.174  19.000  25.060  1.00  0.00    -0.249 OA
ATOM     24  H   UNL A   1      35.587  19.486  26.067  1.00  0.00     0.165 HD
ENDBRANCH  11  14
ENDBRANCH   9  10
ENDBRANCH   5   9
ENDBRANCH   3   5
ENDBRANCH   2   3
ENDBRANCH   1   2
BRANCH   1  25
ATOM     25  C   UNL A   1      33.128  29.964  26.509  1.00  0.00     0.275 C 
BRANCH  25  26
ATOM     26  O   UNL A   1      34.168  29.468  27.379  1.00  0.00    -0.458 OA
BRANCH  26  27
ATOM     27  C   UNL A   1      34.749  30.424  28.137  1.00  0.00     0.338 C 
ATOM     28  O   UNL A   1      34.197  31.404  28.601  1.00  0.00    -0.246 OA
BRANCH  27  29
ATOM     29  C   UNL A   1      36.134  30.115  28.492  1.00  0.00     0.060 A 
ATOM     30  C   UNL A   1      37.089  30.313  27.494  1.00  0.00     0.016 A 
ATOM     31  C   UNL A   1      36.476  29.495  29.692  1.00  0.00     0.016 A 
ATOM     32  C   UNL A   1      38.395  29.898  27.685  1.00  0.00     0.010 A 
ATOM     33  C   UNL A   1      37.804  29.104  29.900  1.00  0.00     0.010 A 
ATOM     34  C   UNL A   1      38.769  29.309  28.898  1.00  0.00    -0.014 A 
BRANCH  34  35
ATOM     35  C   UNL A   1      40.200  28.998  29.104  1.00  0.00     0.031 A 
ATOM     36  C   UNL A   1      40.774  27.681  28.685  1.00  0.00     0.074 A 
ATOM     37  C   UNL A   1      40.985  29.963  29.620  1.00  0.00     0.049 A 
ATOM     38  N   UNL A   1      42.006  27.256  28.784  1.00  0.00    -0.248 NA
ATOM     39  C   UNL A   1      39.847  26.711  28.083  1.00  0.00     0.031 C 
ATOM     40  C   UNL A   1      40.518  31.291  30.035  1.00  0.00     0.029 A 
ATOM     41  N   UNL A   1      42.331  29.993  29.862  1.00  0.00    -0.354 N 
ATOM     42  C   UNL A   1      42.005  25.961  28.281  1.00  0.00     0.074 A 
ATOM     43  C   UNL A   1      40.642  25.667  27.886  1.00  0.00     0.031 C 
ATOM     44  C   UNL A   1      41.566  32.014  30.451  1.00  0.00     0.029 A 
ATOM     45  C   UNL A   1      42.766  31.188  30.382  1.00  0.00     0.049 A 
ATOM     46  H   UNL A   1      42.929  29.233  29.680  1.00  0.00     0.167 HD
ATOM     47  C   UNL A   1      43.048  25.104  28.165  1.00  0.00     0.037 A 
ATOM     48  C   UNL A   1      43.994  31.571  30.775  1.00  0.00     0.037 A 
ATOM     49  C   UNL A   1      44.402  25.427  28.547  1.00  0.00     0.049 A 
ATOM     50  C   UNL A   1      45.131  30.605  30.629  1.00  0.00     0.074 A 
ATOM     51  C   UNL A   1      45.535  24.637  28.458  1.00  0.00     0.029 A 
ATOM     52  N   UNL A   1      44.805  26.641  29.087  1.00  0.00    -0.354 N 
ATOM     53  N   UNL A   1      45.112  29.379  30.161  1.00  0.00    -0.248 NA
ATOM     54  C   UNL A   1      46.453  31.069  31.063  1.00  0.00     0.031 C 
ATOM     55  C   UNL A   1      46.616  25.360  28.977  1.00  0.00     0.029 A 
ATOM     56  C   UNL A   1      46.167  26.616  29.351  1.00  0.00     0.049 A 
ATOM     57  H   UNL A   1      44.212  27.407  29.258  1.00  0.00     0.167 HD
ATOM     58  C   UNL A   1      46.422  28.925  30.237  1.00  0.00     0.074 A 
ATOM     59  C   UNL A   1      47.210  30.019  30.773  1.00  0.00     0.031 C 
ATOM     60  C   UNL A   1      46.927  27.713  29.898  1.00  0.00     0.037 A 
BRANCH  47  61
ATOM     61  C   UNL A   1      42.758  23.724  27.643  1.00  0.00     0.058 A 
ATOM     62  C   UNL A   1      42.686  23.446  26.269  1.00  0.00     0.135 A 
ATOM     63  C   UNL A   1      42.572  22.654  28.535  1.00  0.00     0.135 A 
ATOM     64  F   UNL A   1      42.842  24.432  25.371  1.00  0.00    -0.206 F 
ATOM     65  C   UNL A   1      42.409  22.165  25.798  1.00  0.00     0.059 A 
ATOM     66  C   UNL A   1      42.317  21.362  28.087  1.00  0.00     0.059 A 
ATOM     67  F   UNL A   1      42.631  22.862  29.860  1.00  0.00    -0.206 F 
ATOM     68  C   UNL A   1      42.221  21.130  26.716  1.00  0.00     0.060 A 
BRANCH  68  69
ATOM     69  S   UNL A   1      41.854  19.474  26.096  1.00  0.00     0.124 S 
ATOM     70  O   UNL A   1      40.419  19.568  25.845  1.00  0.00    -0.237 OA
ATOM     71  O   UNL A   1      42.700  19.386  24.910  1.00  0.00    -0.237 OA
ATOM     72  O   UNL A   1      42.241  18.603  27.202  1.00  0.00    -0.744 OA
ENDBRANCH  68  69
ENDBRANCH  47  61
BRANCH  48  73
ATOM     73  C   UNL A   1      44.188  32.929  31.347  1.00  0.00     0.058 A 
ATOM     74  C   UNL A   1      44.559  34.011  30.538  1.00  0.00     0.135 A 
ATOM     75  C   UNL A   1      43.950  33.177  32.708  1.00  0.00     0.135 A 
ATOM     76  F   UNL A   1      44.799  33.821  29.233  1.00  0.00    -0.206 F 
ATOM     77  C   UNL A   1      44.692  35.294  31.058  1.00  0.00     0.059 A 
ATOM     78  C   UNL A   1      44.051  34.455  33.247  1.00  0.00     0.059 A 
ATOM     79  F   UNL A   1      43.574  32.176  33.520  1.00  0.00    -0.206 F 
ATOM     80  C   UNL A   1      44.429  35.508  32.414  1.00  0.00     0.060 A 
BRANCH  80  81
ATOM     81  S   UNL A   1      44.531  37.188  33.067  1.00  0.00     0.124 S 
ATOM     82  O   UNL A   1      43.195  37.368  33.623  1.00  0.00    -0.237 OA
ATOM     83  O   UNL A   1      45.618  37.077  34.037  1.00  0.00    -0.237 OA
ATOM     84  O   UNL A   1      44.838  37.987  31.885  1.00  0.00    -0.744 OA
ENDBRANCH  80  81
ENDBRANCH  48  73
BRANCH  60  85
ATOM     85  C   UNL A   1      48.405  27.525  30.090  1.00  0.00     0.058 A 
ATOM     86  C   UNL A   1      48.947  27.192  31.342  1.00  0.00     0.135 A 
ATOM     87  C   UNL A   1      49.289  27.684  29.011  1.00  0.00     0.135 A 
ATOM     88  F   UNL A   1      48.144  27.036  32.406  1.00  0.00    -0.206 F 
ATOM     89  C   UNL A   1      50.319  27.065  31.528  1.00  0.00     0.059 A 
ATOM     90  C   UNL A   1      50.663  27.537  29.168  1.00  0.00     0.059 A 
ATOM     91  F   UNL A   1      48.820  27.993  27.792  1.00  0.00    -0.206 F 
ATOM     92  C   UNL A   1      51.170  27.248  30.436  1.00  0.00     0.060 A 
BRANCH  92  93
ATOM     93  S   UNL A   1      52.951  27.093  30.686  1.00  0.00     0.124 S 
ATOM     94  O   UNL A   1      53.372  26.500  29.422  1.00  0.00    -0.237 OA
ATOM     95  O   UNL A   1      53.362  28.477  30.904  1.00  0.00    -0.237 OA
ATOM     96  O   UNL A   1      53.054  26.224  31.854  1.00  0.00    -0.744 OA
ENDBRANCH  92  93
ENDBRANCH  60  85
ENDBRANCH  34  35
ENDBRANCH  27  29
ENDBRANCH  26  27
ENDBRANCH  25  26
ENDBRANCH   1  25
TORSDOF 19
ENDMDL
MODEL 3
REMARK VINA RESULT:     -10.4      2.466      8.750
REMARK SMILES CCC[C@H](CNC(=O)N1CCN2C(=O)NC[C@H]2C1)C(=O)OCCOC(=O)c1ccc(-c2c3nc(c(-c4c(F)cc(S(=O)(=O)[O-])cc4F)c4ccc([nH]4)c(-c4c(F)cc(S(=O)(=O)[O-])cc4F)c4nc(c(-c5c(F)cc(S(=O)(=O)[O-])cc5F)c5ccc2[nH]5)C=C4)C=C3)cc1
REMARK SMILES IDX 22 1 21 2 19 3 20 4 4 5 3 6 2 7 1 8 5 9 6 10 7 11 8 13 9 14
REMARK SMILES IDX 10 15 18 16 11 17 17 18 12 19 16 20 13 21 15 22 14 23 23 25
REMARK SMILES IDX 24 26 25 27 26 28 27 29 28 30 92 31 29 32 91 33 30 34 31 35
REMARK SMILES IDX 32 36 85 37 33 38 90 39 84 40 86 41 34 42 89 43 83 44 82 45
REMARK SMILES IDX 35 47 69 48 48 49 68 50 49 51 52 52 67 53 87 54 50 55 51 56
REMARK SMILES IDX 66 58 88 59 53 60 36 61 37 62 46 63 38 64 39 65 45 66 47 67
REMARK SMILES IDX 40 68 41 69 42 70 43 71 44 72 70 73 71 74 80 75 72 76 73 77
REMARK SMILES IDX 79 78 81 79 74 80 75 81 76 82 77 83 78 84 54 85 55 86 64 87
REMARK SMILES IDX 56 88 57 89 63 90 65 91 58 92 59 93 60 94 61 95 62 96
REMARK H PARENT 6 12 15 24 86 46 52 57
REMARK Flexibility Score: inf
ROOT
ATOM      1  C   UNL A   1      33.005  28.775  25.584  1.00  0.00     0.274 C 
ENDROOT
BRANCH   1   2
ATOM      2  O   UNL A   1      32.952  27.441  26.137  1.00  0.00    -0.462 OA
BRANCH   2   3
ATOM      3  C   UNL A   1      31.720  26.875  26.225  1.00  0.00     0.310 C 
ATOM      4  O   UNL A   1      31.022  26.918  27.233  1.00  0.00    -0.252 OA
BRANCH   3   5
ATOM      5  C   UNL A   1      31.271  26.126  24.968  1.00  0.00     0.118 C 
BRANCH   5   6
ATOM      6  C   UNL A   1      29.744  25.924  25.054  1.00  0.00     0.017 C 
BRANCH   6   7
ATOM      7  C   UNL A   1      28.972  26.547  23.883  1.00  0.00    -0.002 C 
ATOM      8  C   UNL A   1      29.558  27.848  23.365  1.00  0.00     0.004 C 
ENDBRANCH   6   7
ENDBRANCH   5   6
BRANCH   5   9
ATOM      9  C   UNL A   1      32.041  24.823  24.680  1.00  0.00     0.133 C 
BRANCH   9  10
ATOM     10  N   UNL A   1      31.355  23.626  25.166  1.00  0.00    -0.337 N 
ATOM     11  C   UNL A   1      31.833  22.381  25.412  1.00  0.00     0.317 C 
ATOM     12  H   UNL A   1      30.394  23.744  25.345  1.00  0.00     0.165 HD
ATOM     13  O   UNL A   1      31.027  21.450  25.367  1.00  0.00    -0.249 OA
BRANCH  11  14
ATOM     14  N   UNL A   1      33.160  22.182  25.668  1.00  0.00    -0.321 N 
ATOM     15  C   UNL A   1      33.838  22.282  26.967  1.00  0.00     0.143 C 
ATOM     16  C   UNL A   1      34.048  21.804  24.554  1.00  0.00     0.148 C 
ATOM     17  C   UNL A   1      35.024  23.265  26.927  1.00  0.00     0.143 C 
ATOM     18  C   UNL A   1      35.153  22.854  24.449  1.00  0.00     0.125 C 
ATOM     19  N   UNL A   1      35.815  23.094  25.721  1.00  0.00    -0.317 N 
ATOM     20  C   UNL A   1      36.318  22.597  23.510  1.00  0.00     0.144 C 
ATOM     21  C   UNL A   1      37.103  23.547  25.505  1.00  0.00     0.317 C 
ATOM     22  N   UNL A   1      37.399  23.304  24.167  1.00  0.00    -0.336 N 
ATOM     23  O   UNL A   1      37.850  24.076  26.308  1.00  0.00    -0.249 OA
ATOM     24  H   UNL A   1      38.234  23.577  23.724  1.00  0.00     0.165 HD
ENDBRANCH  11  14
ENDBRANCH   9  10
ENDBRANCH   5   9
ENDBRANCH   3   5
ENDBRANCH   2   3
ENDBRANCH   1   2
BRANCH   1  25
ATOM     25  C   UNL A   1      33.571  29.811  26.568  1.00  0.00     0.275 C 
BRANCH  25  26
ATOM     26  O   UNL A   1      34.605  29.286  27.429  1.00  0.00    -0.458 OA
BRANCH  26  27
ATOM     27  C   UNL A   1      35.183  30.217  28.220  1.00  0.00     0.338 C 
ATOM     28  O   UNL A   1      34.616  31.149  28.762  1.00  0.00    -0.246 OA
BRANCH  27  29
ATOM     29  C   UNL A   1      36.590  29.937  28.507  1.00  0.00     0.060 A 
ATOM     30  C   UNL A   1      37.460  29.956  27.416  1.00  0.00     0.016 A 
ATOM     31  C   UNL A   1      37.025  29.506  29.758  1.00  0.00     0.016 A 
ATOM     32  C   UNL A   1      38.773  29.547  27.563  1.00  0.00     0.010 A 
ATOM     33  C   UNL A   1      38.362  29.123  29.916  1.00  0.00     0.010 A 
ATOM     34  C   UNL A   1      39.242  29.148  28.820  1.00  0.00    -0.014 A 
BRANCH  34  35
ATOM     35  C   UNL A   1      40.682  28.842  28.956  1.00  0.00     0.031 A 
ATOM     36  C   UNL A   1      41.236  27.518  28.529  1.00  0.00     0.074 A 
ATOM     37  C   UNL A   1      41.491  29.816  29.414  1.00  0.00     0.049 A 
ATOM     38  N   UNL A   1      42.473  27.097  28.570  1.00  0.00    -0.248 NA
ATOM     39  C   UNL A   1      40.281  26.538  27.992  1.00  0.00     0.031 C 
ATOM     40  C   UNL A   1      41.044  31.150  29.831  1.00  0.00     0.029 A 
ATOM     41  N   UNL A   1      42.848  29.852  29.585  1.00  0.00    -0.354 N 
ATOM     42  C   UNL A   1      42.447  25.793  28.090  1.00  0.00     0.074 A 
ATOM     43  C   UNL A   1      41.067  25.492  27.771  1.00  0.00     0.031 C 
ATOM     44  C   UNL A   1      42.111  31.881  30.180  1.00  0.00     0.029 A 
ATOM     45  C   UNL A   1      43.307  31.055  30.061  1.00  0.00     0.049 A 
ATOM     46  H   UNL A   1      43.438  29.089  29.384  1.00  0.00     0.167 HD
ATOM     47  C   UNL A   1      43.485  24.936  27.933  1.00  0.00     0.037 A 
ATOM     48  C   UNL A   1      44.553  31.447  30.383  1.00  0.00     0.037 A 
ATOM     49  C   UNL A   1      44.856  25.266  28.238  1.00  0.00     0.049 A 
ATOM     50  C   UNL A   1      45.683  30.479  30.194  1.00  0.00     0.074 A 
ATOM     51  C   UNL A   1      45.985  24.476  28.102  1.00  0.00     0.029 A 
ATOM     52  N   UNL A   1      45.285  26.490  28.736  1.00  0.00    -0.354 N 
ATOM     53  N   UNL A   1      45.642  29.246  29.748  1.00  0.00    -0.248 NA
ATOM     54  C   UNL A   1      47.026  30.952  30.550  1.00  0.00     0.031 C 
ATOM     55  C   UNL A   1      47.090  25.209  28.553  1.00  0.00     0.029 A 
ATOM     56  C   UNL A   1      46.658  26.471  28.929  1.00  0.00     0.049 A 
ATOM     57  H   UNL A   1      44.700  27.258  28.926  1.00  0.00     0.167 HD
ATOM     58  C   UNL A   1      46.955  28.794  29.762  1.00  0.00     0.074 A 
ATOM     59  C   UNL A   1      47.768  29.898  30.238  1.00  0.00     0.031 C 
ATOM     60  C   UNL A   1      47.445  27.577  29.417  1.00  0.00     0.037 A 
BRANCH  47  61
ATOM     61  C   UNL A   1      43.171  23.547  27.450  1.00  0.00     0.058 A 
ATOM     62  C   UNL A   1      42.572  22.586  28.280  1.00  0.00     0.135 A 
ATOM     63  C   UNL A   1      43.453  23.178  26.124  1.00  0.00     0.135 A 
ATOM     64  F   UNL A   1      42.293  22.878  29.560  1.00  0.00    -0.206 F 
ATOM     65  C   UNL A   1      42.293  21.300  27.822  1.00  0.00     0.059 A 
ATOM     66  C   UNL A   1      43.162  21.907  25.639  1.00  0.00     0.059 A 
ATOM     67  F   UNL A   1      44.025  24.058  25.286  1.00  0.00    -0.206 F 
ATOM     68  C   UNL A   1      42.597  20.969  26.500  1.00  0.00     0.060 A 
BRANCH  68  69
ATOM     69  S   UNL A   1      42.239  19.297  25.919  1.00  0.00     0.124 S 
ATOM     70  O   UNL A   1      42.737  18.490  27.029  1.00  0.00    -0.237 OA
ATOM     71  O   UNL A   1      40.789  19.323  25.754  1.00  0.00    -0.237 OA
ATOM     72  O   UNL A   1      43.004  19.198  24.679  1.00  0.00    -0.744 OA
ENDBRANCH  68  69
ENDBRANCH  47  61
BRANCH  48  73
ATOM     73  C   UNL A   1      44.775  32.813  30.921  1.00  0.00     0.058 A 
ATOM     74  C   UNL A   1      44.962  33.909  30.068  1.00  0.00     0.135 A 
ATOM     75  C   UNL A   1      44.747  33.056  32.304  1.00  0.00     0.135 A 
ATOM     76  F   UNL A   1      44.998  33.725  28.740  1.00  0.00    -0.206 F 
ATOM     77  C   UNL A   1      45.118  35.198  30.565  1.00  0.00     0.059 A 
ATOM     78  C   UNL A   1      44.875  34.339  32.825  1.00  0.00     0.059 A 
ATOM     79  F   UNL A   1      44.552  32.041  33.163  1.00  0.00    -0.206 F 
ATOM     80  C   UNL A   1      45.066  35.404  31.946  1.00  0.00     0.060 A 
BRANCH  80  81
ATOM     81  S   UNL A   1      45.195  37.090  32.581  1.00  0.00     0.124 S 
ATOM     82  O   UNL A   1      46.567  37.432  32.227  1.00  0.00    -0.237 OA
ATOM     83  O   UNL A   1      44.150  37.783  31.832  1.00  0.00    -0.237 OA
ATOM     84  O   UNL A   1      44.930  36.930  34.007  1.00  0.00    -0.744 OA
ENDBRANCH  80  81
ENDBRANCH  48  73
BRANCH  60  85
ATOM     85  C   UNL A   1      48.931  27.394  29.535  1.00  0.00     0.058 A 
ATOM     86  C   UNL A   1      49.803  27.785  28.507  1.00  0.00     0.135 A 
ATOM     87  C   UNL A   1      49.487  26.816  30.687  1.00  0.00     0.135 A 
ATOM     88  F   UNL A   1      49.319  28.336  27.383  1.00  0.00    -0.206 F 
ATOM     89  C   UNL A   1      51.174  27.572  28.599  1.00  0.00     0.059 A 
ATOM     90  C   UNL A   1      50.858  26.615  30.811  1.00  0.00     0.059 A 
ATOM     91  F   UNL A   1      48.697  26.433  31.702  1.00  0.00    -0.206 F 
ATOM     92  C   UNL A   1      51.691  26.978  29.752  1.00  0.00     0.060 A 
BRANCH  92  93
ATOM     93  S   UNL A   1      53.470  26.693  29.860  1.00  0.00     0.124 S 
ATOM     94  O   UNL A   1      53.725  25.963  28.624  1.00  0.00    -0.237 OA
ATOM     95  O   UNL A   1      54.005  28.051  29.915  1.00  0.00    -0.237 OA
ATOM     96  O   UNL A   1      53.615  25.920  31.090  1.00  0.00    -0.744 OA
ENDBRANCH  92  93
ENDBRANCH  60  85
ENDBRANCH  34  35
ENDBRANCH  27  29
ENDBRANCH  26  27
ENDBRANCH  25  26
ENDBRANCH   1  25
TORSDOF 19
ENDMDL
