MODEL 1
REMARK VINA RESULT:     -11.5      0.000      0.000
REMARK SMILES CCN(CCC(=O)OCCOC(=O)c1ccc(-c2c3nc(c(-c4c(F)cc(S(=O)(=O)[O-])cc4F)c4ccc([nH]4)c(-c4c(F)cc(S(=O)(=O)[O-])cc4F)c4nc(c(-c5c(F)cc(S(=O)(=O)[O-])cc5F)c5ccc2[nH]5)C=C4)C=C3)cc1)C(=O)c1cc(Cl)ccc1F
REMARK SMILES IDX 9 1 8 2 6 3 7 4 5 5 4 6 3 7 2 8 1 9 80 10 81 11 82 12 83 13
REMARK SMILES IDX 88 14 84 15 87 16 89 17 85 18 86 19 10 20 11 21 12 22 13 23
REMARK SMILES IDX 14 24 15 25 79 26 16 27 78 28 17 29 18 30 19 31 72 32 20 33
REMARK SMILES IDX 77 34 71 35 73 36 21 37 76 38 70 39 69 40 22 42 56 43 35 44
REMARK SMILES IDX 55 45 36 46 39 47 54 48 74 49 37 50 38 51 53 53 75 54 40 55
REMARK SMILES IDX 23 56 24 57 33 58 25 59 26 60 32 61 34 62 27 63 28 64 29 65
REMARK SMILES IDX 30 66 31 67 57 68 58 69 67 70 59 71 60 72 66 73 68 74 61 75
REMARK SMILES IDX 62 76 63 77 64 78 65 79 41 80 42 81 51 82 43 83 44 84 50 85
REMARK SMILES IDX 52 86 45 87 46 88 47 89 48 90 49 91
REMARK H PARENT 73 41 39 52
REMARK Flexibility Score: inf
ROOT
ATOM      1  C   UNL A   1      31.846  28.669  27.189  1.00  0.00     0.274 C 
ENDROOT
BRANCH   1   2
ATOM      2  O   UNL A   1      31.547  27.171  27.243  1.00  0.00    -0.462 OA
BRANCH   2   3
ATOM      3  C   UNL A   1      31.167  26.150  26.366  1.00  0.00     0.307 C 
ATOM      4  O   UNL A   1      31.540  25.004  26.630  1.00  0.00    -0.252 OA
BRANCH   3   5
ATOM      5  C   UNL A   1      30.192  26.372  25.090  1.00  0.00     0.144 C 
BRANCH   5   6
ATOM      6  C   UNL A   1      30.717  26.289  23.539  1.00  0.00     0.131 C 
BRANCH   6   7
ATOM      7  N   UNL A   1      32.171  26.747  23.276  1.00  0.00    -0.338 N 
BRANCH   7   8
ATOM      8  C   UNL A   1      32.335  28.204  23.392  1.00  0.00     0.116 C 
ATOM      9  C   UNL A   1      31.060  29.037  23.311  1.00  0.00     0.027 C 
ENDBRANCH   7   8
BRANCH   7  10
ATOM     10  C   UNL A   1      33.342  26.003  22.840  1.00  0.00     0.256 C 
ATOM     11  O   UNL A   1      34.031  26.368  21.884  1.00  0.00    -0.269 OA
BRANCH  10  12
ATOM     12  C   UNL A   1      33.764  24.679  23.410  1.00  0.00     0.077 A 
ATOM     13  C   UNL A   1      32.914  23.126  23.130  1.00  0.00     0.037 A 
ATOM     14  C   UNL A   1      34.700  24.839  24.897  1.00  0.00     0.136 A 
ATOM     15  C   UNL A   1      33.061  21.783  24.317  1.00  0.00     0.042 A 
ATOM     16  C   UNL A   1      34.846  23.519  26.160  1.00  0.00     0.041 A 
ATOM     17  F   UNL A   1      34.335  25.985  25.309  1.00  0.00    -0.206 F 
ATOM     18  Cl  UNL A   1      32.284  20.283  24.008  1.00  0.00    -0.084 Cl
ATOM     19  C   UNL A   1      34.026  21.960  25.832  1.00  0.00     0.023 A 
ENDBRANCH  10  12
ENDBRANCH   7  10
ENDBRANCH   6   7
ENDBRANCH   5   6
ENDBRANCH   3   5
ENDBRANCH   2   3
ENDBRANCH   1   2
BRANCH   1  20
ATOM     20  C   UNL A   1      33.433  29.530  27.071  1.00  0.00     0.275 C 
BRANCH  20  21
ATOM     21  O   UNL A   1      35.041  29.530  28.316  1.00  0.00    -0.458 OA
BRANCH  21  22
ATOM     22  C   UNL A   1      36.023  29.721  29.317  1.00  0.00     0.338 C 
ATOM     23  O   UNL A   1      35.689  29.946  30.479  1.00  0.00    -0.246 OA
BRANCH  22  24
ATOM     24  C   UNL A   1      37.491  29.648  29.032  1.00  0.00     0.060 A 
ATOM     25  C   UNL A   1      38.036  29.604  27.735  1.00  0.00     0.016 A 
ATOM     26  C   UNL A   1      38.332  29.493  30.133  1.00  0.00     0.016 A 
ATOM     27  C   UNL A   1      39.411  29.424  27.545  1.00  0.00     0.010 A 
ATOM     28  C   UNL A   1      39.701  29.293  29.944  1.00  0.00     0.010 A 
ATOM     29  C   UNL A   1      40.245  29.225  28.649  1.00  0.00    -0.014 A 
BRANCH  29  30
ATOM     30  C   UNL A   1      41.639  28.742  28.477  1.00  0.00     0.031 A 
ATOM     31  C   UNL A   1      42.752  29.755  28.499  1.00  0.00     0.074 A 
ATOM     32  C   UNL A   1      41.913  27.444  28.260  1.00  0.00     0.049 A 
ATOM     33  N   UNL A   1      44.020  29.604  28.218  1.00  0.00    -0.248 NA
ATOM     34  C   UNL A   1      42.378  31.127  28.880  1.00  0.00     0.031 C 
ATOM     35  C   UNL A   1      40.931  26.361  28.251  1.00  0.00     0.029 A 
ATOM     36  N   UNL A   1      43.104  26.822  27.975  1.00  0.00    -0.354 N 
ATOM     37  C   UNL A   1      44.590  30.864  28.361  1.00  0.00     0.074 A 
ATOM     38  C   UNL A   1      43.526  31.770  28.735  1.00  0.00     0.031 C 
ATOM     39  C   UNL A   1      41.555  25.212  27.939  1.00  0.00     0.029 A 
ATOM     40  C   UNL A   1      42.971  25.484  27.692  1.00  0.00     0.049 A 
ATOM     41  H   UNL A   1      43.970  27.291  27.973  1.00  0.00     0.167 HD
ATOM     42  C   UNL A   1      45.883  31.233  28.197  1.00  0.00     0.037 A 
ATOM     43  C   UNL A   1      43.878  24.591  27.248  1.00  0.00     0.037 A 
ATOM     44  C   UNL A   1      46.938  30.327  27.827  1.00  0.00     0.049 A 
ATOM     45  C   UNL A   1      45.305  25.027  27.028  1.00  0.00     0.074 A 
ATOM     46  C   UNL A   1      48.286  30.596  27.662  1.00  0.00     0.029 A 
ATOM     47  N   UNL A   1      46.765  28.978  27.559  1.00  0.00    -0.354 N 
ATOM     48  N   UNL A   1      45.837  26.217  27.184  1.00  0.00    -0.248 NA
ATOM     49  C   UNL A   1      46.253  24.001  26.572  1.00  0.00     0.031 C 
ATOM     50  C   UNL A   1      48.919  29.419  27.251  1.00  0.00     0.029 A 
ATOM     51  C   UNL A   1      47.975  28.405  27.207  1.00  0.00     0.049 A 
ATOM     52  H   UNL A   1      45.907  28.497  27.611  1.00  0.00     0.167 HD
ATOM     53  C   UNL A   1      47.185  26.077  26.865  1.00  0.00     0.074 A 
ATOM     54  C   UNL A   1      47.388  24.686  26.518  1.00  0.00     0.031 C 
ATOM     55  C   UNL A   1      48.164  27.016  26.864  1.00  0.00     0.037 A 
BRANCH  42  56
ATOM     56  C   UNL A   1      46.213  32.689  28.383  1.00  0.00     0.058 A 
ATOM     57  C   UNL A   1      46.604  33.207  29.628  1.00  0.00     0.135 A 
ATOM     58  C   UNL A   1      46.141  33.577  27.297  1.00  0.00     0.135 A 
ATOM     59  F   UNL A   1      46.672  32.404  30.702  1.00  0.00    -0.206 F 
ATOM     60  C   UNL A   1      46.874  34.561  29.799  1.00  0.00     0.059 A 
ATOM     61  C   UNL A   1      46.432  34.930  27.439  1.00  0.00     0.059 A 
ATOM     62  F   UNL A   1      45.772  33.134  26.084  1.00  0.00    -0.206 F 
ATOM     63  C   UNL A   1      46.779  35.416  28.700  1.00  0.00     0.060 A 
BRANCH  63  64
ATOM     64  S   UNL A   1      47.115  37.174  28.939  1.00  0.00     0.124 S 
ATOM     65  O   UNL A   1      45.766  37.706  29.109  1.00  0.00    -0.237 OA
ATOM     66  O   UNL A   1      47.949  37.173  30.137  1.00  0.00    -0.237 OA
ATOM     67  O   UNL A   1      47.792  37.561  27.706  1.00  0.00    -0.744 OA
ENDBRANCH  63  64
ENDBRANCH  42  56
BRANCH  43  68
ATOM     68  C   UNL A   1      43.454  23.195  26.961  1.00  0.00     0.058 A 
ATOM     69  C   UNL A   1      43.333  22.728  25.645  1.00  0.00     0.135 A 
ATOM     70  C   UNL A   1      43.187  22.291  28.002  1.00  0.00     0.135 A 
ATOM     71  F   UNL A   1      43.560  23.558  24.616  1.00  0.00    -0.206 F 
ATOM     72  C   UNL A   1      42.963  21.414  25.368  1.00  0.00     0.059 A 
ATOM     73  C   UNL A   1      42.840  20.968  27.752  1.00  0.00     0.059 A 
ATOM     74  F   UNL A   1      43.296  22.687  29.280  1.00  0.00    -0.206 F 
ATOM     75  C   UNL A   1      42.726  20.540  26.430  1.00  0.00     0.060 A 
BRANCH  75  76
ATOM     76  S   UNL A   1      42.325  18.817  26.062  1.00  0.00     0.124 S 
ATOM     77  O   UNL A   1      43.251  18.525  24.974  1.00  0.00    -0.237 OA
ATOM     78  O   UNL A   1      42.605  18.157  27.334  1.00  0.00    -0.237 OA
ATOM     79  O   UNL A   1      40.913  18.874  25.692  1.00  0.00    -0.744 OA
ENDBRANCH  75  76
ENDBRANCH  43  68
BRANCH  55  80
ATOM     80  C   UNL A   1      49.555  26.571  26.502  1.00  0.00     0.058 A 
ATOM     81  C   UNL A   1      50.403  25.962  27.440  1.00  0.00     0.135 A 
ATOM     82  C   UNL A   1      50.022  26.701  25.184  1.00  0.00     0.135 A 
ATOM     83  F   UNL A   1      50.007  25.818  28.715  1.00  0.00    -0.206 F 
ATOM     84  C   UNL A   1      51.673  25.514  27.089  1.00  0.00     0.059 A 
ATOM     85  C   UNL A   1      51.279  26.238  24.805  1.00  0.00     0.059 A 
ATOM     86  F   UNL A   1      49.248  27.266  24.244  1.00  0.00    -0.206 F 
ATOM     87  C   UNL A   1      52.102  25.655  25.768  1.00  0.00     0.060 A 
BRANCH  87  88
ATOM     88  S   UNL A   1      53.738  25.038  25.315  1.00  0.00     0.124 S 
ATOM     89  O   UNL A   1      53.932  25.654  24.007  1.00  0.00    -0.237 OA
ATOM     90  O   UNL A   1      54.578  25.557  26.390  1.00  0.00    -0.237 OA
ATOM     91  O   UNL A   1      53.565  23.589  25.308  1.00  0.00    -0.744 OA
ENDBRANCH  87  88
ENDBRANCH  55  80
ENDBRANCH  29  30
ENDBRANCH  22  24
ENDBRANCH  21  22
ENDBRANCH  20  21
ENDBRANCH   1  20
TORSDOF 19
ENDMDL
MODEL 2
REMARK VINA RESULT:     -11.4      4.852      6.063
REMARK SMILES CCN(CCC(=O)OCCOC(=O)c1ccc(-c2c3nc(c(-c4c(F)cc(S(=O)(=O)[O-])cc4F)c4ccc([nH]4)c(-c4c(F)cc(S(=O)(=O)[O-])cc4F)c4nc(c(-c5c(F)cc(S(=O)(=O)[O-])cc5F)c5ccc2[nH]5)C=C4)C=C3)cc1)C(=O)c1cc(Cl)ccc1F
REMARK SMILES IDX 9 1 8 2 6 3 7 4 5 5 4 6 3 7 2 8 1 9 80 10 81 11 82 12 83 13
REMARK SMILES IDX 88 14 84 15 87 16 89 17 85 18 86 19 10 20 11 21 12 22 13 23
REMARK SMILES IDX 14 24 15 25 79 26 16 27 78 28 17 29 18 30 19 31 72 32 20 33
REMARK SMILES IDX 77 34 71 35 73 36 21 37 76 38 70 39 69 40 22 42 56 43 35 44
REMARK SMILES IDX 55 45 36 46 39 47 54 48 74 49 37 50 38 51 53 53 75 54 40 55
REMARK SMILES IDX 23 56 24 57 33 58 25 59 26 60 32 61 34 62 27 63 28 64 29 65
REMARK SMILES IDX 30 66 31 67 57 68 58 69 67 70 59 71 60 72 66 73 68 74 61 75
REMARK SMILES IDX 62 76 63 77 64 78 65 79 41 80 42 81 51 82 43 83 44 84 50 85
REMARK SMILES IDX 52 86 45 87 46 88 47 89 48 90 49 91
REMARK H PARENT 73 41 39 52
REMARK Flexibility Score: inf
ROOT
ATOM      1  C   UNL A   1      31.196  26.324  26.011  1.00  0.00     0.274 C 
ENDROOT
BRANCH   1   2
ATOM      2  O   UNL A   1      30.466  25.095  26.552  1.00  0.00    -0.462 OA
BRANCH   2   3
ATOM      3  C   UNL A   1      30.675  23.715  26.650  1.00  0.00     0.307 C 
ATOM      4  O   UNL A   1      30.039  23.102  27.511  1.00  0.00    -0.252 OA
BRANCH   3   5
ATOM      5  C   UNL A   1      31.622  22.871  25.640  1.00  0.00     0.144 C 
BRANCH   5   6
ATOM      6  C   UNL A   1      33.067  22.238  26.089  1.00  0.00     0.131 C 
BRANCH   6   7
ATOM      7  N   UNL A   1      33.967  21.697  24.954  1.00  0.00    -0.338 N 
BRANCH   7   8
ATOM      8  C   UNL A   1      33.811  20.249  24.750  1.00  0.00     0.116 C 
ATOM      9  C   UNL A   1      32.636  19.810  23.883  1.00  0.00     0.027 C 
ENDBRANCH   7   8
BRANCH   7  10
ATOM     10  C   UNL A   1      34.990  22.350  24.153  1.00  0.00     0.256 C 
ATOM     11  O   UNL A   1      34.746  22.830  23.043  1.00  0.00    -0.269 OA
BRANCH  10  12
ATOM     12  C   UNL A   1      36.446  22.404  24.520  1.00  0.00     0.077 A 
ATOM     13  C   UNL A   1      37.497  20.972  24.754  1.00  0.00     0.037 A 
ATOM     14  C   UNL A   1      36.883  23.883  25.376  1.00  0.00     0.136 A 
ATOM     15  C   UNL A   1      38.960  21.078  25.795  1.00  0.00     0.042 A 
ATOM     16  C   UNL A   1      38.335  24.033  26.483  1.00  0.00     0.041 A 
ATOM     17  F   UNL A   1      35.761  24.245  25.854  1.00  0.00    -0.206 F 
ATOM     18  Cl  UNL A   1      39.986  19.712  25.965  1.00  0.00    -0.084 Cl
ATOM     19  C   UNL A   1      39.396  22.601  26.660  1.00  0.00     0.023 A 
ENDBRANCH  10  12
ENDBRANCH   7  10
ENDBRANCH   6   7
ENDBRANCH   5   6
ENDBRANCH   3   5
ENDBRANCH   2   3
ENDBRANCH   1   2
BRANCH   1  20
ATOM     20  C   UNL A   1      32.884  26.898  26.319  1.00  0.00     0.275 C 
BRANCH  20  21
ATOM     21  O   UNL A   1      33.576  28.684  27.003  1.00  0.00    -0.458 OA
BRANCH  21  22
ATOM     22  C   UNL A   1      34.271  29.876  27.317  1.00  0.00     0.338 C 
ATOM     23  O   UNL A   1      33.770  30.971  27.065  1.00  0.00    -0.246 OA
BRANCH  22  24
ATOM     24  C   UNL A   1      35.616  29.876  27.975  1.00  0.00     0.060 A 
ATOM     25  C   UNL A   1      36.825  30.078  27.283  1.00  0.00     0.016 A 
ATOM     26  C   UNL A   1      35.648  29.535  29.327  1.00  0.00     0.016 A 
ATOM     27  C   UNL A   1      38.053  29.955  27.945  1.00  0.00     0.010 A 
ATOM     28  C   UNL A   1      36.873  29.392  29.981  1.00  0.00     0.010 A 
ATOM     29  C   UNL A   1      38.083  29.570  29.288  1.00  0.00    -0.014 A 
BRANCH  29  30
ATOM     30  C   UNL A   1      39.352  29.146  29.933  1.00  0.00     0.031 A 
ATOM     31  C   UNL A   1      39.873  29.962  31.087  1.00  0.00     0.074 A 
ATOM     32  C   UNL A   1      40.054  28.092  29.482  1.00  0.00     0.049 A 
ATOM     33  N   UNL A   1      41.022  29.889  31.705  1.00  0.00    -0.248 NA
ATOM     34  C   UNL A   1      38.975  31.009  31.602  1.00  0.00     0.031 C 
ATOM     35  C   UNL A   1      39.643  27.202  28.399  1.00  0.00     0.029 A 
ATOM     36  N   UNL A   1      41.283  27.613  29.865  1.00  0.00    -0.354 N 
ATOM     37  C   UNL A   1      40.998  30.896  32.664  1.00  0.00     0.074 A 
ATOM     38  C   UNL A   1      39.728  31.576  32.532  1.00  0.00     0.031 C 
ATOM     39  C   UNL A   1      40.620  26.304  28.180  1.00  0.00     0.029 A 
ATOM     40  C   UNL A   1      41.738  26.578  29.083  1.00  0.00     0.049 A 
ATOM     41  H   UNL A   1      41.790  27.975  30.628  1.00  0.00     0.167 HD
ATOM     42  C   UNL A   1      41.947  31.223  33.573  1.00  0.00     0.037 A 
ATOM     43  C   UNL A   1      42.931  25.952  29.071  1.00  0.00     0.037 A 
ATOM     44  C   UNL A   1      43.208  30.541  33.703  1.00  0.00     0.049 A 
ATOM     45  C   UNL A   1      43.994  26.357  30.060  1.00  0.00     0.074 A 
ATOM     46  C   UNL A   1      44.226  30.778  34.611  1.00  0.00     0.029 A 
ATOM     47  N   UNL A   1      43.626  29.492  32.899  1.00  0.00    -0.354 N 
ATOM     48  N   UNL A   1      43.953  27.297  30.975  1.00  0.00    -0.248 NA
ATOM     49  C   UNL A   1      45.263  25.616  30.017  1.00  0.00     0.031 C 
ATOM     50  C   UNL A   1      45.278  29.901  34.325  1.00  0.00     0.029 A 
ATOM     51  C   UNL A   1      44.896  29.086  33.272  1.00  0.00     0.049 A 
ATOM     52  H   UNL A   1      43.098  29.095  32.169  1.00  0.00     0.167 HD
ATOM     53  C   UNL A   1      45.182  27.248  31.628  1.00  0.00     0.074 A 
ATOM     54  C   UNL A   1      45.938  26.179  31.012  1.00  0.00     0.031 C 
ATOM     55  C   UNL A   1      45.638  28.017  32.648  1.00  0.00     0.037 A 
BRANCH  42  56
ATOM     56  C   UNL A   1      41.665  32.395  34.473  1.00  0.00     0.058 A 
ATOM     57  C   UNL A   1      41.011  32.243  35.706  1.00  0.00     0.135 A 
ATOM     58  C   UNL A   1      42.057  33.690  34.096  1.00  0.00     0.135 A 
ATOM     59  F   UNL A   1      40.599  31.029  36.107  1.00  0.00    -0.206 F 
ATOM     60  C   UNL A   1      40.722  33.336  36.516  1.00  0.00     0.059 A 
ATOM     61  C   UNL A   1      41.803  34.795  34.903  1.00  0.00     0.059 A 
ATOM     62  F   UNL A   1      42.686  33.893  32.927  1.00  0.00    -0.206 F 
ATOM     63  C   UNL A   1      41.117  34.610  36.103  1.00  0.00     0.060 A 
BRANCH  63  64
ATOM     64  S   UNL A   1      40.721  36.023  37.154  1.00  0.00     0.124 S 
ATOM     65  O   UNL A   1      39.724  36.717  36.344  1.00  0.00    -0.237 OA
ATOM     66  O   UNL A   1      40.217  35.381  38.365  1.00  0.00    -0.237 OA
ATOM     67  O   UNL A   1      42.001  36.709  37.298  1.00  0.00    -0.744 OA
ENDBRANCH  63  64
ENDBRANCH  42  56
BRANCH  43  68
ATOM     68  C   UNL A   1      43.190  24.885  28.067  1.00  0.00     0.058 A 
ATOM     69  C   UNL A   1      43.757  25.183  26.821  1.00  0.00     0.135 A 
ATOM     70  C   UNL A   1      42.897  23.541  28.348  1.00  0.00     0.135 A 
ATOM     71  F   UNL A   1      44.039  26.454  26.498  1.00  0.00    -0.206 F 
ATOM     72  C   UNL A   1      44.028  24.186  25.886  1.00  0.00     0.059 A 
ATOM     73  C   UNL A   1      43.180  22.525  27.441  1.00  0.00     0.059 A 
ATOM     74  F   UNL A   1      42.358  23.203  29.530  1.00  0.00    -0.206 F 
ATOM     75  C   UNL A   1      43.743  22.859  26.210  1.00  0.00     0.060 A 
BRANCH  75  76
ATOM     76  S   UNL A   1      44.171  21.565  25.024  1.00  0.00     0.124 S 
ATOM     77  O   UNL A   1      45.522  21.214  25.446  1.00  0.00    -0.237 OA
ATOM     78  O   UNL A   1      43.142  20.562  25.278  1.00  0.00    -0.237 OA
ATOM     79  O   UNL A   1      44.068  22.245  23.736  1.00  0.00    -0.744 OA
ENDBRANCH  75  76
ENDBRANCH  43  68
BRANCH  55  80
ATOM     80  C   UNL A   1      47.011  27.717  33.186  1.00  0.00     0.058 A 
ATOM     81  C   UNL A   1      48.159  28.337  32.670  1.00  0.00     0.135 A 
ATOM     82  C   UNL A   1      47.172  26.843  34.274  1.00  0.00     0.135 A 
ATOM     83  F   UNL A   1      48.061  29.178  31.627  1.00  0.00    -0.206 F 
ATOM     84  C   UNL A   1      49.422  28.087  33.199  1.00  0.00     0.059 A 
ATOM     85  C   UNL A   1      48.422  26.597  34.835  1.00  0.00     0.059 A 
ATOM     86  F   UNL A   1      46.107  26.231  34.814  1.00  0.00    -0.206 F 
ATOM     87  C   UNL A   1      49.543  27.216  34.283  1.00  0.00     0.060 A 
BRANCH  87  88
ATOM     88  S   UNL A   1      51.181  26.926  34.985  1.00  0.00     0.124 S 
ATOM     89  O   UNL A   1      51.947  28.025  34.407  1.00  0.00    -0.237 OA
ATOM     90  O   UNL A   1      50.929  27.016  36.420  1.00  0.00    -0.237 OA
ATOM     91  O   UNL A   1      51.529  25.594  34.499  1.00  0.00    -0.744 OA
ENDBRANCH  87  88
ENDBRANCH  55  80
ENDBRANCH  29  30
ENDBRANCH  22  24
ENDBRANCH  21  22
ENDBRANCH  20  21
ENDBRANCH   1  20
TORSDOF 19
ENDMDL
MODEL 3
REMARK VINA RESULT:     -11.4      1.183      2.165
REMARK SMILES CCN(CCC(=O)OCCOC(=O)c1ccc(-c2c3nc(c(-c4c(F)cc(S(=O)(=O)[O-])cc4F)c4ccc([nH]4)c(-c4c(F)cc(S(=O)(=O)[O-])cc4F)c4nc(c(-c5c(F)cc(S(=O)(=O)[O-])cc5F)c5ccc2[nH]5)C=C4)C=C3)cc1)C(=O)c1cc(Cl)ccc1F
REMARK SMILES IDX 9 1 8 2 6 3 7 4 5 5 4 6 3 7 2 8 1 9 80 10 81 11 82 12 83 13
REMARK SMILES IDX 88 14 84 15 87 16 89 17 85 18 86 19 10 20 11 21 12 22 13 23
REMARK SMILES IDX 14 24 15 25 79 26 16 27 78 28 17 29 18 30 19 31 72 32 20 33
REMARK SMILES IDX 77 34 71 35 73 36 21 37 76 38 70 39 69 40 22 42 56 43 35 44
REMARK SMILES IDX 55 45 36 46 39 47 54 48 74 49 37 50 38 51 53 53 75 54 40 55
REMARK SMILES IDX 23 56 24 57 33 58 25 59 26 60 32 61 34 62 27 63 28 64 29 65
REMARK SMILES IDX 30 66 31 67 57 68 58 69 67 70 59 71 60 72 66 73 68 74 61 75
REMARK SMILES IDX 62 76 63 77 64 78 65 79 41 80 42 81 51 82 43 83 44 84 50 85
REMARK SMILES IDX 52 86 45 87 46 88 47 89 48 90 49 91
REMARK H PARENT 73 41 39 52
REMARK Flexibility Score: inf
ROOT
ATOM      1  C   UNL A   1      33.862  28.313  25.698  1.00  0.00     0.274 C 
ENDROOT
BRANCH   1   2
ATOM      2  O   UNL A   1      34.030  28.530  24.194  1.00  0.00    -0.462 OA
BRANCH   2   3
ATOM      3  C   UNL A   1      33.463  28.066  23.003  1.00  0.00     0.307 C 
ATOM      4  O   UNL A   1      34.206  27.958  22.023  1.00  0.00    -0.252 OA
BRANCH   3   5
ATOM      5  C   UNL A   1      31.924  27.575  22.865  1.00  0.00     0.144 C 
BRANCH   5   6
ATOM      6  C   UNL A   1      30.802  27.811  24.038  1.00  0.00     0.131 C 
BRANCH   6   7
ATOM      7  N   UNL A   1      29.947  26.584  24.434  1.00  0.00    -0.338 N 
BRANCH   7   8
ATOM      8  C   UNL A   1      28.616  26.599  23.809  1.00  0.00     0.116 C 
ATOM      9  C   UNL A   1      28.075  27.964  23.400  1.00  0.00     0.027 C 
ENDBRANCH   7   8
BRANCH   7  10
ATOM     10  C   UNL A   1      30.200  25.509  25.379  1.00  0.00     0.256 C 
ATOM     11  O   UNL A   1      29.554  25.389  26.423  1.00  0.00    -0.269 OA
BRANCH  10  12
ATOM     12  C   UNL A   1      31.325  24.521  25.256  1.00  0.00     0.077 A 
ATOM     13  C   UNL A   1      33.013  24.821  25.777  1.00  0.00     0.037 A 
ATOM     14  C   UNL A   1      31.068  23.346  23.965  1.00  0.00     0.136 A 
ATOM     15  C   UNL A   1      34.372  23.914  25.025  1.00  0.00     0.042 A 
ATOM     16  C   UNL A   1      32.419  22.428  23.135  1.00  0.00     0.041 A 
ATOM     17  F   UNL A   1      30.252  23.965  23.212  1.00  0.00    -0.206 F 
ATOM     18  Cl  UNL A   1      35.978  24.175  25.574  1.00  0.00    -0.084 Cl
ATOM     19  C   UNL A   1      34.092  22.711  23.709  1.00  0.00     0.023 A 
ENDBRANCH  10  12
ENDBRANCH   7  10
ENDBRANCH   6   7
ENDBRANCH   5   6
ENDBRANCH   3   5
ENDBRANCH   2   3
ENDBRANCH   1   2
BRANCH   1  20
ATOM     20  C   UNL A   1      33.884  29.513  27.051  1.00  0.00     0.275 C 
BRANCH  20  21
ATOM     21  O   UNL A   1      35.211  29.782  28.568  1.00  0.00    -0.458 OA
BRANCH  21  22
ATOM     22  C   UNL A   1      36.239  29.732  29.540  1.00  0.00     0.338 C 
ATOM     23  O   UNL A   1      35.961  29.744  30.738  1.00  0.00    -0.246 OA
BRANCH  22  24
ATOM     24  C   UNL A   1      37.689  29.649  29.177  1.00  0.00     0.060 A 
ATOM     25  C   UNL A   1      38.160  29.522  27.857  1.00  0.00     0.016 A 
ATOM     26  C   UNL A   1      38.593  29.574  30.237  1.00  0.00     0.016 A 
ATOM     27  C   UNL A   1      39.525  29.338  27.601  1.00  0.00     0.010 A 
ATOM     28  C   UNL A   1      39.951  29.371  29.983  1.00  0.00     0.010 A 
ATOM     29  C   UNL A   1      40.421  29.219  28.667  1.00  0.00    -0.014 A 
BRANCH  29  30
ATOM     30  C   UNL A   1      41.808  28.735  28.448  1.00  0.00     0.031 A 
ATOM     31  C   UNL A   1      42.923  29.747  28.430  1.00  0.00     0.074 A 
ATOM     32  C   UNL A   1      42.073  27.436  28.225  1.00  0.00     0.049 A 
ATOM     33  N   UNL A   1      44.179  29.594  28.105  1.00  0.00    -0.248 NA
ATOM     34  C   UNL A   1      42.562  31.120  28.820  1.00  0.00     0.031 C 
ATOM     35  C   UNL A   1      41.091  26.355  28.252  1.00  0.00     0.029 A 
ATOM     36  N   UNL A   1      43.253  26.813  27.900  1.00  0.00    -0.354 N 
ATOM     37  C   UNL A   1      44.755  30.854  28.226  1.00  0.00     0.074 A 
ATOM     38  C   UNL A   1      43.705  31.762  28.635  1.00  0.00     0.031 C 
ATOM     39  C   UNL A   1      41.704  25.204  27.921  1.00  0.00     0.029 A 
ATOM     40  C   UNL A   1      43.111  25.474  27.625  1.00  0.00     0.049 A 
ATOM     41  H   UNL A   1      44.120  27.281  27.868  1.00  0.00     0.167 HD
ATOM     42  C   UNL A   1      46.042  31.222  28.017  1.00  0.00     0.037 A 
ATOM     43  C   UNL A   1      44.001  24.580  27.153  1.00  0.00     0.037 A 
ATOM     44  C   UNL A   1      47.083  30.314  27.613  1.00  0.00     0.049 A 
ATOM     45  C   UNL A   1      45.419  25.014  26.882  1.00  0.00     0.074 A 
ATOM     46  C   UNL A   1      48.425  30.582  27.402  1.00  0.00     0.029 A 
ATOM     47  N   UNL A   1      46.900  28.965  27.354  1.00  0.00    -0.354 N 
ATOM     48  N   UNL A   1      45.957  26.204  27.018  1.00  0.00    -0.248 NA
ATOM     49  C   UNL A   1      46.351  23.986  26.396  1.00  0.00     0.031 C 
ATOM     50  C   UNL A   1      49.042  29.403  26.971  1.00  0.00     0.029 A 
ATOM     51  C   UNL A   1      48.097  28.390  26.962  1.00  0.00     0.049 A 
ATOM     52  H   UNL A   1      46.044  28.485  27.437  1.00  0.00     0.167 HD
ATOM     53  C   UNL A   1      47.293  26.062  26.653  1.00  0.00     0.074 A 
ATOM     54  C   UNL A   1      47.484  24.671  26.302  1.00  0.00     0.031 C 
ATOM     55  C   UNL A   1      48.273  27.001  26.616  1.00  0.00     0.037 A 
BRANCH  42  56
ATOM     56  C   UNL A   1      46.380  32.678  28.188  1.00  0.00     0.058 A 
ATOM     57  C   UNL A   1      46.859  33.189  29.404  1.00  0.00     0.135 A 
ATOM     58  C   UNL A   1      46.223  33.573  27.117  1.00  0.00     0.135 A 
ATOM     59  F   UNL A   1      47.010  32.380  30.465  1.00  0.00    -0.206 F 
ATOM     60  C   UNL A   1      47.135  34.544  29.565  1.00  0.00     0.059 A 
ATOM     61  C   UNL A   1      46.519  34.926  27.247  1.00  0.00     0.059 A 
ATOM     62  F   UNL A   1      45.768  33.137  25.932  1.00  0.00    -0.206 F 
ATOM     63  C   UNL A   1      46.956  35.406  28.482  1.00  0.00     0.060 A 
BRANCH  63  64
ATOM     64  S   UNL A   1      47.302  37.163  28.708  1.00  0.00     0.124 S 
ATOM     65  O   UNL A   1      46.142  37.772  28.064  1.00  0.00    -0.237 OA
ATOM     66  O   UNL A   1      47.356  37.287  30.161  1.00  0.00    -0.237 OA
ATOM     67  O   UNL A   1      48.574  37.350  28.017  1.00  0.00    -0.744 OA
ENDBRANCH  63  64
ENDBRANCH  42  56
BRANCH  43  68
ATOM     68  C   UNL A   1      43.566  23.183  26.883  1.00  0.00     0.058 A 
ATOM     69  C   UNL A   1      43.421  22.707  25.573  1.00  0.00     0.135 A 
ATOM     70  C   UNL A   1      43.313  22.288  27.935  1.00  0.00     0.135 A 
ATOM     71  F   UNL A   1      43.635  23.528  24.534  1.00  0.00    -0.206 F 
ATOM     72  C   UNL A   1      43.042  21.393  25.313  1.00  0.00     0.059 A 
ATOM     73  C   UNL A   1      42.956  20.965  27.702  1.00  0.00     0.059 A 
ATOM     74  F   UNL A   1      43.444  22.694  29.208  1.00  0.00    -0.206 F 
ATOM     75  C   UNL A   1      42.819  20.527  26.385  1.00  0.00     0.060 A 
BRANCH  75  76
ATOM     76  S   UNL A   1      42.404  18.804  26.037  1.00  0.00     0.124 S 
ATOM     77  O   UNL A   1      40.995  18.907  25.678  1.00  0.00    -0.237 OA
ATOM     78  O   UNL A   1      43.319  18.481  24.947  1.00  0.00    -0.237 OA
ATOM     79  O   UNL A   1      42.686  18.130  27.302  1.00  0.00    -0.744 OA
ENDBRANCH  75  76
ENDBRANCH  43  68
BRANCH  55  80
ATOM     80  C   UNL A   1      49.650  26.553  26.208  1.00  0.00     0.058 A 
ATOM     81  C   UNL A   1      50.137  26.754  24.907  1.00  0.00     0.135 A 
ATOM     82  C   UNL A   1      50.516  25.972  27.149  1.00  0.00     0.135 A 
ATOM     83  F   UNL A   1      49.348  27.300  23.968  1.00  0.00    -0.206 F 
ATOM     84  C   UNL A   1      51.427  26.376  24.547  1.00  0.00     0.059 A 
ATOM     85  C   UNL A   1      51.819  25.609  26.818  1.00  0.00     0.059 A 
ATOM     86  F   UNL A   1      50.106  25.768  28.411  1.00  0.00    -0.206 F 
ATOM     87  C   UNL A   1      52.261  25.805  25.510  1.00  0.00     0.060 A 
BRANCH  87  88
ATOM     88  S   UNL A   1      53.945  25.351  25.041  1.00  0.00     0.124 S 
ATOM     89  O   UNL A   1      54.712  25.856  26.176  1.00  0.00    -0.237 OA
ATOM     90  O   UNL A   1      53.860  23.898  24.931  1.00  0.00    -0.237 OA
ATOM     91  O   UNL A   1      54.150  26.058  23.781  1.00  0.00    -0.744 OA
ENDBRANCH  87  88
ENDBRANCH  55  80
ENDBRANCH  29  30
ENDBRANCH  22  24
ENDBRANCH  21  22
ENDBRANCH  20  21
ENDBRANCH   1  20
TORSDOF 19
ENDMDL
