MODEL 1
REMARK VINA RESULT:     -11.9      0.000      0.000
REMARK SMILES CC[C@@H](C(=O)OCCOC(=O)c1ccc(-c2c3nc(c(-c4c(F)cc(S(=O)(=O)[O-])cc4F)c4ccc([nH]4)c(-c4c(F)cc(S(=O)(=O)[O-])cc4F)c4nc(c(-c5c(F)cc(S(=O)(=O)[O-])cc5F)c5ccc2[nH]5)C=C4)C=C3)cc1)N1C(=O)/C(=C\c2ccc(C(=O)OC)cc2)SC1=S
REMARK SMILES IDX 7 1 6 2 4 3 5 4 3 5 2 6 1 7 78 8 79 9 94 10 80 11 81 12
REMARK SMILES IDX 93 13 95 14 82 15 83 16 84 17 92 18 85 19 91 20 86 21 87 22
REMARK SMILES IDX 88 23 89 24 90 25 8 26 9 27 10 28 11 29 12 30 13 31 77 32
REMARK SMILES IDX 14 33 76 34 15 35 16 36 17 37 70 38 18 39 75 40 69 41 71 42
REMARK SMILES IDX 19 43 74 44 68 45 67 46 20 48 54 49 33 50 53 51 34 52 37 53
REMARK SMILES IDX 52 54 72 55 35 56 36 57 51 59 73 60 38 61 21 62 22 63 31 64
REMARK SMILES IDX 23 65 24 66 30 67 32 68 25 69 26 70 27 71 28 72 29 73 55 74
REMARK SMILES IDX 56 75 65 76 57 77 58 78 64 79 66 80 59 81 60 82 61 83 62 84
REMARK SMILES IDX 63 85 39 86 40 87 49 88 41 89 42 90 48 91 50 92 43 93 44 94
REMARK SMILES IDX 45 95 46 96 47 97
REMARK H PARENT 71 47 37 58
REMARK Flexibility Score: inf
ROOT
ATOM      1  C   UNL A   1      38.327  22.146  25.437  1.00  0.00     0.274 C 
ENDROOT
BRANCH   1   2
ATOM      2  O   UNL A   1      37.324  22.996  26.033  1.00  0.00    -0.461 OA
BRANCH   2   3
ATOM      3  C   UNL A   1      36.340  23.447  25.211  1.00  0.00     0.329 C 
ATOM      4  O   UNL A   1      36.544  23.840  24.066  1.00  0.00    -0.250 OA
BRANCH   3   5
ATOM      5  C   UNL A   1      34.955  23.512  25.891  1.00  0.00     0.201 C 
BRANCH   5   6
ATOM      6  C   UNL A   1      34.845  22.797  27.248  1.00  0.00     0.034 C 
ATOM      7  C   UNL A   1      33.418  22.702  27.780  1.00  0.00     0.007 C 
ENDBRANCH   5   6
BRANCH   5   8
ATOM      8  N   UNL A   1      33.915  23.147  24.878  1.00  0.00    -0.278 N 
ATOM      9  C   UNL A   1      33.916  21.816  24.455  1.00  0.00     0.266 C 
ATOM     10  C   UNL A   1      32.896  23.926  24.365  1.00  0.00     0.149 C 
ATOM     11  O   UNL A   1      34.801  21.005  24.689  1.00  0.00    -0.268 OA
ATOM     12  C   UNL A   1      32.694  21.517  23.655  1.00  0.00     0.081 C 
ATOM     13  S   UNL A   1      31.960  22.999  23.190  1.00  0.00    -0.054 SA
ATOM     14  S   UNL A   1      32.470  25.503  24.692  1.00  0.00    -0.052 S 
ATOM     15  C   UNL A   1      32.154  20.323  23.366  1.00  0.00     0.029 C 
BRANCH  15  16
ATOM     16  C   UNL A   1      32.668  19.027  23.815  1.00  0.00    -0.024 A 
ATOM     17  C   UNL A   1      32.577  18.686  25.168  1.00  0.00     0.009 A 
ATOM     18  C   UNL A   1      33.261  18.131  22.918  1.00  0.00     0.009 A 
ATOM     19  C   UNL A   1      33.004  17.430  25.606  1.00  0.00     0.016 A 
ATOM     20  C   UNL A   1      33.691  16.874  23.356  1.00  0.00     0.016 A 
ATOM     21  C   UNL A   1      33.539  16.506  24.699  1.00  0.00     0.060 A 
BRANCH  21  22
ATOM     22  C   UNL A   1      33.870  15.144  25.199  1.00  0.00     0.337 C 
ATOM     23  O   UNL A   1      33.030  14.337  25.569  1.00  0.00    -0.246 OA
BRANCH  22  24
ATOM     24  O   UNL A   1      35.204  14.911  25.109  1.00  0.00    -0.465 OA
ATOM     25  C   UNL A   1      36.005  15.891  25.767  1.00  0.00     0.282 C 
ENDBRANCH  22  24
ENDBRANCH  21  22
ENDBRANCH  15  16
ENDBRANCH   5   8
ENDBRANCH   3   5
ENDBRANCH   2   3
ENDBRANCH   1   2
BRANCH   1  26
ATOM     26  C   UNL A   1      39.485  21.909  26.399  1.00  0.00     0.275 C 
BRANCH  26  27
ATOM     27  O   UNL A   1      39.633  23.050  27.257  1.00  0.00    -0.458 OA
BRANCH  27  28
ATOM     28  C   UNL A   1      40.639  23.897  26.938  1.00  0.00     0.338 C 
ATOM     29  O   UNL A   1      41.527  23.714  26.125  1.00  0.00    -0.246 OA
BRANCH  28  30
ATOM     30  C   UNL A   1      40.495  25.134  27.724  1.00  0.00     0.060 A 
ATOM     31  C   UNL A   1      41.549  26.042  27.778  1.00  0.00     0.016 A 
ATOM     32  C   UNL A   1      39.358  25.335  28.503  1.00  0.00     0.016 A 
ATOM     33  C   UNL A   1      41.511  27.099  28.680  1.00  0.00     0.010 A 
ATOM     34  C   UNL A   1      39.286  26.453  29.343  1.00  0.00     0.010 A 
ATOM     35  C   UNL A   1      40.381  27.326  29.475  1.00  0.00    -0.014 A 
BRANCH  35  36
ATOM     36  C   UNL A   1      40.378  28.424  30.482  1.00  0.00     0.031 A 
ATOM     37  C   UNL A   1      41.404  28.434  31.587  1.00  0.00     0.074 A 
ATOM     38  C   UNL A   1      39.493  29.441  30.398  1.00  0.00     0.049 A 
ATOM     39  N   UNL A   1      41.432  29.149  32.682  1.00  0.00    -0.248 NA
ATOM     40  C   UNL A   1      42.538  27.505  31.450  1.00  0.00     0.031 C 
ATOM     41  C   UNL A   1      38.487  29.613  29.346  1.00  0.00     0.029 A 
ATOM     42  N   UNL A   1      39.309  30.535  31.207  1.00  0.00    -0.354 N 
ATOM     43  C   UNL A   1      42.537  28.703  33.399  1.00  0.00     0.074 A 
ATOM     44  C   UNL A   1      43.164  27.667  32.607  1.00  0.00     0.031 C 
ATOM     45  C   UNL A   1      37.830  30.765  29.545  1.00  0.00     0.029 A 
ATOM     46  C   UNL A   1      38.290  31.363  30.794  1.00  0.00     0.049 A 
ATOM     47  H   UNL A   1      39.853  30.711  32.008  1.00  0.00     0.167 HD
ATOM     48  C   UNL A   1      42.980  29.115  34.611  1.00  0.00     0.037 A 
ATOM     49  C   UNL A   1      37.747  32.448  31.375  1.00  0.00     0.037 A 
ATOM     50  C   UNL A   1      42.398  30.202  35.357  1.00  0.00     0.049 A 
ATOM     51  C   UNL A   1      38.250  32.889  32.721  1.00  0.00     0.074 A 
ATOM     52  C   UNL A   1      42.760  30.686  36.603  1.00  0.00     0.029 A 
ATOM     53  N   UNL A   1      41.356  30.998  34.908  1.00  0.00    -0.354 N 
ATOM     54  N   UNL A   1      39.213  32.375  33.447  1.00  0.00    -0.248 NA
ATOM     55  C   UNL A   1      37.571  34.035  33.341  1.00  0.00     0.031 C 
ATOM     56  C   UNL A   1      41.926  31.766  36.912  1.00  0.00     0.029 A 
ATOM     57  C   UNL A   1      41.065  31.973  35.847  1.00  0.00     0.049 A 
ATOM     58  H   UNL A   1      40.890  30.886  34.047  1.00  0.00     0.167 HD
ATOM     59  C   UNL A   1      39.255  33.133  34.611  1.00  0.00     0.074 A 
ATOM     60  C   UNL A   1      38.237  34.156  34.481  1.00  0.00     0.031 C 
ATOM     61  C   UNL A   1      40.054  32.987  35.695  1.00  0.00     0.037 A 
BRANCH  48  62
ATOM     62  C   UNL A   1      44.127  28.367  35.229  1.00  0.00     0.058 A 
ATOM     63  C   UNL A   1      45.460  28.764  35.053  1.00  0.00     0.135 A 
ATOM     64  C   UNL A   1      43.877  27.254  36.050  1.00  0.00     0.135 A 
ATOM     65  F   UNL A   1      45.755  29.810  34.265  1.00  0.00    -0.206 F 
ATOM     66  C   UNL A   1      46.509  28.074  35.655  1.00  0.00     0.059 A 
ATOM     67  C   UNL A   1      44.908  26.561  36.678  1.00  0.00     0.059 A 
ATOM     68  F   UNL A   1      42.618  26.831  36.250  1.00  0.00    -0.206 F 
ATOM     69  C   UNL A   1      46.223  26.972  36.465  1.00  0.00     0.060 A 
BRANCH  69  70
ATOM     70  S   UNL A   1      47.588  26.092  37.253  1.00  0.00     0.124 S 
ATOM     71  O   UNL A   1      48.595  27.144  37.349  1.00  0.00    -0.237 OA
ATOM     72  O   UNL A   1      46.999  25.663  38.518  1.00  0.00    -0.237 OA
ATOM     73  O   UNL A   1      47.888  25.019  36.311  1.00  0.00    -0.744 OA
ENDBRANCH  69  70
ENDBRANCH  48  62
BRANCH  49  74
ATOM     74  C   UNL A   1      36.619  33.158  30.716  1.00  0.00     0.058 A 
ATOM     75  C   UNL A   1      35.293  32.937  31.116  1.00  0.00     0.135 A 
ATOM     76  C   UNL A   1      36.847  34.081  29.683  1.00  0.00     0.135 A 
ATOM     77  F   UNL A   1      35.026  32.055  32.090  1.00  0.00    -0.206 F 
ATOM     78  C   UNL A   1      34.231  33.601  30.512  1.00  0.00     0.059 A 
ATOM     79  C   UNL A   1      35.804  34.777  29.082  1.00  0.00     0.059 A 
ATOM     80  F   UNL A   1      38.099  34.336  29.272  1.00  0.00    -0.206 F 
ATOM     81  C   UNL A   1      34.498  34.522  29.497  1.00  0.00     0.060 A 
BRANCH  81  82
ATOM     82  S   UNL A   1      33.126  35.431  28.752  1.00  0.00     0.124 S 
ATOM     83  O   UNL A   1      32.445  34.376  28.013  1.00  0.00    -0.237 OA
ATOM     84  O   UNL A   1      32.422  35.949  29.921  1.00  0.00    -0.237 OA
ATOM     85  O   UNL A   1      33.801  36.441  27.941  1.00  0.00    -0.744 OA
ENDBRANCH  81  82
ENDBRANCH  49  74
BRANCH  61  86
ATOM     86  C   UNL A   1      39.876  33.971  36.813  1.00  0.00     0.058 A 
ATOM     87  C   UNL A   1      40.556  35.199  36.820  1.00  0.00     0.135 A 
ATOM     88  C   UNL A   1      38.989  33.701  37.866  1.00  0.00     0.135 A 
ATOM     89  F   UNL A   1      41.420  35.498  35.838  1.00  0.00    -0.206 F 
ATOM     90  C   UNL A   1      40.377  36.120  37.848  1.00  0.00     0.059 A 
ATOM     91  C   UNL A   1      38.780  34.615  38.894  1.00  0.00     0.059 A 
ATOM     92  F   UNL A   1      38.312  32.543  37.898  1.00  0.00    -0.206 F 
ATOM     93  C   UNL A   1      39.488  35.817  38.881  1.00  0.00     0.060 A 
BRANCH  93  94
ATOM     94  S   UNL A   1      39.240  37.029  40.196  1.00  0.00     0.124 S 
ATOM     95  O   UNL A   1      38.457  36.260  41.159  1.00  0.00    -0.237 OA
ATOM     96  O   UNL A   1      40.608  37.343  40.599  1.00  0.00    -0.237 OA
ATOM     97  O   UNL A   1      38.526  38.113  39.527  1.00  0.00    -0.744 OA
ENDBRANCH  93  94
ENDBRANCH  61  86
ENDBRANCH  35  36
ENDBRANCH  28  30
ENDBRANCH  27  28
ENDBRANCH  26  27
ENDBRANCH   1  26
TORSDOF 19
ENDMDL
MODEL 2
REMARK VINA RESULT:     -11.5      6.466     11.734
REMARK SMILES CC[C@@H](C(=O)OCCOC(=O)c1ccc(-c2c3nc(c(-c4c(F)cc(S(=O)(=O)[O-])cc4F)c4ccc([nH]4)c(-c4c(F)cc(S(=O)(=O)[O-])cc4F)c4nc(c(-c5c(F)cc(S(=O)(=O)[O-])cc5F)c5ccc2[nH]5)C=C4)C=C3)cc1)N1C(=O)/C(=C\c2ccc(C(=O)OC)cc2)SC1=S
REMARK SMILES IDX 7 1 6 2 4 3 5 4 3 5 2 6 1 7 78 8 79 9 94 10 80 11 81 12
REMARK SMILES IDX 93 13 95 14 82 15 83 16 84 17 92 18 85 19 91 20 86 21 87 22
REMARK SMILES IDX 88 23 89 24 90 25 8 26 9 27 10 28 11 29 12 30 13 31 77 32
REMARK SMILES IDX 14 33 76 34 15 35 16 36 17 37 70 38 18 39 75 40 69 41 71 42
REMARK SMILES IDX 19 43 74 44 68 45 67 46 20 48 54 49 33 50 53 51 34 52 37 53
REMARK SMILES IDX 52 54 72 55 35 56 36 57 51 59 73 60 38 61 21 62 22 63 31 64
REMARK SMILES IDX 23 65 24 66 30 67 32 68 25 69 26 70 27 71 28 72 29 73 55 74
REMARK SMILES IDX 56 75 65 76 57 77 58 78 64 79 66 80 59 81 60 82 61 83 62 84
REMARK SMILES IDX 63 85 39 86 40 87 49 88 41 89 42 90 48 91 50 92 43 93 44 94
REMARK SMILES IDX 45 95 46 96 47 97
REMARK H PARENT 71 47 37 58
REMARK Flexibility Score: inf
ROOT
ATOM      1  C   UNL A   1      34.264  29.717  27.038  1.00  0.00     0.274 C 
ENDROOT
BRANCH   1   2
ATOM      2  O   UNL A   1      33.064  29.655  26.237  1.00  0.00    -0.461 OA
BRANCH   2   3
ATOM      3  C   UNL A   1      33.100  28.841  25.149  1.00  0.00     0.329 C 
ATOM      4  O   UNL A   1      33.723  29.108  24.126  1.00  0.00    -0.250 OA
BRANCH   3   5
ATOM      5  C   UNL A   1      32.198  27.596  25.286  1.00  0.00     0.201 C 
BRANCH   5   6
ATOM      6  C   UNL A   1      32.484  26.696  26.500  1.00  0.00     0.034 C 
ATOM      7  C   UNL A   1      31.556  25.489  26.604  1.00  0.00     0.007 C 
ENDBRANCH   5   6
BRANCH   5   8
ATOM      8  N   UNL A   1      32.148  26.901  23.960  1.00  0.00    -0.278 N 
ATOM      9  C   UNL A   1      33.163  25.971  23.720  1.00  0.00     0.266 C 
ATOM     10  C   UNL A   1      31.187  26.991  22.972  1.00  0.00     0.149 C 
ATOM     11  O   UNL A   1      34.167  25.836  24.404  1.00  0.00    -0.268 OA
ATOM     12  C   UNL A   1      32.865  25.173  22.497  1.00  0.00     0.081 C 
ATOM     13  S   UNL A   1      31.627  25.964  21.606  1.00  0.00    -0.054 SA
ATOM     14  S   UNL A   1      29.775  27.873  22.914  1.00  0.00    -0.052 S 
ATOM     15  C   UNL A   1      33.381  23.991  22.123  1.00  0.00     0.029 C 
BRANCH  15  16
ATOM     16  C   UNL A   1      34.361  23.214  22.883  1.00  0.00    -0.024 A 
ATOM     17  C   UNL A   1      35.720  23.347  22.585  1.00  0.00     0.009 A 
ATOM     18  C   UNL A   1      33.962  22.331  23.894  1.00  0.00     0.009 A 
ATOM     19  C   UNL A   1      36.676  22.663  23.339  1.00  0.00     0.016 A 
ATOM     20  C   UNL A   1      34.918  21.643  24.649  1.00  0.00     0.016 A 
ATOM     21  C   UNL A   1      36.283  21.828  24.394  1.00  0.00     0.060 A 
BRANCH  21  22
ATOM     22  C   UNL A   1      37.346  21.215  25.236  1.00  0.00     0.337 C 
ATOM     23  O   UNL A   1      37.662  20.036  25.174  1.00  0.00    -0.246 OA
BRANCH  22  24
ATOM     24  O   UNL A   1      37.949  22.155  26.007  1.00  0.00    -0.465 OA
ATOM     25  C   UNL A   1      39.337  21.910  26.233  1.00  0.00     0.282 C 
ENDBRANCH  22  24
ENDBRANCH  21  22
ENDBRANCH  15  16
ENDBRANCH   5   8
ENDBRANCH   3   5
ENDBRANCH   2   3
ENDBRANCH   1   2
BRANCH   1  26
ATOM     26  C   UNL A   1      34.375  31.059  27.753  1.00  0.00     0.275 C 
BRANCH  26  27
ATOM     27  O   UNL A   1      35.756  31.331  28.042  1.00  0.00    -0.458 OA
BRANCH  27  28
ATOM     28  C   UNL A   1      36.215  30.844  29.218  1.00  0.00     0.338 C 
ATOM     29  O   UNL A   1      35.682  30.930  30.310  1.00  0.00    -0.246 OA
BRANCH  28  30
ATOM     30  C   UNL A   1      37.490  30.147  28.986  1.00  0.00     0.060 A 
ATOM     31  C   UNL A   1      38.271  29.759  30.072  1.00  0.00     0.016 A 
ATOM     32  C   UNL A   1      37.968  29.984  27.688  1.00  0.00     0.016 A 
ATOM     33  C   UNL A   1      39.567  29.298  29.868  1.00  0.00     0.010 A 
ATOM     34  C   UNL A   1      39.238  29.432  27.484  1.00  0.00     0.010 A 
ATOM     35  C   UNL A   1      40.072  29.123  28.574  1.00  0.00    -0.014 A 
BRANCH  35  36
ATOM     36  C   UNL A   1      41.483  28.688  28.370  1.00  0.00     0.031 A 
ATOM     37  C   UNL A   1      42.607  29.679  28.541  1.00  0.00     0.074 A 
ATOM     38  C   UNL A   1      41.778  27.404  28.075  1.00  0.00     0.049 A 
ATOM     39  N   UNL A   1      43.862  29.573  28.187  1.00  0.00    -0.248 NA
ATOM     40  C   UNL A   1      42.272  30.962  29.180  1.00  0.00     0.031 C 
ATOM     41  C   UNL A   1      40.808  26.313  27.949  1.00  0.00     0.029 A 
ATOM     42  N   UNL A   1      42.986  26.794  27.842  1.00  0.00    -0.354 N 
ATOM     43  C   UNL A   1      44.446  30.799  28.485  1.00  0.00     0.074 A 
ATOM     44  C   UNL A   1      43.412  31.628  29.066  1.00  0.00     0.031 C 
ATOM     45  C   UNL A   1      41.460  25.164  27.714  1.00  0.00     0.029 A 
ATOM     46  C   UNL A   1      42.882  25.450  27.565  1.00  0.00     0.049 A 
ATOM     47  H   UNL A   1      43.845  27.274  27.868  1.00  0.00     0.167 HD
ATOM     48  C   UNL A   1      45.725  31.197  28.283  1.00  0.00     0.037 A 
ATOM     49  C   UNL A   1      43.813  24.556  27.182  1.00  0.00     0.037 A 
ATOM     50  C   UNL A   1      46.768  30.340  27.780  1.00  0.00     0.049 A 
ATOM     51  C   UNL A   1      45.226  25.018  26.961  1.00  0.00     0.074 A 
ATOM     52  C   UNL A   1      48.091  30.651  27.520  1.00  0.00     0.029 A 
ATOM     53  N   UNL A   1      46.612  28.992  27.495  1.00  0.00    -0.354 N 
ATOM     54  N   UNL A   1      45.735  26.215  27.123  1.00  0.00    -0.248 NA
ATOM     55  C   UNL A   1      46.183  24.015  26.472  1.00  0.00     0.031 C 
ATOM     56  C   UNL A   1      48.733  29.494  27.065  1.00  0.00     0.029 A 
ATOM     57  C   UNL A   1      47.815  28.455  27.069  1.00  0.00     0.049 A 
ATOM     58  H   UNL A   1      45.769  28.490  27.581  1.00  0.00     0.167 HD
ATOM     59  C   UNL A   1      47.071  26.111  26.755  1.00  0.00     0.074 A 
ATOM     60  C   UNL A   1      47.298  24.728  26.386  1.00  0.00     0.031 C 
ATOM     61  C   UNL A   1      48.021  27.076  26.713  1.00  0.00     0.037 A 
BRANCH  48  62
ATOM     62  C   UNL A   1      46.065  32.632  28.570  1.00  0.00     0.058 A 
ATOM     63  C   UNL A   1      45.952  33.636  27.597  1.00  0.00     0.135 A 
ATOM     64  C   UNL A   1      46.474  33.012  29.859  1.00  0.00     0.135 A 
ATOM     65  F   UNL A   1      45.583  33.324  26.345  1.00  0.00    -0.206 F 
ATOM     66  C   UNL A   1      46.247  34.965  27.887  1.00  0.00     0.059 A 
ATOM     67  C   UNL A   1      46.754  34.338  30.178  1.00  0.00     0.059 A 
ATOM     68  F   UNL A   1      46.601  32.090  30.828  1.00  0.00    -0.206 F 
ATOM     69  C   UNL A   1      46.649  35.306  29.180  1.00  0.00     0.060 A 
BRANCH  69  70
ATOM     70  S   UNL A   1      47.016  37.035  29.552  1.00  0.00     0.124 S 
ATOM     71  O   UNL A   1      47.181  36.992  31.001  1.00  0.00    -0.237 OA
ATOM     72  O   UNL A   1      48.234  37.272  28.784  1.00  0.00    -0.237 OA
ATOM     73  O   UNL A   1      45.832  37.742  29.075  1.00  0.00    -0.744 OA
ENDBRANCH  69  70
ENDBRANCH  48  62
BRANCH  49  74
ATOM     74  C   UNL A   1      43.424  23.146  26.921  1.00  0.00     0.058 A 
ATOM     75  C   UNL A   1      43.336  22.651  25.612  1.00  0.00     0.135 A 
ATOM     76  C   UNL A   1      43.148  22.262  27.976  1.00  0.00     0.135 A 
ATOM     77  F   UNL A   1      43.579  23.462  24.572  1.00  0.00    -0.206 F 
ATOM     78  C   UNL A   1      42.981  21.330  25.356  1.00  0.00     0.059 A 
ATOM     79  C   UNL A   1      42.817  20.931  27.746  1.00  0.00     0.059 A 
ATOM     80  F   UNL A   1      43.230  22.684  29.247  1.00  0.00    -0.206 F 
ATOM     81  C   UNL A   1      42.726  20.477  26.431  1.00  0.00     0.060 A 
BRANCH  81  82
ATOM     82  S   UNL A   1      42.325  18.746  26.104  1.00  0.00     0.124 S 
ATOM     83  O   UNL A   1      40.912  18.836  25.757  1.00  0.00    -0.237 OA
ATOM     84  O   UNL A   1      43.231  18.416  25.009  1.00  0.00    -0.237 OA
ATOM     85  O   UNL A   1      42.627  18.092  27.374  1.00  0.00    -0.744 OA
ENDBRANCH  81  82
ENDBRANCH  49  74
BRANCH  61  86
ATOM     86  C   UNL A   1      49.396  26.663  26.277  1.00  0.00     0.058 A 
ATOM     87  C   UNL A   1      49.862  26.929  24.980  1.00  0.00     0.135 A 
ATOM     88  C   UNL A   1      50.269  26.031  27.176  1.00  0.00     0.135 A 
ATOM     89  F   UNL A   1      49.061  27.525  24.084  1.00  0.00    -0.206 F 
ATOM     90  C   UNL A   1      51.144  26.563  24.583  1.00  0.00     0.059 A 
ATOM     91  C   UNL A   1      51.561  25.672  26.805  1.00  0.00     0.059 A 
ATOM     92  F   UNL A   1      49.870  25.762  28.429  1.00  0.00    -0.206 F 
ATOM     93  C   UNL A   1      51.984  25.933  25.502  1.00  0.00     0.060 A 
BRANCH  93  94
ATOM     94  S   UNL A   1      53.656  25.486  24.986  1.00  0.00     0.124 S 
ATOM     95  O   UNL A   1      53.565  25.632  23.537  1.00  0.00    -0.237 OA
ATOM     96  O   UNL A   1      54.476  26.479  25.673  1.00  0.00    -0.237 OA
ATOM     97  O   UNL A   1      53.804  24.116  25.472  1.00  0.00    -0.744 OA
ENDBRANCH  93  94
ENDBRANCH  61  86
ENDBRANCH  35  36
ENDBRANCH  28  30
ENDBRANCH  27  28
ENDBRANCH  26  27
ENDBRANCH   1  26
TORSDOF 19
ENDMDL
MODEL 3
REMARK VINA RESULT:     -11.5      2.209      4.609
REMARK SMILES CC[C@@H](C(=O)OCCOC(=O)c1ccc(-c2c3nc(c(-c4c(F)cc(S(=O)(=O)[O-])cc4F)c4ccc([nH]4)c(-c4c(F)cc(S(=O)(=O)[O-])cc4F)c4nc(c(-c5c(F)cc(S(=O)(=O)[O-])cc5F)c5ccc2[nH]5)C=C4)C=C3)cc1)N1C(=O)/C(=C\c2ccc(C(=O)OC)cc2)SC1=S
REMARK SMILES IDX 7 1 6 2 4 3 5 4 3 5 2 6 1 7 78 8 79 9 94 10 80 11 81 12
REMARK SMILES IDX 93 13 95 14 82 15 83 16 84 17 92 18 85 19 91 20 86 21 87 22
REMARK SMILES IDX 88 23 89 24 90 25 8 26 9 27 10 28 11 29 12 30 13 31 77 32
REMARK SMILES IDX 14 33 76 34 15 35 16 36 17 37 70 38 18 39 75 40 69 41 71 42
REMARK SMILES IDX 19 43 74 44 68 45 67 46 20 48 54 49 33 50 53 51 34 52 37 53
REMARK SMILES IDX 52 54 72 55 35 56 36 57 51 59 73 60 38 61 21 62 22 63 31 64
REMARK SMILES IDX 23 65 24 66 30 67 32 68 25 69 26 70 27 71 28 72 29 73 55 74
REMARK SMILES IDX 56 75 65 76 57 77 58 78 64 79 66 80 59 81 60 82 61 83 62 84
REMARK SMILES IDX 63 85 39 86 40 87 49 88 41 89 42 90 48 91 50 92 43 93 44 94
REMARK SMILES IDX 45 95 46 96 47 97
REMARK H PARENT 71 47 37 58
REMARK Flexibility Score: inf
ROOT
ATOM      1  C   UNL A   1      36.899  23.697  25.201  1.00  0.00     0.274 C 
ENDROOT
BRANCH   1   2
ATOM      2  O   UNL A   1      36.095  22.620  24.673  1.00  0.00    -0.461 OA
BRANCH   2   3
ATOM      3  C   UNL A   1      35.399  22.881  23.535  1.00  0.00     0.329 C 
ATOM      4  O   UNL A   1      35.869  23.494  22.581  1.00  0.00    -0.250 OA
BRANCH   3   5
ATOM      5  C   UNL A   1      33.926  22.422  23.598  1.00  0.00     0.201 C 
BRANCH   5   6
ATOM      6  C   UNL A   1      33.088  22.695  22.337  1.00  0.00     0.034 C 
ATOM      7  C   UNL A   1      32.102  21.581  22.000  1.00  0.00     0.007 C 
ENDBRANCH   5   6
BRANCH   5   8
ATOM      8  N   UNL A   1      33.337  22.904  24.887  1.00  0.00    -0.278 N 
ATOM      9  C   UNL A   1      32.901  24.232  24.900  1.00  0.00     0.266 C 
ATOM     10  C   UNL A   1      33.086  22.192  26.044  1.00  0.00     0.149 C 
ATOM     11  O   UNL A   1      33.143  25.058  24.032  1.00  0.00    -0.268 OA
ATOM     12  C   UNL A   1      32.112  24.514  26.133  1.00  0.00     0.081 C 
ATOM     13  S   UNL A   1      32.389  23.255  27.269  1.00  0.00    -0.054 SA
ATOM     14  S   UNL A   1      33.335  20.583  26.399  1.00  0.00    -0.052 S 
ATOM     15  C   UNL A   1      31.254  25.520  26.366  1.00  0.00     0.029 C 
BRANCH  15  16
ATOM     16  C   UNL A   1      30.895  26.567  25.409  1.00  0.00    -0.024 A 
ATOM     17  C   UNL A   1      29.972  26.283  24.398  1.00  0.00     0.009 A 
ATOM     18  C   UNL A   1      31.467  27.843  25.480  1.00  0.00     0.009 A 
ATOM     19  C   UNL A   1      29.568  27.286  23.513  1.00  0.00     0.016 A 
ATOM     20  C   UNL A   1      31.065  28.848  24.593  1.00  0.00     0.016 A 
ATOM     21  C   UNL A   1      30.091  28.582  23.622  1.00  0.00     0.060 A 
BRANCH  21  22
ATOM     22  C   UNL A   1      29.540  29.638  22.729  1.00  0.00     0.337 C 
ATOM     23  O   UNL A   1      29.224  29.441  21.565  1.00  0.00    -0.246 OA
BRANCH  22  24
ATOM     24  O   UNL A   1      29.372  30.801  23.408  1.00  0.00    -0.465 OA
ATOM     25  C   UNL A   1      28.028  31.281  23.402  1.00  0.00     0.282 C 
ENDBRANCH  22  24
ENDBRANCH  21  22
ENDBRANCH  15  16
ENDBRANCH   5   8
ENDBRANCH   3   5
ENDBRANCH   2   3
ENDBRANCH   1   2
BRANCH   1  26
ATOM     26  C   UNL A   1      38.146  23.159  25.893  1.00  0.00     0.275 C 
BRANCH  26  27
ATOM     27  O   UNL A   1      39.200  24.129  25.795  1.00  0.00    -0.458 OA
BRANCH  27  28
ATOM     28  C   UNL A   1      40.121  24.097  26.786  1.00  0.00     0.338 C 
ATOM     29  O   UNL A   1      40.970  23.246  26.977  1.00  0.00    -0.246 OA
BRANCH  28  30
ATOM     30  C   UNL A   1      39.964  25.296  27.627  1.00  0.00     0.060 A 
ATOM     31  C   UNL A   1      40.792  26.397  27.417  1.00  0.00     0.016 A 
ATOM     32  C   UNL A   1      39.077  25.283  28.701  1.00  0.00     0.016 A 
ATOM     33  C   UNL A   1      40.803  27.443  28.333  1.00  0.00     0.010 A 
ATOM     34  C   UNL A   1      39.027  26.380  29.568  1.00  0.00     0.010 A 
ATOM     35  C   UNL A   1      39.921  27.456  29.420  1.00  0.00    -0.014 A 
BRANCH  35  36
ATOM     36  C   UNL A   1      39.987  28.552  30.428  1.00  0.00     0.031 A 
ATOM     37  C   UNL A   1      41.050  28.526  31.498  1.00  0.00     0.074 A 
ATOM     38  C   UNL A   1      39.133  29.597  30.375  1.00  0.00     0.049 A 
ATOM     39  N   UNL A   1      41.137  29.238  32.593  1.00  0.00    -0.248 NA
ATOM     40  C   UNL A   1      42.149  27.563  31.322  1.00  0.00     0.031 C 
ATOM     41  C   UNL A   1      38.098  29.802  29.358  1.00  0.00     0.029 A 
ATOM     42  N   UNL A   1      39.011  30.694  31.191  1.00  0.00    -0.354 N 
ATOM     43  C   UNL A   1      42.251  28.755  33.272  1.00  0.00     0.074 A 
ATOM     44  C   UNL A   1      42.818  27.702  32.457  1.00  0.00     0.031 C 
ATOM     45  C   UNL A   1      37.486  30.975  29.580  1.00  0.00     0.029 A 
ATOM     46  C   UNL A   1      38.006  31.554  30.813  1.00  0.00     0.049 A 
ATOM     47  H   UNL A   1      39.587  30.851  31.974  1.00  0.00     0.167 HD
ATOM     48  C   UNL A   1      42.747  29.151  34.468  1.00  0.00     0.037 A 
ATOM     49  C   UNL A   1      37.517  32.656  31.413  1.00  0.00     0.037 A 
ATOM     50  C   UNL A   1      42.225  30.254  35.234  1.00  0.00     0.049 A 
ATOM     51  C   UNL A   1      38.079  33.077  32.742  1.00  0.00     0.074 A 
ATOM     52  C   UNL A   1      42.644  30.723  36.468  1.00  0.00     0.029 A 
ATOM     53  N   UNL A   1      41.194  31.084  34.821  1.00  0.00    -0.354 N 
ATOM     54  N   UNL A   1      39.049  32.531  33.435  1.00  0.00    -0.248 NA
ATOM     55  C   UNL A   1      37.458  34.243  33.386  1.00  0.00     0.031 C 
ATOM     56  C   UNL A   1      41.856  31.829  36.807  1.00  0.00     0.029 A 
ATOM     57  C   UNL A   1      40.966  32.066  35.770  1.00  0.00     0.049 A 
ATOM     58  H   UNL A   1      40.696  30.988  33.977  1.00  0.00     0.167 HD
ATOM     59  C   UNL A   1      39.153  33.285  34.597  1.00  0.00     0.074 A 
ATOM     60  C   UNL A   1      38.166  34.340  34.503  1.00  0.00     0.031 C 
ATOM     61  C   UNL A   1      39.983  33.111  35.654  1.00  0.00     0.037 A 
BRANCH  48  62
ATOM     62  C   UNL A   1      43.889  28.365  35.047  1.00  0.00     0.058 A 
ATOM     63  C   UNL A   1      45.224  28.772  34.905  1.00  0.00     0.135 A 
ATOM     64  C   UNL A   1      43.634  27.203  35.795  1.00  0.00     0.135 A 
ATOM     65  F   UNL A   1      45.524  29.865  34.185  1.00  0.00    -0.206 F 
ATOM     66  C   UNL A   1      46.269  28.045  35.470  1.00  0.00     0.059 A 
ATOM     67  C   UNL A   1      44.661  26.473  36.386  1.00  0.00     0.059 A 
ATOM     68  F   UNL A   1      42.374  26.769  35.960  1.00  0.00    -0.206 F 
ATOM     69  C   UNL A   1      45.977  26.896  36.208  1.00  0.00     0.060 A 
BRANCH  69  70
ATOM     70  S   UNL A   1      47.336  25.968  36.950  1.00  0.00     0.124 S 
ATOM     71  O   UNL A   1      47.230  24.690  36.254  1.00  0.00    -0.237 OA
ATOM     72  O   UNL A   1      48.499  26.780  36.605  1.00  0.00    -0.237 OA
ATOM     73  O   UNL A   1      46.994  25.942  38.368  1.00  0.00    -0.744 OA
ENDBRANCH  69  70
ENDBRANCH  48  62
BRANCH  49  74
ATOM     74  C   UNL A   1      36.391  33.402  30.793  1.00  0.00     0.058 A 
ATOM     75  C   UNL A   1      35.086  33.288  31.292  1.00  0.00     0.135 A 
ATOM     76  C   UNL A   1      36.601  34.255  29.698  1.00  0.00     0.135 A 
ATOM     77  F   UNL A   1      34.835  32.476  32.330  1.00  0.00    -0.206 F 
ATOM     78  C   UNL A   1      34.026  33.988  30.725  1.00  0.00     0.059 A 
ATOM     79  C   UNL A   1      35.564  34.985  29.130  1.00  0.00     0.059 A 
ATOM     80  F   UNL A   1      37.835  34.407  29.190  1.00  0.00    -0.206 F 
ATOM     81  C   UNL A   1      34.276  34.837  29.645  1.00  0.00     0.060 A 
BRANCH  81  82
ATOM     82  S   UNL A   1      32.913  35.794  28.945  1.00  0.00     0.124 S 
ATOM     83  O   UNL A   1      32.327  34.831  28.021  1.00  0.00    -0.237 OA
ATOM     84  O   UNL A   1      32.116  36.113  30.125  1.00  0.00    -0.237 OA
ATOM     85  O   UNL A   1      33.591  36.932  28.332  1.00  0.00    -0.744 OA
ENDBRANCH  81  82
ENDBRANCH  49  74
BRANCH  61  86
ATOM     86  C   UNL A   1      39.875  34.098  36.778  1.00  0.00     0.058 A 
ATOM     87  C   UNL A   1      40.525  35.341  36.725  1.00  0.00     0.135 A 
ATOM     88  C   UNL A   1      39.082  33.815  37.901  1.00  0.00     0.135 A 
ATOM     89  F   UNL A   1      41.299  35.654  35.674  1.00  0.00    -0.206 F 
ATOM     90  C   UNL A   1      40.408  36.264  37.760  1.00  0.00     0.059 A 
ATOM     91  C   UNL A   1      38.937  34.730  38.939  1.00  0.00     0.059 A 
ATOM     92  F   UNL A   1      38.437  32.642  37.994  1.00  0.00    -0.206 F 
ATOM     93  C   UNL A   1      39.614  35.948  38.863  1.00  0.00     0.060 A 
BRANCH  93  94
ATOM     94  S   UNL A   1      39.446  37.162  40.189  1.00  0.00     0.124 S 
ATOM     95  O   UNL A   1      38.719  38.233  39.515  1.00  0.00    -0.237 OA
ATOM     96  O   UNL A   1      38.694  36.424  41.200  1.00  0.00    -0.237 OA
ATOM     97  O   UNL A   1      40.829  37.467  40.545  1.00  0.00    -0.744 OA
ENDBRANCH  93  94
ENDBRANCH  61  86
ENDBRANCH  35  36
ENDBRANCH  28  30
ENDBRANCH  27  28
ENDBRANCH  26  27
ENDBRANCH   1  26
TORSDOF 19
ENDMDL
