MODEL 1
REMARK VINA RESULT:     -10.5      0.000      0.000
REMARK SMILES O=C(OCCOC(=O)c1c(C2CC2)nn(-c2ccc(Cl)c(F)c2)c1Cl)c1ccc(-c2c3nc(c(-c4c(F)cc(S(=O)(=O)[O-])cc4F)c4ccc([nH]4)c(-c4c(F)cc(S(=O)(=O)[O-])cc4F)c4nc(c(-c5c(F)cc(S(=O)(=O)[O-])cc5F)c5ccc2[nH]5)C=C4)C=C3)cc1
REMARK SMILES IDX 4 1 3 2 2 3 1 4 26 5 27 6 91 7 28 8 90 9 29 10 30 11 31 12
REMARK SMILES IDX 84 13 32 14 89 15 83 16 85 17 33 18 88 19 82 20 81 21 34 23
REMARK SMILES IDX 68 24 47 25 67 26 48 27 51 28 66 29 86 30 49 31 50 32 65 34
REMARK SMILES IDX 87 35 52 36 35 37 36 38 45 39 37 40 38 41 44 42 46 43 39 44
REMARK SMILES IDX 40 45 41 46 42 47 43 48 69 49 70 50 79 51 71 52 72 53 78 54
REMARK SMILES IDX 80 55 73 56 74 57 75 58 76 59 77 60 53 61 54 62 63 63 55 64
REMARK SMILES IDX 56 65 62 66 64 67 57 68 58 69 59 70 60 71 61 72 5 73 6 74
REMARK SMILES IDX 7 75 8 76 9 77 10 78 24 79 14 80 15 81 25 82 11 83 12 84
REMARK SMILES IDX 13 85 16 86 17 87 23 88 18 89 21 90 19 91 22 92 20 93
REMARK H PARENT 85 22 51 33
REMARK Flexibility Score: inf
ROOT
ATOM      1  C   UNL A   1      42.778  21.508  25.778  1.00  0.00     0.275 C 
ENDROOT
BRANCH   1   2
ATOM      2  O   UNL A   1      41.536  22.232  25.740  1.00  0.00    -0.458 OA
BRANCH   2   3
ATOM      3  C   UNL A   1      40.828  22.307  26.881  1.00  0.00     0.338 C 
ATOM      4  O   UNL A   1      40.060  21.456  27.302  1.00  0.00    -0.246 OA
BRANCH   3   5
ATOM      5  C   UNL A   1      40.959  23.669  27.438  1.00  0.00     0.060 A 
ATOM      6  C   UNL A   1      41.896  24.010  28.417  1.00  0.00     0.016 A 
ATOM      7  C   UNL A   1      40.129  24.647  26.892  1.00  0.00     0.016 A 
ATOM      8  C   UNL A   1      41.947  25.320  28.886  1.00  0.00     0.010 A 
ATOM      9  C   UNL A   1      40.195  25.958  27.340  1.00  0.00     0.010 A 
ATOM     10  C   UNL A   1      41.076  26.285  28.365  1.00  0.00    -0.014 A 
BRANCH  10  11
ATOM     11  C   UNL A   1      41.087  27.632  28.921  1.00  0.00     0.031 A 
ATOM     12  C   UNL A   1      42.139  28.568  28.452  1.00  0.00     0.074 A 
ATOM     13  C   UNL A   1      40.117  28.109  29.724  1.00  0.00     0.049 A 
ATOM     14  N   UNL A   1      43.148  29.029  29.117  1.00  0.00    -0.248 NA
ATOM     15  C   UNL A   1      42.070  29.038  27.062  1.00  0.00     0.031 C 
ATOM     16  C   UNL A   1      38.806  27.527  30.019  1.00  0.00     0.029 A 
ATOM     17  N   UNL A   1      40.099  29.291  30.404  1.00  0.00    -0.354 N 
ATOM     18  C   UNL A   1      43.745  29.987  28.303  1.00  0.00     0.074 A 
ATOM     19  C   UNL A   1      43.110  29.872  27.011  1.00  0.00     0.031 C 
ATOM     20  C   UNL A   1      38.058  28.433  30.690  1.00  0.00     0.029 A 
ATOM     21  C   UNL A   1      38.884  29.591  30.999  1.00  0.00     0.049 A 
ATOM     22  H   UNL A   1      40.884  29.882  30.467  1.00  0.00     0.167 HD
ATOM     23  C   UNL A   1      44.607  30.925  28.789  1.00  0.00     0.037 A 
ATOM     24  C   UNL A   1      38.575  30.721  31.679  1.00  0.00     0.037 A 
ATOM     25  C   UNL A   1      45.067  30.602  30.114  1.00  0.00     0.049 A 
ATOM     26  C   UNL A   1      39.847  31.332  32.140  1.00  0.00     0.074 A 
ATOM     27  C   UNL A   1      45.751  29.540  30.673  1.00  0.00     0.029 A 
ATOM     28  N   UNL A   1      44.526  31.288  31.175  1.00  0.00    -0.354 N 
ATOM     29  N   UNL A   1      40.639  30.805  33.034  1.00  0.00    -0.248 NA
ATOM     30  C   UNL A   1      40.440  32.392  31.339  1.00  0.00     0.031 C 
ATOM     31  C   UNL A   1      45.179  29.368  31.969  1.00  0.00     0.029 A 
ATOM     32  C   UNL A   1      44.204  30.354  32.131  1.00  0.00     0.049 A 
ATOM     33  H   UNL A   1      44.393  32.261  31.237  1.00  0.00     0.167 HD
ATOM     34  C   UNL A   1      41.918  31.171  32.646  1.00  0.00     0.074 A 
ATOM     35  C   UNL A   1      41.722  32.247  31.681  1.00  0.00     0.031 C 
ATOM     36  C   UNL A   1      43.002  30.393  32.939  1.00  0.00     0.037 A 
BRANCH  23  37
ATOM     37  C   UNL A   1      44.840  32.279  28.166  1.00  0.00     0.058 A 
ATOM     38  C   UNL A   1      46.102  32.610  27.635  1.00  0.00     0.135 A 
ATOM     39  C   UNL A   1      43.926  33.349  28.288  1.00  0.00     0.135 A 
ATOM     40  F   UNL A   1      47.055  31.673  27.503  1.00  0.00    -0.206 F 
ATOM     41  C   UNL A   1      46.444  33.916  27.280  1.00  0.00     0.059 A 
ATOM     42  C   UNL A   1      44.227  34.649  27.894  1.00  0.00     0.059 A 
ATOM     43  F   UNL A   1      42.734  33.190  28.880  1.00  0.00    -0.206 F 
ATOM     44  C   UNL A   1      45.501  34.932  27.424  1.00  0.00     0.060 A 
BRANCH  44  45
ATOM     45  S   UNL A   1      45.967  36.633  27.054  1.00  0.00     0.124 S 
ATOM     46  O   UNL A   1      46.664  36.472  25.783  1.00  0.00    -0.237 OA
ATOM     47  O   UNL A   1      44.671  37.301  26.992  1.00  0.00    -0.237 OA
ATOM     48  O   UNL A   1      46.802  37.006  28.192  1.00  0.00    -0.744 OA
ENDBRANCH  44  45
ENDBRANCH  23  37
BRANCH  24  49
ATOM     49  C   UNL A   1      37.276  31.434  31.737  1.00  0.00     0.058 A 
ATOM     50  C   UNL A   1      36.681  31.768  32.966  1.00  0.00     0.135 A 
ATOM     51  C   UNL A   1      36.733  32.051  30.591  1.00  0.00     0.135 A 
ATOM     52  F   UNL A   1      37.149  31.243  34.109  1.00  0.00    -0.206 F 
ATOM     53  C   UNL A   1      35.644  32.700  33.060  1.00  0.00     0.059 A 
ATOM     54  C   UNL A   1      35.692  32.974  30.661  1.00  0.00     0.059 A 
ATOM     55  F   UNL A   1      37.266  31.847  29.378  1.00  0.00    -0.206 F 
ATOM     56  C   UNL A   1      35.170  33.315  31.902  1.00  0.00     0.060 A 
BRANCH  56  57
ATOM     57  S   UNL A   1      33.967  34.657  32.039  1.00  0.00     0.124 S 
ATOM     58  O   UNL A   1      33.048  34.136  33.044  1.00  0.00    -0.237 OA
ATOM     59  O   UNL A   1      34.803  35.778  32.458  1.00  0.00    -0.237 OA
ATOM     60  O   UNL A   1      33.423  34.763  30.688  1.00  0.00    -0.744 OA
ENDBRANCH  56  57
ENDBRANCH  24  49
BRANCH  36  61
ATOM     61  C   UNL A   1      42.844  29.312  33.981  1.00  0.00     0.058 A 
ATOM     62  C   UNL A   1      42.961  29.529  35.366  1.00  0.00     0.135 A 
ATOM     63  C   UNL A   1      42.413  28.040  33.573  1.00  0.00     0.135 A 
ATOM     64  F   UNL A   1      43.259  30.741  35.851  1.00  0.00    -0.206 F 
ATOM     65  C   UNL A   1      42.708  28.519  36.296  1.00  0.00     0.059 A 
ATOM     66  C   UNL A   1      42.120  27.026  34.485  1.00  0.00     0.059 A 
ATOM     67  F   UNL A   1      42.217  27.782  32.268  1.00  0.00    -0.206 F 
ATOM     68  C   UNL A   1      42.282  27.271  35.846  1.00  0.00     0.060 A 
BRANCH  68  69
ATOM     69  S   UNL A   1      41.854  26.001  37.059  1.00  0.00     0.124 S 
ATOM     70  O   UNL A   1      42.873  26.198  38.084  1.00  0.00    -0.237 OA
ATOM     71  O   UNL A   1      40.493  26.371  37.440  1.00  0.00    -0.237 OA
ATOM     72  O   UNL A   1      41.961  24.757  36.301  1.00  0.00    -0.744 OA
ENDBRANCH  68  69
ENDBRANCH  36  61
ENDBRANCH  10  11
ENDBRANCH   3   5
ENDBRANCH   2   3
ENDBRANCH   1   2
BRANCH   1  73
ATOM     73  C   UNL A   1      44.017  22.153  25.133  1.00  0.00     0.275 C 
BRANCH  73  74
ATOM     74  O   UNL A   1      43.935  23.589  25.227  1.00  0.00    -0.458 OA
BRANCH  74  75
ATOM     75  C   UNL A   1      45.093  24.314  25.169  1.00  0.00     0.343 C 
ATOM     76  O   UNL A   1      45.998  24.116  24.355  1.00  0.00    -0.246 OA
BRANCH  75  77
ATOM     77  C   UNL A   1      45.203  25.233  26.279  1.00  0.00     0.121 A 
ATOM     78  C   UNL A   1      45.369  26.643  26.431  1.00  0.00     0.082 A 
ATOM     79  C   UNL A   1      45.340  24.774  27.579  1.00  0.00     0.147 A 
ATOM     80  N   UNL A   1      45.392  27.003  27.726  1.00  0.00    -0.170 NA
ATOM     81  N   UNL A   1      45.527  25.848  28.406  1.00  0.00    -0.221 N 
ATOM     82  Cl  UNL A   1      45.321  23.177  28.208  1.00  0.00    -0.061 Cl
BRANCH  78  83
ATOM     83  C   UNL A   1      45.618  27.801  25.458  1.00  0.00     0.041 C 
ATOM     84  C   UNL A   1      46.899  28.601  25.473  1.00  0.00     0.011 C 
ATOM     85  C   UNL A   1      46.531  27.814  24.265  1.00  0.00     0.011 C 
ENDBRANCH  78  83
BRANCH  81  86
ATOM     86  C   UNL A   1      45.973  25.892  29.750  1.00  0.00     0.069 A 
ATOM     87  C   UNL A   1      47.342  26.032  30.015  1.00  0.00     0.030 A 
ATOM     88  C   UNL A   1      45.063  25.733  30.802  1.00  0.00     0.069 A 
ATOM     89  C   UNL A   1      47.788  26.088  31.340  1.00  0.00     0.026 A 
ATOM     90  C   UNL A   1      45.526  25.750  32.113  1.00  0.00     0.143 A 
ATOM     91  C   UNL A   1      46.878  25.945  32.389  1.00  0.00     0.076 A 
ATOM     92  F   UNL A   1      44.643  25.561  33.105  1.00  0.00    -0.205 F 
ATOM     93  Cl  UNL A   1      47.435  26.002  34.017  1.00  0.00    -0.081 Cl
ENDBRANCH  81  86
ENDBRANCH  75  77
ENDBRANCH  74  75
ENDBRANCH  73  74
ENDBRANCH   1  73
TORSDOF 16
ENDMDL
MODEL 2
REMARK VINA RESULT:     -10.3      3.246     10.906
REMARK SMILES O=C(OCCOC(=O)c1c(C2CC2)nn(-c2ccc(Cl)c(F)c2)c1Cl)c1ccc(-c2c3nc(c(-c4c(F)cc(S(=O)(=O)[O-])cc4F)c4ccc([nH]4)c(-c4c(F)cc(S(=O)(=O)[O-])cc4F)c4nc(c(-c5c(F)cc(S(=O)(=O)[O-])cc5F)c5ccc2[nH]5)C=C4)C=C3)cc1
REMARK SMILES IDX 4 1 3 2 2 3 1 4 26 5 27 6 91 7 28 8 90 9 29 10 30 11 31 12
REMARK SMILES IDX 84 13 32 14 89 15 83 16 85 17 33 18 88 19 82 20 81 21 34 23
REMARK SMILES IDX 68 24 47 25 67 26 48 27 51 28 66 29 86 30 49 31 50 32 65 34
REMARK SMILES IDX 87 35 52 36 35 37 36 38 45 39 37 40 38 41 44 42 46 43 39 44
REMARK SMILES IDX 40 45 41 46 42 47 43 48 69 49 70 50 79 51 71 52 72 53 78 54
REMARK SMILES IDX 80 55 73 56 74 57 75 58 76 59 77 60 53 61 54 62 63 63 55 64
REMARK SMILES IDX 56 65 62 66 64 67 57 68 58 69 59 70 60 71 61 72 5 73 6 74
REMARK SMILES IDX 7 75 8 76 9 77 10 78 24 79 14 80 15 81 25 82 11 83 12 84
REMARK SMILES IDX 13 85 16 86 17 87 23 88 18 89 21 90 19 91 22 92 20 93
REMARK H PARENT 85 22 51 33
REMARK Flexibility Score: inf
ROOT
ATOM      1  C   UNL A   1      34.595  33.334  30.736  1.00  0.00     0.275 C 
ENDROOT
BRANCH   1   2
ATOM      2  O   UNL A   1      34.456  32.210  29.851  1.00  0.00    -0.458 OA
BRANCH   2   3
ATOM      3  C   UNL A   1      35.139  32.246  28.693  1.00  0.00     0.338 C 
ATOM      4  O   UNL A   1      34.743  32.735  27.646  1.00  0.00    -0.246 OA
BRANCH   3   5
ATOM      5  C   UNL A   1      36.353  31.414  28.825  1.00  0.00     0.060 A 
ATOM      6  C   UNL A   1      36.345  30.023  28.704  1.00  0.00     0.016 A 
ATOM      7  C   UNL A   1      37.554  32.094  29.021  1.00  0.00     0.016 A 
ATOM      8  C   UNL A   1      37.538  29.319  28.846  1.00  0.00     0.010 A 
ATOM      9  C   UNL A   1      38.747  31.397  29.137  1.00  0.00     0.010 A 
ATOM     10  C   UNL A   1      38.733  30.007  29.090  1.00  0.00    -0.014 A 
BRANCH  10  11
ATOM     11  C   UNL A   1      39.959  29.252  29.313  1.00  0.00     0.031 A 
ATOM     12  C   UNL A   1      40.413  29.062  30.713  1.00  0.00     0.074 A 
ATOM     13  C   UNL A   1      40.618  28.604  28.333  1.00  0.00     0.049 A 
ATOM     14  N   UNL A   1      41.446  29.583  31.292  1.00  0.00    -0.248 NA
ATOM     15  C   UNL A   1      39.608  28.197  31.585  1.00  0.00     0.031 C 
ATOM     16  C   UNL A   1      40.176  28.324  26.965  1.00  0.00     0.029 A 
ATOM     17  N   UNL A   1      41.834  27.993  28.404  1.00  0.00    -0.354 N 
ATOM     18  C   UNL A   1      41.536  28.979  32.544  1.00  0.00     0.074 A 
ATOM     19  C   UNL A   1      40.320  28.220  32.713  1.00  0.00     0.031 C 
ATOM     20  C   UNL A   1      41.042  27.461  26.387  1.00  0.00     0.029 A 
ATOM     21  C   UNL A   1      42.168  27.249  27.283  1.00  0.00     0.049 A 
ATOM     22  H   UNL A   1      42.427  28.073  29.187  1.00  0.00     0.167 HD
ATOM     23  C   UNL A   1      42.677  29.008  33.289  1.00  0.00     0.037 A 
ATOM     24  C   UNL A   1      43.282  26.497  27.116  1.00  0.00     0.037 A 
ATOM     25  C   UNL A   1      43.616  29.985  32.802  1.00  0.00     0.049 A 
ATOM     26  C   UNL A   1      44.312  27.000  28.060  1.00  0.00     0.074 A 
ATOM     27  C   UNL A   1      43.585  31.353  32.614  1.00  0.00     0.029 A 
ATOM     28  N   UNL A   1      44.702  29.541  32.086  1.00  0.00    -0.354 N 
ATOM     29  N   UNL A   1      44.882  28.171  27.976  1.00  0.00    -0.248 NA
ATOM     30  C   UNL A   1      44.471  26.326  29.339  1.00  0.00     0.031 C 
ATOM     31  C   UNL A   1      44.336  31.583  31.423  1.00  0.00     0.029 A 
ATOM     32  C   UNL A   1      44.803  30.345  30.977  1.00  0.00     0.049 A 
ATOM     33  H   UNL A   1      45.293  28.791  32.323  1.00  0.00     0.167 HD
ATOM     34  C   UNL A   1      45.117  28.554  29.288  1.00  0.00     0.074 A 
ATOM     35  C   UNL A   1      44.964  27.330  30.067  1.00  0.00     0.031 C 
ATOM     36  C   UNL A   1      45.149  29.870  29.652  1.00  0.00     0.037 A 
BRANCH  23  37
ATOM     37  C   UNL A   1      43.057  27.969  34.313  1.00  0.00     0.058 A 
ATOM     38  C   UNL A   1      43.189  28.322  35.671  1.00  0.00     0.135 A 
ATOM     39  C   UNL A   1      43.528  26.684  33.966  1.00  0.00     0.135 A 
ATOM     40  F   UNL A   1      42.799  29.532  36.102  1.00  0.00    -0.206 F 
ATOM     41  C   UNL A   1      43.776  27.473  36.610  1.00  0.00     0.059 A 
ATOM     42  C   UNL A   1      44.070  25.801  34.895  1.00  0.00     0.059 A 
ATOM     43  F   UNL A   1      43.562  26.269  32.692  1.00  0.00    -0.206 F 
ATOM     44  C   UNL A   1      44.224  26.216  36.208  1.00  0.00     0.060 A 
BRANCH  44  45
ATOM     45  S   UNL A   1      45.065  25.153  37.397  1.00  0.00     0.124 S 
ATOM     46  O   UNL A   1      44.855  23.836  36.806  1.00  0.00    -0.237 OA
ATOM     47  O   UNL A   1      46.431  25.663  37.354  1.00  0.00    -0.237 OA
ATOM     48  O   UNL A   1      44.346  25.411  38.641  1.00  0.00    -0.744 OA
ENDBRANCH  44  45
ENDBRANCH  23  37
BRANCH  24  49
ATOM     49  C   UNL A   1      43.428  25.220  26.377  1.00  0.00     0.058 A 
ATOM     50  C   UNL A   1      44.359  25.082  25.333  1.00  0.00     0.135 A 
ATOM     51  C   UNL A   1      42.856  24.027  26.866  1.00  0.00     0.135 A 
ATOM     52  F   UNL A   1      44.968  26.163  24.823  1.00  0.00    -0.206 F 
ATOM     53  C   UNL A   1      44.743  23.832  24.840  1.00  0.00     0.059 A 
ATOM     54  C   UNL A   1      43.214  22.771  26.382  1.00  0.00     0.059 A 
ATOM     55  F   UNL A   1      42.002  24.043  27.900  1.00  0.00    -0.206 F 
ATOM     56  C   UNL A   1      44.180  22.679  25.387  1.00  0.00     0.060 A 
BRANCH  56  57
ATOM     57  S   UNL A   1      44.813  21.061  24.889  1.00  0.00     0.124 S 
ATOM     58  O   UNL A   1      43.891  20.156  25.565  1.00  0.00    -0.237 OA
ATOM     59  O   UNL A   1      44.699  21.120  23.435  1.00  0.00    -0.237 OA
ATOM     60  O   UNL A   1      46.180  21.060  25.403  1.00  0.00    -0.744 OA
ENDBRANCH  56  57
ENDBRANCH  24  49
BRANCH  36  61
ATOM     61  C   UNL A   1      45.270  30.909  28.563  1.00  0.00     0.058 A 
ATOM     62  C   UNL A   1      44.176  31.447  27.862  1.00  0.00     0.135 A 
ATOM     63  C   UNL A   1      46.525  31.489  28.322  1.00  0.00     0.135 A 
ATOM     64  F   UNL A   1      42.927  31.031  28.109  1.00  0.00    -0.206 F 
ATOM     65  C   UNL A   1      44.329  32.478  26.934  1.00  0.00     0.059 A 
ATOM     66  C   UNL A   1      46.697  32.544  27.427  1.00  0.00     0.059 A 
ATOM     67  F   UNL A   1      47.604  31.068  29.005  1.00  0.00    -0.206 F 
ATOM     68  C   UNL A   1      45.593  33.025  26.725  1.00  0.00     0.060 A 
BRANCH  68  69
ATOM     69  S   UNL A   1      45.767  34.430  25.603  1.00  0.00     0.124 S 
ATOM     70  O   UNL A   1      47.203  34.443  25.346  1.00  0.00    -0.237 OA
ATOM     71  O   UNL A   1      44.925  34.042  24.473  1.00  0.00    -0.237 OA
ATOM     72  O   UNL A   1      45.261  35.556  26.385  1.00  0.00    -0.744 OA
ENDBRANCH  68  69
ENDBRANCH  36  61
ENDBRANCH  10  11
ENDBRANCH   3   5
ENDBRANCH   2   3
ENDBRANCH   1   2
BRANCH   1  73
ATOM     73  C   UNL A   1      34.549  33.078  32.253  1.00  0.00     0.275 C 
BRANCH  73  74
ATOM     74  O   UNL A   1      35.663  32.253  32.651  1.00  0.00    -0.458 OA
BRANCH  74  75
ATOM     75  C   UNL A   1      36.491  32.707  33.640  1.00  0.00     0.343 C 
ATOM     76  O   UNL A   1      36.108  33.312  34.644  1.00  0.00    -0.246 OA
BRANCH  75  77
ATOM     77  C   UNL A   1      37.883  32.540  33.288  1.00  0.00     0.121 A 
ATOM     78  C   UNL A   1      38.984  31.782  33.791  1.00  0.00     0.082 A 
ATOM     79  C   UNL A   1      38.486  33.352  32.341  1.00  0.00     0.147 A 
ATOM     80  N   UNL A   1      40.096  31.979  33.062  1.00  0.00    -0.170 NA
ATOM     81  N   UNL A   1      39.819  33.045  32.286  1.00  0.00    -0.221 N 
ATOM     82  Cl  UNL A   1      37.829  34.584  31.343  1.00  0.00    -0.061 Cl
BRANCH  78  83
ATOM     83  C   UNL A   1      39.192  30.884  35.015  1.00  0.00     0.041 C 
ATOM     84  C   UNL A   1      39.575  31.443  36.365  1.00  0.00     0.011 C 
ATOM     85  C   UNL A   1      38.282  30.725  36.201  1.00  0.00     0.011 C 
ENDBRANCH  78  83
BRANCH  81  86
ATOM     86  C   UNL A   1      40.889  33.755  31.688  1.00  0.00     0.069 A 
ATOM     87  C   UNL A   1      41.179  33.547  30.332  1.00  0.00     0.030 A 
ATOM     88  C   UNL A   1      41.689  34.607  32.458  1.00  0.00     0.069 A 
ATOM     89  C   UNL A   1      42.227  34.253  29.732  1.00  0.00     0.026 A 
ATOM     90  C   UNL A   1      42.753  35.271  31.857  1.00  0.00     0.143 A 
ATOM     91  C   UNL A   1      43.015  35.115  30.497  1.00  0.00     0.076 A 
ATOM     92  F   UNL A   1      43.529  36.056  32.620  1.00  0.00    -0.205 F 
ATOM     93  Cl  UNL A   1      44.311  35.971  29.756  1.00  0.00    -0.081 Cl
ENDBRANCH  81  86
ENDBRANCH  75  77
ENDBRANCH  74  75
ENDBRANCH  73  74
ENDBRANCH   1  73
TORSDOF 16
ENDMDL
MODEL 3
REMARK VINA RESULT:     -10.1      4.659      7.223
REMARK SMILES O=C(OCCOC(=O)c1c(C2CC2)nn(-c2ccc(Cl)c(F)c2)c1Cl)c1ccc(-c2c3nc(c(-c4c(F)cc(S(=O)(=O)[O-])cc4F)c4ccc([nH]4)c(-c4c(F)cc(S(=O)(=O)[O-])cc4F)c4nc(c(-c5c(F)cc(S(=O)(=O)[O-])cc5F)c5ccc2[nH]5)C=C4)C=C3)cc1
REMARK SMILES IDX 4 1 3 2 2 3 1 4 26 5 27 6 91 7 28 8 90 9 29 10 30 11 31 12
REMARK SMILES IDX 84 13 32 14 89 15 83 16 85 17 33 18 88 19 82 20 81 21 34 23
REMARK SMILES IDX 68 24 47 25 67 26 48 27 51 28 66 29 86 30 49 31 50 32 65 34
REMARK SMILES IDX 87 35 52 36 35 37 36 38 45 39 37 40 38 41 44 42 46 43 39 44
REMARK SMILES IDX 40 45 41 46 42 47 43 48 69 49 70 50 79 51 71 52 72 53 78 54
REMARK SMILES IDX 80 55 73 56 74 57 75 58 76 59 77 60 53 61 54 62 63 63 55 64
REMARK SMILES IDX 56 65 62 66 64 67 57 68 58 69 59 70 60 71 61 72 5 73 6 74
REMARK SMILES IDX 7 75 8 76 9 77 10 78 24 79 14 80 15 81 25 82 11 83 12 84
REMARK SMILES IDX 13 85 16 86 17 87 23 88 18 89 21 90 19 91 22 92 20 93
REMARK H PARENT 85 22 51 33
REMARK Flexibility Score: inf
ROOT
ATOM      1  C   UNL A   1      37.944  22.041  25.922  1.00  0.00     0.275 C 
ENDROOT
BRANCH   1   2
ATOM      2  O   UNL A   1      39.296  22.528  25.867  1.00  0.00    -0.458 OA
BRANCH   2   3
ATOM      3  C   UNL A   1      40.035  22.427  26.986  1.00  0.00     0.338 C 
ATOM      4  O   UNL A   1      40.319  21.388  27.562  1.00  0.00    -0.246 OA
BRANCH   3   5
ATOM      5  C   UNL A   1      40.272  23.780  27.529  1.00  0.00     0.060 A 
ATOM      6  C   UNL A   1      41.397  24.118  28.284  1.00  0.00     0.016 A 
ATOM      7  C   UNL A   1      39.330  24.755  27.201  1.00  0.00     0.016 A 
ATOM      8  C   UNL A   1      41.536  25.420  28.757  1.00  0.00     0.010 A 
ATOM      9  C   UNL A   1      39.479  26.058  27.651  1.00  0.00     0.010 A 
ATOM     10  C   UNL A   1      40.561  26.380  28.463  1.00  0.00    -0.014 A 
BRANCH  10  11
ATOM     11  C   UNL A   1      40.681  27.717  29.030  1.00  0.00     0.031 A 
ATOM     12  C   UNL A   1      41.756  28.599  28.512  1.00  0.00     0.074 A 
ATOM     13  C   UNL A   1      39.786  28.237  29.892  1.00  0.00     0.049 A 
ATOM     14  N   UNL A   1      42.825  28.993  29.123  1.00  0.00    -0.248 NA
ATOM     15  C   UNL A   1      41.635  29.091  27.133  1.00  0.00     0.031 C 
ATOM     16  C   UNL A   1      38.463  27.725  30.257  1.00  0.00     0.029 A 
ATOM     17  N   UNL A   1      39.874  29.409  30.585  1.00  0.00    -0.354 N 
ATOM     18  C   UNL A   1      43.429  29.928  28.285  1.00  0.00     0.074 A 
ATOM     19  C   UNL A   1      42.716  29.866  27.031  1.00  0.00     0.031 C 
ATOM     20  C   UNL A   1      37.807  28.663  30.979  1.00  0.00     0.029 A 
ATOM     21  C   UNL A   1      38.713  29.768  31.251  1.00  0.00     0.049 A 
ATOM     22  H   UNL A   1      40.693  29.954  30.609  1.00  0.00     0.167 HD
ATOM     23  C   UNL A   1      44.368  30.809  28.731  1.00  0.00     0.037 A 
ATOM     24  C   UNL A   1      38.508  30.904  31.959  1.00  0.00     0.037 A 
ATOM     25  C   UNL A   1      44.883  30.443  30.024  1.00  0.00     0.049 A 
ATOM     26  C   UNL A   1      39.836  31.437  32.353  1.00  0.00     0.074 A 
ATOM     27  C   UNL A   1      45.537  29.337  30.532  1.00  0.00     0.029 A 
ATOM     28  N   UNL A   1      44.443  31.144  31.121  1.00  0.00    -0.354 N 
ATOM     29  N   UNL A   1      40.646  30.854  33.195  1.00  0.00    -0.248 NA
ATOM     30  C   UNL A   1      40.442  32.473  31.531  1.00  0.00     0.031 C 
ATOM     31  C   UNL A   1      45.031  29.180  31.856  1.00  0.00     0.029 A 
ATOM     32  C   UNL A   1      44.124  30.217  32.084  1.00  0.00     0.049 A 
ATOM     33  H   UNL A   1      44.370  32.122  31.201  1.00  0.00     0.167 HD
ATOM     34  C   UNL A   1      41.920  31.153  32.738  1.00  0.00     0.074 A 
ATOM     35  C   UNL A   1      41.732  32.251  31.796  1.00  0.00     0.031 C 
ATOM     36  C   UNL A   1      42.973  30.312  32.960  1.00  0.00     0.037 A 
BRANCH  23  37
ATOM     37  C   UNL A   1      44.641  32.156  28.109  1.00  0.00     0.058 A 
ATOM     38  C   UNL A   1      45.875  32.411  27.478  1.00  0.00     0.135 A 
ATOM     39  C   UNL A   1      43.818  33.283  28.323  1.00  0.00     0.135 A 
ATOM     40  F   UNL A   1      46.746  31.414  27.253  1.00  0.00    -0.206 F 
ATOM     41  C   UNL A   1      46.276  33.698  27.113  1.00  0.00     0.059 A 
ATOM     42  C   UNL A   1      44.175  34.567  27.923  1.00  0.00     0.059 A 
ATOM     43  F   UNL A   1      42.671  33.194  29.011  1.00  0.00    -0.206 F 
ATOM     44  C   UNL A   1      45.421  34.772  27.351  1.00  0.00     0.060 A 
BRANCH  44  45
ATOM     45  S   UNL A   1      45.972  36.445  26.966  1.00  0.00     0.124 S 
ATOM     46  O   UNL A   1      46.738  36.224  25.746  1.00  0.00    -0.237 OA
ATOM     47  O   UNL A   1      44.708  37.156  26.808  1.00  0.00    -0.237 OA
ATOM     48  O   UNL A   1      46.749  36.819  28.144  1.00  0.00    -0.744 OA
ENDBRANCH  44  45
ENDBRANCH  23  37
BRANCH  24  49
ATOM     49  C   UNL A   1      37.257  31.688  32.100  1.00  0.00     0.058 A 
ATOM     50  C   UNL A   1      36.778  32.081  33.362  1.00  0.00     0.135 A 
ATOM     51  C   UNL A   1      36.659  32.309  30.984  1.00  0.00     0.135 A 
ATOM     52  F   UNL A   1      37.307  31.556  34.478  1.00  0.00    -0.206 F 
ATOM     53  C   UNL A   1      35.802  33.069  33.512  1.00  0.00     0.059 A 
ATOM     54  C   UNL A   1      35.676  33.288  31.109  1.00  0.00     0.059 A 
ATOM     55  F   UNL A   1      37.084  32.050  29.738  1.00  0.00    -0.206 F 
ATOM     56  C   UNL A   1      35.272  33.684  32.378  1.00  0.00     0.060 A 
BRANCH  56  57
ATOM     57  S   UNL A   1      34.156  35.093  32.573  1.00  0.00     0.124 S 
ATOM     58  O   UNL A   1      32.919  34.442  32.985  1.00  0.00    -0.237 OA
ATOM     59  O   UNL A   1      34.834  35.883  33.597  1.00  0.00    -0.237 OA
ATOM     60  O   UNL A   1      34.134  35.693  31.242  1.00  0.00    -0.744 OA
ENDBRANCH  56  57
ENDBRANCH  24  49
BRANCH  36  61
ATOM     61  C   UNL A   1      42.814  29.227  33.999  1.00  0.00     0.058 A 
ATOM     62  C   UNL A   1      43.087  29.401  35.368  1.00  0.00     0.135 A 
ATOM     63  C   UNL A   1      42.223  28.012  33.619  1.00  0.00     0.135 A 
ATOM     64  F   UNL A   1      43.547  30.568  35.836  1.00  0.00    -0.206 F 
ATOM     65  C   UNL A   1      42.829  28.399  36.304  1.00  0.00     0.059 A 
ATOM     66  C   UNL A   1      41.924  27.011  34.542  1.00  0.00     0.059 A 
ATOM     67  F   UNL A   1      41.877  27.804  32.336  1.00  0.00    -0.206 F 
ATOM     68  C   UNL A   1      42.242  27.208  35.884  1.00  0.00     0.060 A 
BRANCH  68  69
ATOM     69  S   UNL A   1      41.813  25.958  37.116  1.00  0.00     0.124 S 
ATOM     70  O   UNL A   1      40.445  26.327  37.465  1.00  0.00    -0.237 OA
ATOM     71  O   UNL A   1      41.961  24.710  36.370  1.00  0.00    -0.237 OA
ATOM     72  O   UNL A   1      42.805  26.163  38.169  1.00  0.00    -0.744 OA
ENDBRANCH  68  69
ENDBRANCH  36  61
ENDBRANCH  10  11
ENDBRANCH   3   5
ENDBRANCH   2   3
ENDBRANCH   1   2
BRANCH   1  73
ATOM     73  C   UNL A   1      37.074  22.162  24.659  1.00  0.00     0.275 C 
BRANCH  73  74
ATOM     74  O   UNL A   1      36.350  23.408  24.672  1.00  0.00    -0.458 OA
BRANCH  74  75
ATOM     75  C   UNL A   1      35.287  23.555  23.824  1.00  0.00     0.343 C 
ATOM     76  O   UNL A   1      35.276  23.177  22.650  1.00  0.00    -0.246 OA
BRANCH  75  77
ATOM     77  C   UNL A   1      34.238  24.354  24.417  1.00  0.00     0.121 A 
ATOM     78  C   UNL A   1      33.562  24.389  25.674  1.00  0.00     0.082 A 
ATOM     79  C   UNL A   1      33.510  25.258  23.660  1.00  0.00     0.147 A 
ATOM     80  N   UNL A   1      32.650  25.375  25.719  1.00  0.00    -0.170 NA
ATOM     81  N   UNL A   1      32.523  25.792  24.444  1.00  0.00    -0.221 N 
ATOM     82  Cl  UNL A   1      33.672  25.725  22.016  1.00  0.00    -0.061 Cl
BRANCH  78  83
ATOM     83  C   UNL A   1      33.583  23.502  26.924  1.00  0.00     0.041 C 
ATOM     84  C   UNL A   1      32.863  22.176  26.979  1.00  0.00     0.011 C 
ATOM     85  C   UNL A   1      34.343  22.222  27.126  1.00  0.00     0.011 C 
ENDBRANCH  78  83
BRANCH  81  86
ATOM     86  C   UNL A   1      31.377  26.540  24.077  1.00  0.00     0.069 A 
ATOM     87  C   UNL A   1      31.531  27.865  23.647  1.00  0.00     0.030 A 
ATOM     88  C   UNL A   1      30.100  25.981  24.202  1.00  0.00     0.069 A 
ATOM     89  C   UNL A   1      30.405  28.605  23.271  1.00  0.00     0.026 A 
ATOM     90  C   UNL A   1      28.987  26.743  23.864  1.00  0.00     0.143 A 
ATOM     91  C   UNL A   1      29.132  28.043  23.382  1.00  0.00     0.076 A 
ATOM     92  F   UNL A   1      27.769  26.202  24.024  1.00  0.00    -0.205 F 
ATOM     93  Cl  UNL A   1      27.750  28.964  22.931  1.00  0.00    -0.081 Cl
ENDBRANCH  81  86
ENDBRANCH  75  77
ENDBRANCH  74  75
ENDBRANCH  73  74
ENDBRANCH   1  73
TORSDOF 16
ENDMDL
