MODEL 1
REMARK VINA RESULT:     -10.0      0.000      0.000
REMARK SMILES COCC[N@H+](C)[C@H](C(=O)OCCOC(=O)c1ccc(-c2c3nc(c(-c4c(F)cc(S(=O)(=O)[O-])cc4F)c4ccc([nH]4)c(-c4c(F)cc(S(=O)(=O)[O-])cc4F)c4nc(c(-c5c(F)cc(S(=O)(=O)[O-])cc5F)c5ccc2[nH]5)C=C4)C=C3)cc1)c1ccc(OC)nc1
REMARK SMILES IDX 11 1 10 2 8 3 9 4 7 5 5 6 6 7 4 9 3 10 2 11 1 12 82 13 83 14
REMARK SMILES IDX 89 15 84 16 88 17 85 18 86 19 87 20 12 21 13 22 14 23 15 24
REMARK SMILES IDX 16 25 17 26 81 27 18 28 80 29 19 30 20 31 21 32 74 33 22 34
REMARK SMILES IDX 79 35 73 36 75 37 23 38 78 39 72 40 71 41 24 43 58 44 37 45
REMARK SMILES IDX 57 46 38 47 41 48 56 49 76 50 39 51 40 52 55 54 77 55 42 56
REMARK SMILES IDX 25 57 26 58 35 59 27 60 28 61 34 62 36 63 29 64 30 65 31 66
REMARK SMILES IDX 32 67 33 68 59 69 60 70 69 71 61 72 62 73 68 74 70 75 63 76
REMARK SMILES IDX 64 77 65 78 66 79 67 80 43 81 44 82 53 83 45 84 46 85 52 86
REMARK SMILES IDX 54 87 47 88 48 89 49 90 50 91 51 92
REMARK H PARENT 5 8 75 42 41 53
REMARK Flexibility Score: inf
ROOT
ATOM      1  C   UNL A   1      34.133  29.622  26.781  1.00  0.00     0.274 C 
ENDROOT
BRANCH   1   2
ATOM      2  O   UNL A   1      33.863  28.412  26.048  1.00  0.00    -0.457 OA
BRANCH   2   3
ATOM      3  C   UNL A   1      32.541  28.121  25.854  1.00  0.00     0.370 C 
ATOM      4  O   UNL A   1      31.654  28.517  26.605  1.00  0.00    -0.245 OA
BRANCH   3   5
ATOM      5  C   UNL A   1      32.291  27.333  24.531  1.00  0.00     0.327 C 
BRANCH   5   6
ATOM      6  N   UNL A   1      32.155  25.865  24.763  1.00  0.00    -0.320 N 
ATOM      7  C   UNL A   1      32.957  25.057  23.847  1.00  0.00     0.333 C 
ATOM      8  H   UNL A   1      31.171  25.690  24.562  1.00  0.00     0.348 HD
BRANCH   6   9
ATOM      9  C   UNL A   1      32.388  25.438  26.160  1.00  0.00     0.291 C 
BRANCH   9  10
ATOM     10  C   UNL A   1      32.049  23.977  26.530  1.00  0.00     0.221 C 
BRANCH  10  11
ATOM     11  O   UNL A   1      30.842  23.852  27.284  1.00  0.00    -0.379 OA
ATOM     12  C   UNL A   1      30.063  22.726  26.902  1.00  0.00     0.195 C 
ENDBRANCH  10  11
ENDBRANCH   9  10
ENDBRANCH   6   9
ENDBRANCH   5   6
BRANCH   5  13
ATOM     13  C   UNL A   1      31.189  27.960  23.682  1.00  0.00     0.039 A 
ATOM     14  C   UNL A   1      29.838  27.626  23.815  1.00  0.00     0.018 A 
ATOM     15  C   UNL A   1      31.487  28.930  22.731  1.00  0.00     0.125 A 
ATOM     16  C   UNL A   1      28.871  28.266  23.040  1.00  0.00     0.069 A 
ATOM     17  N   UNL A   1      30.572  29.543  21.948  1.00  0.00    -0.222 NA
ATOM     18  C   UNL A   1      29.274  29.217  22.115  1.00  0.00     0.212 A 
BRANCH  18  19
ATOM     19  O   UNL A   1      28.444  29.902  21.277  1.00  0.00    -0.481 OA
ATOM     20  C   UNL A   1      28.159  31.253  21.611  1.00  0.00     0.280 C 
ENDBRANCH  18  19
ENDBRANCH   5  13
ENDBRANCH   3   5
ENDBRANCH   2   3
ENDBRANCH   1   2
BRANCH   1  21
ATOM     21  C   UNL A   1      35.093  29.385  27.953  1.00  0.00     0.275 C 
BRANCH  21  22
ATOM     22  O   UNL A   1      35.724  30.597  28.411  1.00  0.00    -0.458 OA
BRANCH  22  23
ATOM     23  C   UNL A   1      36.377  30.491  29.592  1.00  0.00     0.338 C 
ATOM     24  O   UNL A   1      35.878  30.510  30.706  1.00  0.00    -0.246 OA
BRANCH  23  25
ATOM     25  C   UNL A   1      37.802  30.192  29.372  1.00  0.00     0.060 A 
ATOM     26  C   UNL A   1      38.232  30.018  28.053  1.00  0.00     0.016 A 
ATOM     27  C   UNL A   1      38.688  30.007  30.434  1.00  0.00     0.016 A 
ATOM     28  C   UNL A   1      39.547  29.656  27.782  1.00  0.00     0.010 A 
ATOM     29  C   UNL A   1      40.009  29.637  30.162  1.00  0.00     0.010 A 
ATOM     30  C   UNL A   1      40.441  29.450  28.837  1.00  0.00    -0.014 A 
BRANCH  30  31
ATOM     31  C   UNL A   1      41.820  28.987  28.554  1.00  0.00     0.031 A 
ATOM     32  C   UNL A   1      42.946  29.978  28.541  1.00  0.00     0.074 A 
ATOM     33  C   UNL A   1      42.052  27.686  28.306  1.00  0.00     0.049 A 
ATOM     34  N   UNL A   1      44.197  29.804  28.205  1.00  0.00    -0.248 NA
ATOM     35  C   UNL A   1      42.618  31.351  28.957  1.00  0.00     0.031 C 
ATOM     36  C   UNL A   1      41.039  26.630  28.336  1.00  0.00     0.029 A 
ATOM     37  N   UNL A   1      43.208  27.036  27.959  1.00  0.00    -0.354 N 
ATOM     38  C   UNL A   1      44.804  31.045  28.346  1.00  0.00     0.074 A 
ATOM     39  C   UNL A   1      43.779  31.969  28.785  1.00  0.00     0.031 C 
ATOM     40  C   UNL A   1      41.615  25.465  27.995  1.00  0.00     0.029 A 
ATOM     41  C   UNL A   1      43.022  25.703  27.683  1.00  0.00     0.049 A 
ATOM     42  H   UNL A   1      44.085  27.480  27.912  1.00  0.00     0.167 HD
ATOM     43  C   UNL A   1      46.098  31.381  28.125  1.00  0.00     0.037 A 
ATOM     44  C   UNL A   1      43.880  24.785  27.195  1.00  0.00     0.037 A 
ATOM     45  C   UNL A   1      47.108  30.448  27.698  1.00  0.00     0.049 A 
ATOM     46  C   UNL A   1      45.301  25.189  26.911  1.00  0.00     0.074 A 
ATOM     47  C   UNL A   1      48.453  30.680  27.472  1.00  0.00     0.029 A 
ATOM     48  N   UNL A   1      46.882  29.106  27.425  1.00  0.00    -0.354 N 
ATOM     49  N   UNL A   1      45.868  26.363  27.057  1.00  0.00    -0.248 NA
ATOM     50  C   UNL A   1      46.199  24.148  26.392  1.00  0.00     0.031 C 
ATOM     51  C   UNL A   1      49.032  29.489  27.019  1.00  0.00     0.029 A 
ATOM     52  C   UNL A   1      48.057  28.502  27.007  1.00  0.00     0.049 A 
ATOM     53  H   UNL A   1      46.014  28.649  27.514  1.00  0.00     0.167 HD
ATOM     54  C   UNL A   1      47.192  26.199  26.669  1.00  0.00     0.074 A 
ATOM     55  C   UNL A   1      47.345  24.810  26.287  1.00  0.00     0.031 C 
ATOM     56  C   UNL A   1      48.191  27.115  26.634  1.00  0.00     0.037 A 
BRANCH  43  57
ATOM     57  C   UNL A   1      46.479  32.824  28.300  1.00  0.00     0.058 A 
ATOM     58  C   UNL A   1      46.955  33.324  29.522  1.00  0.00     0.135 A 
ATOM     59  C   UNL A   1      46.374  33.718  27.223  1.00  0.00     0.135 A 
ATOM     60  F   UNL A   1      47.061  32.516  30.589  1.00  0.00    -0.206 F 
ATOM     61  C   UNL A   1      47.283  34.668  29.679  1.00  0.00     0.059 A 
ATOM     62  C   UNL A   1      46.719  35.061  27.350  1.00  0.00     0.059 A 
ATOM     63  F   UNL A   1      45.923  33.293  26.032  1.00  0.00    -0.206 F 
ATOM     64  C   UNL A   1      47.154  35.529  28.588  1.00  0.00     0.060 A 
BRANCH  64  65
ATOM     65  S   UNL A   1      47.560  37.275  28.810  1.00  0.00     0.124 S 
ATOM     66  O   UNL A   1      46.330  37.785  29.408  1.00  0.00    -0.237 OA
ATOM     67  O   UNL A   1      48.718  37.219  29.695  1.00  0.00    -0.237 OA
ATOM     68  O   UNL A   1      47.835  37.736  27.452  1.00  0.00    -0.744 OA
ENDBRANCH  64  65
ENDBRANCH  43  57
BRANCH  44  69
ATOM     69  C   UNL A   1      43.398  23.407  26.919  1.00  0.00     0.058 A 
ATOM     70  C   UNL A   1      43.153  22.969  25.611  1.00  0.00     0.135 A 
ATOM     71  C   UNL A   1      43.213  22.486  27.964  1.00  0.00     0.135 A 
ATOM     72  F   UNL A   1      43.306  23.816  24.581  1.00  0.00    -0.206 F 
ATOM     73  C   UNL A   1      42.744  21.666  25.345  1.00  0.00     0.059 A 
ATOM     74  C   UNL A   1      42.827  21.172  27.721  1.00  0.00     0.059 A 
ATOM     75  F   UNL A   1      43.443  22.853  29.234  1.00  0.00    -0.206 F 
ATOM     76  C   UNL A   1      42.591  20.772  26.407  1.00  0.00     0.060 A 
BRANCH  76  77
ATOM     77  S   UNL A   1      42.137  19.063  26.044  1.00  0.00     0.124 S 
ATOM     78  O   UNL A   1      40.699  19.179  25.831  1.00  0.00    -0.237 OA
ATOM     79  O   UNL A   1      42.938  18.776  24.858  1.00  0.00    -0.237 OA
ATOM     80  O   UNL A   1      42.541  18.345  27.249  1.00  0.00    -0.744 OA
ENDBRANCH  76  77
ENDBRANCH  44  69
BRANCH  56  81
ATOM     81  C   UNL A   1      49.549  26.647  26.192  1.00  0.00     0.058 A 
ATOM     82  C   UNL A   1      50.000  26.840  24.877  1.00  0.00     0.135 A 
ATOM     83  C   UNL A   1      50.437  26.071  27.114  1.00  0.00     0.135 A 
ATOM     84  F   UNL A   1      49.187  27.379  23.954  1.00  0.00    -0.206 F 
ATOM     85  C   UNL A   1      51.286  26.471  24.491  1.00  0.00     0.059 A 
ATOM     86  C   UNL A   1      51.733  25.716  26.756  1.00  0.00     0.059 A 
ATOM     87  F   UNL A   1      50.054  25.873  28.386  1.00  0.00    -0.206 F 
ATOM     88  C   UNL A   1      52.146  25.915  25.439  1.00  0.00     0.060 A 
BRANCH  88  89
ATOM     89  S   UNL A   1      53.830  25.496  24.941  1.00  0.00     0.124 S 
ATOM     90  O   UNL A   1      54.617  26.162  25.975  1.00  0.00    -0.237 OA
ATOM     91  O   UNL A   1      53.820  24.038  24.993  1.00  0.00    -0.237 OA
ATOM     92  O   UNL A   1      53.941  26.068  23.602  1.00  0.00    -0.744 OA
ENDBRANCH  88  89
ENDBRANCH  56  81
ENDBRANCH  30  31
ENDBRANCH  23  25
ENDBRANCH  22  23
ENDBRANCH  21  22
ENDBRANCH   1  21
TORSDOF 20
ENDMDL
MODEL 2
REMARK VINA RESULT:     -10.0      1.024      3.237
REMARK SMILES COCC[N@H+](C)[C@H](C(=O)OCCOC(=O)c1ccc(-c2c3nc(c(-c4c(F)cc(S(=O)(=O)[O-])cc4F)c4ccc([nH]4)c(-c4c(F)cc(S(=O)(=O)[O-])cc4F)c4nc(c(-c5c(F)cc(S(=O)(=O)[O-])cc5F)c5ccc2[nH]5)C=C4)C=C3)cc1)c1ccc(OC)nc1
REMARK SMILES IDX 11 1 10 2 8 3 9 4 7 5 5 6 6 7 4 9 3 10 2 11 1 12 82 13 83 14
REMARK SMILES IDX 89 15 84 16 88 17 85 18 86 19 87 20 12 21 13 22 14 23 15 24
REMARK SMILES IDX 16 25 17 26 81 27 18 28 80 29 19 30 20 31 21 32 74 33 22 34
REMARK SMILES IDX 79 35 73 36 75 37 23 38 78 39 72 40 71 41 24 43 58 44 37 45
REMARK SMILES IDX 57 46 38 47 41 48 56 49 76 50 39 51 40 52 55 54 77 55 42 56
REMARK SMILES IDX 25 57 26 58 35 59 27 60 28 61 34 62 36 63 29 64 30 65 31 66
REMARK SMILES IDX 32 67 33 68 59 69 60 70 69 71 61 72 62 73 68 74 70 75 63 76
REMARK SMILES IDX 64 77 65 78 66 79 67 80 43 81 44 82 53 83 45 84 46 85 52 86
REMARK SMILES IDX 54 87 47 88 48 89 49 90 50 91 51 92
REMARK H PARENT 5 8 75 42 41 53
REMARK Flexibility Score: inf
ROOT
ATOM      1  C   UNL A   1      33.222  30.148  27.116  1.00  0.00     0.274 C 
ENDROOT
BRANCH   1   2
ATOM      2  O   UNL A   1      33.398  28.796  26.651  1.00  0.00    -0.457 OA
BRANCH   2   3
ATOM      3  C   UNL A   1      33.048  28.570  25.349  1.00  0.00     0.370 C 
ATOM      4  O   UNL A   1      33.469  29.248  24.417  1.00  0.00    -0.245 OA
BRANCH   3   5
ATOM      5  C   UNL A   1      32.153  27.301  25.183  1.00  0.00     0.327 C 
BRANCH   5   6
ATOM      6  N   UNL A   1      31.365  27.325  23.915  1.00  0.00    -0.320 N 
ATOM      7  C   UNL A   1      30.992  25.995  23.441  1.00  0.00     0.333 C 
ATOM      8  H   UNL A   1      32.019  27.730  23.245  1.00  0.00     0.348 HD
BRANCH   6   9
ATOM      9  C   UNL A   1      30.181  28.211  23.943  1.00  0.00     0.291 C 
BRANCH   9  10
ATOM     10  C   UNL A   1      30.266  29.546  23.171  1.00  0.00     0.221 C 
BRANCH  10  11
ATOM     11  O   UNL A   1      29.718  29.472  21.854  1.00  0.00    -0.379 OA
ATOM     12  C   UNL A   1      28.342  29.824  21.804  1.00  0.00     0.195 C 
ENDBRANCH  10  11
ENDBRANCH   9  10
ENDBRANCH   6   9
ENDBRANCH   5   6
BRANCH   5  13
ATOM     13  C   UNL A   1      32.924  26.011  25.443  1.00  0.00     0.039 A 
ATOM     14  C   UNL A   1      34.163  25.728  24.859  1.00  0.00     0.018 A 
ATOM     15  C   UNL A   1      32.425  25.045  26.310  1.00  0.00     0.125 A 
ATOM     16  C   UNL A   1      34.840  24.550  25.170  1.00  0.00     0.069 A 
ATOM     17  N   UNL A   1      33.048  23.883  26.604  1.00  0.00    -0.222 NA
ATOM     18  C   UNL A   1      34.252  23.649  26.044  1.00  0.00     0.212 A 
BRANCH  18  19
ATOM     19  O   UNL A   1      34.786  22.450  26.418  1.00  0.00    -0.481 OA
ATOM     20  C   UNL A   1      33.890  21.473  26.926  1.00  0.00     0.280 C 
ENDBRANCH  18  19
ENDBRANCH   5  13
ENDBRANCH   3   5
ENDBRANCH   2   3
ENDBRANCH   1   2
BRANCH   1  21
ATOM     21  C   UNL A   1      34.541  30.774  27.585  1.00  0.00     0.275 C 
BRANCH  21  22
ATOM     22  O   UNL A   1      35.270  29.925  28.492  1.00  0.00    -0.458 OA
BRANCH  22  23
ATOM     23  C   UNL A   1      36.201  30.558  29.245  1.00  0.00     0.338 C 
ATOM     24  O   UNL A   1      35.995  31.402  30.101  1.00  0.00    -0.246 OA
BRANCH  23  25
ATOM     25  C   UNL A   1      37.536  29.986  29.006  1.00  0.00     0.060 A 
ATOM     26  C   UNL A   1      38.357  29.768  30.117  1.00  0.00     0.016 A 
ATOM     27  C   UNL A   1      38.013  29.740  27.718  1.00  0.00     0.016 A 
ATOM     28  C   UNL A   1      39.658  29.305  29.953  1.00  0.00     0.010 A 
ATOM     29  C   UNL A   1      39.324  29.282  27.552  1.00  0.00     0.010 A 
ATOM     30  C   UNL A   1      40.155  29.072  28.667  1.00  0.00    -0.014 A 
BRANCH  30  31
ATOM     31  C   UNL A   1      41.564  28.656  28.486  1.00  0.00     0.031 A 
ATOM     32  C   UNL A   1      42.655  29.683  28.552  1.00  0.00     0.074 A 
ATOM     33  C   UNL A   1      41.857  27.363  28.257  1.00  0.00     0.049 A 
ATOM     34  N   UNL A   1      43.933  29.551  28.307  1.00  0.00    -0.248 NA
ATOM     35  C   UNL A   1      42.253  31.044  28.941  1.00  0.00     0.031 C 
ATOM     36  C   UNL A   1      40.880  26.274  28.216  1.00  0.00     0.029 A 
ATOM     37  N   UNL A   1      43.055  26.751  27.996  1.00  0.00    -0.354 N 
ATOM     38  C   UNL A   1      44.486  30.811  28.489  1.00  0.00     0.074 A 
ATOM     39  C   UNL A   1      43.402  31.700  28.852  1.00  0.00     0.031 C 
ATOM     40  C   UNL A   1      41.517  25.129  27.919  1.00  0.00     0.029 A 
ATOM     41  C   UNL A   1      42.935  25.413  27.709  1.00  0.00     0.049 A 
ATOM     42  H   UNL A   1      43.918  27.224  28.011  1.00  0.00     0.167 HD
ATOM     43  C   UNL A   1      45.780  31.190  28.361  1.00  0.00     0.037 A 
ATOM     44  C   UNL A   1      43.855  24.525  27.286  1.00  0.00     0.037 A 
ATOM     45  C   UNL A   1      46.849  30.291  28.010  1.00  0.00     0.049 A 
ATOM     46  C   UNL A   1      45.278  24.976  27.103  1.00  0.00     0.074 A 
ATOM     47  C   UNL A   1      48.199  30.568  27.881  1.00  0.00     0.029 A 
ATOM     48  N   UNL A   1      46.688  28.943  27.723  1.00  0.00    -0.354 N 
ATOM     49  N   UNL A   1      45.794  26.168  27.288  1.00  0.00    -0.248 NA
ATOM     50  C   UNL A   1      46.246  23.966  26.652  1.00  0.00     0.031 C 
ATOM     51  C   UNL A   1      48.848  29.397  27.473  1.00  0.00     0.029 A 
ATOM     52  C   UNL A   1      47.910  28.379  27.392  1.00  0.00     0.049 A 
ATOM     53  H   UNL A   1      45.832  28.458  27.751  1.00  0.00     0.167 HD
ATOM     54  C   UNL A   1      47.148  26.048  26.996  1.00  0.00     0.074 A 
ATOM     55  C   UNL A   1      47.374  24.665  26.629  1.00  0.00     0.031 C 
ATOM     56  C   UNL A   1      48.116  26.997  27.032  1.00  0.00     0.037 A 
BRANCH  43  57
ATOM     57  C   UNL A   1      46.100  32.645  28.561  1.00  0.00     0.058 A 
ATOM     58  C   UNL A   1      46.088  33.562  27.499  1.00  0.00     0.135 A 
ATOM     59  C   UNL A   1      46.416  33.129  29.841  1.00  0.00     0.135 A 
ATOM     60  F   UNL A   1      45.809  33.150  26.252  1.00  0.00    -0.206 F 
ATOM     61  C   UNL A   1      46.409  34.903  27.693  1.00  0.00     0.059 A 
ATOM     62  C   UNL A   1      46.716  34.470  30.062  1.00  0.00     0.059 A 
ATOM     63  F   UNL A   1      46.443  32.294  30.892  1.00  0.00    -0.206 F 
ATOM     64  C   UNL A   1      46.729  35.345  28.978  1.00  0.00     0.060 A 
BRANCH  64  65
ATOM     65  S   UNL A   1      47.166  37.081  29.213  1.00  0.00     0.124 S 
ATOM     66  O   UNL A   1      45.951  37.605  29.830  1.00  0.00    -0.237 OA
ATOM     67  O   UNL A   1      48.332  36.997  30.086  1.00  0.00    -0.237 OA
ATOM     68  O   UNL A   1      47.434  37.551  27.858  1.00  0.00    -0.744 OA
ENDBRANCH  64  65
ENDBRANCH  43  57
BRANCH  44  69
ATOM     69  C   UNL A   1      43.440  23.132  26.978  1.00  0.00     0.058 A 
ATOM     70  C   UNL A   1      43.402  22.657  25.660  1.00  0.00     0.135 A 
ATOM     71  C   UNL A   1      43.112  22.234  28.008  1.00  0.00     0.135 A 
ATOM     72  F   UNL A   1      43.696  23.480  24.642  1.00  0.00    -0.206 F 
ATOM     73  C   UNL A   1      43.057  21.340  25.372  1.00  0.00     0.059 A 
ATOM     74  C   UNL A   1      42.787  20.908  27.746  1.00  0.00     0.059 A 
ATOM     75  F   UNL A   1      43.144  22.637  29.287  1.00  0.00    -0.206 F 
ATOM     76  C   UNL A   1      42.758  20.471  26.423  1.00  0.00     0.060 A 
BRANCH  76  77
ATOM     77  S   UNL A   1      42.389  18.745  26.043  1.00  0.00     0.124 S 
ATOM     78  O   UNL A   1      40.976  18.817  25.685  1.00  0.00    -0.237 OA
ATOM     79  O   UNL A   1      43.311  18.466  24.947  1.00  0.00    -0.237 OA
ATOM     80  O   UNL A   1      42.689  18.054  27.293  1.00  0.00    -0.744 OA
ENDBRANCH  76  77
ENDBRANCH  44  69
BRANCH  56  81
ATOM     81  C   UNL A   1      49.517  26.575  26.689  1.00  0.00     0.058 A 
ATOM     82  C   UNL A   1      50.420  26.156  27.679  1.00  0.00     0.135 A 
ATOM     83  C   UNL A   1      49.933  26.513  25.350  1.00  0.00     0.135 A 
ATOM     84  F   UNL A   1      50.074  26.203  28.975  1.00  0.00    -0.206 F 
ATOM     85  C   UNL A   1      51.692  25.696  27.350  1.00  0.00     0.059 A 
ATOM     86  C   UNL A   1      51.191  26.036  24.997  1.00  0.00     0.059 A 
ATOM     87  F   UNL A   1      49.102  26.896  24.366  1.00  0.00    -0.206 F 
ATOM     88  C   UNL A   1      52.066  25.635  26.007  1.00  0.00     0.060 A 
BRANCH  88  89
ATOM     89  S   UNL A   1      53.696  24.979  25.590  1.00  0.00     0.124 S 
ATOM     90  O   UNL A   1      54.413  25.151  26.850  1.00  0.00    -0.237 OA
ATOM     91  O   UNL A   1      53.394  23.602  25.215  1.00  0.00    -0.237 OA
ATOM     92  O   UNL A   1      54.138  25.837  24.494  1.00  0.00    -0.744 OA
ENDBRANCH  88  89
ENDBRANCH  56  81
ENDBRANCH  30  31
ENDBRANCH  23  25
ENDBRANCH  22  23
ENDBRANCH  21  22
ENDBRANCH   1  21
TORSDOF 20
ENDMDL
MODEL 3
REMARK VINA RESULT:      -9.9      2.906      4.381
REMARK SMILES COCC[N@H+](C)[C@H](C(=O)OCCOC(=O)c1ccc(-c2c3nc(c(-c4c(F)cc(S(=O)(=O)[O-])cc4F)c4ccc([nH]4)c(-c4c(F)cc(S(=O)(=O)[O-])cc4F)c4nc(c(-c5c(F)cc(S(=O)(=O)[O-])cc5F)c5ccc2[nH]5)C=C4)C=C3)cc1)c1ccc(OC)nc1
REMARK SMILES IDX 11 1 10 2 8 3 9 4 7 5 5 6 6 7 4 9 3 10 2 11 1 12 82 13 83 14
REMARK SMILES IDX 89 15 84 16 88 17 85 18 86 19 87 20 12 21 13 22 14 23 15 24
REMARK SMILES IDX 16 25 17 26 81 27 18 28 80 29 19 30 20 31 21 32 74 33 22 34
REMARK SMILES IDX 79 35 73 36 75 37 23 38 78 39 72 40 71 41 24 43 58 44 37 45
REMARK SMILES IDX 57 46 38 47 41 48 56 49 76 50 39 51 40 52 55 54 77 55 42 56
REMARK SMILES IDX 25 57 26 58 35 59 27 60 28 61 34 62 36 63 29 64 30 65 31 66
REMARK SMILES IDX 32 67 33 68 59 69 60 70 69 71 61 72 62 73 68 74 70 75 63 76
REMARK SMILES IDX 64 77 65 78 66 79 67 80 43 81 44 82 53 83 45 84 46 85 52 86
REMARK SMILES IDX 54 87 47 88 48 89 49 90 50 91 51 92
REMARK H PARENT 5 8 75 42 41 53
REMARK Flexibility Score: inf
ROOT
ATOM      1  C   UNL A   1      33.010  29.274  24.569  1.00  0.00     0.274 C 
ENDROOT
BRANCH   1   2
ATOM      2  O   UNL A   1      34.072  28.362  24.228  1.00  0.00    -0.457 OA
BRANCH   2   3
ATOM      3  C   UNL A   1      33.689  27.236  23.553  1.00  0.00     0.370 C 
ATOM      4  O   UNL A   1      33.773  27.128  22.334  1.00  0.00    -0.245 OA
BRANCH   3   5
ATOM      5  C   UNL A   1      33.246  26.087  24.513  1.00  0.00     0.327 C 
BRANCH   5   6
ATOM      6  N   UNL A   1      31.791  25.777  24.390  1.00  0.00    -0.320 N 
ATOM      7  C   UNL A   1      31.295  25.861  23.018  1.00  0.00     0.333 C 
ATOM      8  H   UNL A   1      31.350  26.518  24.934  1.00  0.00     0.348 HD
BRANCH   6   9
ATOM      9  C   UNL A   1      31.381  24.496  25.005  1.00  0.00     0.291 C 
BRANCH   9  10
ATOM     10  C   UNL A   1      30.413  24.555  26.208  1.00  0.00     0.221 C 
BRANCH  10  11
ATOM     11  O   UNL A   1      30.757  23.644  27.254  1.00  0.00    -0.379 OA
ATOM     12  C   UNL A   1      31.993  22.979  27.026  1.00  0.00     0.195 C 
ENDBRANCH  10  11
ENDBRANCH   9  10
ENDBRANCH   6   9
ENDBRANCH   5   6
BRANCH   5  13
ATOM     13  C   UNL A   1      34.175  24.879  24.439  1.00  0.00     0.039 A 
ATOM     14  C   UNL A   1      34.319  24.094  23.290  1.00  0.00     0.018 A 
ATOM     15  C   UNL A   1      34.953  24.511  25.531  1.00  0.00     0.125 A 
ATOM     16  C   UNL A   1      35.218  23.028  23.270  1.00  0.00     0.069 A 
ATOM     17  N   UNL A   1      35.808  23.465  25.545  1.00  0.00    -0.222 NA
ATOM     18  C   UNL A   1      35.943  22.740  24.416  1.00  0.00     0.212 A 
BRANCH  18  19
ATOM     19  O   UNL A   1      36.836  21.717  24.546  1.00  0.00    -0.481 OA
ATOM     20  C   UNL A   1      38.020  21.982  25.286  1.00  0.00     0.280 C 
ENDBRANCH  18  19
ENDBRANCH   5  13
ENDBRANCH   3   5
ENDBRANCH   2   3
ENDBRANCH   1   2
BRANCH   1  21
ATOM     21  C   UNL A   1      32.743  29.312  26.078  1.00  0.00     0.275 C 
BRANCH  21  22
ATOM     22  O   UNL A   1      33.925  29.055  26.860  1.00  0.00    -0.458 OA
BRANCH  22  23
ATOM     23  C   UNL A   1      34.355  30.100  27.607  1.00  0.00     0.338 C 
ATOM     24  O   UNL A   1      33.684  31.040  28.001  1.00  0.00    -0.246 OA
BRANCH  23  25
ATOM     25  C   UNL A   1      35.751  29.895  28.030  1.00  0.00     0.060 A 
ATOM     26  C   UNL A   1      36.748  30.017  27.058  1.00  0.00     0.016 A 
ATOM     27  C   UNL A   1      36.077  29.513  29.332  1.00  0.00     0.016 A 
ATOM     28  C   UNL A   1      38.078  29.757  27.375  1.00  0.00     0.010 A 
ATOM     29  C   UNL A   1      37.412  29.246  29.649  1.00  0.00     0.010 A 
ATOM     30  C   UNL A   1      38.416  29.357  28.670  1.00  0.00    -0.014 A 
BRANCH  30  31
ATOM     31  C   UNL A   1      39.819  29.003  28.990  1.00  0.00     0.031 A 
ATOM     32  C   UNL A   1      40.734  30.045  29.561  1.00  0.00     0.074 A 
ATOM     33  C   UNL A   1      40.264  27.755  28.759  1.00  0.00     0.049 A 
ATOM     34  N   UNL A   1      42.018  29.978  29.801  1.00  0.00    -0.248 NA
ATOM     35  C   UNL A   1      40.124  31.339  29.904  1.00  0.00     0.031 C 
ATOM     36  C   UNL A   1      39.449  26.652  28.247  1.00  0.00     0.029 A 
ATOM     37  N   UNL A   1      41.514  27.212  28.906  1.00  0.00    -0.354 N 
ATOM     38  C   UNL A   1      42.376  31.223  30.300  1.00  0.00     0.074 A 
ATOM     39  C   UNL A   1      41.176  32.033  30.317  1.00  0.00     0.031 C 
ATOM     40  C   UNL A   1      40.228  25.569  28.099  1.00  0.00     0.029 A 
ATOM     41  C   UNL A   1      41.600  25.914  28.464  1.00  0.00     0.049 A 
ATOM     42  H   UNL A   1      42.275  27.703  29.291  1.00  0.00     0.167 HD
ATOM     43  C   UNL A   1      43.597  31.649  30.704  1.00  0.00     0.037 A 
ATOM     44  C   UNL A   1      42.671  25.107  28.330  1.00  0.00     0.037 A 
ATOM     45  C   UNL A   1      44.779  30.827  30.691  1.00  0.00     0.049 A 
ATOM     46  C   UNL A   1      44.026  25.616  28.740  1.00  0.00     0.074 A 
ATOM     47  C   UNL A   1      46.059  31.154  31.106  1.00  0.00     0.029 A 
ATOM     48  N   UNL A   1      44.830  29.518  30.233  1.00  0.00    -0.354 N 
ATOM     49  N   UNL A   1      44.354  26.791  29.222  1.00  0.00    -0.248 NA
ATOM     50  C   UNL A   1      45.159  24.692  28.586  1.00  0.00     0.031 C 
ATOM     51  C   UNL A   1      46.892  30.058  30.856  1.00  0.00     0.029 A 
ATOM     52  C   UNL A   1      46.123  29.031  30.329  1.00  0.00     0.049 A 
ATOM     53  H   UNL A   1      44.059  29.010  29.890  1.00  0.00     0.167 HD
ATOM     54  C   UNL A   1      45.724  26.743  29.447  1.00  0.00     0.074 A 
ATOM     55  C   UNL A   1      46.165  25.420  29.056  1.00  0.00     0.031 C 
ATOM     56  C   UNL A   1      46.543  27.708  29.937  1.00  0.00     0.037 A 
BRANCH  43  57
ATOM     57  C   UNL A   1      43.719  33.078  31.153  1.00  0.00     0.058 A 
ATOM     58  C   UNL A   1      43.977  34.122  30.251  1.00  0.00     0.135 A 
ATOM     59  C   UNL A   1      43.566  33.408  32.509  1.00  0.00     0.135 A 
ATOM     60  F   UNL A   1      44.147  33.861  28.945  1.00  0.00    -0.206 F 
ATOM     61  C   UNL A   1      44.111  35.438  30.682  1.00  0.00     0.059 A 
ATOM     62  C   UNL A   1      43.672  34.721  32.959  1.00  0.00     0.059 A 
ATOM     63  F   UNL A   1      43.319  32.448  33.415  1.00  0.00    -0.206 F 
ATOM     64  C   UNL A   1      43.963  35.726  32.040  1.00  0.00     0.060 A 
BRANCH  64  65
ATOM     65  S   UNL A   1      44.162  37.434  32.591  1.00  0.00     0.124 S 
ATOM     66  O   UNL A   1      43.161  37.516  33.651  1.00  0.00    -0.237 OA
ATOM     67  O   UNL A   1      45.553  37.464  33.031  1.00  0.00    -0.237 OA
ATOM     68  O   UNL A   1      43.871  38.214  31.392  1.00  0.00    -0.744 OA
ENDBRANCH  64  65
ENDBRANCH  43  57
BRANCH  44  69
ATOM     69  C   UNL A   1      42.496  23.750  27.753  1.00  0.00     0.058 A 
ATOM     70  C   UNL A   1      42.479  23.544  26.367  1.00  0.00     0.135 A 
ATOM     71  C   UNL A   1      42.386  22.622  28.584  1.00  0.00     0.135 A 
ATOM     72  F   UNL A   1      42.570  24.591  25.532  1.00  0.00    -0.206 F 
ATOM     73  C   UNL A   1      42.359  22.269  25.823  1.00  0.00     0.059 A 
ATOM     74  C   UNL A   1      42.289  21.336  28.063  1.00  0.00     0.059 A 
ATOM     75  F   UNL A   1      42.408  22.765  29.918  1.00  0.00    -0.206 F 
ATOM     76  C   UNL A   1      42.273  21.170  26.680  1.00  0.00     0.060 A 
BRANCH  76  77
ATOM     77  S   UNL A   1      42.199  19.514  25.964  1.00  0.00     0.124 S 
ATOM     78  O   UNL A   1      42.649  18.690  27.080  1.00  0.00    -0.237 OA
ATOM     79  O   UNL A   1      40.789  19.394  25.608  1.00  0.00    -0.237 OA
ATOM     80  O   UNL A   1      43.116  19.597  24.831  1.00  0.00    -0.744 OA
ENDBRANCH  76  77
ENDBRANCH  44  69
BRANCH  56  81
ATOM     81  C   UNL A   1      47.997  27.367  30.104  1.00  0.00     0.058 A 
ATOM     82  C   UNL A   1      48.947  27.706  29.128  1.00  0.00     0.135 A 
ATOM     83  C   UNL A   1      48.454  26.766  31.287  1.00  0.00     0.135 A 
ATOM     84  F   UNL A   1      48.560  28.273  27.975  1.00  0.00    -0.206 F 
ATOM     85  C   UNL A   1      50.303  27.454  29.319  1.00  0.00     0.059 A 
ATOM     86  C   UNL A   1      49.807  26.526  31.509  1.00  0.00     0.059 A 
ATOM     87  F   UNL A   1      47.585  26.430  32.254  1.00  0.00    -0.206 F 
ATOM     88  C   UNL A   1      50.722  26.868  30.515  1.00  0.00     0.060 A 
BRANCH  88  89
ATOM     89  S   UNL A   1      52.489  26.603  30.776  1.00  0.00     0.124 S 
ATOM     90  O   UNL A   1      52.941  26.279  29.426  1.00  0.00    -0.237 OA
ATOM     91  O   UNL A   1      52.927  27.893  31.298  1.00  0.00    -0.237 OA
ATOM     92  O   UNL A   1      52.530  25.500  31.732  1.00  0.00    -0.744 OA
ENDBRANCH  88  89
ENDBRANCH  56  81
ENDBRANCH  30  31
ENDBRANCH  23  25
ENDBRANCH  22  23
ENDBRANCH  21  22
ENDBRANCH   1  21
TORSDOF 20
ENDMDL
