MODEL 1
REMARK VINA RESULT:     -11.3      0.000      0.000
REMARK SMILES Cc1sc(-c2ccco2)nc1C(=O)N[C@@H](C(=O)OCCOC(=O)c1ccc(-c2c3nc(c(-c4c(F)cc(S(=O)(=O)[O-])cc4F)c4ccc([nH]4)c(-c4c(F)cc(S(=O)(=O)[O-])cc4F)c4nc(c(-c5c(F)cc(S(=O)(=O)[O-])cc5F)c5ccc2[nH]5)C=C4)C=C3)cc1)C(C)C
REMARK SMILES IDX 19 1 18 2 16 3 17 4 15 5 14 6 12 7 13 8 11 10 1 11 2 12 3 13
REMARK SMILES IDX 4 14 10 15 5 16 6 17 9 18 7 19 8 20 90 21 91 22 92 23 20 24
REMARK SMILES IDX 21 25 22 26 23 27 24 28 25 29 89 30 26 31 88 32 27 33 28 34
REMARK SMILES IDX 29 35 82 36 30 37 87 38 81 39 83 40 31 41 86 42 80 43 79 44
REMARK SMILES IDX 32 46 66 47 45 48 65 49 46 50 49 51 64 52 84 53 47 54 48 55
REMARK SMILES IDX 63 57 85 58 50 59 33 60 34 61 43 62 35 63 36 64 42 65 44 66
REMARK SMILES IDX 37 67 38 68 39 69 40 70 41 71 67 72 68 73 77 74 69 75 70 76
REMARK SMILES IDX 76 77 78 78 71 79 72 80 73 81 74 82 75 83 51 84 52 85 61 86
REMARK SMILES IDX 53 87 54 88 60 89 62 90 55 91 56 92 57 93 58 94 59 95
REMARK H PARENT 14 9 83 45 49 56
REMARK Flexibility Score: inf
ROOT
ATOM      1  C   UNL A   1      32.658  27.479  26.148  1.00  0.00     0.274 C 
ENDROOT
BRANCH   1   2
ATOM      2  O   UNL A   1      33.585  27.650  25.053  1.00  0.00    -0.461 OA
BRANCH   2   3
ATOM      3  C   UNL A   1      33.116  28.240  23.911  1.00  0.00     0.329 C 
ATOM      4  O   UNL A   1      33.620  29.227  23.392  1.00  0.00    -0.250 OA
BRANCH   3   5
ATOM      5  C   UNL A   1      31.847  27.527  23.358  1.00  0.00     0.195 C 
BRANCH   5   6
ATOM      6  N   UNL A   1      32.145  27.069  22.008  1.00  0.00    -0.337 N 
ATOM      7  C   UNL A   1      32.788  25.933  21.580  1.00  0.00     0.271 C 
ATOM      8  O   UNL A   1      33.191  25.951  20.415  1.00  0.00    -0.267 OA
ATOM      9  H   UNL A   1      31.836  27.667  21.290  1.00  0.00     0.164 HD
BRANCH   7  10
ATOM     10  C   UNL A   1      32.897  24.708  22.403  1.00  0.00     0.142 A 
ATOM     11  C   UNL A   1      30.484  24.109  23.350  1.00  0.00     0.059 C 
ATOM     12  C   UNL A   1      31.939  23.942  23.070  1.00  0.00     0.035 A 
ATOM     13  S   UNL A   1      32.680  22.522  23.724  1.00  0.00    -0.115 S 
ATOM     14  C   UNL A   1      34.212  23.190  23.411  1.00  0.00     0.160 A 
ATOM     15  N   UNL A   1      34.208  24.284  22.691  1.00  0.00    -0.227 NA
BRANCH  14  16
ATOM     16  C   UNL A   1      35.399  22.656  24.007  1.00  0.00     0.162 A 
ATOM     17  C   UNL A   1      36.588  23.324  24.252  1.00  0.00     0.053 A 
ATOM     18  O   UNL A   1      35.504  21.379  24.500  1.00  0.00    -0.462 OA
ATOM     19  C   UNL A   1      37.438  22.428  24.939  1.00  0.00     0.043 A 
ATOM     20  C   UNL A   1      36.740  21.250  25.043  1.00  0.00     0.196 A 
ENDBRANCH  14  16
ENDBRANCH   7  10
ENDBRANCH   5   6
BRANCH   5  21
ATOM     21  C   UNL A   1      30.558  28.371  23.453  1.00  0.00     0.017 C 
ATOM     22  C   UNL A   1      30.391  29.288  22.235  1.00  0.00     0.010 C 
ATOM     23  C   UNL A   1      29.322  27.458  23.524  1.00  0.00     0.010 C 
ENDBRANCH   5  21
ENDBRANCH   3   5
ENDBRANCH   2   3
ENDBRANCH   1   2
BRANCH   1  24
ATOM     24  C   UNL A   1      32.728  28.663  27.108  1.00  0.00     0.275 C 
BRANCH  24  25
ATOM     25  O   UNL A   1      34.048  28.713  27.664  1.00  0.00    -0.458 OA
BRANCH  25  26
ATOM     26  C   UNL A   1      34.530  29.940  27.954  1.00  0.00     0.338 C 
ATOM     27  O   UNL A   1      33.902  30.989  28.027  1.00  0.00    -0.246 OA
BRANCH  26  28
ATOM     28  C   UNL A   1      35.963  29.823  28.259  1.00  0.00     0.060 A 
ATOM     29  C   UNL A   1      36.885  30.083  27.247  1.00  0.00     0.016 A 
ATOM     30  C   UNL A   1      36.399  29.351  29.493  1.00  0.00     0.016 A 
ATOM     31  C   UNL A   1      38.230  29.784  27.424  1.00  0.00     0.010 A 
ATOM     32  C   UNL A   1      37.768  29.146  29.705  1.00  0.00     0.010 A 
ATOM     33  C   UNL A   1      38.695  29.323  28.660  1.00  0.00    -0.014 A 
BRANCH  33  34
ATOM     34  C   UNL A   1      40.127  28.954  28.826  1.00  0.00     0.031 A 
ATOM     35  C   UNL A   1      41.094  29.972  29.370  1.00  0.00     0.074 A 
ATOM     36  C   UNL A   1      40.564  27.710  28.541  1.00  0.00     0.049 A 
ATOM     37  N   UNL A   1      42.401  29.950  29.376  1.00  0.00    -0.248 NA
ATOM     38  C   UNL A   1      40.510  31.180  29.977  1.00  0.00     0.031 C 
ATOM     39  C   UNL A   1      39.730  26.593  28.093  1.00  0.00     0.029 A 
ATOM     40  N   UNL A   1      41.828  27.174  28.595  1.00  0.00    -0.354 N 
ATOM     41  C   UNL A   1      42.796  31.170  29.911  1.00  0.00     0.074 A 
ATOM     42  C   UNL A   1      41.591  31.900  30.240  1.00  0.00     0.031 C 
ATOM     43  C   UNL A   1      40.495  25.500  27.950  1.00  0.00     0.029 A 
ATOM     44  C   UNL A   1      41.887  25.860  28.193  1.00  0.00     0.049 A 
ATOM     45  H   UNL A   1      42.617  27.683  28.892  1.00  0.00     0.167 HD
ATOM     46  C   UNL A   1      44.052  31.639  30.099  1.00  0.00     0.037 A 
ATOM     47  C   UNL A   1      42.944  25.050  27.985  1.00  0.00     0.037 A 
ATOM     48  C   UNL A   1      45.244  30.878  29.833  1.00  0.00     0.049 A 
ATOM     49  C   UNL A   1      44.331  25.598  28.174  1.00  0.00     0.074 A 
ATOM     50  C   UNL A   1      46.565  31.266  29.975  1.00  0.00     0.029 A 
ATOM     51  N   UNL A   1      45.257  29.562  29.397  1.00  0.00    -0.354 N 
ATOM     52  N   UNL A   1      44.697  26.793  28.571  1.00  0.00    -0.248 NA
ATOM     53  C   UNL A   1      45.449  24.700  27.854  1.00  0.00     0.031 C 
ATOM     54  C   UNL A   1      47.377  30.188  29.604  1.00  0.00     0.029 A 
ATOM     55  C   UNL A   1      46.562  29.121  29.262  1.00  0.00     0.049 A 
ATOM     56  H   UNL A   1      44.456  29.020  29.212  1.00  0.00     0.167 HD
ATOM     57  C   UNL A   1      46.086  26.793  28.545  1.00  0.00     0.074 A 
ATOM     58  C   UNL A   1      46.496  25.471  28.118  1.00  0.00     0.031 C 
ATOM     59  C   UNL A   1      46.946  27.799  28.838  1.00  0.00     0.037 A 
BRANCH  46  60
ATOM     60  C   UNL A   1      44.197  33.061  30.560  1.00  0.00     0.058 A 
ATOM     61  C   UNL A   1      44.248  34.138  29.662  1.00  0.00     0.135 A 
ATOM     62  C   UNL A   1      44.273  33.346  31.933  1.00  0.00     0.135 A 
ATOM     63  F   UNL A   1      44.203  33.916  28.339  1.00  0.00    -0.206 F 
ATOM     64  C   UNL A   1      44.395  35.448  30.109  1.00  0.00     0.059 A 
ATOM     65  C   UNL A   1      44.398  34.650  32.403  1.00  0.00     0.059 A 
ATOM     66  F   UNL A   1      44.233  32.350  32.833  1.00  0.00    -0.206 F 
ATOM     67  C   UNL A   1      44.474  35.692  31.482  1.00  0.00     0.060 A 
BRANCH  67  68
ATOM     68  S   UNL A   1      44.671  37.394  32.053  1.00  0.00     0.124 S 
ATOM     69  O   UNL A   1      44.687  38.123  30.789  1.00  0.00    -0.237 OA
ATOM     70  O   UNL A   1      43.486  37.589  32.881  1.00  0.00    -0.237 OA
ATOM     71  O   UNL A   1      45.938  37.364  32.776  1.00  0.00    -0.744 OA
ENDBRANCH  67  68
ENDBRANCH  46  60
BRANCH  47  72
ATOM     72  C   UNL A   1      42.731  23.661  27.503  1.00  0.00     0.058 A 
ATOM     73  C   UNL A   1      42.699  23.366  26.132  1.00  0.00     0.135 A 
ATOM     74  C   UNL A   1      42.574  22.596  28.404  1.00  0.00     0.135 A 
ATOM     75  F   UNL A   1      42.831  24.352  25.232  1.00  0.00    -0.206 F 
ATOM     76  C   UNL A   1      42.516  22.066  25.671  1.00  0.00     0.059 A 
ATOM     77  C   UNL A   1      42.416  21.285  27.969  1.00  0.00     0.059 A 
ATOM     78  F   UNL A   1      42.606  22.823  29.726  1.00  0.00    -0.206 F 
ATOM     79  C   UNL A   1      42.380  21.031  26.598  1.00  0.00     0.060 A 
BRANCH  79  80
ATOM     80  S   UNL A   1      42.211  19.335  26.001  1.00  0.00     0.124 S 
ATOM     81  O   UNL A   1      42.676  18.571  27.153  1.00  0.00    -0.237 OA
ATOM     82  O   UNL A   1      40.782  19.248  25.712  1.00  0.00    -0.237 OA
ATOM     83  O   UNL A   1      43.080  19.308  24.828  1.00  0.00    -0.744 OA
ENDBRANCH  79  80
ENDBRANCH  47  72
BRANCH  59  84
ATOM     84  C   UNL A   1      48.412  27.502  28.723  1.00  0.00     0.058 A 
ATOM     85  C   UNL A   1      49.119  27.766  27.540  1.00  0.00     0.135 A 
ATOM     86  C   UNL A   1      49.123  26.994  29.820  1.00  0.00     0.135 A 
ATOM     87  F   UNL A   1      48.478  28.244  26.462  1.00  0.00    -0.206 F 
ATOM     88  C   UNL A   1      50.485  27.521  27.444  1.00  0.00     0.059 A 
ATOM     89  C   UNL A   1      50.493  26.760  29.753  1.00  0.00     0.059 A 
ATOM     90  F   UNL A   1      48.490  26.733  30.974  1.00  0.00    -0.206 F 
ATOM     91  C   UNL A   1      51.163  27.017  28.557  1.00  0.00     0.060 A 
BRANCH  91  92
ATOM     92  S   UNL A   1      52.942  26.736  28.435  1.00  0.00     0.124 S 
ATOM     93  O   UNL A   1      53.267  26.326  29.797  1.00  0.00    -0.237 OA
ATOM     94  O   UNL A   1      53.030  25.692  27.420  1.00  0.00    -0.237 OA
ATOM     95  O   UNL A   1      53.462  28.039  28.029  1.00  0.00    -0.744 OA
ENDBRANCH  91  92
ENDBRANCH  59  84
ENDBRANCH  33  34
ENDBRANCH  26  28
ENDBRANCH  25  26
ENDBRANCH  24  25
ENDBRANCH   1  24
TORSDOF 18
ENDMDL
MODEL 2
REMARK VINA RESULT:     -11.1      1.721      2.273
REMARK SMILES Cc1sc(-c2ccco2)nc1C(=O)N[C@@H](C(=O)OCCOC(=O)c1ccc(-c2c3nc(c(-c4c(F)cc(S(=O)(=O)[O-])cc4F)c4ccc([nH]4)c(-c4c(F)cc(S(=O)(=O)[O-])cc4F)c4nc(c(-c5c(F)cc(S(=O)(=O)[O-])cc5F)c5ccc2[nH]5)C=C4)C=C3)cc1)C(C)C
REMARK SMILES IDX 19 1 18 2 16 3 17 4 15 5 14 6 12 7 13 8 11 10 1 11 2 12 3 13
REMARK SMILES IDX 4 14 10 15 5 16 6 17 9 18 7 19 8 20 90 21 91 22 92 23 20 24
REMARK SMILES IDX 21 25 22 26 23 27 24 28 25 29 89 30 26 31 88 32 27 33 28 34
REMARK SMILES IDX 29 35 82 36 30 37 87 38 81 39 83 40 31 41 86 42 80 43 79 44
REMARK SMILES IDX 32 46 66 47 45 48 65 49 46 50 49 51 64 52 84 53 47 54 48 55
REMARK SMILES IDX 63 57 85 58 50 59 33 60 34 61 43 62 35 63 36 64 42 65 44 66
REMARK SMILES IDX 37 67 38 68 39 69 40 70 41 71 67 72 68 73 77 74 69 75 70 76
REMARK SMILES IDX 76 77 78 78 71 79 72 80 73 81 74 82 75 83 51 84 52 85 61 86
REMARK SMILES IDX 53 87 54 88 60 89 62 90 55 91 56 92 57 93 58 94 59 95
REMARK H PARENT 14 9 83 45 49 56
REMARK Flexibility Score: inf
ROOT
ATOM      1  C   UNL A   1      34.356  28.756  25.839  1.00  0.00     0.274 C 
ENDROOT
BRANCH   1   2
ATOM      2  O   UNL A   1      33.275  29.066  24.931  1.00  0.00    -0.461 OA
BRANCH   2   3
ATOM      3  C   UNL A   1      33.338  28.547  23.668  1.00  0.00     0.329 C 
ATOM      4  O   UNL A   1      34.280  28.714  22.904  1.00  0.00    -0.250 OA
BRANCH   3   5
ATOM      5  C   UNL A   1      32.060  27.737  23.298  1.00  0.00     0.195 C 
BRANCH   5   6
ATOM      6  N   UNL A   1      32.242  27.206  21.954  1.00  0.00    -0.337 N 
ATOM      7  C   UNL A   1      32.794  26.019  21.537  1.00  0.00     0.271 C 
ATOM      8  O   UNL A   1      33.117  25.966  20.349  1.00  0.00    -0.267 OA
ATOM      9  H   UNL A   1      31.917  27.790  21.231  1.00  0.00     0.164 HD
BRANCH   7  10
ATOM     10  C   UNL A   1      32.893  24.826  22.406  1.00  0.00     0.142 A 
ATOM     11  C   UNL A   1      30.458  24.217  23.288  1.00  0.00     0.059 C 
ATOM     12  C   UNL A   1      31.924  24.067  23.065  1.00  0.00     0.035 A 
ATOM     13  S   UNL A   1      32.665  22.684  23.795  1.00  0.00    -0.115 S 
ATOM     14  C   UNL A   1      34.196  23.368  23.513  1.00  0.00     0.160 A 
ATOM     15  N   UNL A   1      34.200  24.436  22.755  1.00  0.00    -0.227 NA
BRANCH  14  16
ATOM     16  C   UNL A   1      35.368  22.876  24.170  1.00  0.00     0.162 A 
ATOM     17  C   UNL A   1      36.584  22.557  23.586  1.00  0.00     0.053 A 
ATOM     18  O   UNL A   1      35.478  22.712  25.528  1.00  0.00    -0.462 OA
ATOM     19  C   UNL A   1      37.471  22.208  24.630  1.00  0.00     0.043 A 
ATOM     20  C   UNL A   1      36.742  22.294  25.790  1.00  0.00     0.196 A 
ENDBRANCH  14  16
ENDBRANCH   7  10
ENDBRANCH   5   6
BRANCH   5  21
ATOM     21  C   UNL A   1      30.743  28.520  23.480  1.00  0.00     0.017 C 
ATOM     22  C   UNL A   1      30.495  29.489  22.317  1.00  0.00     0.010 C 
ATOM     23  C   UNL A   1      29.549  27.553  23.547  1.00  0.00     0.010 C 
ENDBRANCH   5  21
ENDBRANCH   3   5
ENDBRANCH   2   3
ENDBRANCH   1   2
BRANCH   1  24
ATOM     24  C   UNL A   1      34.242  29.575  27.120  1.00  0.00     0.275 C 
BRANCH  24  25
ATOM     25  O   UNL A   1      35.298  29.177  28.004  1.00  0.00    -0.458 OA
BRANCH  25  26
ATOM     26  C   UNL A   1      35.898  30.163  28.704  1.00  0.00     0.338 C 
ATOM     27  O   UNL A   1      35.358  31.055  29.347  1.00  0.00    -0.246 OA
BRANCH  26  28
ATOM     28  C   UNL A   1      37.353  29.963  28.648  1.00  0.00     0.060 A 
ATOM     29  C   UNL A   1      37.969  29.889  27.400  1.00  0.00     0.016 A 
ATOM     30  C   UNL A   1      38.092  29.734  29.804  1.00  0.00     0.016 A 
ATOM     31  C   UNL A   1      39.296  29.493  27.292  1.00  0.00     0.010 A 
ATOM     32  C   UNL A   1      39.456  29.435  29.699  1.00  0.00     0.010 A 
ATOM     33  C   UNL A   1      40.064  29.273  28.439  1.00  0.00    -0.014 A 
BRANCH  33  34
ATOM     34  C   UNL A   1      41.470  28.798  28.316  1.00  0.00     0.031 A 
ATOM     35  C   UNL A   1      42.599  29.773  28.512  1.00  0.00     0.074 A 
ATOM     36  C   UNL A   1      41.748  27.500  28.076  1.00  0.00     0.049 A 
ATOM     37  N   UNL A   1      43.867  29.639  28.223  1.00  0.00    -0.248 NA
ATOM     38  C   UNL A   1      42.252  31.078  29.100  1.00  0.00     0.031 C 
ATOM     39  C   UNL A   1      40.764  26.423  27.953  1.00  0.00     0.029 A 
ATOM     40  N   UNL A   1      42.953  26.863  27.899  1.00  0.00    -0.354 N 
ATOM     41  C   UNL A   1      44.453  30.864  28.520  1.00  0.00     0.074 A 
ATOM     42  C   UNL A   1      43.407  31.722  29.031  1.00  0.00     0.031 C 
ATOM     43  C   UNL A   1      41.402  25.259  27.760  1.00  0.00     0.029 A 
ATOM     44  C   UNL A   1      42.833  25.518  27.640  1.00  0.00     0.049 A 
ATOM     45  H   UNL A   1      43.820  27.327  27.953  1.00  0.00     0.167 HD
ATOM     46  C   UNL A   1      45.745  31.238  28.365  1.00  0.00     0.037 A 
ATOM     47  C   UNL A   1      43.758  24.604  27.287  1.00  0.00     0.037 A 
ATOM     48  C   UNL A   1      46.791  30.355  27.920  1.00  0.00     0.049 A 
ATOM     49  C   UNL A   1      45.183  25.045  27.095  1.00  0.00     0.074 A 
ATOM     50  C   UNL A   1      48.130  30.638  27.715  1.00  0.00     0.029 A 
ATOM     51  N   UNL A   1      46.618  29.008  27.639  1.00  0.00    -0.354 N 
ATOM     52  N   UNL A   1      45.706  26.235  27.266  1.00  0.00    -0.248 NA
ATOM     53  C   UNL A   1      46.135  24.028  26.629  1.00  0.00     0.031 C 
ATOM     54  C   UNL A   1      48.763  29.464  27.289  1.00  0.00     0.029 A 
ATOM     55  C   UNL A   1      47.824  28.445  27.259  1.00  0.00     0.049 A 
ATOM     56  H   UNL A   1      45.763  28.524  27.700  1.00  0.00     0.167 HD
ATOM     57  C   UNL A   1      47.048  26.112  26.927  1.00  0.00     0.074 A 
ATOM     58  C   UNL A   1      47.261  24.726  26.564  1.00  0.00     0.031 C 
ATOM     59  C   UNL A   1      48.014  27.062  26.906  1.00  0.00     0.037 A 
BRANCH  46  60
ATOM     60  C   UNL A   1      46.084  32.678  28.623  1.00  0.00     0.058 A 
ATOM     61  C   UNL A   1      46.016  33.654  27.619  1.00  0.00     0.135 A 
ATOM     62  C   UNL A   1      46.471  33.084  29.911  1.00  0.00     0.135 A 
ATOM     63  F   UNL A   1      45.674  33.313  26.367  1.00  0.00    -0.206 F 
ATOM     64  C   UNL A   1      46.346  34.982  27.877  1.00  0.00     0.059 A 
ATOM     65  C   UNL A   1      46.784  34.409  30.196  1.00  0.00     0.059 A 
ATOM     66  F   UNL A   1      46.555  32.186  30.906  1.00  0.00    -0.206 F 
ATOM     67  C   UNL A   1      46.734  35.348  29.168  1.00  0.00     0.060 A 
BRANCH  67  68
ATOM     68  S   UNL A   1      47.165  37.072  29.491  1.00  0.00     0.124 S 
ATOM     69  O   UNL A   1      46.095  37.774  28.791  1.00  0.00    -0.237 OA
ATOM     70  O   UNL A   1      47.121  37.141  30.948  1.00  0.00    -0.237 OA
ATOM     71  O   UNL A   1      48.494  37.204  28.901  1.00  0.00    -0.744 OA
ENDBRANCH  67  68
ENDBRANCH  46  60
BRANCH  47  72
ATOM     72  C   UNL A   1      43.351  23.200  27.020  1.00  0.00     0.058 A 
ATOM     73  C   UNL A   1      43.252  22.711  25.709  1.00  0.00     0.135 A 
ATOM     74  C   UNL A   1      43.070  22.314  28.071  1.00  0.00     0.135 A 
ATOM     75  F   UNL A   1      43.498  23.524  24.670  1.00  0.00    -0.206 F 
ATOM     76  C   UNL A   1      42.887  21.394  25.449  1.00  0.00     0.059 A 
ATOM     77  C   UNL A   1      42.728  20.986  27.838  1.00  0.00     0.059 A 
ATOM     78  F   UNL A   1      43.158  22.730  29.344  1.00  0.00    -0.206 F 
ATOM     79  C   UNL A   1      42.631  20.537  26.522  1.00  0.00     0.060 A 
BRANCH  79  80
ATOM     80  S   UNL A   1      42.224  18.810  26.187  1.00  0.00     0.124 S 
ATOM     81  O   UNL A   1      40.821  18.909  25.802  1.00  0.00    -0.237 OA
ATOM     82  O   UNL A   1      43.157  18.472  25.116  1.00  0.00    -0.237 OA
ATOM     83  O   UNL A   1      42.487  18.153  27.463  1.00  0.00    -0.744 OA
ENDBRANCH  79  80
ENDBRANCH  47  72
BRANCH  59  84
ATOM     84  C   UNL A   1      49.390  26.630  26.494  1.00  0.00     0.058 A 
ATOM     85  C   UNL A   1      50.229  25.928  27.374  1.00  0.00     0.135 A 
ATOM     86  C   UNL A   1      49.855  26.880  25.194  1.00  0.00     0.135 A 
ATOM     87  F   UNL A   1      49.829  25.674  28.630  1.00  0.00    -0.206 F 
ATOM     88  C   UNL A   1      51.492  25.500  26.981  1.00  0.00     0.059 A 
ATOM     89  C   UNL A   1      51.108  26.444  24.774  1.00  0.00     0.059 A 
ATOM     90  F   UNL A   1      49.086  27.542  24.316  1.00  0.00    -0.206 F 
ATOM     91  C   UNL A   1      51.923  25.764  25.679  1.00  0.00     0.060 A 
BRANCH  91  92
ATOM     92  S   UNL A   1      53.550  25.172  25.166  1.00  0.00     0.124 S 
ATOM     93  O   UNL A   1      54.420  25.841  26.127  1.00  0.00    -0.237 OA
ATOM     94  O   UNL A   1      53.426  23.727  25.323  1.00  0.00    -0.237 OA
ATOM     95  O   UNL A   1      53.659  25.639  23.787  1.00  0.00    -0.744 OA
ENDBRANCH  91  92
ENDBRANCH  59  84
ENDBRANCH  33  34
ENDBRANCH  26  28
ENDBRANCH  25  26
ENDBRANCH  24  25
ENDBRANCH   1  24
TORSDOF 18
ENDMDL
MODEL 3
REMARK VINA RESULT:     -11.1      1.702      2.586
REMARK SMILES Cc1sc(-c2ccco2)nc1C(=O)N[C@@H](C(=O)OCCOC(=O)c1ccc(-c2c3nc(c(-c4c(F)cc(S(=O)(=O)[O-])cc4F)c4ccc([nH]4)c(-c4c(F)cc(S(=O)(=O)[O-])cc4F)c4nc(c(-c5c(F)cc(S(=O)(=O)[O-])cc5F)c5ccc2[nH]5)C=C4)C=C3)cc1)C(C)C
REMARK SMILES IDX 19 1 18 2 16 3 17 4 15 5 14 6 12 7 13 8 11 10 1 11 2 12 3 13
REMARK SMILES IDX 4 14 10 15 5 16 6 17 9 18 7 19 8 20 90 21 91 22 92 23 20 24
REMARK SMILES IDX 21 25 22 26 23 27 24 28 25 29 89 30 26 31 88 32 27 33 28 34
REMARK SMILES IDX 29 35 82 36 30 37 87 38 81 39 83 40 31 41 86 42 80 43 79 44
REMARK SMILES IDX 32 46 66 47 45 48 65 49 46 50 49 51 64 52 84 53 47 54 48 55
REMARK SMILES IDX 63 57 85 58 50 59 33 60 34 61 43 62 35 63 36 64 42 65 44 66
REMARK SMILES IDX 37 67 38 68 39 69 40 70 41 71 67 72 68 73 77 74 69 75 70 76
REMARK SMILES IDX 76 77 78 78 71 79 72 80 73 81 74 82 75 83 51 84 52 85 61 86
REMARK SMILES IDX 53 87 54 88 60 89 62 90 55 91 56 92 57 93 58 94 59 95
REMARK H PARENT 14 9 83 45 49 56
REMARK Flexibility Score: inf
ROOT
ATOM      1  C   UNL A   1      32.392  28.262  25.437  1.00  0.00     0.274 C 
ENDROOT
BRANCH   1   2
ATOM      2  O   UNL A   1      32.471  26.838  25.205  1.00  0.00    -0.461 OA
BRANCH   2   3
ATOM      3  C   UNL A   1      31.966  26.010  26.169  1.00  0.00     0.329 C 
ATOM      4  O   UNL A   1      31.307  26.394  27.127  1.00  0.00    -0.250 OA
BRANCH   3   5
ATOM      5  C   UNL A   1      32.349  24.519  25.926  1.00  0.00     0.195 C 
BRANCH   5   6
ATOM      6  N   UNL A   1      32.129  24.226  24.517  1.00  0.00    -0.337 N 
ATOM      7  C   UNL A   1      32.839  23.421  23.659  1.00  0.00     0.271 C 
ATOM      8  O   UNL A   1      32.633  23.605  22.457  1.00  0.00    -0.267 OA
ATOM      9  H   UNL A   1      31.349  24.674  24.117  1.00  0.00     0.164 HD
BRANCH   7  10
ATOM     10  C   UNL A   1      33.707  22.316  24.120  1.00  0.00     0.142 A 
ATOM     11  C   UNL A   1      36.238  23.129  24.010  1.00  0.00     0.059 C 
ATOM     12  C   UNL A   1      35.088  22.231  24.314  1.00  0.00     0.035 A 
ATOM     13  S   UNL A   1      35.482  20.708  25.032  1.00  0.00    -0.115 S 
ATOM     14  C   UNL A   1      33.910  20.154  24.698  1.00  0.00     0.160 A 
ATOM     15  N   UNL A   1      33.073  21.070  24.277  1.00  0.00    -0.227 NA
BRANCH  14  16
ATOM     16  C   UNL A   1      33.578  18.763  24.753  1.00  0.00     0.162 A 
ATOM     17  C   UNL A   1      34.237  17.718  24.127  1.00  0.00     0.053 A 
ATOM     18  O   UNL A   1      32.564  18.244  25.519  1.00  0.00    -0.462 OA
ATOM     19  C   UNL A   1      33.616  16.519  24.544  1.00  0.00     0.043 A 
ATOM     20  C   UNL A   1      32.587  16.896  25.371  1.00  0.00     0.196 A 
ENDBRANCH  14  16
ENDBRANCH   7  10
ENDBRANCH   5   6
BRANCH   5  21
ATOM     21  C   UNL A   1      31.651  23.526  26.880  1.00  0.00     0.017 C 
ATOM     22  C   UNL A   1      30.620  22.662  26.142  1.00  0.00     0.010 C 
ATOM     23  C   UNL A   1      32.682  22.581  27.519  1.00  0.00     0.010 C 
ENDBRANCH   5  21
ENDBRANCH   3   5
ENDBRANCH   2   3
ENDBRANCH   1   2
BRANCH   1  24
ATOM     24  C   UNL A   1      33.777  28.848  25.690  1.00  0.00     0.275 C 
BRANCH  24  25
ATOM     25  O   UNL A   1      34.061  28.741  27.091  1.00  0.00    -0.458 OA
BRANCH  25  26
ATOM     26  C   UNL A   1      34.419  29.880  27.719  1.00  0.00     0.338 C 
ATOM     27  O   UNL A   1      33.702  30.831  28.005  1.00  0.00    -0.246 OA
BRANCH  26  28
ATOM     28  C   UNL A   1      35.837  29.784  28.097  1.00  0.00     0.060 A 
ATOM     29  C   UNL A   1      36.805  30.068  27.136  1.00  0.00     0.016 A 
ATOM     30  C   UNL A   1      36.216  29.308  29.348  1.00  0.00     0.016 A 
ATOM     31  C   UNL A   1      38.144  29.789  27.380  1.00  0.00     0.010 A 
ATOM     32  C   UNL A   1      37.576  29.124  29.629  1.00  0.00     0.010 A 
ATOM     33  C   UNL A   1      38.552  29.325  28.634  1.00  0.00    -0.014 A 
BRANCH  33  34
ATOM     34  C   UNL A   1      39.980  28.978  28.872  1.00  0.00     0.031 A 
ATOM     35  C   UNL A   1      40.899  30.005  29.477  1.00  0.00     0.074 A 
ATOM     36  C   UNL A   1      40.453  27.745  28.596  1.00  0.00     0.049 A 
ATOM     37  N   UNL A   1      42.204  30.005  29.551  1.00  0.00    -0.248 NA
ATOM     38  C   UNL A   1      40.264  31.196  30.066  1.00  0.00     0.031 C 
ATOM     39  C   UNL A   1      39.663  26.620  28.092  1.00  0.00     0.029 A 
ATOM     40  N   UNL A   1      41.721  27.229  28.710  1.00  0.00    -0.354 N 
ATOM     41  C   UNL A   1      42.549  31.224  30.121  1.00  0.00     0.074 A 
ATOM     42  C   UNL A   1      41.316  31.930  30.394  1.00  0.00     0.031 C 
ATOM     43  C   UNL A   1      40.453  25.541  27.977  1.00  0.00     0.029 A 
ATOM     44  C   UNL A   1      41.824  25.921  28.297  1.00  0.00     0.049 A 
ATOM     45  H   UNL A   1      42.484  27.748  29.055  1.00  0.00     0.167 HD
ATOM     46  C   UNL A   1      43.786  31.713  30.379  1.00  0.00     0.037 A 
ATOM     47  C   UNL A   1      42.904  25.132  28.136  1.00  0.00     0.037 A 
ATOM     48  C   UNL A   1      45.003  30.975  30.168  1.00  0.00     0.049 A 
ATOM     49  C   UNL A   1      44.270  25.701  28.404  1.00  0.00     0.074 A 
ATOM     50  C   UNL A   1      46.308  31.382  30.383  1.00  0.00     0.029 A 
ATOM     51  N   UNL A   1      45.061  29.664  29.719  1.00  0.00    -0.354 N 
ATOM     52  N   UNL A   1      44.593  26.897  28.833  1.00  0.00    -0.248 NA
ATOM     53  C   UNL A   1      45.418  24.826  28.133  1.00  0.00     0.031 C 
ATOM     54  C   UNL A   1      47.157  30.323  30.044  1.00  0.00     0.029 A 
ATOM     55  C   UNL A   1      46.379  29.247  29.647  1.00  0.00     0.049 A 
ATOM     56  H   UNL A   1      44.280  29.112  29.486  1.00  0.00     0.167 HD
ATOM     57  C   UNL A   1      45.982  26.920  28.881  1.00  0.00     0.074 A 
ATOM     58  C   UNL A   1      46.436  25.610  28.460  1.00  0.00     0.031 C 
ATOM     59  C   UNL A   1      46.807  27.936  29.230  1.00  0.00     0.037 A 
BRANCH  46  60
ATOM     60  C   UNL A   1      43.882  33.131  30.864  1.00  0.00     0.058 A 
ATOM     61  C   UNL A   1      43.876  34.224  29.984  1.00  0.00     0.135 A 
ATOM     62  C   UNL A   1      43.968  33.395  32.240  1.00  0.00     0.135 A 
ATOM     63  F   UNL A   1      43.819  34.024  28.659  1.00  0.00    -0.206 F 
ATOM     64  C   UNL A   1      43.979  35.531  30.453  1.00  0.00     0.059 A 
ATOM     65  C   UNL A   1      44.049  34.694  32.732  1.00  0.00     0.059 A 
ATOM     66  F   UNL A   1      43.982  32.383  33.123  1.00  0.00    -0.206 F 
ATOM     67  C   UNL A   1      44.070  35.754  31.829  1.00  0.00     0.060 A 
BRANCH  67  68
ATOM     68  S   UNL A   1      44.208  37.453  32.427  1.00  0.00     0.124 S 
ATOM     69  O   UNL A   1      45.599  37.493  32.865  1.00  0.00    -0.237 OA
ATOM     70  O   UNL A   1      43.896  38.234  31.235  1.00  0.00    -0.237 OA
ATOM     71  O   UNL A   1      43.212  37.518  33.493  1.00  0.00    -0.744 OA
ENDBRANCH  67  68
ENDBRANCH  46  60
BRANCH  47  72
ATOM     72  C   UNL A   1      42.741  23.745  27.628  1.00  0.00     0.058 A 
ATOM     73  C   UNL A   1      42.506  22.675  28.503  1.00  0.00     0.135 A 
ATOM     74  C   UNL A   1      42.797  23.466  26.253  1.00  0.00     0.135 A 
ATOM     75  F   UNL A   1      42.457  22.891  29.826  1.00  0.00    -0.206 F 
ATOM     76  C   UNL A   1      42.336  21.375  28.035  1.00  0.00     0.059 A 
ATOM     77  C   UNL A   1      42.604  22.180  25.759  1.00  0.00     0.059 A 
ATOM     78  F   UNL A   1      43.011  24.456  25.373  1.00  0.00    -0.206 F 
ATOM     79  C   UNL A   1      42.382  21.139  26.659  1.00  0.00     0.060 A 
BRANCH  79  80
ATOM     80  S   UNL A   1      42.093  19.465  26.047  1.00  0.00     0.124 S 
ATOM     81  O   UNL A   1      40.655  19.486  25.805  1.00  0.00    -0.237 OA
ATOM     82  O   UNL A   1      42.939  19.418  24.858  1.00  0.00    -0.237 OA
ATOM     83  O   UNL A   1      42.538  18.625  27.154  1.00  0.00    -0.744 OA
ENDBRANCH  79  80
ENDBRANCH  47  72
BRANCH  59  84
ATOM     84  C   UNL A   1      48.282  27.666  29.189  1.00  0.00     0.058 A 
ATOM     85  C   UNL A   1      49.033  27.889  28.024  1.00  0.00     0.135 A 
ATOM     86  C   UNL A   1      48.957  27.224  30.336  1.00  0.00     0.135 A 
ATOM     87  F   UNL A   1      48.429  28.303  26.899  1.00  0.00    -0.206 F 
ATOM     88  C   UNL A   1      50.406  27.669  27.996  1.00  0.00     0.059 A 
ATOM     89  C   UNL A   1      50.332  27.016  30.336  1.00  0.00     0.059 A 
ATOM     90  F   UNL A   1      48.282  27.004  31.475  1.00  0.00    -0.206 F 
ATOM     91  C   UNL A   1      51.047  27.231  29.157  1.00  0.00     0.060 A 
BRANCH  91  92
ATOM     92  S   UNL A   1      52.834  26.982  29.122  1.00  0.00     0.124 S 
ATOM     93  O   UNL A   1      53.025  26.070  30.244  1.00  0.00    -0.237 OA
ATOM     94  O   UNL A   1      53.049  26.411  27.797  1.00  0.00    -0.237 OA
ATOM     95  O   UNL A   1      53.366  28.330  29.309  1.00  0.00    -0.744 OA
ENDBRANCH  91  92
ENDBRANCH  59  84
ENDBRANCH  33  34
ENDBRANCH  26  28
ENDBRANCH  25  26
ENDBRANCH  24  25
ENDBRANCH   1  24
TORSDOF 18
ENDMDL
