MODEL 1
REMARK VINA RESULT:     -11.5      0.000      0.000
REMARK SMILES Cc1c(C)c2c(c(C)c1O)CC[C@@](C)(C(=O)OCCOC(=O)c1ccc(-c3c4nc(c(-c5c(F)cc(S(=O)(=O)[O-])cc5F)c5ccc([nH]5)c(-c5c(F)cc(S(=O)(=O)[O-])cc5F)c5nc(c(-c6c(F)cc(S(=O)(=O)[O-])cc6F)c6ccc3[nH]6)C=C5)C=C4)cc1)O2
REMARK SMILES IDX 19 1 18 2 17 3 15 4 16 5 13 6 1 7 2 8 3 9 9 10 4 11 5 12
REMARK SMILES IDX 7 13 6 14 89 15 8 16 11 17 12 18 14 19 10 20 20 22 21 23
REMARK SMILES IDX 22 24 23 25 24 26 88 27 25 28 87 29 26 30 27 31 28 32 81 33
REMARK SMILES IDX 29 34 86 35 80 36 82 37 30 38 85 39 79 40 78 41 31 43 65 44
REMARK SMILES IDX 44 45 64 46 45 47 48 48 63 49 83 50 46 51 47 52 62 54 84 55
REMARK SMILES IDX 49 56 32 57 33 58 42 59 34 60 35 61 41 62 43 63 36 64 37 65
REMARK SMILES IDX 38 66 39 67 40 68 66 69 67 70 76 71 68 72 69 73 75 74 77 75
REMARK SMILES IDX 70 76 71 77 72 78 73 79 74 80 50 81 51 82 60 83 52 84 53 85
REMARK SMILES IDX 59 86 61 87 54 88 55 89 56 90 57 91 58 92
REMARK H PARENT 10 21 82 42 48 53
REMARK Flexibility Score: inf
ROOT
ATOM      1  C   UNL A   1      33.609  28.738  26.014  1.00  0.00     0.275 C 
ENDROOT
BRANCH   1   2
ATOM      2  C   UNL A   1      32.290  28.004  25.769  1.00  0.00     0.274 C 
BRANCH   2   3
ATOM      3  O   UNL A   1      32.513  26.655  25.309  1.00  0.00    -0.459 OA
BRANCH   3   4
ATOM      4  C   UNL A   1      31.785  25.674  25.919  1.00  0.00     0.350 C 
ATOM      5  O   UNL A   1      31.030  25.878  26.864  1.00  0.00    -0.247 OA
BRANCH   4   6
ATOM      6  C   UNL A   1      32.083  24.273  25.331  1.00  0.00     0.203 C 
ATOM      7  C   UNL A   1      37.449  21.128  25.082  1.00  0.00     0.049 C 
ATOM      8  C   UNL A   1      35.954  21.338  25.103  1.00  0.00    -0.002 A 
ATOM      9  C   UNL A   1      35.389  22.631  25.238  1.00  0.00    -0.002 A 
ATOM     10  C   UNL A   1      35.087  20.236  24.984  1.00  0.00     0.122 A 
ATOM     11  C   UNL A   1      36.289  23.841  25.295  1.00  0.00     0.049 C 
ATOM     12  C   UNL A   1      33.985  22.776  25.326  1.00  0.00     0.127 A 
ATOM     13  C   UNL A   1      33.691  20.377  25.053  1.00  0.00    -0.002 A 
ATOM     14  C   UNL A   1      33.143  21.654  25.299  1.00  0.00     0.001 A 
ATOM     15  O   UNL A   1      33.503  24.058  25.448  1.00  0.00    -0.475 OA
ATOM     16  C   UNL A   1      32.793  19.175  24.904  1.00  0.00     0.049 C 
ATOM     17  C   UNL A   1      31.662  21.814  25.513  1.00  0.00     0.044 C 
ATOM     18  C   UNL A   1      31.325  23.179  26.083  1.00  0.00     0.065 C 
ATOM     19  C   UNL A   1      31.720  24.366  23.843  1.00  0.00     0.069 C 
BRANCH  10  20
ATOM     20  O   UNL A   1      35.571  18.966  24.794  1.00  0.00    -0.507 OA
ATOM     21  H   UNL A   1      35.391  18.297  25.424  1.00  0.00     0.293 HD
ENDBRANCH  10  20
ENDBRANCH   4   6
ENDBRANCH   3   4
ENDBRANCH   2   3
ENDBRANCH   1   2
BRANCH   1  22
ATOM     22  O   UNL A   1      33.875  28.847  27.422  1.00  0.00    -0.458 OA
BRANCH  22  23
ATOM     23  C   UNL A   1      34.412  30.020  27.832  1.00  0.00     0.338 C 
ATOM     24  O   UNL A   1      33.840  31.082  28.002  1.00  0.00    -0.246 OA
BRANCH  23  25
ATOM     25  C   UNL A   1      35.829  29.794  28.150  1.00  0.00     0.060 A 
ATOM     26  C   UNL A   1      36.764  30.007  27.143  1.00  0.00     0.016 A 
ATOM     27  C   UNL A   1      36.234  29.320  29.399  1.00  0.00     0.016 A 
ATOM     28  C   UNL A   1      38.105  29.737  27.371  1.00  0.00     0.010 A 
ATOM     29  C   UNL A   1      37.596  29.079  29.636  1.00  0.00     0.010 A 
ATOM     30  C   UNL A   1      38.543  29.273  28.616  1.00  0.00    -0.014 A 
BRANCH  30  31
ATOM     31  C   UNL A   1      39.987  28.956  28.780  1.00  0.00     0.031 A 
ATOM     32  C   UNL A   1      40.900  29.941  29.456  1.00  0.00     0.074 A 
ATOM     33  C   UNL A   1      40.449  27.738  28.433  1.00  0.00     0.049 A 
ATOM     34  N   UNL A   1      42.183  29.844  29.694  1.00  0.00    -0.248 NA
ATOM     35  C   UNL A   1      40.295  31.195  29.932  1.00  0.00     0.031 C 
ATOM     36  C   UNL A   1      39.642  26.668  27.841  1.00  0.00     0.029 A 
ATOM     37  N   UNL A   1      41.695  27.175  28.561  1.00  0.00    -0.354 N 
ATOM     38  C   UNL A   1      42.543  31.031  30.324  1.00  0.00     0.074 A 
ATOM     39  C   UNL A   1      41.348  31.840  30.416  1.00  0.00     0.031 C 
ATOM     40  C   UNL A   1      40.397  25.567  27.709  1.00  0.00     0.029 A 
ATOM     41  C   UNL A   1      41.758  25.867  28.142  1.00  0.00     0.049 A 
ATOM     42  H   UNL A   1      42.471  27.664  28.920  1.00  0.00     0.167 HD
ATOM     43  C   UNL A   1      43.758  31.406  30.788  1.00  0.00     0.037 A 
ATOM     44  C   UNL A   1      42.796  25.007  28.095  1.00  0.00     0.037 A 
ATOM     45  C   UNL A   1      44.937  30.581  30.725  1.00  0.00     0.049 A 
ATOM     46  C   UNL A   1      44.152  25.472  28.554  1.00  0.00     0.074 A 
ATOM     47  C   UNL A   1      46.218  30.881  31.153  1.00  0.00     0.029 A 
ATOM     48  N   UNL A   1      44.977  29.293  30.212  1.00  0.00    -0.354 N 
ATOM     49  N   UNL A   1      44.485  26.618  29.096  1.00  0.00    -0.248 NA
ATOM     50  C   UNL A   1      45.275  24.541  28.375  1.00  0.00     0.031 C 
ATOM     51  C   UNL A   1      47.042  29.789  30.867  1.00  0.00     0.029 A 
ATOM     52  C   UNL A   1      46.265  28.791  30.299  1.00  0.00     0.049 A 
ATOM     53  H   UNL A   1      44.205  28.807  29.843  1.00  0.00     0.167 HD
ATOM     54  C   UNL A   1      45.854  26.543  29.330  1.00  0.00     0.074 A 
ATOM     55  C   UNL A   1      46.285  25.235  28.884  1.00  0.00     0.031 C 
ATOM     56  C   UNL A   1      46.676  27.481  29.860  1.00  0.00     0.037 A 
BRANCH  43  57
ATOM     57  C   UNL A   1      43.887  32.778  31.384  1.00  0.00     0.058 A 
ATOM     58  C   UNL A   1      43.743  33.003  32.761  1.00  0.00     0.135 A 
ATOM     59  C   UNL A   1      44.209  33.877  30.570  1.00  0.00     0.135 A 
ATOM     60  F   UNL A   1      43.420  31.990  33.581  1.00  0.00    -0.206 F 
ATOM     61  C   UNL A   1      43.895  34.273  33.309  1.00  0.00     0.059 A 
ATOM     62  C   UNL A   1      44.390  35.151  31.100  1.00  0.00     0.059 A 
ATOM     63  F   UNL A   1      44.357  33.716  29.246  1.00  0.00    -0.206 F 
ATOM     64  C   UNL A   1      44.220  35.341  32.470  1.00  0.00     0.060 A 
BRANCH  64  65
ATOM     65  S   UNL A   1      44.424  36.980  33.199  1.00  0.00     0.124 S 
ATOM     66  O   UNL A   1      43.998  37.842  32.101  1.00  0.00    -0.237 OA
ATOM     67  O   UNL A   1      43.525  36.924  34.347  1.00  0.00    -0.237 OA
ATOM     68  O   UNL A   1      45.846  37.034  33.523  1.00  0.00    -0.744 OA
ENDBRANCH  64  65
ENDBRANCH  43  57
BRANCH  44  69
ATOM     69  C   UNL A   1      42.594  23.627  27.577  1.00  0.00     0.058 A 
ATOM     70  C   UNL A   1      42.629  23.358  26.200  1.00  0.00     0.135 A 
ATOM     71  C   UNL A   1      42.394  22.544  28.449  1.00  0.00     0.135 A 
ATOM     72  F   UNL A   1      42.803  24.360  25.325  1.00  0.00    -0.206 F 
ATOM     73  C   UNL A   1      42.476  22.065  25.707  1.00  0.00     0.059 A 
ATOM     74  C   UNL A   1      42.263  21.241  27.980  1.00  0.00     0.059 A 
ATOM     75  F   UNL A   1      42.357  22.746  29.774  1.00  0.00    -0.206 F 
ATOM     76  C   UNL A   1      42.300  21.011  26.605  1.00  0.00     0.060 A 
BRANCH  76  77
ATOM     77  S   UNL A   1      42.169  19.330  25.959  1.00  0.00     0.124 S 
ATOM     78  O   UNL A   1      42.656  18.543  27.087  1.00  0.00    -0.237 OA
ATOM     79  O   UNL A   1      40.741  19.221  25.674  1.00  0.00    -0.237 OA
ATOM     80  O   UNL A   1      43.035  19.352  24.784  1.00  0.00    -0.744 OA
ENDBRANCH  76  77
ENDBRANCH  44  69
BRANCH  56  81
ATOM     81  C   UNL A   1      48.132  27.140  30.006  1.00  0.00     0.058 A 
ATOM     82  C   UNL A   1      49.064  27.500  29.023  1.00  0.00     0.135 A 
ATOM     83  C   UNL A   1      48.613  26.568  31.195  1.00  0.00     0.135 A 
ATOM     84  F   UNL A   1      48.652  28.041  27.866  1.00  0.00    -0.206 F 
ATOM     85  C   UNL A   1      50.429  27.318  29.219  1.00  0.00     0.059 A 
ATOM     86  C   UNL A   1      49.974  26.395  31.420  1.00  0.00     0.059 A 
ATOM     87  F   UNL A   1      47.758  26.212  32.168  1.00  0.00    -0.206 F 
ATOM     88  C   UNL A   1      50.875  26.778  30.427  1.00  0.00     0.060 A 
BRANCH  88  89
ATOM     89  S   UNL A   1      52.655  26.640  30.705  1.00  0.00     0.124 S 
ATOM     90  O   UNL A   1      52.976  27.965  31.224  1.00  0.00    -0.237 OA
ATOM     91  O   UNL A   1      52.735  25.545  31.667  1.00  0.00    -0.237 OA
ATOM     92  O   UNL A   1      53.184  26.340  29.377  1.00  0.00    -0.744 OA
ENDBRANCH  88  89
ENDBRANCH  56  81
ENDBRANCH  30  31
ENDBRANCH  23  25
ENDBRANCH  22  23
ENDBRANCH   1  22
TORSDOF 15
ENDMDL
MODEL 2
REMARK VINA RESULT:     -11.3      3.241      6.589
REMARK SMILES Cc1c(C)c2c(c(C)c1O)CC[C@@](C)(C(=O)OCCOC(=O)c1ccc(-c3c4nc(c(-c5c(F)cc(S(=O)(=O)[O-])cc5F)c5ccc([nH]5)c(-c5c(F)cc(S(=O)(=O)[O-])cc5F)c5nc(c(-c6c(F)cc(S(=O)(=O)[O-])cc6F)c6ccc3[nH]6)C=C5)C=C4)cc1)O2
REMARK SMILES IDX 19 1 18 2 17 3 15 4 16 5 13 6 1 7 2 8 3 9 9 10 4 11 5 12
REMARK SMILES IDX 7 13 6 14 89 15 8 16 11 17 12 18 14 19 10 20 20 22 21 23
REMARK SMILES IDX 22 24 23 25 24 26 88 27 25 28 87 29 26 30 27 31 28 32 81 33
REMARK SMILES IDX 29 34 86 35 80 36 82 37 30 38 85 39 79 40 78 41 31 43 65 44
REMARK SMILES IDX 44 45 64 46 45 47 48 48 63 49 83 50 46 51 47 52 62 54 84 55
REMARK SMILES IDX 49 56 32 57 33 58 42 59 34 60 35 61 41 62 43 63 36 64 37 65
REMARK SMILES IDX 38 66 39 67 40 68 66 69 67 70 76 71 68 72 69 73 75 74 77 75
REMARK SMILES IDX 70 76 71 77 72 78 73 79 74 80 50 81 51 82 60 83 52 84 53 85
REMARK SMILES IDX 59 86 61 87 54 88 55 89 56 90 57 91 58 92
REMARK H PARENT 10 21 82 42 48 53
REMARK Flexibility Score: inf
ROOT
ATOM      1  C   UNL A   1      33.638  32.063  27.640  1.00  0.00     0.275 C 
ENDROOT
BRANCH   1   2
ATOM      2  C   UNL A   1      33.545  33.512  28.119  1.00  0.00     0.274 C 
BRANCH   2   3
ATOM      3  O   UNL A   1      34.515  33.793  29.148  1.00  0.00    -0.459 OA
BRANCH   3   4
ATOM      4  C   UNL A   1      34.031  34.288  30.326  1.00  0.00     0.350 C 
ATOM      5  O   UNL A   1      33.076  35.053  30.397  1.00  0.00    -0.247 OA
BRANCH   4   6
ATOM      6  C   UNL A   1      34.874  33.833  31.542  1.00  0.00     0.203 C 
ATOM      7  C   UNL A   1      40.931  34.662  32.713  1.00  0.00     0.049 C 
ATOM      8  C   UNL A   1      39.471  34.418  33.014  1.00  0.00    -0.002 A 
ATOM      9  C   UNL A   1      38.498  34.388  31.985  1.00  0.00    -0.002 A 
ATOM     10  C   UNL A   1      39.053  34.211  34.342  1.00  0.00     0.122 A 
ATOM     11  C   UNL A   1      38.923  34.533  30.544  1.00  0.00     0.049 C 
ATOM     12  C   UNL A   1      37.133  34.228  32.318  1.00  0.00     0.127 A 
ATOM     13  C   UNL A   1      37.700  34.035  34.675  1.00  0.00    -0.002 A 
ATOM     14  C   UNL A   1      36.726  34.117  33.657  1.00  0.00     0.001 A 
ATOM     15  O   UNL A   1      36.241  34.200  31.272  1.00  0.00    -0.475 OA
ATOM     16  C   UNL A   1      37.290  33.798  36.107  1.00  0.00     0.049 C 
ATOM     17  C   UNL A   1      35.263  34.069  34.002  1.00  0.00     0.044 C 
ATOM     18  C   UNL A   1      34.399  34.500  32.831  1.00  0.00     0.065 C 
ATOM     19  C   UNL A   1      34.771  32.301  31.564  1.00  0.00     0.069 C 
BRANCH  10  20
ATOM     20  O   UNL A   1      39.954  34.172  35.375  1.00  0.00    -0.507 OA
ATOM     21  H   UNL A   1      40.842  33.920  35.214  1.00  0.00     0.293 HD
ENDBRANCH  10  20
ENDBRANCH   4   6
ENDBRANCH   3   4
ENDBRANCH   2   3
ENDBRANCH   1   2
BRANCH   1  22
ATOM     22  O   UNL A   1      34.411  31.274  28.559  1.00  0.00    -0.458 OA
BRANCH  22  23
ATOM     23  C   UNL A   1      34.719  30.021  28.147  1.00  0.00     0.338 C 
ATOM     24  O   UNL A   1      33.991  29.224  27.582  1.00  0.00    -0.246 OA
BRANCH  23  25
ATOM     25  C   UNL A   1      36.147  29.788  28.402  1.00  0.00     0.060 A 
ATOM     26  C   UNL A   1      37.037  29.997  27.355  1.00  0.00     0.016 A 
ATOM     27  C   UNL A   1      36.604  29.310  29.632  1.00  0.00     0.016 A 
ATOM     28  C   UNL A   1      38.386  29.721  27.524  1.00  0.00     0.010 A 
ATOM     29  C   UNL A   1      37.974  29.062  29.808  1.00  0.00     0.010 A 
ATOM     30  C   UNL A   1      38.876  29.253  28.748  1.00  0.00    -0.014 A 
BRANCH  30  31
ATOM     31  C   UNL A   1      40.324  28.929  28.848  1.00  0.00     0.031 A 
ATOM     32  C   UNL A   1      41.270  29.905  29.490  1.00  0.00     0.074 A 
ATOM     33  C   UNL A   1      40.766  27.711  28.472  1.00  0.00     0.049 A 
ATOM     34  N   UNL A   1      42.562  29.801  29.673  1.00  0.00    -0.248 NA
ATOM     35  C   UNL A   1      40.691  31.157  30.001  1.00  0.00     0.031 C 
ATOM     36  C   UNL A   1      39.929  26.649  27.908  1.00  0.00     0.029 A 
ATOM     37  N   UNL A   1      42.014  27.142  28.543  1.00  0.00    -0.354 N 
ATOM     38  C   UNL A   1      42.953  30.981  30.295  1.00  0.00     0.074 A 
ATOM     39  C   UNL A   1      41.767  31.795  30.444  1.00  0.00     0.031 C 
ATOM     40  C   UNL A   1      40.673  25.546  27.736  1.00  0.00     0.029 A 
ATOM     41  C   UNL A   1      42.053  25.837  28.112  1.00  0.00     0.049 A 
ATOM     42  H   UNL A   1      42.807  27.625  28.872  1.00  0.00     0.167 HD
ATOM     43  C   UNL A   1      44.189  31.348  30.710  1.00  0.00     0.037 A 
ATOM     44  C   UNL A   1      43.084  24.973  28.015  1.00  0.00     0.037 A 
ATOM     45  C   UNL A   1      45.360  30.518  30.590  1.00  0.00     0.049 A 
ATOM     46  C   UNL A   1      44.461  25.429  28.419  1.00  0.00     0.074 A 
ATOM     47  C   UNL A   1      46.660  30.811  30.966  1.00  0.00     0.029 A 
ATOM     48  N   UNL A   1      45.372  29.234  30.068  1.00  0.00    -0.354 N 
ATOM     49  N   UNL A   1      44.822  26.570  28.955  1.00  0.00    -0.248 NA
ATOM     50  C   UNL A   1      45.571  24.495  28.185  1.00  0.00     0.031 C 
ATOM     51  C   UNL A   1      47.465  29.717  30.637  1.00  0.00     0.029 A 
ATOM     52  C   UNL A   1      46.661  28.726  30.096  1.00  0.00     0.049 A 
ATOM     53  H   UNL A   1      44.583  28.754  29.729  1.00  0.00     0.167 HD
ATOM     54  C   UNL A   1      46.199  26.487  29.129  1.00  0.00     0.074 A 
ATOM     55  C   UNL A   1      46.605  25.181  28.655  1.00  0.00     0.031 C 
ATOM     56  C   UNL A   1      47.047  27.418  29.630  1.00  0.00     0.037 A 
BRANCH  43  57
ATOM     57  C   UNL A   1      44.349  32.715  31.310  1.00  0.00     0.058 A 
ATOM     58  C   UNL A   1      44.465  33.865  30.514  1.00  0.00     0.135 A 
ATOM     59  C   UNL A   1      44.335  32.882  32.705  1.00  0.00     0.135 A 
ATOM     60  F   UNL A   1      44.498  33.758  29.176  1.00  0.00    -0.206 F 
ATOM     61  C   UNL A   1      44.581  35.130  31.079  1.00  0.00     0.059 A 
ATOM     62  C   UNL A   1      44.426  34.141  33.291  1.00  0.00     0.059 A 
ATOM     63  F   UNL A   1      44.227  31.816  33.512  1.00  0.00    -0.206 F 
ATOM     64  C   UNL A   1      44.560  35.259  32.469  1.00  0.00     0.060 A 
BRANCH  64  65
ATOM     65  S   UNL A   1      44.701  36.910  33.185  1.00  0.00     0.124 S 
ATOM     66  O   UNL A   1      43.710  37.650  32.410  1.00  0.00    -0.237 OA
ATOM     67  O   UNL A   1      44.363  36.672  34.585  1.00  0.00    -0.237 OA
ATOM     68  O   UNL A   1      46.092  37.273  32.933  1.00  0.00    -0.744 OA
ENDBRANCH  64  65
ENDBRANCH  43  57
BRANCH  44  69
ATOM     69  C   UNL A   1      42.854  23.598  27.496  1.00  0.00     0.058 A 
ATOM     70  C   UNL A   1      43.046  23.294  26.140  1.00  0.00     0.135 A 
ATOM     71  C   UNL A   1      42.469  22.552  28.351  1.00  0.00     0.135 A 
ATOM     72  F   UNL A   1      43.400  24.261  25.279  1.00  0.00    -0.206 F 
ATOM     73  C   UNL A   1      42.867  22.003  25.650  1.00  0.00     0.059 A 
ATOM     74  C   UNL A   1      42.309  21.250  27.889  1.00  0.00     0.059 A 
ATOM     75  F   UNL A   1      42.277  22.788  29.657  1.00  0.00    -0.206 F 
ATOM     76  C   UNL A   1      42.505  20.986  26.534  1.00  0.00     0.060 A 
BRANCH  76  77
ATOM     77  S   UNL A   1      42.340  19.301  25.902  1.00  0.00     0.124 S 
ATOM     78  O   UNL A   1      40.899  19.204  25.699  1.00  0.00    -0.237 OA
ATOM     79  O   UNL A   1      43.153  19.348  24.690  1.00  0.00    -0.237 OA
ATOM     80  O   UNL A   1      42.883  18.482  26.980  1.00  0.00    -0.744 OA
ENDBRANCH  76  77
ENDBRANCH  44  69
BRANCH  56  81
ATOM     81  C   UNL A   1      48.506  27.070  29.711  1.00  0.00     0.058 A 
ATOM     82  C   UNL A   1      49.424  27.565  28.775  1.00  0.00     0.135 A 
ATOM     83  C   UNL A   1      49.005  26.346  30.807  1.00  0.00     0.135 A 
ATOM     84  F   UNL A   1      48.995  28.255  27.706  1.00  0.00    -0.206 F 
ATOM     85  C   UNL A   1      50.792  27.367  28.928  1.00  0.00     0.059 A 
ATOM     86  C   UNL A   1      50.370  26.153  30.990  1.00  0.00     0.059 A 
ATOM     87  F   UNL A   1      48.165  25.857  31.733  1.00  0.00    -0.206 F 
ATOM     88  C   UNL A   1      51.256  26.672  30.047  1.00  0.00     0.060 A 
BRANCH  88  89
ATOM     89  S   UNL A   1      53.040  26.510  30.283  1.00  0.00     0.124 S 
ATOM     90  O   UNL A   1      53.107  25.572  31.397  1.00  0.00    -0.237 OA
ATOM     91  O   UNL A   1      53.478  25.993  28.989  1.00  0.00    -0.237 OA
ATOM     92  O   UNL A   1      53.469  27.873  30.582  1.00  0.00    -0.744 OA
ENDBRANCH  88  89
ENDBRANCH  56  81
ENDBRANCH  30  31
ENDBRANCH  23  25
ENDBRANCH  22  23
ENDBRANCH   1  22
TORSDOF 15
ENDMDL
MODEL 3
REMARK VINA RESULT:     -11.3      0.418      1.465
REMARK SMILES Cc1c(C)c2c(c(C)c1O)CC[C@@](C)(C(=O)OCCOC(=O)c1ccc(-c3c4nc(c(-c5c(F)cc(S(=O)(=O)[O-])cc5F)c5ccc([nH]5)c(-c5c(F)cc(S(=O)(=O)[O-])cc5F)c5nc(c(-c6c(F)cc(S(=O)(=O)[O-])cc6F)c6ccc3[nH]6)C=C5)C=C4)cc1)O2
REMARK SMILES IDX 19 1 18 2 17 3 15 4 16 5 13 6 1 7 2 8 3 9 9 10 4 11 5 12
REMARK SMILES IDX 7 13 6 14 89 15 8 16 11 17 12 18 14 19 10 20 20 22 21 23
REMARK SMILES IDX 22 24 23 25 24 26 88 27 25 28 87 29 26 30 27 31 28 32 81 33
REMARK SMILES IDX 29 34 86 35 80 36 82 37 30 38 85 39 79 40 78 41 31 43 65 44
REMARK SMILES IDX 44 45 64 46 45 47 48 48 63 49 83 50 46 51 47 52 62 54 84 55
REMARK SMILES IDX 49 56 32 57 33 58 42 59 34 60 35 61 41 62 43 63 36 64 37 65
REMARK SMILES IDX 38 66 39 67 40 68 66 69 67 70 76 71 68 72 69 73 75 74 77 75
REMARK SMILES IDX 70 76 71 77 72 78 73 79 74 80 50 81 51 82 60 83 52 84 53 85
REMARK SMILES IDX 59 86 61 87 54 88 55 89 56 90 57 91 58 92
REMARK H PARENT 10 21 82 42 48 53
REMARK Flexibility Score: inf
ROOT
ATOM      1  C   UNL A   1      32.470  28.757  27.175  1.00  0.00     0.275 C 
ENDROOT
BRANCH   1   2
ATOM      2  C   UNL A   1      32.276  27.871  25.944  1.00  0.00     0.274 C 
BRANCH   2   3
ATOM      3  O   UNL A   1      32.443  26.475  26.265  1.00  0.00    -0.459 OA
BRANCH   3   4
ATOM      4  C   UNL A   1      31.342  25.679  26.122  1.00  0.00     0.350 C 
ATOM      5  O   UNL A   1      30.221  26.000  26.500  1.00  0.00    -0.247 OA
BRANCH   4   6
ATOM      6  C   UNL A   1      31.690  24.304  25.502  1.00  0.00     0.203 C 
ATOM      7  C   UNL A   1      37.192  21.427  25.052  1.00  0.00     0.049 C 
ATOM      8  C   UNL A   1      35.689  21.564  25.118  1.00  0.00    -0.002 A 
ATOM      9  C   UNL A   1      35.068  22.825  25.291  1.00  0.00    -0.002 A 
ATOM     10  C   UNL A   1      34.874  20.423  25.003  1.00  0.00     0.122 A 
ATOM     11  C   UNL A   1      35.910  24.077  25.344  1.00  0.00     0.049 C 
ATOM     12  C   UNL A   1      33.661  22.901  25.419  1.00  0.00     0.127 A 
ATOM     13  C   UNL A   1      33.475  20.495  25.112  1.00  0.00    -0.002 A 
ATOM     14  C   UNL A   1      32.873  21.740  25.394  1.00  0.00     0.001 A 
ATOM     15  O   UNL A   1      33.122  24.156  25.576  1.00  0.00    -0.475 OA
ATOM     16  C   UNL A   1      32.631  19.254  24.965  1.00  0.00     0.049 C 
ATOM     17  C   UNL A   1      31.393  21.825  25.652  1.00  0.00     0.044 C 
ATOM     18  C   UNL A   1      31.007  23.163  26.254  1.00  0.00     0.065 C 
ATOM     19  C   UNL A   1      31.282  24.403  24.025  1.00  0.00     0.069 C 
BRANCH  10  20
ATOM     20  O   UNL A   1      35.412  19.182  24.777  1.00  0.00    -0.507 OA
ATOM     21  H   UNL A   1      34.852  18.454  24.593  1.00  0.00     0.293 HD
ENDBRANCH  10  20
ENDBRANCH   4   6
ENDBRANCH   3   4
ENDBRANCH   2   3
ENDBRANCH   1   2
BRANCH   1  22
ATOM     22  O   UNL A   1      33.846  28.752  27.592  1.00  0.00    -0.458 OA
BRANCH  22  23
ATOM     23  C   UNL A   1      34.377  29.961  27.888  1.00  0.00     0.338 C 
ATOM     24  O   UNL A   1      33.795  31.027  27.981  1.00  0.00    -0.246 OA
BRANCH  23  25
ATOM     25  C   UNL A   1      35.804  29.779  28.191  1.00  0.00     0.060 A 
ATOM     26  C   UNL A   1      36.718  29.989  27.165  1.00  0.00     0.016 A 
ATOM     27  C   UNL A   1      36.238  29.347  29.445  1.00  0.00     0.016 A 
ATOM     28  C   UNL A   1      38.069  29.759  27.380  1.00  0.00     0.010 A 
ATOM     29  C   UNL A   1      37.609  29.146  29.668  1.00  0.00     0.010 A 
ATOM     30  C   UNL A   1      38.536  29.338  28.630  1.00  0.00    -0.014 A 
BRANCH  30  31
ATOM     31  C   UNL A   1      39.990  29.061  28.780  1.00  0.00     0.031 A 
ATOM     32  C   UNL A   1      40.885  30.080  29.428  1.00  0.00     0.074 A 
ATOM     33  C   UNL A   1      40.479  27.850  28.445  1.00  0.00     0.049 A 
ATOM     34  N   UNL A   1      42.173  30.020  29.652  1.00  0.00    -0.248 NA
ATOM     35  C   UNL A   1      40.253  31.325  29.893  1.00  0.00     0.031 C 
ATOM     36  C   UNL A   1      39.693  26.750  27.881  1.00  0.00     0.029 A 
ATOM     37  N   UNL A   1      41.741  27.322  28.567  1.00  0.00    -0.354 N 
ATOM     38  C   UNL A   1      42.509  31.226  30.258  1.00  0.00     0.074 A 
ATOM     39  C   UNL A   1      41.294  32.005  30.353  1.00  0.00     0.031 C 
ATOM     40  C   UNL A   1      40.475  25.667  27.756  1.00  0.00     0.029 A 
ATOM     41  C   UNL A   1      41.834  26.009  28.167  1.00  0.00     0.049 A 
ATOM     42  H   UNL A   1      42.509  27.836  28.908  1.00  0.00     0.167 HD
ATOM     43  C   UNL A   1      43.719  31.639  30.701  1.00  0.00     0.037 A 
ATOM     44  C   UNL A   1      42.893  25.176  28.120  1.00  0.00     0.037 A 
ATOM     45  C   UNL A   1      44.919  30.845  30.636  1.00  0.00     0.049 A 
ATOM     46  C   UNL A   1      44.242  25.683  28.555  1.00  0.00     0.074 A 
ATOM     47  C   UNL A   1      46.197  31.185  31.043  1.00  0.00     0.029 A 
ATOM     48  N   UNL A   1      44.986  29.550  30.143  1.00  0.00    -0.354 N 
ATOM     49  N   UNL A   1      44.552  26.846  29.075  1.00  0.00    -0.248 NA
ATOM     50  C   UNL A   1      45.387  24.779  28.375  1.00  0.00     0.031 C 
ATOM     51  C   UNL A   1      47.045  30.110  30.763  1.00  0.00     0.029 A 
ATOM     52  C   UNL A   1      46.288  29.083  30.221  1.00  0.00     0.049 A 
ATOM     53  H   UNL A   1      44.223  29.039  29.792  1.00  0.00     0.167 HD
ATOM     54  C   UNL A   1      45.925  26.811  29.292  1.00  0.00     0.074 A 
ATOM     55  C   UNL A   1      46.384  25.508  28.861  1.00  0.00     0.031 C 
ATOM     56  C   UNL A   1      46.728  27.778  29.797  1.00  0.00     0.037 A 
BRANCH  43  57
ATOM     57  C   UNL A   1      43.820  33.024  31.275  1.00  0.00     0.058 A 
ATOM     58  C   UNL A   1      44.060  34.145  30.466  1.00  0.00     0.135 A 
ATOM     59  C   UNL A   1      43.621  33.237  32.649  1.00  0.00     0.135 A 
ATOM     60  F   UNL A   1      44.272  33.994  29.149  1.00  0.00    -0.206 F 
ATOM     61  C   UNL A   1      44.120  35.427  31.002  1.00  0.00     0.059 A 
ATOM     62  C   UNL A   1      43.653  34.514  33.203  1.00  0.00     0.059 A 
ATOM     63  F   UNL A   1      43.388  32.199  33.467  1.00  0.00    -0.206 F 
ATOM     64  C   UNL A   1      43.914  35.602  32.372  1.00  0.00     0.060 A 
BRANCH  64  65
ATOM     65  S   UNL A   1      43.984  37.274  33.049  1.00  0.00     0.124 S 
ATOM     66  O   UNL A   1      43.837  38.083  31.843  1.00  0.00    -0.237 OA
ATOM     67  O   UNL A   1      42.847  37.288  33.964  1.00  0.00    -0.237 OA
ATOM     68  O   UNL A   1      45.297  37.329  33.684  1.00  0.00    -0.744 OA
ENDBRANCH  64  65
ENDBRANCH  43  57
BRANCH  44  69
ATOM     69  C   UNL A   1      42.721  23.783  27.626  1.00  0.00     0.058 A 
ATOM     70  C   UNL A   1      42.583  22.710  28.518  1.00  0.00     0.135 A 
ATOM     71  C   UNL A   1      42.659  23.501  26.251  1.00  0.00     0.135 A 
ATOM     72  F   UNL A   1      42.649  22.925  29.841  1.00  0.00    -0.206 F 
ATOM     73  C   UNL A   1      42.387  21.408  28.067  1.00  0.00     0.059 A 
ATOM     74  C   UNL A   1      42.439  22.212  25.777  1.00  0.00     0.059 A 
ATOM     75  F   UNL A   1      42.781  24.493  25.355  1.00  0.00    -0.206 F 
ATOM     76  C   UNL A   1      42.309  21.170  26.694  1.00  0.00     0.060 A 
BRANCH  76  77
ATOM     77  S   UNL A   1      41.988  19.487  26.119  1.00  0.00     0.124 S 
ATOM     78  O   UNL A   1      42.917  19.378  24.999  1.00  0.00    -0.237 OA
ATOM     79  O   UNL A   1      42.315  18.693  27.300  1.00  0.00    -0.237 OA
ATOM     80  O   UNL A   1      40.573  19.517  25.765  1.00  0.00    -0.744 OA
ENDBRANCH  76  77
ENDBRANCH  44  69
BRANCH  56  81
ATOM     81  C   UNL A   1      48.194  27.477  29.930  1.00  0.00     0.058 A 
ATOM     82  C   UNL A   1      49.092  27.771  28.894  1.00  0.00     0.135 A 
ATOM     83  C   UNL A   1      48.718  27.016  31.148  1.00  0.00     0.135 A 
ATOM     84  F   UNL A   1      48.639  28.205  27.708  1.00  0.00    -0.206 F 
ATOM     85  C   UNL A   1      50.465  27.631  29.066  1.00  0.00     0.059 A 
ATOM     86  C   UNL A   1      50.089  26.888  31.348  1.00  0.00     0.059 A 
ATOM     87  F   UNL A   1      47.898  26.728  32.171  1.00  0.00    -0.206 F 
ATOM     88  C   UNL A   1      50.955  27.203  30.302  1.00  0.00     0.060 A 
BRANCH  88  89
ATOM     89  S   UNL A   1      52.744  27.122  30.540  1.00  0.00     0.124 S 
ATOM     90  O   UNL A   1      52.946  25.698  30.780  1.00  0.00    -0.237 OA
ATOM     91  O   UNL A   1      53.249  27.630  29.267  1.00  0.00    -0.237 OA
ATOM     92  O   UNL A   1      52.974  27.993  31.689  1.00  0.00    -0.744 OA
ENDBRANCH  88  89
ENDBRANCH  56  81
ENDBRANCH  30  31
ENDBRANCH  23  25
ENDBRANCH  22  23
ENDBRANCH   1  22
TORSDOF 15
ENDMDL
