MODEL 1
REMARK VINA RESULT:     -12.6      0.000      0.000
REMARK SMILES CC1=C[C@H](C)[C@H](CN2C[C@]34C=C[C@H](O3)[C@H](C(=O)OCCOC(=O)c3ccc(-c5c6nc(c(-c7c(F)cc(S(=O)(=O)[O-])cc7F)c7ccc([nH]7)c(-c7c(F)cc(S(=O)(=O)[O-])cc7F)c7nc(c(-c8c(F)cc(S(=O)(=O)[O-])cc8F)c8ccc5[nH]8)C=C7)C=C6)cc3)[C@@H]4C2=O)[C@H](C)C1
REMARK SMILES IDX 20 1 19 2 18 3 16 4 17 5 15 6 8 7 9 8 91 9 10 10 90 11 92 12
REMARK SMILES IDX 11 13 14 14 12 15 13 16 7 17 6 18 1 19 2 20 3 21 95 22 4 23
REMARK SMILES IDX 93 24 5 25 94 26 21 27 22 28 23 29 24 30 25 31 89 32 26 33
REMARK SMILES IDX 88 34 27 35 28 36 29 37 82 38 30 39 87 40 81 41 83 42 31 43
REMARK SMILES IDX 86 44 80 45 79 46 32 48 66 49 45 50 65 51 46 52 49 53 64 54
REMARK SMILES IDX 84 55 47 56 48 57 63 59 85 60 50 61 33 62 34 63 43 64 35 65
REMARK SMILES IDX 36 66 42 67 44 68 37 69 38 70 39 71 40 72 41 73 67 74 68 75
REMARK SMILES IDX 77 76 69 77 70 78 76 79 78 80 71 81 72 82 73 83 74 84 75 85
REMARK SMILES IDX 51 86 52 87 61 88 53 89 54 90 60 91 62 92 55 93 56 94 57 95
REMARK SMILES IDX 58 96 59 97
REMARK H PARENT 83 47 49 58
REMARK Flexibility Score: inf
ROOT
ATOM      1  C   UNL A   1      33.231  31.173  27.582  1.00  0.00     0.275 C 
ENDROOT
BRANCH   1   2
ATOM      2  C   UNL A   1      33.322  29.681  27.266  1.00  0.00     0.274 C 
BRANCH   2   3
ATOM      3  O   UNL A   1      32.188  29.287  26.474  1.00  0.00    -0.462 OA
BRANCH   3   4
ATOM      4  C   UNL A   1      31.435  28.198  26.842  1.00  0.00     0.312 C 
ATOM      5  O   UNL A   1      31.250  27.831  27.987  1.00  0.00    -0.252 OA
BRANCH   4   6
ATOM      6  C   UNL A   1      31.062  27.478  25.576  1.00  0.00     0.148 C 
ATOM      7  N   UNL A   1      31.187  23.791  24.999  1.00  0.00    -0.339 N 
ATOM      8  C   UNL A   1      30.739  24.336  23.734  1.00  0.00     0.160 C 
ATOM      9  C   UNL A   1      31.033  24.778  26.012  1.00  0.00     0.230 C 
ATOM     10  C   UNL A   1      31.036  25.810  23.963  1.00  0.00     0.117 C 
ATOM     11  C   UNL A   1      30.468  26.076  25.369  1.00  0.00     0.133 C 
ATOM     12  O   UNL A   1      31.334  24.646  27.188  1.00  0.00    -0.274 OA
ATOM     13  C   UNL A   1      31.005  26.855  22.880  1.00  0.00     0.009 C 
ATOM     14  O   UNL A   1      32.426  26.087  24.353  1.00  0.00    -0.360 OA
ATOM     15  C   UNL A   1      31.828  27.847  23.277  1.00  0.00     0.004 C 
ATOM     16  C   UNL A   1      32.281  27.479  24.648  1.00  0.00     0.157 C 
BRANCH   7  17
ATOM     17  C   UNL A   1      32.032  22.570  25.121  1.00  0.00     0.124 C 
BRANCH  17  18
ATOM     18  C   UNL A   1      33.590  22.738  24.851  1.00  0.00     0.018 C 
ATOM     19  C   UNL A   1      37.953  22.882  25.806  1.00  0.00     0.039 C 
ATOM     20  C   UNL A   1      36.542  22.813  25.304  1.00  0.00    -0.077 C 
ATOM     21  C   UNL A   1      35.735  23.829  25.616  1.00  0.00    -0.025 C 
ATOM     22  C   UNL A   1      35.962  21.497  24.834  1.00  0.00     0.034 C 
ATOM     23  C   UNL A   1      34.325  23.492  25.960  1.00  0.00     0.014 C 
ATOM     24  C   UNL A   1      34.416  21.447  24.475  1.00  0.00    -0.005 C 
ATOM     25  C   UNL A   1      34.332  22.738  27.302  1.00  0.00     0.012 C 
ATOM     26  C   UNL A   1      33.830  20.144  25.031  1.00  0.00     0.008 C 
ENDBRANCH  17  18
ENDBRANCH   7  17
ENDBRANCH   4   6
ENDBRANCH   3   4
ENDBRANCH   2   3
ENDBRANCH   1   2
BRANCH   1  27
ATOM     27  O   UNL A   1      34.559  31.714  27.697  1.00  0.00    -0.458 OA
BRANCH  27  28
ATOM     28  C   UNL A   1      35.135  31.577  28.914  1.00  0.00     0.338 C 
ATOM     29  O   UNL A   1      34.725  32.001  29.982  1.00  0.00    -0.246 OA
BRANCH  28  30
ATOM     30  C   UNL A   1      36.296  30.685  28.804  1.00  0.00     0.060 A 
ATOM     31  C   UNL A   1      36.924  30.302  29.978  1.00  0.00     0.016 A 
ATOM     32  C   UNL A   1      36.889  30.394  27.579  1.00  0.00     0.016 A 
ATOM     33  C   UNL A   1      38.201  29.764  29.940  1.00  0.00     0.010 A 
ATOM     34  C   UNL A   1      38.131  29.732  27.551  1.00  0.00     0.010 A 
ATOM     35  C   UNL A   1      38.844  29.470  28.739  1.00  0.00    -0.014 A 
BRANCH  35  36
ATOM     36  C   UNL A   1      40.288  29.056  28.759  1.00  0.00     0.031 A 
ATOM     37  C   UNL A   1      41.321  30.012  29.308  1.00  0.00     0.074 A 
ATOM     38  C   UNL A   1      40.698  27.810  28.426  1.00  0.00     0.049 A 
ATOM     39  N   UNL A   1      42.622  29.994  29.180  1.00  0.00    -0.248 NA
ATOM     40  C   UNL A   1      40.820  31.154  30.093  1.00  0.00     0.031 C 
ATOM     41  C   UNL A   1      39.838  26.697  28.017  1.00  0.00     0.029 A 
ATOM     42  N   UNL A   1      41.958  27.250  28.426  1.00  0.00    -0.354 N 
ATOM     43  C   UNL A   1      43.078  31.176  29.754  1.00  0.00     0.074 A 
ATOM     44  C   UNL A   1      41.917  31.876  30.257  1.00  0.00     0.031 C 
ATOM     45  C   UNL A   1      40.569  25.578  27.917  1.00  0.00     0.029 A 
ATOM     46  C   UNL A   1      41.975  25.920  28.069  1.00  0.00     0.049 A 
ATOM     47  H   UNL A   1      42.771  27.755  28.660  1.00  0.00     0.167 HD
ATOM     48  C   UNL A   1      44.349  31.636  29.837  1.00  0.00     0.037 A 
ATOM     49  C   UNL A   1      42.999  25.082  27.808  1.00  0.00     0.037 A 
ATOM     50  C   UNL A   1      45.505  30.869  29.450  1.00  0.00     0.049 A 
ATOM     51  C   UNL A   1      44.400  25.621  27.846  1.00  0.00     0.074 A 
ATOM     52  C   UNL A   1      46.838  31.238  29.490  1.00  0.00     0.029 A 
ATOM     53  N   UNL A   1      45.469  29.560  28.989  1.00  0.00    -0.354 N 
ATOM     54  N   UNL A   1      44.818  26.807  28.218  1.00  0.00    -0.248 NA
ATOM     55  C   UNL A   1      45.466  24.727  27.374  1.00  0.00     0.031 C 
ATOM     56  C   UNL A   1      47.604  30.170  29.013  1.00  0.00     0.029 A 
ATOM     57  C   UNL A   1      46.754  29.114  28.726  1.00  0.00     0.049 A 
ATOM     58  H   UNL A   1      44.650  29.027  28.867  1.00  0.00     0.167 HD
ATOM     59  C   UNL A   1      46.196  26.799  28.033  1.00  0.00     0.074 A 
ATOM     60  C   UNL A   1      46.544  25.483  27.537  1.00  0.00     0.031 C 
ATOM     61  C   UNL A   1      47.089  27.797  28.245  1.00  0.00     0.037 A 
BRANCH  48  62
ATOM     62  C   UNL A   1      44.553  33.060  30.282  1.00  0.00     0.058 A 
ATOM     63  C   UNL A   1      44.804  33.418  31.615  1.00  0.00     0.135 A 
ATOM     64  C   UNL A   1      44.509  34.091  29.327  1.00  0.00     0.135 A 
ATOM     65  F   UNL A   1      44.837  32.480  32.575  1.00  0.00    -0.206 F 
ATOM     66  C   UNL A   1      44.967  34.750  31.990  1.00  0.00     0.059 A 
ATOM     67  C   UNL A   1      44.703  35.424  29.675  1.00  0.00     0.059 A 
ATOM     68  F   UNL A   1      44.272  33.807  28.037  1.00  0.00    -0.206 F 
ATOM     69  C   UNL A   1      44.913  35.745  31.012  1.00  0.00     0.060 A 
BRANCH  69  70
ATOM     70  S   UNL A   1      45.118  37.468  31.513  1.00  0.00     0.124 S 
ATOM     71  O   UNL A   1      44.220  37.546  32.662  1.00  0.00    -0.237 OA
ATOM     72  O   UNL A   1      46.543  37.538  31.818  1.00  0.00    -0.237 OA
ATOM     73  O   UNL A   1      44.695  38.219  30.335  1.00  0.00    -0.744 OA
ENDBRANCH  69  70
ENDBRANCH  48  62
BRANCH  49  74
ATOM     74  C   UNL A   1      42.731  23.677  27.381  1.00  0.00     0.058 A 
ATOM     75  C   UNL A   1      42.636  23.332  26.024  1.00  0.00     0.135 A 
ATOM     76  C   UNL A   1      42.569  22.647  28.323  1.00  0.00     0.135 A 
ATOM     77  F   UNL A   1      42.754  24.280  25.081  1.00  0.00    -0.206 F 
ATOM     78  C   UNL A   1      42.393  22.022  25.618  1.00  0.00     0.059 A 
ATOM     79  C   UNL A   1      42.366  21.325  27.941  1.00  0.00     0.059 A 
ATOM     80  F   UNL A   1      42.640  22.916  29.636  1.00  0.00    -0.206 F 
ATOM     81  C   UNL A   1      42.269  21.023  26.585  1.00  0.00     0.060 A 
BRANCH  81  82
ATOM     82  S   UNL A   1      42.015  19.317  26.052  1.00  0.00     0.124 S 
ATOM     83  O   UNL A   1      42.847  19.256  24.856  1.00  0.00    -0.237 OA
ATOM     84  O   UNL A   1      42.495  18.558  27.202  1.00  0.00    -0.237 OA
ATOM     85  O   UNL A   1      40.574  19.248  25.823  1.00  0.00    -0.744 OA
ENDBRANCH  81  82
ENDBRANCH  49  74
BRANCH  61  86
ATOM     86  C   UNL A   1      48.537  27.490  27.989  1.00  0.00     0.058 A 
ATOM     87  C   UNL A   1      49.361  26.929  28.976  1.00  0.00     0.135 A 
ATOM     88  C   UNL A   1      49.096  27.726  26.723  1.00  0.00     0.135 A 
ATOM     89  F   UNL A   1      48.878  26.691  30.206  1.00  0.00    -0.206 F 
ATOM     90  C   UNL A   1      50.697  26.633  28.725  1.00  0.00     0.059 A 
ATOM     91  C   UNL A   1      50.422  27.413  26.440  1.00  0.00     0.059 A 
ATOM     92  F   UNL A   1      48.349  28.254  25.740  1.00  0.00    -0.206 F 
ATOM     93  C   UNL A   1      51.218  26.878  27.452  1.00  0.00     0.060 A 
BRANCH  93  94
ATOM     94  S   UNL A   1      52.944  26.463  27.129  1.00  0.00     0.124 S 
ATOM     95  O   UNL A   1      53.513  26.508  28.472  1.00  0.00    -0.237 OA
ATOM     96  O   UNL A   1      52.840  25.138  26.528  1.00  0.00    -0.237 OA
ATOM     97  O   UNL A   1      53.385  27.521  26.225  1.00  0.00    -0.744 OA
ENDBRANCH  93  94
ENDBRANCH  61  86
ENDBRANCH  35  36
ENDBRANCH  28  30
ENDBRANCH  27  28
ENDBRANCH   1  27
TORSDOF 16
ENDMDL
MODEL 2
REMARK VINA RESULT:     -12.5      4.095     10.190
REMARK SMILES CC1=C[C@H](C)[C@H](CN2C[C@]34C=C[C@H](O3)[C@H](C(=O)OCCOC(=O)c3ccc(-c5c6nc(c(-c7c(F)cc(S(=O)(=O)[O-])cc7F)c7ccc([nH]7)c(-c7c(F)cc(S(=O)(=O)[O-])cc7F)c7nc(c(-c8c(F)cc(S(=O)(=O)[O-])cc8F)c8ccc5[nH]8)C=C7)C=C6)cc3)[C@@H]4C2=O)[C@H](C)C1
REMARK SMILES IDX 20 1 19 2 18 3 16 4 17 5 15 6 8 7 9 8 91 9 10 10 90 11 92 12
REMARK SMILES IDX 11 13 14 14 12 15 13 16 7 17 6 18 1 19 2 20 3 21 95 22 4 23
REMARK SMILES IDX 93 24 5 25 94 26 21 27 22 28 23 29 24 30 25 31 89 32 26 33
REMARK SMILES IDX 88 34 27 35 28 36 29 37 82 38 30 39 87 40 81 41 83 42 31 43
REMARK SMILES IDX 86 44 80 45 79 46 32 48 66 49 45 50 65 51 46 52 49 53 64 54
REMARK SMILES IDX 84 55 47 56 48 57 63 59 85 60 50 61 33 62 34 63 43 64 35 65
REMARK SMILES IDX 36 66 42 67 44 68 37 69 38 70 39 71 40 72 41 73 67 74 68 75
REMARK SMILES IDX 77 76 69 77 70 78 76 79 78 80 71 81 72 82 73 83 74 84 75 85
REMARK SMILES IDX 51 86 52 87 61 88 53 89 54 90 60 91 62 92 55 93 56 94 57 95
REMARK SMILES IDX 58 96 59 97
REMARK H PARENT 83 47 49 58
REMARK Flexibility Score: inf
ROOT
ATOM      1  C   UNL A   1      38.698  20.993  25.465  1.00  0.00     0.275 C 
ENDROOT
BRANCH   1   2
ATOM      2  C   UNL A   1      37.321  20.666  24.888  1.00  0.00     0.274 C 
BRANCH   2   3
ATOM      3  O   UNL A   1      36.481  21.831  24.958  1.00  0.00    -0.462 OA
BRANCH   3   4
ATOM      4  C   UNL A   1      35.885  22.320  23.821  1.00  0.00     0.312 C 
ATOM      5  O   UNL A   1      36.474  22.845  22.894  1.00  0.00    -0.252 OA
BRANCH   4   6
ATOM      6  C   UNL A   1      34.399  22.245  24.039  1.00  0.00     0.148 C 
ATOM      7  N   UNL A   1      31.886  24.852  23.126  1.00  0.00    -0.339 N 
ATOM      8  C   UNL A   1      31.105  23.805  23.751  1.00  0.00     0.160 C 
ATOM      9  C   UNL A   1      33.164  24.333  22.775  1.00  0.00     0.230 C 
ATOM     10  C   UNL A   1      32.221  22.976  24.367  1.00  0.00     0.117 C 
ATOM     11  C   UNL A   1      33.244  22.846  23.223  1.00  0.00     0.133 C 
ATOM     12  O   UNL A   1      34.069  24.961  22.247  1.00  0.00    -0.274 OA
ATOM     13  C   UNL A   1      32.000  21.872  25.367  1.00  0.00     0.009 C 
ATOM     14  O   UNL A   1      33.127  23.741  25.236  1.00  0.00    -0.360 OA
ATOM     15  C   UNL A   1      33.137  21.769  26.085  1.00  0.00     0.004 C 
ATOM     16  C   UNL A   1      34.102  22.720  25.465  1.00  0.00     0.157 C 
BRANCH   7  17
ATOM     17  C   UNL A   1      31.551  26.300  23.216  1.00  0.00     0.124 C 
BRANCH  17  18
ATOM     18  C   UNL A   1      31.914  27.044  24.573  1.00  0.00     0.018 C 
ATOM     19  C   UNL A   1      34.058  29.883  27.277  1.00  0.00     0.039 C 
ATOM     20  C   UNL A   1      33.204  28.924  26.504  1.00  0.00    -0.077 C 
ATOM     21  C   UNL A   1      33.773  27.780  26.117  1.00  0.00    -0.025 C 
ATOM     22  C   UNL A   1      31.922  29.395  25.853  1.00  0.00     0.034 C 
ATOM     23  C   UNL A   1      33.415  27.272  24.762  1.00  0.00     0.014 C 
ATOM     24  C   UNL A   1      31.148  28.383  24.907  1.00  0.00    -0.005 C 
ATOM     25  C   UNL A   1      34.018  28.233  23.721  1.00  0.00     0.012 C 
ATOM     26  C   UNL A   1      30.657  29.149  23.672  1.00  0.00     0.008 C 
ENDBRANCH  17  18
ENDBRANCH   7  17
ENDBRANCH   4   6
ENDBRANCH   3   4
ENDBRANCH   2   3
ENDBRANCH   1   2
BRANCH   1  27
ATOM     27  O   UNL A   1      38.788  22.409  25.700  1.00  0.00    -0.458 OA
BRANCH  27  28
ATOM     28  C   UNL A   1      39.969  22.836  26.206  1.00  0.00     0.338 C 
ATOM     29  O   UNL A   1      41.065  22.319  26.072  1.00  0.00    -0.246 OA
BRANCH  28  30
ATOM     30  C   UNL A   1      39.778  24.145  26.844  1.00  0.00     0.060 A 
ATOM     31  C   UNL A   1      40.619  25.176  26.455  1.00  0.00     0.016 A 
ATOM     32  C   UNL A   1      38.941  24.316  27.943  1.00  0.00     0.016 A 
ATOM     33  C   UNL A   1      40.733  26.313  27.240  1.00  0.00     0.010 A 
ATOM     34  C   UNL A   1      38.977  25.527  28.657  1.00  0.00     0.010 A 
ATOM     35  C   UNL A   1      39.929  26.522  28.359  1.00  0.00    -0.014 A 
BRANCH  35  36
ATOM     36  C   UNL A   1      40.220  27.684  29.266  1.00  0.00     0.031 A 
ATOM     37  C   UNL A   1      41.550  27.747  29.980  1.00  0.00     0.074 A 
ATOM     38  C   UNL A   1      39.395  28.751  29.378  1.00  0.00     0.049 A 
ATOM     39  N   UNL A   1      41.913  28.483  30.998  1.00  0.00    -0.248 NA
ATOM     40  C   UNL A   1      42.608  26.846  29.494  1.00  0.00     0.031 C 
ATOM     41  C   UNL A   1      38.137  28.951  28.654  1.00  0.00     0.029 A 
ATOM     42  N   UNL A   1      39.519  29.908  30.117  1.00  0.00    -0.354 N 
ATOM     43  C   UNL A   1      43.186  28.047  31.349  1.00  0.00     0.074 A 
ATOM     44  C   UNL A   1      43.545  27.001  30.418  1.00  0.00     0.031 C 
ATOM     45  C   UNL A   1      37.671  30.185  28.895  1.00  0.00     0.029 A 
ATOM     46  C   UNL A   1      38.486  30.800  29.932  1.00  0.00     0.049 A 
ATOM     47  H   UNL A   1      40.276  30.080  30.723  1.00  0.00     0.167 HD
ATOM     48  C   UNL A   1      43.972  28.473  32.366  1.00  0.00     0.037 A 
ATOM     49  C   UNL A   1      38.173  31.945  30.572  1.00  0.00     0.037 A 
ATOM     50  C   UNL A   1      43.656  29.603  33.202  1.00  0.00     0.049 A 
ATOM     51  C   UNL A   1      39.019  32.375  31.737  1.00  0.00     0.074 A 
ATOM     52  C   UNL A   1      44.380  30.121  34.262  1.00  0.00     0.029 A 
ATOM     53  N   UNL A   1      42.541  30.415  33.048  1.00  0.00    -0.354 N 
ATOM     54  N   UNL A   1      40.134  31.849  32.185  1.00  0.00    -0.248 NA
ATOM     55  C   UNL A   1      38.535  33.520  32.519  1.00  0.00     0.031 C 
ATOM     56  C   UNL A   1      43.682  31.218  34.776  1.00  0.00     0.029 A 
ATOM     57  C   UNL A   1      42.550  31.419  34.003  1.00  0.00     0.049 A 
ATOM     58  H   UNL A   1      41.846  30.296  32.360  1.00  0.00     0.167 HD
ATOM     59  C   UNL A   1      40.490  32.605  33.296  1.00  0.00     0.074 A 
ATOM     60  C   UNL A   1      39.483  33.636  33.440  1.00  0.00     0.031 C 
ATOM     61  C   UNL A   1      41.549  32.449  34.128  1.00  0.00     0.037 A 
BRANCH  48  62
ATOM     62  C   UNL A   1      45.203  27.669  32.688  1.00  0.00     0.058 A 
ATOM     63  C   UNL A   1      46.477  27.982  32.190  1.00  0.00     0.135 A 
ATOM     64  C   UNL A   1      45.092  26.554  33.539  1.00  0.00     0.135 A 
ATOM     65  F   UNL A   1      46.641  29.021  31.356  1.00  0.00    -0.206 F 
ATOM     66  C   UNL A   1      47.588  27.200  32.495  1.00  0.00     0.059 A 
ATOM     67  C   UNL A   1      46.195  25.780  33.884  1.00  0.00     0.059 A 
ATOM     68  F   UNL A   1      43.898  26.207  34.045  1.00  0.00    -0.206 F 
ATOM     69  C   UNL A   1      47.436  26.100  33.342  1.00  0.00     0.060 A 
BRANCH  69  70
ATOM     70  S   UNL A   1      48.883  25.089  33.723  1.00  0.00     0.124 S 
ATOM     71  O   UNL A   1      48.260  23.839  34.149  1.00  0.00    -0.237 OA
ATOM     72  O   UNL A   1      49.578  25.043  32.440  1.00  0.00    -0.237 OA
ATOM     73  O   UNL A   1      49.559  25.843  34.773  1.00  0.00    -0.744 OA
ENDBRANCH  69  70
ENDBRANCH  48  62
BRANCH  49  74
ATOM     74  C   UNL A   1      36.943  32.704  30.199  1.00  0.00     0.058 A 
ATOM     75  C   UNL A   1      35.735  32.522  30.890  1.00  0.00     0.135 A 
ATOM     76  C   UNL A   1      36.952  33.632  29.144  1.00  0.00     0.135 A 
ATOM     77  F   UNL A   1      35.661  31.627  31.888  1.00  0.00    -0.206 F 
ATOM     78  C   UNL A   1      34.586  33.232  30.552  1.00  0.00     0.059 A 
ATOM     79  C   UNL A   1      35.828  34.383  28.814  1.00  0.00     0.059 A 
ATOM     80  F   UNL A   1      38.075  33.843  28.440  1.00  0.00    -0.206 F 
ATOM     81  C   UNL A   1      34.645  34.168  29.517  1.00  0.00     0.060 A 
BRANCH  81  82
ATOM     82  S   UNL A   1      33.168  35.129  29.122  1.00  0.00     0.124 S 
ATOM     83  O   UNL A   1      33.749  36.341  28.557  1.00  0.00    -0.237 OA
ATOM     84  O   UNL A   1      32.473  34.256  28.182  1.00  0.00    -0.237 OA
ATOM     85  O   UNL A   1      32.514  35.287  30.418  1.00  0.00    -0.744 OA
ENDBRANCH  81  82
ENDBRANCH  49  74
BRANCH  61  86
ATOM     86  C   UNL A   1      41.703  33.446  35.241  1.00  0.00     0.058 A 
ATOM     87  C   UNL A   1      42.397  34.652  35.064  1.00  0.00     0.135 A 
ATOM     88  C   UNL A   1      41.111  33.207  36.491  1.00  0.00     0.135 A 
ATOM     89  F   UNL A   1      42.989  34.926  33.890  1.00  0.00    -0.206 F 
ATOM     90  C   UNL A   1      42.521  35.578  36.095  1.00  0.00     0.059 A 
ATOM     91  C   UNL A   1      41.198  34.129  37.529  1.00  0.00     0.059 A 
ATOM     92  F   UNL A   1      40.428  32.072  36.710  1.00  0.00    -0.206 F 
ATOM     93  C   UNL A   1      41.916  35.307  37.325  1.00  0.00     0.060 A 
BRANCH  93  94
ATOM     94  S   UNL A   1      42.058  36.528  38.646  1.00  0.00     0.124 S 
ATOM     95  O   UNL A   1      40.720  37.111  38.652  1.00  0.00    -0.237 OA
ATOM     96  O   UNL A   1      42.396  35.702  39.800  1.00  0.00    -0.237 OA
ATOM     97  O   UNL A   1      43.124  37.410  38.180  1.00  0.00    -0.744 OA
ENDBRANCH  93  94
ENDBRANCH  61  86
ENDBRANCH  35  36
ENDBRANCH  28  30
ENDBRANCH  27  28
ENDBRANCH   1  27
TORSDOF 16
ENDMDL
MODEL 3
REMARK VINA RESULT:     -12.3      4.488     10.352
REMARK SMILES CC1=C[C@H](C)[C@H](CN2C[C@]34C=C[C@H](O3)[C@H](C(=O)OCCOC(=O)c3ccc(-c5c6nc(c(-c7c(F)cc(S(=O)(=O)[O-])cc7F)c7ccc([nH]7)c(-c7c(F)cc(S(=O)(=O)[O-])cc7F)c7nc(c(-c8c(F)cc(S(=O)(=O)[O-])cc8F)c8ccc5[nH]8)C=C7)C=C6)cc3)[C@@H]4C2=O)[C@H](C)C1
REMARK SMILES IDX 20 1 19 2 18 3 16 4 17 5 15 6 8 7 9 8 91 9 10 10 90 11 92 12
REMARK SMILES IDX 11 13 14 14 12 15 13 16 7 17 6 18 1 19 2 20 3 21 95 22 4 23
REMARK SMILES IDX 93 24 5 25 94 26 21 27 22 28 23 29 24 30 25 31 89 32 26 33
REMARK SMILES IDX 88 34 27 35 28 36 29 37 82 38 30 39 87 40 81 41 83 42 31 43
REMARK SMILES IDX 86 44 80 45 79 46 32 48 66 49 45 50 65 51 46 52 49 53 64 54
REMARK SMILES IDX 84 55 47 56 48 57 63 59 85 60 50 61 33 62 34 63 43 64 35 65
REMARK SMILES IDX 36 66 42 67 44 68 37 69 38 70 39 71 40 72 41 73 67 74 68 75
REMARK SMILES IDX 77 76 69 77 70 78 76 79 78 80 71 81 72 82 73 83 74 84 75 85
REMARK SMILES IDX 51 86 52 87 61 88 53 89 54 90 60 91 62 92 55 93 56 94 57 95
REMARK SMILES IDX 58 96 59 97
REMARK H PARENT 83 47 49 58
REMARK Flexibility Score: inf
ROOT
ATOM      1  C   UNL A   1      38.877  21.205  25.755  1.00  0.00     0.275 C 
ENDROOT
BRANCH   1   2
ATOM      2  C   UNL A   1      37.579  20.839  25.037  1.00  0.00     0.274 C 
BRANCH   2   3
ATOM      3  O   UNL A   1      36.707  21.982  25.007  1.00  0.00    -0.462 OA
BRANCH   3   4
ATOM      4  C   UNL A   1      36.023  22.297  23.859  1.00  0.00     0.312 C 
ATOM      5  O   UNL A   1      36.532  22.700  22.829  1.00  0.00    -0.252 OA
BRANCH   4   6
ATOM      6  C   UNL A   1      34.558  22.222  24.188  1.00  0.00     0.148 C 
ATOM      7  N   UNL A   1      31.966  24.787  23.383  1.00  0.00    -0.339 N 
ATOM      8  C   UNL A   1      31.241  23.757  24.097  1.00  0.00     0.160 C 
ATOM      9  C   UNL A   1      33.218  24.263  22.955  1.00  0.00     0.230 C 
ATOM     10  C   UNL A   1      32.405  22.953  24.654  1.00  0.00     0.117 C 
ATOM     11  C   UNL A   1      33.341  22.791  23.442  1.00  0.00     0.133 C 
ATOM     12  O   UNL A   1      34.077  24.878  22.342  1.00  0.00    -0.274 OA
ATOM     13  C   UNL A   1      32.266  21.881  25.702  1.00  0.00     0.009 C 
ATOM     14  O   UNL A   1      33.367  23.750  25.429  1.00  0.00    -0.360 OA
ATOM     15  C   UNL A   1      33.453  21.805  26.337  1.00  0.00     0.004 C 
ATOM     16  C   UNL A   1      34.363  22.741  25.617  1.00  0.00     0.157 C 
BRANCH   7  17
ATOM     17  C   UNL A   1      31.628  26.236  23.452  1.00  0.00     0.124 C 
BRANCH  17  18
ATOM     18  C   UNL A   1      32.063  27.019  24.765  1.00  0.00     0.018 C 
ATOM     19  C   UNL A   1      34.276  30.003  27.250  1.00  0.00     0.039 C 
ATOM     20  C   UNL A   1      33.410  28.990  26.561  1.00  0.00    -0.077 C 
ATOM     21  C   UNL A   1      34.002  27.870  26.142  1.00  0.00    -0.025 C 
ATOM     22  C   UNL A   1      32.057  29.387  26.013  1.00  0.00     0.034 C 
ATOM     23  C   UNL A   1      33.561  27.323  24.828  1.00  0.00     0.014 C 
ATOM     24  C   UNL A   1      31.260  28.323  25.146  1.00  0.00    -0.005 C 
ATOM     25  C   UNL A   1      34.028  28.295  23.730  1.00  0.00     0.012 C 
ATOM     26  C   UNL A   1      30.632  29.045  23.947  1.00  0.00     0.008 C 
ENDBRANCH  17  18
ENDBRANCH   7  17
ENDBRANCH   4   6
ENDBRANCH   3   4
ENDBRANCH   2   3
ENDBRANCH   1   2
BRANCH   1  27
ATOM     27  O   UNL A   1      39.028  22.635  25.761  1.00  0.00    -0.458 OA
BRANCH  27  28
ATOM     28  C   UNL A   1      40.191  23.090  26.283  1.00  0.00     0.338 C 
ATOM     29  O   UNL A   1      41.306  22.615  26.144  1.00  0.00    -0.246 OA
BRANCH  28  30
ATOM     30  C   UNL A   1      39.952  24.376  26.951  1.00  0.00     0.060 A 
ATOM     31  C   UNL A   1      40.834  25.411  26.684  1.00  0.00     0.016 A 
ATOM     32  C   UNL A   1      39.016  24.515  27.973  1.00  0.00     0.016 A 
ATOM     33  C   UNL A   1      40.883  26.516  27.520  1.00  0.00     0.010 A 
ATOM     34  C   UNL A   1      38.994  25.697  28.734  1.00  0.00     0.010 A 
ATOM     35  C   UNL A   1      39.979  26.692  28.566  1.00  0.00    -0.014 A 
BRANCH  35  36
ATOM     36  C   UNL A   1      40.192  27.814  29.541  1.00  0.00     0.031 A 
ATOM     37  C   UNL A   1      41.459  27.846  30.364  1.00  0.00     0.074 A 
ATOM     38  C   UNL A   1      39.359  28.877  29.629  1.00  0.00     0.049 A 
ATOM     39  N   UNL A   1      41.737  28.538  31.438  1.00  0.00    -0.248 NA
ATOM     40  C   UNL A   1      42.556  26.964  29.929  1.00  0.00     0.031 C 
ATOM     41  C   UNL A   1      38.164  29.109  28.814  1.00  0.00     0.029 A 
ATOM     42  N   UNL A   1      39.420  30.002  30.424  1.00  0.00    -0.354 N 
ATOM     43  C   UNL A   1      42.977  28.086  31.873  1.00  0.00     0.074 A 
ATOM     44  C   UNL A   1      43.413  27.079  30.932  1.00  0.00     0.031 C 
ATOM     45  C   UNL A   1      37.678  30.332  29.068  1.00  0.00     0.029 A 
ATOM     46  C   UNL A   1      38.404  30.903  30.192  1.00  0.00     0.049 A 
ATOM     47  H   UNL A   1      40.125  30.148  31.096  1.00  0.00     0.167 HD
ATOM     48  C   UNL A   1      43.677  28.468  32.968  1.00  0.00     0.037 A 
ATOM     49  C   UNL A   1      38.037  32.021  30.851  1.00  0.00     0.037 A 
ATOM     50  C   UNL A   1      43.291  29.563  33.822  1.00  0.00     0.049 A 
ATOM     51  C   UNL A   1      38.785  32.400  32.098  1.00  0.00     0.074 A 
ATOM     52  C   UNL A   1      43.926  30.035  34.958  1.00  0.00     0.029 A 
ATOM     53  N   UNL A   1      42.192  30.383  33.611  1.00  0.00    -0.354 N 
ATOM     54  N   UNL A   1      39.861  31.855  32.613  1.00  0.00    -0.248 NA
ATOM     55  C   UNL A   1      38.236  33.513  32.885  1.00  0.00     0.031 C 
ATOM     56  C   UNL A   1      43.186  31.111  35.458  1.00  0.00     0.029 A 
ATOM     57  C   UNL A   1      42.121  31.346  34.603  1.00  0.00     0.049 A 
ATOM     58  H   UNL A   1      41.555  30.293  32.864  1.00  0.00     0.167 HD
ATOM     59  C   UNL A   1      40.123  32.563  33.780  1.00  0.00     0.074 A 
ATOM     60  C   UNL A   1      39.106  33.590  33.884  1.00  0.00     0.031 C 
ATOM     61  C   UNL A   1      41.111  32.371  34.689  1.00  0.00     0.037 A 
BRANCH  48  62
ATOM     62  C   UNL A   1      44.879  27.649  33.355  1.00  0.00     0.058 A 
ATOM     63  C   UNL A   1      46.191  27.992  32.994  1.00  0.00     0.135 A 
ATOM     64  C   UNL A   1      44.699  26.489  34.130  1.00  0.00     0.135 A 
ATOM     65  F   UNL A   1      46.423  29.076  32.238  1.00  0.00    -0.206 F 
ATOM     66  C   UNL A   1      47.275  27.196  33.356  1.00  0.00     0.059 A 
ATOM     67  C   UNL A   1      45.770  25.698  34.531  1.00  0.00     0.059 A 
ATOM     68  F   UNL A   1      43.466  26.112  34.505  1.00  0.00    -0.206 F 
ATOM     69  C   UNL A   1      47.054  26.050  34.123  1.00  0.00     0.060 A 
BRANCH  69  70
ATOM     70  S   UNL A   1      48.467  25.022  34.578  1.00  0.00     0.124 S 
ATOM     71  O   UNL A   1      47.814  23.936  35.303  1.00  0.00    -0.237 OA
ATOM     72  O   UNL A   1      49.027  24.668  33.277  1.00  0.00    -0.237 OA
ATOM     73  O   UNL A   1      49.290  25.913  35.390  1.00  0.00    -0.744 OA
ENDBRANCH  69  70
ENDBRANCH  48  62
BRANCH  49  74
ATOM     74  C   UNL A   1      36.841  32.797  30.411  1.00  0.00     0.058 A 
ATOM     75  C   UNL A   1      36.942  33.806  29.441  1.00  0.00     0.135 A 
ATOM     76  C   UNL A   1      35.569  32.542  30.950  1.00  0.00     0.135 A 
ATOM     77  F   UNL A   1      38.138  34.112  28.913  1.00  0.00    -0.206 F 
ATOM     78  C   UNL A   1      35.829  34.530  29.021  1.00  0.00     0.059 A 
ATOM     79  C   UNL A   1      34.436  33.224  30.517  1.00  0.00     0.059 A 
ATOM     80  F   UNL A   1      35.410  31.596  31.888  1.00  0.00    -0.206 F 
ATOM     81  C   UNL A   1      34.578  34.224  29.559  1.00  0.00     0.060 A 
BRANCH  81  82
ATOM     82  S   UNL A   1      33.128  35.125  28.967  1.00  0.00     0.124 S 
ATOM     83  O   UNL A   1      32.378  35.317  30.202  1.00  0.00    -0.237 OA
ATOM     84  O   UNL A   1      33.724  36.324  28.389  1.00  0.00    -0.237 OA
ATOM     85  O   UNL A   1      32.532  34.204  28.003  1.00  0.00    -0.744 OA
ENDBRANCH  81  82
ENDBRANCH  49  74
BRANCH  61  86
ATOM     86  C   UNL A   1      41.171  33.322  35.851  1.00  0.00     0.058 A 
ATOM     87  C   UNL A   1      40.432  33.106  37.023  1.00  0.00     0.135 A 
ATOM     88  C   UNL A   1      42.013  34.444  35.802  1.00  0.00     0.135 A 
ATOM     89  F   UNL A   1      39.605  32.052  37.118  1.00  0.00    -0.206 F 
ATOM     90  C   UNL A   1      40.506  33.983  38.101  1.00  0.00     0.059 A 
ATOM     91  C   UNL A   1      42.125  35.320  36.877  1.00  0.00     0.059 A 
ATOM     92  F   UNL A   1      42.748  34.692  34.707  1.00  0.00    -0.206 F 
ATOM     93  C   UNL A   1      41.358  35.088  38.018  1.00  0.00     0.060 A 
BRANCH  93  94
ATOM     94  S   UNL A   1      41.468  36.202  39.433  1.00  0.00     0.124 S 
ATOM     95  O   UNL A   1      41.657  37.492  38.777  1.00  0.00    -0.237 OA
ATOM     96  O   UNL A   1      40.180  36.006  40.088  1.00  0.00    -0.237 OA
ATOM     97  O   UNL A   1      42.623  35.700  40.172  1.00  0.00    -0.744 OA
ENDBRANCH  93  94
ENDBRANCH  61  86
ENDBRANCH  35  36
ENDBRANCH  28  30
ENDBRANCH  27  28
ENDBRANCH   1  27
TORSDOF 16
ENDMDL
