MODEL 1
REMARK VINA RESULT:     -10.7      0.000      0.000
REMARK SMILES C[C@@H]1[C@H](C(=O)OCCOC(=O)c2ccc(-c3c4nc(c(-c5c(F)cc(S(=O)(=O)[O-])cc5F)c5ccc([nH]5)c(-c5c(F)cc(S(=O)(=O)[O-])cc5F)c5nc(c(-c6c(F)cc(S(=O)(=O)[O-])cc6F)c6ccc3[nH]6)C=C5)C=C4)cc2)CC[N@@H+]1CCOc1c(Cl)cccc1Cl
REMARK SMILES IDX 7 1 6 2 4 3 5 4 3 5 1 6 2 7 80 8 78 9 79 10 81 12 82 13
REMARK SMILES IDX 83 14 84 15 85 16 90 17 86 18 87 19 89 20 91 21 88 22 8 23
REMARK SMILES IDX 9 24 10 25 11 26 12 27 13 28 77 29 14 30 76 31 15 32 16 33
REMARK SMILES IDX 17 34 70 35 18 36 75 37 69 38 71 39 19 40 74 41 68 42 67 43
REMARK SMILES IDX 20 45 54 46 33 47 53 48 34 49 37 50 52 51 72 52 35 53 36 54
REMARK SMILES IDX 51 56 73 57 38 58 21 59 22 60 31 61 23 62 24 63 30 64 32 65
REMARK SMILES IDX 25 66 26 67 27 68 28 69 29 70 55 71 56 72 65 73 57 74 58 75
REMARK SMILES IDX 64 76 66 77 59 78 60 79 61 80 62 81 63 82 39 83 40 84 49 85
REMARK SMILES IDX 41 86 42 87 48 88 50 89 43 90 44 91 45 92 46 93 47 94
REMARK H PARENT 80 11 71 44 37 55
REMARK Flexibility Score: inf
ROOT
ATOM      1  C   UNL A   1      32.618  29.456  25.347  1.00  0.00     0.274 C 
ENDROOT
BRANCH   1   2
ATOM      2  O   UNL A   1      31.599  28.444  25.255  1.00  0.00    -0.462 OA
BRANCH   2   3
ATOM      3  C   UNL A   1      30.778  28.496  24.178  1.00  0.00     0.315 C 
ATOM      4  O   UNL A   1      30.428  29.535  23.629  1.00  0.00    -0.252 OA
BRANCH   3   5
ATOM      5  C   UNL A   1      30.515  27.113  23.606  1.00  0.00     0.162 C 
ATOM      6  C   UNL A   1      32.806  27.168  22.310  1.00  0.00     0.076 C 
ATOM      7  C   UNL A   1      31.566  26.395  22.741  1.00  0.00     0.195 C 
ATOM      8  N   UNL A   1      31.762  25.055  23.338  1.00  0.00    -0.329 N 
ATOM      9  C   UNL A   1      30.184  26.125  24.723  1.00  0.00     0.083 C 
ATOM     10  C   UNL A   1      30.587  24.782  24.163  1.00  0.00     0.263 C 
ATOM     11  H   UNL A   1      31.845  24.407  22.555  1.00  0.00     0.348 HD
BRANCH   8  12
ATOM     12  C   UNL A   1      33.047  24.713  23.964  1.00  0.00     0.304 C 
BRANCH  12  13
ATOM     13  C   UNL A   1      33.621  23.295  23.782  1.00  0.00     0.291 C 
BRANCH  13  14
ATOM     14  O   UNL A   1      33.848  22.634  25.042  1.00  0.00    -0.485 OA
BRANCH  14  15
ATOM     15  C   UNL A   1      35.027  21.930  25.085  1.00  0.00     0.156 A 
ATOM     16  C   UNL A   1      35.103  20.536  24.926  1.00  0.00     0.084 A 
ATOM     17  C   UNL A   1      36.213  22.647  25.305  1.00  0.00     0.084 A 
ATOM     18  Cl  UNL A   1      33.696  19.528  24.892  1.00  0.00    -0.080 Cl
ATOM     19  C   UNL A   1      36.347  19.907  24.821  1.00  0.00     0.024 A 
ATOM     20  C   UNL A   1      37.455  22.014  25.203  1.00  0.00     0.024 A 
ATOM     21  Cl  UNL A   1      36.191  24.333  25.691  1.00  0.00    -0.080 Cl
ATOM     22  C   UNL A   1      37.522  20.648  24.932  1.00  0.00     0.003 A 
ENDBRANCH  14  15
ENDBRANCH  13  14
ENDBRANCH  12  13
ENDBRANCH   8  12
ENDBRANCH   3   5
ENDBRANCH   2   3
ENDBRANCH   1   2
BRANCH   1  23
ATOM     23  C   UNL A   1      32.558  30.087  26.737  1.00  0.00     0.275 C 
BRANCH  23  24
ATOM     24  O   UNL A   1      33.621  29.584  27.571  1.00  0.00    -0.458 OA
BRANCH  24  25
ATOM     25  C   UNL A   1      34.409  30.531  28.127  1.00  0.00     0.338 C 
ATOM     26  O   UNL A   1      34.087  31.660  28.473  1.00  0.00    -0.246 OA
BRANCH  25  27
ATOM     27  C   UNL A   1      35.765  30.006  28.312  1.00  0.00     0.060 A 
ATOM     28  C   UNL A   1      36.182  29.594  29.580  1.00  0.00     0.016 A 
ATOM     29  C   UNL A   1      36.665  30.053  27.248  1.00  0.00     0.016 A 
ATOM     30  C   UNL A   1      37.524  29.295  29.804  1.00  0.00     0.010 A 
ATOM     31  C   UNL A   1      37.995  29.682  27.461  1.00  0.00     0.010 A 
ATOM     32  C   UNL A   1      38.443  29.326  28.745  1.00  0.00    -0.014 A 
BRANCH  32  33
ATOM     33  C   UNL A   1      39.876  29.000  28.966  1.00  0.00     0.031 A 
ATOM     34  C   UNL A   1      40.821  30.056  29.477  1.00  0.00     0.074 A 
ATOM     35  C   UNL A   1      40.337  27.766  28.686  1.00  0.00     0.049 A 
ATOM     36  N   UNL A   1      42.126  30.035  29.542  1.00  0.00    -0.248 NA
ATOM     37  C   UNL A   1      40.214  31.303  29.970  1.00  0.00     0.031 C 
ATOM     38  C   UNL A   1      39.520  26.640  28.226  1.00  0.00     0.029 A 
ATOM     39  N   UNL A   1      41.609  27.252  28.736  1.00  0.00    -0.354 N 
ATOM     40  C   UNL A   1      42.502  31.277  30.044  1.00  0.00     0.074 A 
ATOM     41  C   UNL A   1      41.284  32.029  30.262  1.00  0.00     0.031 C 
ATOM     42  C   UNL A   1      40.308  25.568  28.048  1.00  0.00     0.029 A 
ATOM     43  C   UNL A   1      41.692  25.947  28.310  1.00  0.00     0.049 A 
ATOM     44  H   UNL A   1      42.388  27.769  29.047  1.00  0.00     0.167 HD
ATOM     45  C   UNL A   1      43.748  31.744  30.297  1.00  0.00     0.037 A 
ATOM     46  C   UNL A   1      42.764  25.158  28.110  1.00  0.00     0.037 A 
ATOM     47  C   UNL A   1      44.953  30.978  30.106  1.00  0.00     0.049 A 
ATOM     48  C   UNL A   1      44.139  25.712  28.357  1.00  0.00     0.074 A 
ATOM     49  C   UNL A   1      46.264  31.361  30.327  1.00  0.00     0.029 A 
ATOM     50  N   UNL A   1      44.991  29.663  29.665  1.00  0.00    -0.354 N 
ATOM     51  N   UNL A   1      44.482  26.906  28.776  1.00  0.00    -0.248 NA
ATOM     52  C   UNL A   1      45.273  24.816  28.089  1.00  0.00     0.031 C 
ATOM     53  C   UNL A   1      47.097  30.287  29.994  1.00  0.00     0.029 A 
ATOM     54  C   UNL A   1      46.303  29.223  29.601  1.00  0.00     0.049 A 
ATOM     55  H   UNL A   1      44.203  29.122  29.432  1.00  0.00     0.167 HD
ATOM     56  C   UNL A   1      45.870  26.902  28.835  1.00  0.00     0.074 A 
ATOM     57  C   UNL A   1      46.303  25.583  28.421  1.00  0.00     0.031 C 
ATOM     58  C   UNL A   1      46.711  27.902  29.193  1.00  0.00     0.037 A 
BRANCH  45  59
ATOM     59  C   UNL A   1      43.876  33.161  30.784  1.00  0.00     0.058 A 
ATOM     60  C   UNL A   1      43.901  33.473  32.152  1.00  0.00     0.135 A 
ATOM     61  C   UNL A   1      44.008  34.218  29.868  1.00  0.00     0.135 A 
ATOM     62  F   UNL A   1      43.762  32.503  33.069  1.00  0.00    -0.206 F 
ATOM     63  C   UNL A   1      44.030  34.787  32.595  1.00  0.00     0.059 A 
ATOM     64  C   UNL A   1      44.159  35.536  30.289  1.00  0.00     0.059 A 
ATOM     65  F   UNL A   1      43.989  33.974  28.548  1.00  0.00    -0.206 F 
ATOM     66  C   UNL A   1      44.154  35.811  31.655  1.00  0.00     0.060 A 
BRANCH  66  67
ATOM     67  S   UNL A   1      44.320  37.512  32.241  1.00  0.00     0.124 S 
ATOM     68  O   UNL A   1      43.377  37.527  33.355  1.00  0.00    -0.237 OA
ATOM     69  O   UNL A   1      45.731  37.584  32.606  1.00  0.00    -0.237 OA
ATOM     70  O   UNL A   1      43.935  38.309  31.081  1.00  0.00    -0.744 OA
ENDBRANCH  66  67
ENDBRANCH  45  59
BRANCH  46  71
ATOM     71  C   UNL A   1      42.579  23.770  27.614  1.00  0.00     0.058 A 
ATOM     72  C   UNL A   1      42.481  23.503  26.241  1.00  0.00     0.135 A 
ATOM     73  C   UNL A   1      42.512  22.684  28.500  1.00  0.00     0.135 A 
ATOM     74  F   UNL A   1      42.531  24.511  25.357  1.00  0.00    -0.206 F 
ATOM     75  C   UNL A   1      42.316  22.208  25.761  1.00  0.00     0.059 A 
ATOM     76  C   UNL A   1      42.371  21.378  28.044  1.00  0.00     0.059 A 
ATOM     77  F   UNL A   1      42.614  22.886  29.823  1.00  0.00    -0.206 F 
ATOM     78  C   UNL A   1      42.263  21.150  26.672  1.00  0.00     0.060 A 
BRANCH  78  79
ATOM     79  S   UNL A   1      42.106  19.465  26.043  1.00  0.00     0.124 S 
ATOM     80  O   UNL A   1      40.670  19.372  25.812  1.00  0.00    -0.237 OA
ATOM     81  O   UNL A   1      42.945  19.500  24.848  1.00  0.00    -0.237 OA
ATOM     82  O   UNL A   1      42.627  18.652  27.138  1.00  0.00    -0.744 OA
ENDBRANCH  78  79
ENDBRANCH  46  71
BRANCH  58  83
ATOM     83  C   UNL A   1      48.181  27.596  29.186  1.00  0.00     0.058 A 
ATOM     84  C   UNL A   1      48.980  27.866  28.065  1.00  0.00     0.135 A 
ATOM     85  C   UNL A   1      48.801  27.061  30.325  1.00  0.00     0.135 A 
ATOM     86  F   UNL A   1      48.429  28.369  26.948  1.00  0.00    -0.206 F 
ATOM     87  C   UNL A   1      50.344  27.600  28.067  1.00  0.00     0.059 A 
ATOM     88  C   UNL A   1      50.168  26.805  30.356  1.00  0.00     0.059 A 
ATOM     89  F   UNL A   1      48.079  26.792  31.425  1.00  0.00    -0.206 F 
ATOM     90  C   UNL A   1      50.930  27.067  29.218  1.00  0.00     0.060 A 
BRANCH  90  91
ATOM     91  S   UNL A   1      52.708  26.752  29.223  1.00  0.00     0.124 S 
ATOM     92  O   UNL A   1      53.246  28.108  29.178  1.00  0.00    -0.237 OA
ATOM     93  O   UNL A   1      52.897  26.037  30.482  1.00  0.00    -0.237 OA
ATOM     94  O   UNL A   1      52.912  25.954  28.019  1.00  0.00    -0.744 OA
ENDBRANCH  90  91
ENDBRANCH  58  83
ENDBRANCH  32  33
ENDBRANCH  25  27
ENDBRANCH  24  25
ENDBRANCH  23  24
ENDBRANCH   1  23
TORSDOF 18
ENDMDL
MODEL 2
REMARK VINA RESULT:     -10.5      1.115      2.113
REMARK SMILES C[C@@H]1[C@H](C(=O)OCCOC(=O)c2ccc(-c3c4nc(c(-c5c(F)cc(S(=O)(=O)[O-])cc5F)c5ccc([nH]5)c(-c5c(F)cc(S(=O)(=O)[O-])cc5F)c5nc(c(-c6c(F)cc(S(=O)(=O)[O-])cc6F)c6ccc3[nH]6)C=C5)C=C4)cc2)CC[N@@H+]1CCOc1c(Cl)cccc1Cl
REMARK SMILES IDX 7 1 6 2 4 3 5 4 3 5 1 6 2 7 80 8 78 9 79 10 81 12 82 13
REMARK SMILES IDX 83 14 84 15 85 16 90 17 86 18 87 19 89 20 91 21 88 22 8 23
REMARK SMILES IDX 9 24 10 25 11 26 12 27 13 28 77 29 14 30 76 31 15 32 16 33
REMARK SMILES IDX 17 34 70 35 18 36 75 37 69 38 71 39 19 40 74 41 68 42 67 43
REMARK SMILES IDX 20 45 54 46 33 47 53 48 34 49 37 50 52 51 72 52 35 53 36 54
REMARK SMILES IDX 51 56 73 57 38 58 21 59 22 60 31 61 23 62 24 63 30 64 32 65
REMARK SMILES IDX 25 66 26 67 27 68 28 69 29 70 55 71 56 72 65 73 57 74 58 75
REMARK SMILES IDX 64 76 66 77 59 78 60 79 61 80 62 81 63 82 39 83 40 84 49 85
REMARK SMILES IDX 41 86 42 87 48 88 50 89 43 90 44 91 45 92 46 93 47 94
REMARK H PARENT 80 11 71 44 37 55
REMARK Flexibility Score: inf
ROOT
ATOM      1  C   UNL A   1      31.627  29.339  26.789  1.00  0.00     0.274 C 
ENDROOT
BRANCH   1   2
ATOM      2  O   UNL A   1      31.975  27.976  27.093  1.00  0.00    -0.462 OA
BRANCH   2   3
ATOM      3  C   UNL A   1      32.075  27.120  26.047  1.00  0.00     0.315 C 
ATOM      4  O   UNL A   1      32.904  27.224  25.150  1.00  0.00    -0.252 OA
BRANCH   3   5
ATOM      5  C   UNL A   1      31.181  25.905  26.230  1.00  0.00     0.162 C 
ATOM      6  C   UNL A   1      30.038  26.344  23.899  1.00  0.00     0.076 C 
ATOM      7  C   UNL A   1      30.218  25.450  25.119  1.00  0.00     0.195 C 
ATOM      8  N   UNL A   1      30.489  24.014  24.887  1.00  0.00    -0.329 N 
ATOM      9  C   UNL A   1      32.016  24.670  26.558  1.00  0.00     0.083 C 
ATOM     10  C   UNL A   1      31.173  23.513  26.077  1.00  0.00     0.263 C 
ATOM     11  H   UNL A   1      29.580  23.574  24.749  1.00  0.00     0.348 HD
BRANCH   8  12
ATOM     12  C   UNL A   1      31.072  23.576  23.612  1.00  0.00     0.304 C 
BRANCH  12  13
ATOM     13  C   UNL A   1      31.745  22.191  23.525  1.00  0.00     0.291 C 
BRANCH  13  14
ATOM     14  O   UNL A   1      33.082  22.267  22.994  1.00  0.00    -0.485 OA
BRANCH  14  15
ATOM     15  C   UNL A   1      34.009  22.708  23.907  1.00  0.00     0.156 A 
ATOM     16  C   UNL A   1      34.438  24.042  23.991  1.00  0.00     0.084 A 
ATOM     17  C   UNL A   1      34.555  21.768  24.795  1.00  0.00     0.084 A 
ATOM     18  Cl  UNL A   1      34.020  25.229  22.801  1.00  0.00    -0.080 Cl
ATOM     19  C   UNL A   1      35.262  24.451  25.044  1.00  0.00     0.024 A 
ATOM     20  C   UNL A   1      35.380  22.180  25.844  1.00  0.00     0.024 A 
ATOM     21  Cl  UNL A   1      34.219  20.078  24.641  1.00  0.00    -0.080 Cl
ATOM     22  C   UNL A   1      35.710  23.526  25.986  1.00  0.00     0.003 A 
ENDBRANCH  14  15
ENDBRANCH  13  14
ENDBRANCH  12  13
ENDBRANCH   8  12
ENDBRANCH   3   5
ENDBRANCH   2   3
ENDBRANCH   1   2
BRANCH   1  23
ATOM     23  C   UNL A   1      32.899  30.186  26.809  1.00  0.00     0.275 C 
BRANCH  23  24
ATOM     24  O   UNL A   1      33.865  29.631  27.724  1.00  0.00    -0.458 OA
BRANCH  24  25
ATOM     25  C   UNL A   1      34.658  30.537  28.338  1.00  0.00     0.338 C 
ATOM     26  O   UNL A   1      34.334  31.631  28.782  1.00  0.00    -0.246 OA
BRANCH  25  27
ATOM     27  C   UNL A   1      36.022  30.012  28.449  1.00  0.00     0.060 A 
ATOM     28  C   UNL A   1      36.501  29.584  29.690  1.00  0.00     0.016 A 
ATOM     29  C   UNL A   1      36.869  30.076  27.345  1.00  0.00     0.016 A 
ATOM     30  C   UNL A   1      37.852  29.285  29.845  1.00  0.00     0.010 A 
ATOM     31  C   UNL A   1      38.208  29.704  27.487  1.00  0.00     0.010 A 
ATOM     32  C   UNL A   1      38.719  29.332  28.743  1.00  0.00    -0.014 A 
BRANCH  32  33
ATOM     33  C   UNL A   1      40.162  29.006  28.890  1.00  0.00     0.031 A 
ATOM     34  C   UNL A   1      41.135  30.069  29.325  1.00  0.00     0.074 A 
ATOM     35  C   UNL A   1      40.603  27.764  28.611  1.00  0.00     0.049 A 
ATOM     36  N   UNL A   1      42.442  30.045  29.316  1.00  0.00    -0.248 NA
ATOM     37  C   UNL A   1      40.560  31.328  29.825  1.00  0.00     0.031 C 
ATOM     38  C   UNL A   1      39.759  26.632  28.221  1.00  0.00     0.029 A 
ATOM     39  N   UNL A   1      41.874  27.248  28.600  1.00  0.00    -0.354 N 
ATOM     40  C   UNL A   1      42.848  31.296  29.770  1.00  0.00     0.074 A 
ATOM     41  C   UNL A   1      41.647  32.056  30.040  1.00  0.00     0.031 C 
ATOM     42  C   UNL A   1      40.533  25.553  28.021  1.00  0.00     0.029 A 
ATOM     43  C   UNL A   1      41.931  25.934  28.198  1.00  0.00     0.049 A 
ATOM     44  H   UNL A   1      42.671  27.768  28.856  1.00  0.00     0.167 HD
ATOM     45  C   UNL A   1      44.108  31.764  29.943  1.00  0.00     0.037 A 
ATOM     46  C   UNL A   1      42.988  25.137  27.953  1.00  0.00     0.037 A 
ATOM     47  C   UNL A   1      45.299  30.990  29.701  1.00  0.00     0.049 A 
ATOM     48  C   UNL A   1      44.376  25.691  28.112  1.00  0.00     0.074 A 
ATOM     49  C   UNL A   1      46.621  31.373  29.839  1.00  0.00     0.029 A 
ATOM     50  N   UNL A   1      45.309  29.666  29.286  1.00  0.00    -0.354 N 
ATOM     51  N   UNL A   1      44.744  26.893  28.486  1.00  0.00    -0.248 NA
ATOM     52  C   UNL A   1      45.491  24.787  27.799  1.00  0.00     0.031 C 
ATOM     53  C   UNL A   1      47.432  30.289  29.483  1.00  0.00     0.029 A 
ATOM     54  C   UNL A   1      46.614  29.220  29.157  1.00  0.00     0.049 A 
ATOM     55  H   UNL A   1      44.508  29.123  29.109  1.00  0.00     0.167 HD
ATOM     56  C   UNL A   1      46.133  26.886  28.466  1.00  0.00     0.074 A 
ATOM     57  C   UNL A   1      46.540  25.556  28.056  1.00  0.00     0.031 C 
ATOM     58  C   UNL A   1      46.996  27.890  28.755  1.00  0.00     0.037 A 
BRANCH  45  59
ATOM     59  C   UNL A   1      44.267  33.190  30.392  1.00  0.00     0.058 A 
ATOM     60  C   UNL A   1      44.379  33.530  31.749  1.00  0.00     0.135 A 
ATOM     61  C   UNL A   1      44.339  34.228  29.448  1.00  0.00     0.135 A 
ATOM     62  F   UNL A   1      44.299  32.578  32.692  1.00  0.00    -0.206 F 
ATOM     63  C   UNL A   1      44.535  34.852  32.157  1.00  0.00     0.059 A 
ATOM     64  C   UNL A   1      44.517  35.554  29.832  1.00  0.00     0.059 A 
ATOM     65  F   UNL A   1      44.236  33.957  28.138  1.00  0.00    -0.206 F 
ATOM     66  C   UNL A   1      44.599  35.857  31.190  1.00  0.00     0.060 A 
BRANCH  66  67
ATOM     67  S   UNL A   1      44.801  37.569  31.729  1.00  0.00     0.124 S 
ATOM     68  O   UNL A   1      45.139  37.390  33.138  1.00  0.00    -0.237 OA
ATOM     69  O   UNL A   1      45.884  38.044  30.873  1.00  0.00    -0.237 OA
ATOM     70  O   UNL A   1      43.494  38.164  31.468  1.00  0.00    -0.744 OA
ENDBRANCH  66  67
ENDBRANCH  45  59
BRANCH  46  71
ATOM     71  C   UNL A   1      42.772  23.739  27.498  1.00  0.00     0.058 A 
ATOM     72  C   UNL A   1      42.602  22.700  28.422  1.00  0.00     0.135 A 
ATOM     73  C   UNL A   1      42.715  23.420  26.133  1.00  0.00     0.135 A 
ATOM     74  F   UNL A   1      42.657  22.956  29.738  1.00  0.00    -0.206 F 
ATOM     75  C   UNL A   1      42.391  21.387  28.011  1.00  0.00     0.059 A 
ATOM     76  C   UNL A   1      42.481  22.120  25.697  1.00  0.00     0.059 A 
ATOM     77  F   UNL A   1      42.858  24.383  25.209  1.00  0.00    -0.206 F 
ATOM     78  C   UNL A   1      42.331  21.108  26.644  1.00  0.00     0.060 A 
BRANCH  78  79
ATOM     79  S   UNL A   1      41.999  19.414  26.114  1.00  0.00     0.124 S 
ATOM     80  O   UNL A   1      42.929  19.269  25.001  1.00  0.00    -0.237 OA
ATOM     81  O   UNL A   1      42.314  18.646  27.315  1.00  0.00    -0.237 OA
ATOM     82  O   UNL A   1      40.584  19.449  25.758  1.00  0.00    -0.744 OA
ENDBRANCH  78  79
ENDBRANCH  46  71
BRANCH  58  83
ATOM     83  C   UNL A   1      48.462  27.578  28.671  1.00  0.00     0.058 A 
ATOM     84  C   UNL A   1      49.163  27.050  29.766  1.00  0.00     0.135 A 
ATOM     85  C   UNL A   1      49.163  27.774  27.471  1.00  0.00     0.135 A 
ATOM     86  F   UNL A   1      48.537  26.854  30.937  1.00  0.00    -0.206 F 
ATOM     87  C   UNL A   1      50.516  26.744  29.679  1.00  0.00     0.059 A 
ATOM     88  C   UNL A   1      50.511  27.456  27.357  1.00  0.00     0.059 A 
ATOM     89  F   UNL A   1      48.533  28.270  26.394  1.00  0.00    -0.206 F 
ATOM     90  C   UNL A   1      51.183  26.951  28.470  1.00  0.00     0.060 A 
BRANCH  90  91
ATOM     91  S   UNL A   1      52.933  26.522  28.357  1.00  0.00     0.124 S 
ATOM     92  O   UNL A   1      53.182  25.953  29.678  1.00  0.00    -0.237 OA
ATOM     93  O   UNL A   1      52.954  25.576  27.245  1.00  0.00    -0.237 OA
ATOM     94  O   UNL A   1      53.578  27.805  28.091  1.00  0.00    -0.744 OA
ENDBRANCH  90  91
ENDBRANCH  58  83
ENDBRANCH  32  33
ENDBRANCH  25  27
ENDBRANCH  24  25
ENDBRANCH  23  24
ENDBRANCH   1  23
TORSDOF 18
ENDMDL
MODEL 3
REMARK VINA RESULT:     -10.5      2.263      3.214
REMARK SMILES C[C@@H]1[C@H](C(=O)OCCOC(=O)c2ccc(-c3c4nc(c(-c5c(F)cc(S(=O)(=O)[O-])cc5F)c5ccc([nH]5)c(-c5c(F)cc(S(=O)(=O)[O-])cc5F)c5nc(c(-c6c(F)cc(S(=O)(=O)[O-])cc6F)c6ccc3[nH]6)C=C5)C=C4)cc2)CC[N@@H+]1CCOc1c(Cl)cccc1Cl
REMARK SMILES IDX 7 1 6 2 4 3 5 4 3 5 1 6 2 7 80 8 78 9 79 10 81 12 82 13
REMARK SMILES IDX 83 14 84 15 85 16 90 17 86 18 87 19 89 20 91 21 88 22 8 23
REMARK SMILES IDX 9 24 10 25 11 26 12 27 13 28 77 29 14 30 76 31 15 32 16 33
REMARK SMILES IDX 17 34 70 35 18 36 75 37 69 38 71 39 19 40 74 41 68 42 67 43
REMARK SMILES IDX 20 45 54 46 33 47 53 48 34 49 37 50 52 51 72 52 35 53 36 54
REMARK SMILES IDX 51 56 73 57 38 58 21 59 22 60 31 61 23 62 24 63 30 64 32 65
REMARK SMILES IDX 25 66 26 67 27 68 28 69 29 70 55 71 56 72 65 73 57 74 58 75
REMARK SMILES IDX 64 76 66 77 59 78 60 79 61 80 62 81 63 82 39 83 40 84 49 85
REMARK SMILES IDX 41 86 42 87 48 88 50 89 43 90 44 91 45 92 46 93 47 94
REMARK H PARENT 80 11 71 44 37 55
REMARK Flexibility Score: inf
ROOT
ATOM      1  C   UNL A   1      33.044  30.483  27.248  1.00  0.00     0.274 C 
ENDROOT
BRANCH   1   2
ATOM      2  O   UNL A   1      33.075  30.148  25.848  1.00  0.00    -0.462 OA
BRANCH   2   3
ATOM      3  C   UNL A   1      32.805  28.861  25.519  1.00  0.00     0.315 C 
ATOM      4  O   UNL A   1      33.038  27.902  26.247  1.00  0.00    -0.252 OA
BRANCH   3   5
ATOM      5  C   UNL A   1      31.990  28.769  24.240  1.00  0.00     0.162 C 
ATOM      6  C   UNL A   1      34.184  28.480  22.815  1.00  0.00     0.076 C 
ATOM      7  C   UNL A   1      32.662  28.485  22.886  1.00  0.00     0.195 C 
ATOM      8  N   UNL A   1      31.940  27.341  22.287  1.00  0.00    -0.329 N 
ATOM      9  C   UNL A   1      30.905  27.703  24.372  1.00  0.00     0.083 C 
ATOM     10  C   UNL A   1      30.642  27.263  22.951  1.00  0.00     0.263 C 
ATOM     11  H   UNL A   1      31.855  27.551  21.292  1.00  0.00     0.348 HD
BRANCH   8  12
ATOM     12  C   UNL A   1      32.624  26.052  22.118  1.00  0.00     0.304 C 
BRANCH  12  13
ATOM     13  C   UNL A   1      32.765  25.108  23.328  1.00  0.00     0.291 C 
BRANCH  13  14
ATOM     14  O   UNL A   1      33.714  24.050  23.087  1.00  0.00    -0.485 OA
BRANCH  14  15
ATOM     15  C   UNL A   1      33.691  23.066  24.045  1.00  0.00     0.156 A 
ATOM     16  C   UNL A   1      34.434  23.127  25.235  1.00  0.00     0.084 A 
ATOM     17  C   UNL A   1      32.883  21.942  23.813  1.00  0.00     0.084 A 
ATOM     18  Cl  UNL A   1      35.639  24.338  25.516  1.00  0.00    -0.080 Cl
ATOM     19  C   UNL A   1      34.241  22.169  26.235  1.00  0.00     0.024 A 
ATOM     20  C   UNL A   1      32.695  20.985  24.814  1.00  0.00     0.024 A 
ATOM     21  Cl  UNL A   1      32.081  21.703  22.300  1.00  0.00    -0.080 Cl
ATOM     22  C   UNL A   1      33.351  21.115  26.036  1.00  0.00     0.003 A 
ENDBRANCH  14  15
ENDBRANCH  13  14
ENDBRANCH  12  13
ENDBRANCH   8  12
ENDBRANCH   3   5
ENDBRANCH   2   3
ENDBRANCH   1   2
BRANCH   1  23
ATOM     23  C   UNL A   1      34.364  31.159  27.619  1.00  0.00     0.275 C 
BRANCH  23  24
ATOM     24  O   UNL A   1      35.367  30.175  27.941  1.00  0.00    -0.458 OA
BRANCH  24  25
ATOM     25  C   UNL A   1      36.142  30.476  29.007  1.00  0.00     0.338 C 
ATOM     26  O   UNL A   1      35.827  31.116  30.001  1.00  0.00    -0.246 OA
BRANCH  25  27
ATOM     27  C   UNL A   1      37.472  29.881  28.839  1.00  0.00     0.060 A 
ATOM     28  C   UNL A   1      38.213  29.514  29.964  1.00  0.00     0.016 A 
ATOM     29  C   UNL A   1      38.035  29.817  27.566  1.00  0.00     0.016 A 
ATOM     30  C   UNL A   1      39.550  29.148  29.824  1.00  0.00     0.010 A 
ATOM     31  C   UNL A   1      39.353  29.379  27.422  1.00  0.00     0.010 A 
ATOM     32  C   UNL A   1      40.132  29.066  28.550  1.00  0.00    -0.014 A 
BRANCH  32  33
ATOM     33  C   UNL A   1      41.554  28.668  28.383  1.00  0.00     0.031 A 
ATOM     34  C   UNL A   1      42.644  29.703  28.474  1.00  0.00     0.074 A 
ATOM     35  C   UNL A   1      41.867  27.384  28.124  1.00  0.00     0.049 A 
ATOM     36  N   UNL A   1      43.909  29.601  28.160  1.00  0.00    -0.248 NA
ATOM     37  C   UNL A   1      42.254  31.030  28.976  1.00  0.00     0.031 C 
ATOM     38  C   UNL A   1      40.911  26.275  28.052  1.00  0.00     0.029 A 
ATOM     39  N   UNL A   1      43.078  26.793  27.862  1.00  0.00    -0.354 N 
ATOM     40  C   UNL A   1      44.460  30.857  28.386  1.00  0.00     0.074 A 
ATOM     41  C   UNL A   1      43.389  31.708  28.860  1.00  0.00     0.031 C 
ATOM     42  C   UNL A   1      41.572  25.140  27.777  1.00  0.00     0.029 A 
ATOM     43  C   UNL A   1      42.985  25.449  27.582  1.00  0.00     0.049 A 
ATOM     44  H   UNL A   1      43.931  27.284  27.873  1.00  0.00     0.167 HD
ATOM     45  C   UNL A   1      45.741  31.262  28.213  1.00  0.00     0.037 A 
ATOM     46  C   UNL A   1      43.921  24.573  27.171  1.00  0.00     0.037 A 
ATOM     47  C   UNL A   1      46.808  30.401  27.770  1.00  0.00     0.049 A 
ATOM     48  C   UNL A   1      45.327  25.055  26.945  1.00  0.00     0.074 A 
ATOM     49  C   UNL A   1      48.139  30.715  27.556  1.00  0.00     0.029 A 
ATOM     50  N   UNL A   1      46.667  29.050  27.490  1.00  0.00    -0.354 N 
ATOM     51  N   UNL A   1      45.820  26.259  27.108  1.00  0.00    -0.248 NA
ATOM     52  C   UNL A   1      46.298  24.063  26.464  1.00  0.00     0.031 C 
ATOM     53  C   UNL A   1      48.797  29.559  27.122  1.00  0.00     0.029 A 
ATOM     54  C   UNL A   1      47.885  28.517  27.099  1.00  0.00     0.049 A 
ATOM     55  H   UNL A   1      45.826  28.543  27.558  1.00  0.00     0.167 HD
ATOM     56  C   UNL A   1      47.163  26.167  26.762  1.00  0.00     0.074 A 
ATOM     57  C   UNL A   1      47.407  24.787  26.394  1.00  0.00     0.031 C 
ATOM     58  C   UNL A   1      48.108  27.138  26.745  1.00  0.00     0.037 A 
BRANCH  45  59
ATOM     59  C   UNL A   1      46.058  32.708  28.477  1.00  0.00     0.058 A 
ATOM     60  C   UNL A   1      46.486  33.153  29.736  1.00  0.00     0.135 A 
ATOM     61  C   UNL A   1      45.962  33.656  27.444  1.00  0.00     0.135 A 
ATOM     62  F   UNL A   1      46.578  32.292  30.762  1.00  0.00    -0.206 F 
ATOM     63  C   UNL A   1      46.786  34.492  29.971  1.00  0.00     0.059 A 
ATOM     64  C   UNL A   1      46.278  34.996  27.650  1.00  0.00     0.059 A 
ATOM     65  F   UNL A   1      45.556  33.283  26.220  1.00  0.00    -0.206 F 
ATOM     66  C   UNL A   1      46.675  35.407  28.922  1.00  0.00     0.060 A 
BRANCH  66  67
ATOM     67  S   UNL A   1      47.067  37.141  29.236  1.00  0.00     0.124 S 
ATOM     68  O   UNL A   1      47.983  37.434  28.138  1.00  0.00    -0.237 OA
ATOM     69  O   UNL A   1      45.757  37.780  29.156  1.00  0.00    -0.237 OA
ATOM     70  O   UNL A   1      47.667  37.118  30.566  1.00  0.00    -0.744 OA
ENDBRANCH  66  67
ENDBRANCH  45  59
BRANCH  46  71
ATOM     71  C   UNL A   1      43.548  23.159  26.912  1.00  0.00     0.058 A 
ATOM     72  C   UNL A   1      43.215  22.298  27.966  1.00  0.00     0.135 A 
ATOM     73  C   UNL A   1      43.502  22.647  25.607  1.00  0.00     0.135 A 
ATOM     74  F   UNL A   1      43.254  22.742  29.232  1.00  0.00    -0.206 F 
ATOM     75  C   UNL A   1      42.856  20.973  27.739  1.00  0.00     0.059 A 
ATOM     76  C   UNL A   1      43.123  21.333  25.351  1.00  0.00     0.059 A 
ATOM     77  F   UNL A   1      43.799  23.436  24.562  1.00  0.00    -0.206 F 
ATOM     78  C   UNL A   1      42.812  20.500  26.426  1.00  0.00     0.060 A 
BRANCH  78  79
ATOM     79  S   UNL A   1      42.290  18.797  26.130  1.00  0.00     0.124 S 
ATOM     80  O   UNL A   1      42.554  18.182  27.425  1.00  0.00    -0.237 OA
ATOM     81  O   UNL A   1      40.883  18.961  25.774  1.00  0.00    -0.237 OA
ATOM     82  O   UNL A   1      43.157  18.370  25.035  1.00  0.00    -0.744 OA
ENDBRANCH  78  79
ENDBRANCH  46  71
BRANCH  58  83
ATOM     83  C   UNL A   1      49.497  26.734  26.347  1.00  0.00     0.058 A 
ATOM     84  C   UNL A   1      50.383  26.153  27.266  1.00  0.00     0.135 A 
ATOM     85  C   UNL A   1      49.933  26.895  25.023  1.00  0.00     0.135 A 
ATOM     86  F   UNL A   1      50.014  25.986  28.547  1.00  0.00    -0.206 F 
ATOM     87  C   UNL A   1      51.662  25.761  26.891  1.00  0.00     0.059 A 
ATOM     88  C   UNL A   1      51.201  26.492  24.620  1.00  0.00     0.059 A 
ATOM     89  F   UNL A   1      49.118  27.440  24.105  1.00  0.00    -0.206 F 
ATOM     90  C   UNL A   1      52.064  25.935  25.564  1.00  0.00     0.060 A 
BRANCH  90  91
ATOM     91  S   UNL A   1      53.717  25.396  25.077  1.00  0.00     0.124 S 
ATOM     92  O   UNL A   1      53.771  25.838  23.687  1.00  0.00    -0.237 OA
ATOM     93  O   UNL A   1      54.573  26.124  26.008  1.00  0.00    -0.237 OA
ATOM     94  O   UNL A   1      53.672  23.951  25.277  1.00  0.00    -0.744 OA
ENDBRANCH  90  91
ENDBRANCH  58  83
ENDBRANCH  32  33
ENDBRANCH  25  27
ENDBRANCH  24  25
ENDBRANCH  23  24
ENDBRANCH   1  23
TORSDOF 18
ENDMDL
