MODEL 1
REMARK VINA RESULT:     -14.6      0.000      0.000
REMARK SMILES O=C(OCCOC(=O)[C@@H]1CCCC[C@@H]1NS(=O)(=O)c1ccc2ccccc2c1)c1ccc(-c2c3nc(c(-c4c(F)cc(S(=O)(=O)[O-])cc4F)c4ccc([nH]4)c(-c4c(F)cc(S(=O)(=O)[O-])cc4F)c4nc(c(-c5c(F)cc(S(=O)(=O)[O-])cc5F)c5ccc2[nH]5)C=C4)C=C3)cc1
REMARK SMILES IDX 4 1 3 2 2 3 1 4 29 5 30 6 94 7 31 8 93 9 32 10 33 11 34 12
REMARK SMILES IDX 87 13 35 14 92 15 86 16 88 17 36 18 91 19 85 20 84 21 37 23
REMARK SMILES IDX 71 24 50 25 70 26 51 27 54 28 69 29 89 30 52 31 53 32 68 34
REMARK SMILES IDX 90 35 55 36 38 37 39 38 48 39 40 40 41 41 47 42 49 43 42 44
REMARK SMILES IDX 43 45 44 46 45 47 46 48 72 49 73 50 82 51 74 52 75 53 81 54
REMARK SMILES IDX 83 55 76 56 77 57 78 58 79 59 80 60 56 61 57 62 66 63 58 64
REMARK SMILES IDX 59 65 65 66 67 67 60 68 61 69 62 70 63 71 64 72 5 73 6 74
REMARK SMILES IDX 7 75 8 76 9 77 10 78 14 79 11 80 13 81 12 82 15 83 16 85
REMARK SMILES IDX 17 86 18 87 19 88 20 89 28 90 21 91 27 92 22 93 26 94 23 95
REMARK SMILES IDX 25 96 24 97
REMARK H PARENT 88 22 54 33 15 84
REMARK Flexibility Score: inf
ROOT
ATOM      1  C   UNL A   1      43.383  21.275  25.696  1.00  0.00     0.275 C 
ENDROOT
BRANCH   1   2
ATOM      2  O   UNL A   1      44.025  23.065  26.447  1.00  0.00    -0.458 OA
BRANCH   2   3
ATOM      3  C   UNL A   1      44.057  24.654  25.973  1.00  0.00     0.338 C 
ATOM      4  O   UNL A   1      44.706  24.961  24.981  1.00  0.00    -0.246 OA
BRANCH   3   5
ATOM      5  C   UNL A   1      43.185  25.863  26.955  1.00  0.00     0.060 A 
ATOM      6  C   UNL A   1      43.961  27.481  27.566  1.00  0.00     0.016 A 
ATOM      7  C   UNL A   1      41.629  25.427  27.732  1.00  0.00     0.016 A 
ATOM      8  C   UNL A   1      43.252  28.504  28.810  1.00  0.00     0.010 A 
ATOM      9  C   UNL A   1      40.951  26.493  29.022  1.00  0.00     0.010 A 
ATOM     10  C   UNL A   1      41.726  28.040  29.520  1.00  0.00    -0.014 A 
BRANCH  10  11
ATOM     11  C   UNL A   1      41.424  28.870  30.730  1.00  0.00     0.031 A 
ATOM     12  C   UNL A   1      40.332  29.889  30.678  1.00  0.00     0.074 A 
ATOM     13  C   UNL A   1      41.957  28.535  31.936  1.00  0.00     0.049 A 
ATOM     14  N   UNL A   1      39.961  30.722  31.611  1.00  0.00    -0.248 NA
ATOM     15  C   UNL A   1      39.489  29.924  29.473  1.00  0.00     0.031 C 
ATOM     16  C   UNL A   1      42.782  27.359  32.195  1.00  0.00     0.029 A 
ATOM     17  N   UNL A   1      41.932  29.120  33.177  1.00  0.00    -0.354 N 
ATOM     18  C   UNL A   1      38.836  31.363  31.115  1.00  0.00     0.074 A 
ATOM     19  C   UNL A   1      38.596  30.850  29.788  1.00  0.00     0.031 C 
ATOM     20  C   UNL A   1      43.294  27.357  33.424  1.00  0.00     0.029 A 
ATOM     21  C   UNL A   1      42.838  28.558  34.064  1.00  0.00     0.049 A 
ATOM     22  H   UNL A   1      41.330  29.863  33.414  1.00  0.00     0.167 HD
ATOM     23  C   UNL A   1      38.073  32.291  31.734  1.00  0.00     0.037 A 
ATOM     24  C   UNL A   1      43.312  28.978  35.247  1.00  0.00     0.037 A 
ATOM     25  C   UNL A   1      38.373  32.788  33.051  1.00  0.00     0.049 A 
ATOM     26  C   UNL A   1      42.627  30.168  35.815  1.00  0.00     0.074 A 
ATOM     27  C   UNL A   1      37.767  33.814  33.749  1.00  0.00     0.029 A 
ATOM     28  N   UNL A   1      39.379  32.284  33.870  1.00  0.00    -0.354 N 
ATOM     29  N   UNL A   1      41.651  30.860  35.276  1.00  0.00    -0.248 NA
ATOM     30  C   UNL A   1      43.044  30.609  37.142  1.00  0.00     0.031 C 
ATOM     31  C   UNL A   1      38.445  33.968  34.963  1.00  0.00     0.029 A 
ATOM     32  C   UNL A   1      39.434  32.998  35.053  1.00  0.00     0.049 A 
ATOM     33  H   UNL A   1      39.967  31.529  33.639  1.00  0.00     0.167 HD
ATOM     34  C   UNL A   1      41.299  31.801  36.219  1.00  0.00     0.074 A 
ATOM     35  C   UNL A   1      42.168  31.578  37.364  1.00  0.00     0.031 C 
ATOM     36  C   UNL A   1      40.338  32.753  36.150  1.00  0.00     0.037 A 
BRANCH  23  37
ATOM     37  C   UNL A   1      36.923  32.864  30.956  1.00  0.00     0.058 A 
ATOM     38  C   UNL A   1      35.598  32.448  31.163  1.00  0.00     0.135 A 
ATOM     39  C   UNL A   1      37.157  33.823  29.959  1.00  0.00     0.135 A 
ATOM     40  F   UNL A   1      35.321  31.499  32.073  1.00  0.00    -0.206 F 
ATOM     41  C   UNL A   1      34.547  32.957  30.404  1.00  0.00     0.059 A 
ATOM     42  C   UNL A   1      36.121  34.364  29.204  1.00  0.00     0.059 A 
ATOM     43  F   UNL A   1      38.409  34.233  29.699  1.00  0.00    -0.206 F 
ATOM     44  C   UNL A   1      34.819  33.920  29.430  1.00  0.00     0.060 A 
BRANCH  44  45
ATOM     45  S   UNL A   1      33.444  34.596  28.472  1.00  0.00     0.124 S 
ATOM     46  O   UNL A   1      32.529  35.018  29.528  1.00  0.00    -0.237 OA
ATOM     47  O   UNL A   1      34.088  35.670  27.723  1.00  0.00    -0.237 OA
ATOM     48  O   UNL A   1      32.996  33.460  27.672  1.00  0.00    -0.744 OA
ENDBRANCH  44  45
ENDBRANCH  23  37
BRANCH  24  49
ATOM     49  C   UNL A   1      44.473  28.303  35.897  1.00  0.00     0.058 A 
ATOM     50  C   UNL A   1      45.799  28.645  35.603  1.00  0.00     0.135 A 
ATOM     51  C   UNL A   1      44.267  27.292  36.857  1.00  0.00     0.135 A 
ATOM     52  F   UNL A   1      46.059  29.619  34.719  1.00  0.00    -0.206 F 
ATOM     53  C   UNL A   1      46.876  27.986  36.198  1.00  0.00     0.059 A 
ATOM     54  C   UNL A   1      45.324  26.635  37.483  1.00  0.00     0.059 A 
ATOM     55  F   UNL A   1      43.020  26.946  37.213  1.00  0.00    -0.206 F 
ATOM     56  C   UNL A   1      46.627  26.975  37.129  1.00  0.00     0.060 A 
BRANCH  56  57
ATOM     57  S   UNL A   1      48.032  26.114  37.875  1.00  0.00     0.124 S 
ATOM     58  O   UNL A   1      48.318  26.961  39.026  1.00  0.00    -0.237 OA
ATOM     59  O   UNL A   1      47.461  24.803  38.172  1.00  0.00    -0.237 OA
ATOM     60  O   UNL A   1      49.037  26.127  36.816  1.00  0.00    -0.744 OA
ENDBRANCH  56  57
ENDBRANCH  24  49
BRANCH  36  61
ATOM     61  C   UNL A   1      40.196  33.600  37.369  1.00  0.00     0.058 A 
ATOM     62  C   UNL A   1      41.015  34.719  37.575  1.00  0.00     0.135 A 
ATOM     63  C   UNL A   1      39.242  33.274  38.342  1.00  0.00     0.135 A 
ATOM     64  F   UNL A   1      41.956  35.047  36.675  1.00  0.00    -0.206 F 
ATOM     65  C   UNL A   1      40.920  35.468  38.737  1.00  0.00     0.059 A 
ATOM     66  C   UNL A   1      39.105  34.032  39.494  1.00  0.00     0.059 A 
ATOM     67  F   UNL A   1      38.440  32.210  38.178  1.00  0.00    -0.206 F 
ATOM     68  C   UNL A   1      39.962  35.115  39.689  1.00  0.00     0.060 A 
BRANCH  68  69
ATOM     69  S   UNL A   1      39.841  36.104  41.189  1.00  0.00     0.124 S 
ATOM     70  O   UNL A   1      38.409  36.052  41.457  1.00  0.00    -0.237 OA
ATOM     71  O   UNL A   1      40.689  35.363  42.118  1.00  0.00    -0.237 OA
ATOM     72  O   UNL A   1      40.360  37.405  40.777  1.00  0.00    -0.744 OA
ENDBRANCH  68  69
ENDBRANCH  36  61
ENDBRANCH  10  11
ENDBRANCH   3   5
ENDBRANCH   2   3
ENDBRANCH   1   2
BRANCH   1  73
ATOM     73  C   UNL A   1      42.346  20.026  26.601  1.00  0.00     0.274 C 
BRANCH  73  74
ATOM     74  O   UNL A   1      40.875  20.273  26.921  1.00  0.00    -0.462 OA
BRANCH  74  75
ATOM     75  C   UNL A   1      39.864  19.977  26.026  1.00  0.00     0.310 C 
ATOM     76  O   UNL A   1      39.738  18.833  25.587  1.00  0.00    -0.252 OA
BRANCH  75  77
ATOM     77  C   UNL A   1      38.693  21.139  25.671  1.00  0.00     0.117 C 
ATOM     78  C   UNL A   1      39.101  22.385  26.499  1.00  0.00     0.017 C 
ATOM     79  C   UNL A   1      36.993  21.136  24.872  1.00  0.00     0.084 C 
ATOM     80  C   UNL A   1      38.535  23.749  26.129  1.00  0.00     0.001 C 
ATOM     81  C   UNL A   1      36.806  22.806  24.555  1.00  0.00     0.021 C 
ATOM     82  C   UNL A   1      37.098  23.798  25.666  1.00  0.00     0.002 C 
BRANCH  79  83
ATOM     83  N   UNL A   1      35.429  19.644  25.041  1.00  0.00    -0.207 NA
ATOM     84  H   UNL A   1      35.537  19.291  25.991  1.00  0.00     0.141 HD
BRANCH  83  85
ATOM     85  S   UNL A   1      33.418  19.752  24.798  1.00  0.00     0.240 S 
ATOM     86  O   UNL A   1      33.160  19.117  23.525  1.00  0.00    -0.207 OA
ATOM     87  O   UNL A   1      32.835  19.299  26.040  1.00  0.00    -0.207 OA
BRANCH  85  88
ATOM     88  C   UNL A   1      32.920  21.642  24.576  1.00  0.00     0.083 A 
ATOM     89  C   UNL A   1      33.322  22.497  26.058  1.00  0.00     0.022 A 
ATOM     90  C   UNL A   1      32.809  22.662  22.966  1.00  0.00     0.030 A 
ATOM     91  C   UNL A   1      33.537  24.223  25.986  1.00  0.00     0.010 A 
ATOM     92  C   UNL A   1      33.074  24.443  22.974  1.00  0.00    -0.017 A 
ATOM     93  C   UNL A   1      33.418  25.193  24.505  1.00  0.00    -0.018 A 
ATOM     94  C   UNL A   1      32.974  25.269  21.863  1.00  0.00     0.009 A 
ATOM     95  C   UNL A   1      33.444  26.580  24.479  1.00  0.00     0.009 A 
ATOM     96  C   UNL A   1      32.997  26.653  22.031  1.00  0.00     0.001 A 
ATOM     97  C   UNL A   1      33.198  27.277  23.283  1.00  0.00     0.001 A 
ENDBRANCH  85  88
ENDBRANCH  83  85
ENDBRANCH  79  83
ENDBRANCH  75  77
ENDBRANCH  74  75
ENDBRANCH  73  74
ENDBRANCH   1  73
TORSDOF 17
ENDMDL
MODEL 2
REMARK VINA RESULT:     -14.5      6.002     12.482
REMARK SMILES O=C(OCCOC(=O)[C@@H]1CCCC[C@@H]1NS(=O)(=O)c1ccc2ccccc2c1)c1ccc(-c2c3nc(c(-c4c(F)cc(S(=O)(=O)[O-])cc4F)c4ccc([nH]4)c(-c4c(F)cc(S(=O)(=O)[O-])cc4F)c4nc(c(-c5c(F)cc(S(=O)(=O)[O-])cc5F)c5ccc2[nH]5)C=C4)C=C3)cc1
REMARK SMILES IDX 4 1 3 2 2 3 1 4 29 5 30 6 94 7 31 8 93 9 32 10 33 11 34 12
REMARK SMILES IDX 87 13 35 14 92 15 86 16 88 17 36 18 91 19 85 20 84 21 37 23
REMARK SMILES IDX 71 24 50 25 70 26 51 27 54 28 69 29 89 30 52 31 53 32 68 34
REMARK SMILES IDX 90 35 55 36 38 37 39 38 48 39 40 40 41 41 47 42 49 43 42 44
REMARK SMILES IDX 43 45 44 46 45 47 46 48 72 49 73 50 82 51 74 52 75 53 81 54
REMARK SMILES IDX 83 55 76 56 77 57 78 58 79 59 80 60 56 61 57 62 66 63 58 64
REMARK SMILES IDX 59 65 65 66 67 67 60 68 61 69 62 70 63 71 64 72 5 73 6 74
REMARK SMILES IDX 7 75 8 76 9 77 10 78 14 79 11 80 13 81 12 82 15 83 16 85
REMARK SMILES IDX 17 86 18 87 19 88 20 89 28 90 21 91 27 92 22 93 26 94 23 95
REMARK SMILES IDX 25 96 24 97
REMARK H PARENT 88 22 54 33 15 84
REMARK Flexibility Score: inf
ROOT
ATOM      1  C   UNL A   1      34.293  34.675  31.011  1.00  0.00     0.275 C 
ENDROOT
BRANCH   1   2
ATOM      2  O   UNL A   1      35.836  33.334  31.029  1.00  0.00    -0.458 OA
BRANCH   2   3
ATOM      3  C   UNL A   1      37.268  33.122  31.837  1.00  0.00     0.338 C 
ATOM      4  O   UNL A   1      37.512  33.833  32.804  1.00  0.00    -0.246 OA
BRANCH   3   5
ATOM      5  C   UNL A   1      38.423  31.899  31.237  1.00  0.00     0.060 A 
ATOM      6  C   UNL A   1      40.066  31.494  32.091  1.00  0.00     0.016 A 
ATOM      7  C   UNL A   1      38.251  31.251  29.575  1.00  0.00     0.016 A 
ATOM      8  C   UNL A   1      41.361  30.568  31.342  1.00  0.00     0.010 A 
ATOM      9  C   UNL A   1      39.617  30.328  28.837  1.00  0.00     0.010 A 
ATOM     10  C   UNL A   1      41.134  29.946  29.728  1.00  0.00    -0.014 A 
BRANCH  10  11
ATOM     11  C   UNL A   1      42.424  29.431  29.165  1.00  0.00     0.031 A 
ATOM     12  C   UNL A   1      42.543  27.993  28.776  1.00  0.00     0.074 A 
ATOM     13  C   UNL A   1      43.392  30.303  28.775  1.00  0.00     0.049 A 
ATOM     14  N   UNL A   1      43.590  27.367  28.315  1.00  0.00    -0.248 NA
ATOM     15  C   UNL A   1      41.323  27.172  28.820  1.00  0.00     0.031 C 
ATOM     16  C   UNL A   1      43.273  31.758  28.791  1.00  0.00     0.029 A 
ATOM     17  N   UNL A   1      44.673  30.147  28.306  1.00  0.00    -0.354 N 
ATOM     18  C   UNL A   1      43.153  26.089  27.997  1.00  0.00     0.074 A 
ATOM     19  C   UNL A   1      41.754  26.014  28.343  1.00  0.00     0.031 C 
ATOM     20  C   UNL A   1      44.421  32.366  28.502  1.00  0.00     0.029 A 
ATOM     21  C   UNL A   1      45.392  31.332  28.280  1.00  0.00     0.049 A 
ATOM     22  H   UNL A   1      45.042  29.281  28.018  1.00  0.00     0.167 HD
ATOM     23  C   UNL A   1      43.869  25.083  27.452  1.00  0.00     0.037 A 
ATOM     24  C   UNL A   1      46.704  31.581  28.150  1.00  0.00     0.037 A 
ATOM     25  C   UNL A   1      45.271  25.203  27.150  1.00  0.00     0.049 A 
ATOM     26  C   UNL A   1      47.538  30.404  27.792  1.00  0.00     0.074 A 
ATOM     27  C   UNL A   1      46.152  24.232  26.717  1.00  0.00     0.029 A 
ATOM     28  N   UNL A   1      45.998  26.385  27.256  1.00  0.00    -0.354 N 
ATOM     29  N   UNL A   1      47.140  29.165  27.628  1.00  0.00    -0.248 NA
ATOM     30  C   UNL A   1      48.958  30.640  27.550  1.00  0.00     0.031 C 
ATOM     31  C   UNL A   1      47.420  24.813  26.618  1.00  0.00     0.029 A 
ATOM     32  C   UNL A   1      47.323  26.162  26.930  1.00  0.00     0.049 A 
ATOM     33  H   UNL A   1      45.623  27.255  27.527  1.00  0.00     0.167 HD
ATOM     34  C   UNL A   1      48.256  28.468  27.217  1.00  0.00     0.074 A 
ATOM     35  C   UNL A   1      49.341  29.435  27.153  1.00  0.00     0.031 C 
ATOM     36  C   UNL A   1      48.370  27.155  26.909  1.00  0.00     0.037 A 
BRANCH  23  37
ATOM     37  C   UNL A   1      43.164  23.773  27.242  1.00  0.00     0.058 A 
ATOM     38  C   UNL A   1      43.002  22.835  28.275  1.00  0.00     0.135 A 
ATOM     39  C   UNL A   1      42.671  23.436  25.973  1.00  0.00     0.135 A 
ATOM     40  F   UNL A   1      43.495  23.086  29.500  1.00  0.00    -0.206 F 
ATOM     41  C   UNL A   1      42.384  21.607  28.055  1.00  0.00     0.059 A 
ATOM     42  C   UNL A   1      42.028  22.225  25.733  1.00  0.00     0.059 A 
ATOM     43  F   UNL A   1      42.825  24.283  24.943  1.00  0.00    -0.206 F 
ATOM     44  C   UNL A   1      41.895  21.313  26.780  1.00  0.00     0.060 A 
BRANCH  44  45
ATOM     45  S   UNL A   1      41.067  19.730  26.512  1.00  0.00     0.124 S 
ATOM     46  O   UNL A   1      40.912  19.244  27.880  1.00  0.00    -0.237 OA
ATOM     47  O   UNL A   1      39.838  20.134  25.838  1.00  0.00    -0.237 OA
ATOM     48  O   UNL A   1      42.015  18.986  25.688  1.00  0.00    -0.744 OA
ENDBRANCH  44  45
ENDBRANCH  23  37
BRANCH  24  49
ATOM     49  C   UNL A   1      47.260  32.944  28.398  1.00  0.00     0.058 A 
ATOM     50  C   UNL A   1      47.401  33.893  27.378  1.00  0.00     0.135 A 
ATOM     51  C   UNL A   1      47.653  33.331  29.695  1.00  0.00     0.135 A 
ATOM     52  F   UNL A   1      47.017  33.594  26.128  1.00  0.00    -0.206 F 
ATOM     53  C   UNL A   1      47.948  35.154  27.619  1.00  0.00     0.059 A 
ATOM     54  C   UNL A   1      48.180  34.591  29.967  1.00  0.00     0.059 A 
ATOM     55  F   UNL A   1      47.505  32.482  30.725  1.00  0.00    -0.206 F 
ATOM     56  C   UNL A   1      48.344  35.489  28.915  1.00  0.00     0.060 A 
BRANCH  56  57
ATOM     57  S   UNL A   1      49.073  37.118  29.209  1.00  0.00     0.124 S 
ATOM     58  O   UNL A   1      49.023  37.203  30.663  1.00  0.00    -0.237 OA
ATOM     59  O   UNL A   1      50.402  36.966  28.622  1.00  0.00    -0.237 OA
ATOM     60  O   UNL A   1      48.179  38.023  28.493  1.00  0.00    -0.744 OA
ENDBRANCH  56  57
ENDBRANCH  24  49
BRANCH  36  61
ATOM     61  C   UNL A   1      49.727  26.723  26.468  1.00  0.00     0.058 A 
ATOM     62  C   UNL A   1      50.089  26.735  25.113  1.00  0.00     0.135 A 
ATOM     63  C   UNL A   1      50.663  26.279  27.412  1.00  0.00     0.135 A 
ATOM     64  F   UNL A   1      49.210  27.132  24.179  1.00  0.00    -0.206 F 
ATOM     65  C   UNL A   1      51.330  26.276  24.703  1.00  0.00     0.059 A 
ATOM     66  C   UNL A   1      51.923  25.852  27.026  1.00  0.00     0.059 A 
ATOM     67  F   UNL A   1      50.352  26.254  28.717  1.00  0.00    -0.206 F 
ATOM     68  C   UNL A   1      52.239  25.837  25.667  1.00  0.00     0.060 A 
BRANCH  68  69
ATOM     69  S   UNL A   1      53.853  25.255  25.121  1.00  0.00     0.124 S 
ATOM     70  O   UNL A   1      54.655  25.454  26.322  1.00  0.00    -0.237 OA
ATOM     71  O   UNL A   1      53.577  23.866  24.763  1.00  0.00    -0.237 OA
ATOM     72  O   UNL A   1      54.166  26.135  23.999  1.00  0.00    -0.744 OA
ENDBRANCH  68  69
ENDBRANCH  36  61
ENDBRANCH  10  11
ENDBRANCH   3   5
ENDBRANCH   2   3
ENDBRANCH   1   2
BRANCH   1  73
ATOM     73  C   UNL A   1      33.098  34.939  29.613  1.00  0.00     0.274 C 
BRANCH  73  74
ATOM     74  O   UNL A   1      32.726  33.823  28.641  1.00  0.00    -0.462 OA
BRANCH  74  75
ATOM     75  C   UNL A   1      33.646  33.257  27.780  1.00  0.00     0.310 C 
ATOM     76  O   UNL A   1      34.563  33.937  27.315  1.00  0.00    -0.252 OA
BRANCH  75  77
ATOM     77  C   UNL A   1      33.622  31.592  27.503  1.00  0.00     0.117 C 
ATOM     78  C   UNL A   1      35.082  31.125  27.748  1.00  0.00     0.017 C 
ATOM     79  C   UNL A   1      32.438  30.378  26.698  1.00  0.00     0.084 C 
ATOM     80  C   UNL A   1      35.364  29.650  27.998  1.00  0.00     0.001 C 
ATOM     81  C   UNL A   1      33.059  28.904  27.303  1.00  0.00     0.021 C 
ATOM     82  C   UNL A   1      34.552  28.648  27.212  1.00  0.00     0.002 C 
BRANCH  79  83
ATOM     83  N   UNL A   1      31.209  30.665  24.935  1.00  0.00    -0.207 NA
ATOM     84  H   UNL A   1      31.711  31.377  24.406  1.00  0.00     0.141 HD
BRANCH  83  85
ATOM     85  S   UNL A   1      30.562  29.377  23.507  1.00  0.00     0.240 S 
ATOM     86  O   UNL A   1      29.129  29.306  23.688  1.00  0.00    -0.207 OA
ATOM     87  O   UNL A   1      31.183  29.798  22.271  1.00  0.00    -0.207 OA
BRANCH  85  88
ATOM     88  C   UNL A   1      31.255  27.585  23.927  1.00  0.00     0.083 A 
ATOM     89  C   UNL A   1      32.999  27.602  23.712  1.00  0.00     0.022 A 
ATOM     90  C   UNL A   1      30.520  26.270  25.099  1.00  0.00     0.030 A 
ATOM     91  C   UNL A   1      33.946  26.391  24.526  1.00  0.00     0.010 A 
ATOM     92  C   UNL A   1      31.575  25.068  25.926  1.00  0.00    -0.017 A 
ATOM     93  C   UNL A   1      33.282  25.146  25.603  1.00  0.00    -0.018 A 
ATOM     94  C   UNL A   1      31.126  24.055  26.761  1.00  0.00     0.009 A 
ATOM     95  C   UNL A   1      34.021  24.097  26.130  1.00  0.00     0.009 A 
ATOM     96  C   UNL A   1      32.014  23.062  27.177  1.00  0.00     0.001 A 
ATOM     97  C   UNL A   1      33.390  23.072  26.856  1.00  0.00     0.001 A 
ENDBRANCH  85  88
ENDBRANCH  83  85
ENDBRANCH  79  83
ENDBRANCH  75  77
ENDBRANCH  74  75
ENDBRANCH  73  74
ENDBRANCH   1  73
TORSDOF 17
ENDMDL
MODEL 3
REMARK VINA RESULT:     -14.2      2.382      3.406
REMARK SMILES O=C(OCCOC(=O)[C@@H]1CCCC[C@@H]1NS(=O)(=O)c1ccc2ccccc2c1)c1ccc(-c2c3nc(c(-c4c(F)cc(S(=O)(=O)[O-])cc4F)c4ccc([nH]4)c(-c4c(F)cc(S(=O)(=O)[O-])cc4F)c4nc(c(-c5c(F)cc(S(=O)(=O)[O-])cc5F)c5ccc2[nH]5)C=C4)C=C3)cc1
REMARK SMILES IDX 4 1 3 2 2 3 1 4 29 5 30 6 94 7 31 8 93 9 32 10 33 11 34 12
REMARK SMILES IDX 87 13 35 14 92 15 86 16 88 17 36 18 91 19 85 20 84 21 37 23
REMARK SMILES IDX 71 24 50 25 70 26 51 27 54 28 69 29 89 30 52 31 53 32 68 34
REMARK SMILES IDX 90 35 55 36 38 37 39 38 48 39 40 40 41 41 47 42 49 43 42 44
REMARK SMILES IDX 43 45 44 46 45 47 46 48 72 49 73 50 82 51 74 52 75 53 81 54
REMARK SMILES IDX 83 55 76 56 77 57 78 58 79 59 80 60 56 61 57 62 66 63 58 64
REMARK SMILES IDX 59 65 65 66 67 67 60 68 61 69 62 70 63 71 64 72 5 73 6 74
REMARK SMILES IDX 7 75 8 76 9 77 10 78 14 79 11 80 13 81 12 82 15 83 16 85
REMARK SMILES IDX 17 86 18 87 19 88 20 89 28 90 21 91 27 92 22 93 26 94 23 95
REMARK SMILES IDX 25 96 24 97
REMARK H PARENT 88 22 54 33 15 84
REMARK Flexibility Score: inf
ROOT
ATOM      1  C   UNL A   1      43.079  19.253  25.467  1.00  0.00     0.275 C 
ENDROOT
BRANCH   1   2
ATOM      2  O   UNL A   1      44.202  20.683  24.531  1.00  0.00    -0.458 OA
BRANCH   2   3
ATOM      3  C   UNL A   1      43.988  22.216  23.937  1.00  0.00     0.338 C 
ATOM      4  O   UNL A   1      44.261  22.438  22.763  1.00  0.00    -0.246 OA
BRANCH   3   5
ATOM      5  C   UNL A   1      43.418  23.497  25.042  1.00  0.00     0.060 A 
ATOM      6  C   UNL A   1      44.400  25.072  25.425  1.00  0.00     0.016 A 
ATOM      7  C   UNL A   1      42.038  23.177  26.140  1.00  0.00     0.016 A 
ATOM      8  C   UNL A   1      44.032  26.161  26.757  1.00  0.00     0.010 A 
ATOM      9  C   UNL A   1      41.713  24.308  27.510  1.00  0.00     0.010 A 
ATOM     10  C   UNL A   1      42.666  25.810  27.785  1.00  0.00    -0.014 A 
BRANCH  10  11
ATOM     11  C   UNL A   1      42.677  26.680  29.006  1.00  0.00     0.031 A 
ATOM     12  C   UNL A   1      41.648  27.753  29.162  1.00  0.00     0.074 A 
ATOM     13  C   UNL A   1      43.446  26.343  30.075  1.00  0.00     0.049 A 
ATOM     14  N   UNL A   1      41.531  28.623  30.126  1.00  0.00    -0.248 NA
ATOM     15  C   UNL A   1      40.564  27.806  28.169  1.00  0.00     0.031 C 
ATOM     16  C   UNL A   1      44.253  25.130  30.185  1.00  0.00     0.029 A 
ATOM     17  N   UNL A   1      43.722  26.954  31.273  1.00  0.00    -0.354 N 
ATOM     18  C   UNL A   1      40.355  29.312  29.869  1.00  0.00     0.074 A 
ATOM     19  C   UNL A   1      39.806  28.784  28.643  1.00  0.00     0.031 C 
ATOM     20  C   UNL A   1      45.022  25.127  31.271  1.00  0.00     0.029 A 
ATOM     21  C   UNL A   1      44.775  26.364  31.957  1.00  0.00     0.049 A 
ATOM     22  H   UNL A   1      43.222  27.732  31.612  1.00  0.00     0.167 HD
ATOM     23  C   UNL A   1      39.791  30.290  30.609  1.00  0.00     0.037 A 
ATOM     24  C   UNL A   1      45.516  26.783  32.993  1.00  0.00     0.037 A 
ATOM     25  C   UNL A   1      40.396  30.799  31.812  1.00  0.00     0.049 A 
ATOM     26  C   UNL A   1      45.029  28.019  33.660  1.00  0.00     0.074 A 
ATOM     27  C   UNL A   1      40.007  31.869  32.593  1.00  0.00     0.029 A 
ATOM     28  N   UNL A   1      41.533  30.260  32.407  1.00  0.00    -0.354 N 
ATOM     29  N   UNL A   1      43.991  28.749  33.326  1.00  0.00    -0.248 NA
ATOM     30  C   UNL A   1      45.748  28.465  34.849  1.00  0.00     0.031 C 
ATOM     31  C   UNL A   1      40.942  32.012  33.624  1.00  0.00     0.029 A 
ATOM     32  C   UNL A   1      41.881  30.995  33.526  1.00  0.00     0.049 A 
ATOM     33  H   UNL A   1      42.021  29.471  32.077  1.00  0.00     0.167 HD
ATOM     34  C   UNL A   1      43.899  29.727  34.293  1.00  0.00     0.074 A 
ATOM     35  C   UNL A   1      44.988  29.483  35.227  1.00  0.00     0.031 C 
ATOM     36  C   UNL A   1      42.992  30.725  34.406  1.00  0.00     0.037 A 
BRANCH  23  37
ATOM     37  C   UNL A   1      38.526  30.906  30.085  1.00  0.00     0.058 A 
ATOM     38  C   UNL A   1      38.500  32.184  29.502  1.00  0.00     0.135 A 
ATOM     39  C   UNL A   1      37.309  30.217  30.200  1.00  0.00     0.135 A 
ATOM     40  F   UNL A   1      39.628  32.908  29.408  1.00  0.00    -0.206 F 
ATOM     41  C   UNL A   1      37.311  32.759  29.059  1.00  0.00     0.059 A 
ATOM     42  C   UNL A   1      36.112  30.761  29.743  1.00  0.00     0.059 A 
ATOM     43  F   UNL A   1      37.272  29.005  30.776  1.00  0.00    -0.206 F 
ATOM     44  C   UNL A   1      36.122  32.037  29.180  1.00  0.00     0.060 A 
BRANCH  44  45
ATOM     45  S   UNL A   1      34.591  32.780  28.574  1.00  0.00     0.124 S 
ATOM     46  O   UNL A   1      35.096  33.740  27.597  1.00  0.00    -0.237 OA
ATOM     47  O   UNL A   1      33.883  31.628  28.026  1.00  0.00    -0.237 OA
ATOM     48  O   UNL A   1      33.998  33.362  29.775  1.00  0.00    -0.744 OA
ENDBRANCH  44  45
ENDBRANCH  23  37
BRANCH  24  49
ATOM     49  C   UNL A   1      46.759  26.062  33.394  1.00  0.00     0.058 A 
ATOM     50  C   UNL A   1      48.014  26.376  32.858  1.00  0.00     0.135 A 
ATOM     51  C   UNL A   1      46.711  25.033  34.357  1.00  0.00     0.135 A 
ATOM     52  F   UNL A   1      48.129  27.365  31.959  1.00  0.00    -0.206 F 
ATOM     53  C   UNL A   1      49.164  25.676  33.221  1.00  0.00     0.059 A 
ATOM     54  C   UNL A   1      47.848  24.334  34.754  1.00  0.00     0.059 A 
ATOM     55  F   UNL A   1      45.545  24.711  34.940  1.00  0.00    -0.206 F 
ATOM     56  C   UNL A   1      49.069  24.649  34.163  1.00  0.00     0.060 A 
BRANCH  56  57
ATOM     57  S   UNL A   1      50.564  23.733  34.608  1.00  0.00     0.124 S 
ATOM     58  O   UNL A   1      50.239  23.279  35.955  1.00  0.00    -0.237 OA
ATOM     59  O   UNL A   1      50.604  22.700  33.577  1.00  0.00    -0.237 OA
ATOM     60  O   UNL A   1      51.616  24.740  34.518  1.00  0.00    -0.744 OA
ENDBRANCH  56  57
ENDBRANCH  24  49
BRANCH  36  61
ATOM     61  C   UNL A   1      43.161  31.604  35.598  1.00  0.00     0.058 A 
ATOM     62  C   UNL A   1      42.570  31.282  36.828  1.00  0.00     0.135 A 
ATOM     63  C   UNL A   1      43.910  32.785  35.499  1.00  0.00     0.135 A 
ATOM     64  F   UNL A   1      41.827  30.171  36.954  1.00  0.00    -0.206 F 
ATOM     65  C   UNL A   1      42.681  32.132  37.917  1.00  0.00     0.059 A 
ATOM     66  C   UNL A   1      44.064  33.629  36.586  1.00  0.00     0.059 A 
ATOM     67  F   UNL A   1      44.490  33.125  34.337  1.00  0.00    -0.206 F 
ATOM     68  C   UNL A   1      43.430  33.302  37.785  1.00  0.00     0.060 A 
BRANCH  68  69
ATOM     69  S   UNL A   1      43.575  34.391  39.211  1.00  0.00     0.124 S 
ATOM     70  O   UNL A   1      43.803  35.681  38.570  1.00  0.00    -0.237 OA
ATOM     71  O   UNL A   1      42.279  34.225  39.862  1.00  0.00    -0.237 OA
ATOM     72  O   UNL A   1      44.712  33.840  39.942  1.00  0.00    -0.744 OA
ENDBRANCH  68  69
ENDBRANCH  36  61
ENDBRANCH  10  11
ENDBRANCH   3   5
ENDBRANCH   2   3
ENDBRANCH   1   2
BRANCH   1  73
ATOM     73  C   UNL A   1      41.756  19.567  26.733  1.00  0.00     0.274 C 
BRANCH  73  74
ATOM     74  O   UNL A   1      40.566  20.480  26.455  1.00  0.00    -0.462 OA
BRANCH  74  75
ATOM     75  C   UNL A   1      39.470  20.063  25.725  1.00  0.00     0.310 C 
ATOM     76  O   UNL A   1      39.347  18.877  25.409  1.00  0.00    -0.252 OA
BRANCH  75  77
ATOM     77  C   UNL A   1      38.207  21.140  25.416  1.00  0.00     0.117 C 
ATOM     78  C   UNL A   1      38.569  22.419  26.215  1.00  0.00     0.017 C 
ATOM     79  C   UNL A   1      36.476  21.016  24.699  1.00  0.00     0.084 C 
ATOM     80  C   UNL A   1      37.896  23.738  25.862  1.00  0.00     0.001 C 
ATOM     81  C   UNL A   1      36.163  22.666  24.379  1.00  0.00     0.021 C 
ATOM     82  C   UNL A   1      36.439  23.687  25.468  1.00  0.00     0.002 C 
BRANCH  79  83
ATOM     83  N   UNL A   1      35.025  19.425  24.953  1.00  0.00    -0.207 NA
ATOM     84  H   UNL A   1      35.176  19.114  25.912  1.00  0.00     0.141 HD
BRANCH  83  85
ATOM     85  S   UNL A   1      33.008  19.383  24.750  1.00  0.00     0.240 S 
ATOM     86  O   UNL A   1      32.777  18.959  23.387  1.00  0.00    -0.207 OA
ATOM     87  O   UNL A   1      32.500  18.666  25.898  1.00  0.00    -0.207 OA
BRANCH  85  88
ATOM     88  C   UNL A   1      32.333  21.227  24.870  1.00  0.00     0.083 A 
ATOM     89  C   UNL A   1      32.892  21.923  26.382  1.00  0.00     0.022 A 
ATOM     90  C   UNL A   1      31.892  22.426  23.451  1.00  0.00     0.030 A 
ATOM     91  C   UNL A   1      32.957  23.657  26.523  1.00  0.00     0.010 A 
ATOM     92  C   UNL A   1      32.012  24.209  23.670  1.00  0.00    -0.017 A 
ATOM     93  C   UNL A   1      32.531  24.790  25.225  1.00  0.00    -0.018 A 
ATOM     94  C   UNL A   1      31.675  25.154  22.712  1.00  0.00     0.009 A 
ATOM     95  C   UNL A   1      32.442  26.165  25.390  1.00  0.00     0.009 A 
ATOM     96  C   UNL A   1      31.614  26.502  23.066  1.00  0.00     0.001 A 
ATOM     97  C   UNL A   1      31.958  26.980  24.351  1.00  0.00     0.001 A 
ENDBRANCH  85  88
ENDBRANCH  83  85
ENDBRANCH  79  83
ENDBRANCH  75  77
ENDBRANCH  74  75
ENDBRANCH  73  74
ENDBRANCH   1  73
TORSDOF 17
ENDMDL
