MODEL 1
REMARK VINA RESULT:     -11.4      0.000      0.000
REMARK SMILES CCn1nc(C(C)C)cc1C(=O)N1CCCC[C@@H]1C(=O)OCCOC(=O)c1ccc(-c2c3nc(c(-c4c(F)cc(S(=O)(=O)[O-])cc4F)c4ccc([nH]4)c(-c4c(F)cc(S(=O)(=O)[O-])cc4F)c4nc(c(-c5c(F)cc(S(=O)(=O)[O-])cc5F)c5ccc2[nH]5)C=C4)C=C3)cc1
REMARK SMILES IDX 22 1 21 2 19 3 20 4 18 5 13 6 14 7 15 8 17 9 16 10 11 11
REMARK SMILES IDX 12 12 10 13 3 14 4 15 5 16 9 17 2 18 1 19 6 20 7 21 8 22
REMARK SMILES IDX 23 23 24 24 25 25 26 26 27 27 28 28 92 29 29 30 91 31 30 32
REMARK SMILES IDX 31 33 32 34 85 35 33 36 90 37 84 38 86 39 34 40 89 41 83 42
REMARK SMILES IDX 82 43 35 45 69 46 48 47 68 48 49 49 52 50 67 51 87 52 50 53
REMARK SMILES IDX 51 54 66 56 88 57 53 58 36 59 37 60 46 61 38 62 39 63 45 64
REMARK SMILES IDX 47 65 40 66 41 67 42 68 43 69 44 70 70 71 71 72 80 73 72 74
REMARK SMILES IDX 73 75 79 76 81 77 74 78 75 79 76 80 77 81 78 82 54 83 55 84
REMARK SMILES IDX 64 85 56 86 57 87 63 88 65 89 58 90 59 91 60 92 61 93 62 94
REMARK H PARENT 86 44 52 55
REMARK Flexibility Score: inf
ROOT
ATOM      1  C   UNL A   1      33.285  28.581  27.358  1.00  0.00     0.274 C 
ENDROOT
BRANCH   1   2
ATOM      2  O   UNL A   1      32.795  27.624  26.395  1.00  0.00    -0.461 OA
BRANCH   2   3
ATOM      3  C   UNL A   1      31.477  27.275  26.496  1.00  0.00     0.328 C 
ATOM      4  O   UNL A   1      30.792  27.397  27.508  1.00  0.00    -0.250 OA
BRANCH   3   5
ATOM      5  C   UNL A   1      30.939  26.637  25.207  1.00  0.00     0.195 C 
ATOM      6  N   UNL A   1      30.960  25.155  25.136  1.00  0.00    -0.323 N 
ATOM      7  C   UNL A   1      30.498  24.574  23.885  1.00  0.00     0.121 C 
ATOM      8  C   UNL A   1      31.213  25.160  22.676  1.00  0.00     0.022 C 
ATOM      9  C   UNL A   1      31.596  27.268  23.963  1.00  0.00     0.037 C 
ATOM     10  C   UNL A   1      31.074  26.675  22.659  1.00  0.00     0.005 C 
BRANCH   6  11
ATOM     11  C   UNL A   1      31.599  24.327  26.060  1.00  0.00     0.272 C 
ATOM     12  O   UNL A   1      31.142  24.173  27.190  1.00  0.00    -0.267 OA
BRANCH  11  13
ATOM     13  C   UNL A   1      32.881  23.777  25.663  1.00  0.00     0.126 A 
ATOM     14  N   UNL A   1      33.156  22.471  25.333  1.00  0.00    -0.260 N 
ATOM     15  N   UNL A   1      34.420  22.281  24.890  1.00  0.00    -0.177 NA
ATOM     16  C   UNL A   1      35.004  23.475  25.026  1.00  0.00     0.066 A 
ATOM     17  C   UNL A   1      34.111  24.413  25.582  1.00  0.00     0.059 A 
BRANCH  14  18
ATOM     18  C   UNL A   1      32.273  21.318  25.339  1.00  0.00     0.142 C 
ATOM     19  C   UNL A   1      32.353  20.540  24.034  1.00  0.00     0.029 C 
ENDBRANCH  14  18
BRANCH  16  20
ATOM     20  C   UNL A   1      36.426  23.716  24.605  1.00  0.00     0.034 C 
ATOM     21  C   UNL A   1      37.392  23.494  25.768  1.00  0.00     0.014 C 
ATOM     22  C   UNL A   1      36.836  22.873  23.395  1.00  0.00     0.014 C 
ENDBRANCH  16  20
ENDBRANCH  11  13
ENDBRANCH   6  11
ENDBRANCH   3   5
ENDBRANCH   2   3
ENDBRANCH   1   2
BRANCH   1  23
ATOM     23  C   UNL A   1      33.733  29.899  26.730  1.00  0.00     0.275 C 
BRANCH  23  24
ATOM     24  O   UNL A   1      35.094  30.155  27.048  1.00  0.00    -0.458 OA
BRANCH  24  25
ATOM     25  C   UNL A   1      35.284  31.251  27.817  1.00  0.00     0.338 C 
ATOM     26  O   UNL A   1      34.891  32.379  27.581  1.00  0.00    -0.246 OA
BRANCH  25  27
ATOM     27  C   UNL A   1      36.122  30.914  28.970  1.00  0.00     0.060 A 
ATOM     28  C   UNL A   1      36.982  31.925  29.416  1.00  0.00     0.016 A 
ATOM     29  C   UNL A   1      36.371  29.560  29.184  1.00  0.00     0.016 A 
ATOM     30  C   UNL A   1      38.266  31.566  29.745  1.00  0.00     0.010 A 
ATOM     31  C   UNL A   1      37.663  29.209  29.443  1.00  0.00     0.010 A 
ATOM     32  C   UNL A   1      38.610  30.222  29.613  1.00  0.00    -0.014 A 
BRANCH  32  33
ATOM     33  C   UNL A   1      39.996  29.832  29.723  1.00  0.00     0.031 A 
ATOM     34  C   UNL A   1      40.391  29.678  31.137  1.00  0.00     0.074 A 
ATOM     35  C   UNL A   1      40.697  29.467  28.633  1.00  0.00     0.049 A 
ATOM     36  N   UNL A   1      41.104  30.484  31.854  1.00  0.00    -0.248 NA
ATOM     37  C   UNL A   1      39.653  28.674  31.930  1.00  0.00     0.031 C 
ATOM     38  C   UNL A   1      40.221  29.335  27.251  1.00  0.00     0.029 A 
ATOM     39  N   UNL A   1      41.969  28.997  28.557  1.00  0.00    -0.354 N 
ATOM     40  C   UNL A   1      41.122  29.892  33.113  1.00  0.00     0.074 A 
ATOM     41  C   UNL A   1      39.956  29.063  33.168  1.00  0.00     0.031 C 
ATOM     42  C   UNL A   1      41.110  28.604  26.540  1.00  0.00     0.029 A 
ATOM     43  C   UNL A   1      42.258  28.311  27.377  1.00  0.00     0.049 A 
ATOM     44  H   UNL A   1      42.632  29.130  29.274  1.00  0.00     0.167 HD
ATOM     45  C   UNL A   1      42.283  29.785  33.817  1.00  0.00     0.037 A 
ATOM     46  C   UNL A   1      43.319  27.477  27.200  1.00  0.00     0.037 A 
ATOM     47  C   UNL A   1      43.266  30.715  33.301  1.00  0.00     0.049 A 
ATOM     48  C   UNL A   1      44.297  27.802  28.283  1.00  0.00     0.074 A 
ATOM     49  C   UNL A   1      43.299  32.082  33.106  1.00  0.00     0.029 A 
ATOM     50  N   UNL A   1      44.273  30.197  32.519  1.00  0.00    -0.354 N 
ATOM     51  N   UNL A   1      44.920  28.947  28.373  1.00  0.00    -0.248 NA
ATOM     52  C   UNL A   1      44.180  27.059  29.531  1.00  0.00     0.031 C 
ATOM     53  C   UNL A   1      44.010  32.268  31.884  1.00  0.00     0.029 A 
ATOM     54  C   UNL A   1      44.443  31.020  31.437  1.00  0.00     0.049 A 
ATOM     55  H   UNL A   1      44.784  29.376  32.706  1.00  0.00     0.167 HD
ATOM     56  C   UNL A   1      44.895  29.263  29.727  1.00  0.00     0.074 A 
ATOM     57  C   UNL A   1      44.478  28.033  30.397  1.00  0.00     0.031 C 
ATOM     58  C   UNL A   1      44.919  30.564  30.149  1.00  0.00     0.037 A 
BRANCH  45  59
ATOM     59  C   UNL A   1      42.677  28.556  34.625  1.00  0.00     0.058 A 
ATOM     60  C   UNL A   1      43.010  28.738  35.982  1.00  0.00     0.135 A 
ATOM     61  C   UNL A   1      43.015  27.284  34.098  1.00  0.00     0.135 A 
ATOM     62  F   UNL A   1      42.700  29.882  36.614  1.00  0.00    -0.206 F 
ATOM     63  C   UNL A   1      43.742  27.800  36.709  1.00  0.00     0.059 A 
ATOM     64  C   UNL A   1      43.706  26.319  34.817  1.00  0.00     0.059 A 
ATOM     65  F   UNL A   1      42.770  26.908  32.841  1.00  0.00    -0.206 F 
ATOM     66  C   UNL A   1      44.111  26.605  36.105  1.00  0.00     0.060 A 
BRANCH  66  67
ATOM     67  S   UNL A   1      45.156  25.441  36.989  1.00  0.00     0.124 S 
ATOM     68  O   UNL A   1      46.472  26.041  36.805  1.00  0.00    -0.237 OA
ATOM     69  O   UNL A   1      44.600  25.506  38.336  1.00  0.00    -0.237 OA
ATOM     70  O   UNL A   1      44.930  24.183  36.283  1.00  0.00    -0.744 OA
ENDBRANCH  66  67
ENDBRANCH  45  59
BRANCH  46  71
ATOM     71  C   UNL A   1      43.356  26.190  26.447  1.00  0.00     0.058 A 
ATOM     72  C   UNL A   1      44.341  25.935  25.473  1.00  0.00     0.135 A 
ATOM     73  C   UNL A   1      42.597  25.073  26.855  1.00  0.00     0.135 A 
ATOM     74  F   UNL A   1      45.128  26.930  25.038  1.00  0.00    -0.206 F 
ATOM     75  C   UNL A   1      44.587  24.649  24.970  1.00  0.00     0.059 A 
ATOM     76  C   UNL A   1      42.815  23.787  26.361  1.00  0.00     0.059 A 
ATOM     77  F   UNL A   1      41.674  25.178  27.822  1.00  0.00    -0.206 F 
ATOM     78  C   UNL A   1      43.828  23.575  25.436  1.00  0.00     0.060 A 
BRANCH  78  79
ATOM     79  S   UNL A   1      44.241  21.889  24.922  1.00  0.00     0.124 S 
ATOM     80  O   UNL A   1      43.078  21.139  25.381  1.00  0.00    -0.237 OA
ATOM     81  O   UNL A   1      44.380  22.030  23.477  1.00  0.00    -0.237 OA
ATOM     82  O   UNL A   1      45.484  21.612  25.639  1.00  0.00    -0.744 OA
ENDBRANCH  78  79
ENDBRANCH  46  71
BRANCH  58  83
ATOM     83  C   UNL A   1      45.270  31.635  29.150  1.00  0.00     0.058 A 
ATOM     84  C   UNL A   1      46.577  31.936  28.725  1.00  0.00     0.135 A 
ATOM     85  C   UNL A   1      44.216  32.263  28.471  1.00  0.00     0.135 A 
ATOM     86  F   UNL A   1      47.634  31.302  29.251  1.00  0.00    -0.206 F 
ATOM     87  C   UNL A   1      46.823  32.847  27.693  1.00  0.00     0.059 A 
ATOM     88  C   UNL A   1      44.436  33.149  27.421  1.00  0.00     0.059 A 
ATOM     89  F   UNL A   1      42.945  31.971  28.788  1.00  0.00    -0.206 F 
ATOM     90  C   UNL A   1      45.743  33.446  27.045  1.00  0.00     0.060 A 
BRANCH  90  91
ATOM     91  S   UNL A   1      46.051  34.566  25.661  1.00  0.00     0.124 S 
ATOM     92  O   UNL A   1      45.659  35.855  26.218  1.00  0.00    -0.237 OA
ATOM     93  O   UNL A   1      47.480  34.387  25.421  1.00  0.00    -0.237 OA
ATOM     94  O   UNL A   1      45.182  34.051  24.606  1.00  0.00    -0.744 OA
ENDBRANCH  90  91
ENDBRANCH  58  83
ENDBRANCH  32  33
ENDBRANCH  25  27
ENDBRANCH  24  25
ENDBRANCH  23  24
ENDBRANCH   1  23
TORSDOF 18
ENDMDL
MODEL 2
REMARK VINA RESULT:     -11.2      2.831      8.978
REMARK SMILES CCn1nc(C(C)C)cc1C(=O)N1CCCC[C@@H]1C(=O)OCCOC(=O)c1ccc(-c2c3nc(c(-c4c(F)cc(S(=O)(=O)[O-])cc4F)c4ccc([nH]4)c(-c4c(F)cc(S(=O)(=O)[O-])cc4F)c4nc(c(-c5c(F)cc(S(=O)(=O)[O-])cc5F)c5ccc2[nH]5)C=C4)C=C3)cc1
REMARK SMILES IDX 22 1 21 2 19 3 20 4 18 5 13 6 14 7 15 8 17 9 16 10 11 11
REMARK SMILES IDX 12 12 10 13 3 14 4 15 5 16 9 17 2 18 1 19 6 20 7 21 8 22
REMARK SMILES IDX 23 23 24 24 25 25 26 26 27 27 28 28 92 29 29 30 91 31 30 32
REMARK SMILES IDX 31 33 32 34 85 35 33 36 90 37 84 38 86 39 34 40 89 41 83 42
REMARK SMILES IDX 82 43 35 45 69 46 48 47 68 48 49 49 52 50 67 51 87 52 50 53
REMARK SMILES IDX 51 54 66 56 88 57 53 58 36 59 37 60 46 61 38 62 39 63 45 64
REMARK SMILES IDX 47 65 40 66 41 67 42 68 43 69 44 70 70 71 71 72 80 73 72 74
REMARK SMILES IDX 73 75 79 76 81 77 74 78 75 79 76 80 77 81 78 82 54 83 55 84
REMARK SMILES IDX 64 85 56 86 57 87 63 88 65 89 58 90 59 91 60 92 61 93 62 94
REMARK H PARENT 86 44 52 55
REMARK Flexibility Score: inf
ROOT
ATOM      1  C   UNL A   1      37.110  23.646  24.789  1.00  0.00     0.274 C 
ENDROOT
BRANCH   1   2
ATOM      2  O   UNL A   1      35.692  23.791  24.560  1.00  0.00    -0.461 OA
BRANCH   2   3
ATOM      3  C   UNL A   1      35.193  23.206  23.430  1.00  0.00     0.328 C 
ATOM      4  O   UNL A   1      35.833  22.996  22.404  1.00  0.00    -0.250 OA
BRANCH   3   5
ATOM      5  C   UNL A   1      33.694  22.888  23.547  1.00  0.00     0.195 C 
ATOM      6  N   UNL A   1      32.752  23.934  23.080  1.00  0.00    -0.323 N 
ATOM      7  C   UNL A   1      31.338  23.635  23.253  1.00  0.00     0.121 C 
ATOM      8  C   UNL A   1      31.001  23.235  24.682  1.00  0.00     0.022 C 
ATOM      9  C   UNL A   1      33.342  22.409  24.970  1.00  0.00     0.037 C 
ATOM     10  C   UNL A   1      31.865  22.064  25.124  1.00  0.00     0.005 C 
BRANCH   6  11
ATOM     11  C   UNL A   1      33.120  25.234  22.730  1.00  0.00     0.272 C 
ATOM     12  O   UNL A   1      33.745  25.453  21.694  1.00  0.00    -0.267 OA
BRANCH  11  13
ATOM     13  C   UNL A   1      32.848  26.272  23.704  1.00  0.00     0.126 A 
ATOM     14  N   UNL A   1      31.908  27.271  23.610  1.00  0.00    -0.260 N 
ATOM     15  N   UNL A   1      31.807  28.024  24.730  1.00  0.00    -0.177 NA
ATOM     16  C   UNL A   1      32.770  27.560  25.532  1.00  0.00     0.066 A 
ATOM     17  C   UNL A   1      33.497  26.529  24.902  1.00  0.00     0.059 A 
BRANCH  14  18
ATOM     18  C   UNL A   1      30.995  27.571  22.522  1.00  0.00     0.142 C 
ATOM     19  C   UNL A   1      30.674  29.056  22.447  1.00  0.00     0.029 C 
ENDBRANCH  14  18
BRANCH  16  20
ATOM     20  C   UNL A   1      32.982  28.105  26.916  1.00  0.00     0.034 C 
ATOM     21  C   UNL A   1      33.748  29.427  26.878  1.00  0.00     0.014 C 
ATOM     22  C   UNL A   1      31.675  28.262  27.696  1.00  0.00     0.014 C 
ENDBRANCH  16  20
ENDBRANCH  11  13
ENDBRANCH   6  11
ENDBRANCH   3   5
ENDBRANCH   2   3
ENDBRANCH   1   2
BRANCH   1  23
ATOM     23  C   UNL A   1      37.443  22.852  26.050  1.00  0.00     0.275 C 
BRANCH  23  24
ATOM     24  O   UNL A   1      38.323  23.598  26.879  1.00  0.00    -0.458 OA
BRANCH  24  25
ATOM     25  C   UNL A   1      39.598  23.144  26.880  1.00  0.00     0.338 C 
ATOM     26  O   UNL A   1      39.954  21.986  26.991  1.00  0.00    -0.246 OA
BRANCH  25  27
ATOM     27  C   UNL A   1      40.530  24.272  26.811  1.00  0.00     0.060 A 
ATOM     28  C   UNL A   1      41.671  24.171  27.617  1.00  0.00     0.016 A 
ATOM     29  C   UNL A   1      40.002  25.493  26.396  1.00  0.00     0.016 A 
ATOM     30  C   UNL A   1      42.059  25.292  28.310  1.00  0.00     0.010 A 
ATOM     31  C   UNL A   1      40.341  26.588  27.136  1.00  0.00     0.010 A 
ATOM     32  C   UNL A   1      41.288  26.441  28.152  1.00  0.00    -0.014 A 
BRANCH  32  33
ATOM     33  C   UNL A   1      41.512  27.569  29.025  1.00  0.00     0.031 A 
ATOM     34  C   UNL A   1      42.607  28.420  28.519  1.00  0.00     0.074 A 
ATOM     35  C   UNL A   1      40.652  27.850  30.023  1.00  0.00     0.049 A 
ATOM     36  N   UNL A   1      43.819  28.503  28.963  1.00  0.00    -0.248 NA
ATOM     37  C   UNL A   1      42.426  29.013  27.178  1.00  0.00     0.031 C 
ATOM     38  C   UNL A   1      39.392  27.172  30.350  1.00  0.00     0.029 A 
ATOM     39  N   UNL A   1      40.658  28.903  30.880  1.00  0.00    -0.354 N 
ATOM     40  C   UNL A   1      44.436  29.400  28.098  1.00  0.00     0.074 A 
ATOM     41  C   UNL A   1      43.680  29.350  26.884  1.00  0.00     0.031 C 
ATOM     42  C   UNL A   1      38.657  27.965  31.163  1.00  0.00     0.029 A 
ATOM     43  C   UNL A   1      39.430  29.147  31.497  1.00  0.00     0.049 A 
ATOM     44  H   UNL A   1      41.460  29.448  31.052  1.00  0.00     0.167 HD
ATOM     45  C   UNL A   1      45.221  30.404  28.578  1.00  0.00     0.037 A 
ATOM     46  C   UNL A   1      39.088  30.306  32.120  1.00  0.00     0.037 A 
ATOM     47  C   UNL A   1      45.636  30.108  29.933  1.00  0.00     0.049 A 
ATOM     48  C   UNL A   1      40.366  31.026  32.406  1.00  0.00     0.074 A 
ATOM     49  C   UNL A   1      46.300  29.057  30.537  1.00  0.00     0.029 A 
ATOM     50  N   UNL A   1      45.003  30.788  30.949  1.00  0.00    -0.354 N 
ATOM     51  N   UNL A   1      41.274  30.583  33.234  1.00  0.00    -0.248 NA
ATOM     52  C   UNL A   1      40.852  31.952  31.391  1.00  0.00     0.031 C 
ATOM     53  C   UNL A   1      45.666  28.892  31.803  1.00  0.00     0.029 A 
ATOM     54  C   UNL A   1      44.706  29.895  31.943  1.00  0.00     0.049 A 
ATOM     55  H   UNL A   1      44.800  31.751  30.958  1.00  0.00     0.167 HD
ATOM     56  C   UNL A   1      42.488  30.825  32.600  1.00  0.00     0.074 A 
ATOM     57  C   UNL A   1      42.165  31.724  31.493  1.00  0.00     0.031 C 
ATOM     58  C   UNL A   1      43.581  30.040  32.842  1.00  0.00     0.037 A 
BRANCH  45  59
ATOM     59  C   UNL A   1      45.220  31.822  28.023  1.00  0.00     0.058 A 
ATOM     60  C   UNL A   1      46.441  32.346  27.551  1.00  0.00     0.135 A 
ATOM     61  C   UNL A   1      44.188  32.780  28.181  1.00  0.00     0.135 A 
ATOM     62  F   UNL A   1      47.486  31.536  27.313  1.00  0.00    -0.206 F 
ATOM     63  C   UNL A   1      46.661  33.713  27.389  1.00  0.00     0.059 A 
ATOM     64  C   UNL A   1      44.373  34.141  27.985  1.00  0.00     0.059 A 
ATOM     65  F   UNL A   1      42.955  32.486  28.601  1.00  0.00    -0.206 F 
ATOM     66  C   UNL A   1      45.625  34.605  27.639  1.00  0.00     0.060 A 
BRANCH  66  67
ATOM     67  S   UNL A   1      45.927  36.374  27.552  1.00  0.00     0.124 S 
ATOM     68  O   UNL A   1      46.623  36.483  26.275  1.00  0.00    -0.237 OA
ATOM     69  O   UNL A   1      44.571  36.909  27.595  1.00  0.00    -0.237 OA
ATOM     70  O   UNL A   1      46.737  36.635  28.738  1.00  0.00    -0.744 OA
ENDBRANCH  66  67
ENDBRANCH  45  59
BRANCH  46  71
ATOM     71  C   UNL A   1      37.766  30.998  32.106  1.00  0.00     0.058 A 
ATOM     72  C   UNL A   1      37.158  31.448  33.295  1.00  0.00     0.135 A 
ATOM     73  C   UNL A   1      37.196  31.478  30.909  1.00  0.00     0.135 A 
ATOM     74  F   UNL A   1      37.644  31.064  34.485  1.00  0.00    -0.206 F 
ATOM     75  C   UNL A   1      36.084  32.350  33.296  1.00  0.00     0.059 A 
ATOM     76  C   UNL A   1      36.120  32.366  30.884  1.00  0.00     0.059 A 
ATOM     77  F   UNL A   1      37.726  31.171  29.716  1.00  0.00    -0.206 F 
ATOM     78  C   UNL A   1      35.583  32.819  32.081  1.00  0.00     0.060 A 
BRANCH  78  79
ATOM     79  S   UNL A   1      34.310  34.106  32.068  1.00  0.00     0.124 S 
ATOM     80  O   UNL A   1      33.873  34.085  30.677  1.00  0.00    -0.237 OA
ATOM     81  O   UNL A   1      33.351  33.604  33.046  1.00  0.00    -0.237 OA
ATOM     82  O   UNL A   1      35.038  35.306  32.474  1.00  0.00    -0.744 OA
ENDBRANCH  78  79
ENDBRANCH  46  71
BRANCH  58  83
ATOM     83  C   UNL A   1      43.542  29.100  34.019  1.00  0.00     0.058 A 
ATOM     84  C   UNL A   1      43.762  29.480  35.355  1.00  0.00     0.135 A 
ATOM     85  C   UNL A   1      43.091  27.791  33.792  1.00  0.00     0.135 A 
ATOM     86  F   UNL A   1      44.094  30.741  35.665  1.00  0.00    -0.206 F 
ATOM     87  C   UNL A   1      43.574  28.587  36.414  1.00  0.00     0.059 A 
ATOM     88  C   UNL A   1      42.868  26.896  34.833  1.00  0.00     0.059 A 
ATOM     89  F   UNL A   1      42.804  27.387  32.544  1.00  0.00    -0.206 F 
ATOM     90  C   UNL A   1      43.123  27.295  36.141  1.00  0.00     0.060 A 
BRANCH  90  91
ATOM     91  S   UNL A   1      42.807  26.160  37.510  1.00  0.00     0.124 S 
ATOM     92  O   UNL A   1      43.660  26.702  38.561  1.00  0.00    -0.237 OA
ATOM     93  O   UNL A   1      41.369  26.310  37.720  1.00  0.00    -0.237 OA
ATOM     94  O   UNL A   1      43.218  24.863  36.979  1.00  0.00    -0.744 OA
ENDBRANCH  90  91
ENDBRANCH  58  83
ENDBRANCH  32  33
ENDBRANCH  25  27
ENDBRANCH  24  25
ENDBRANCH  23  24
ENDBRANCH   1  23
TORSDOF 18
ENDMDL
MODEL 3
REMARK VINA RESULT:     -11.0      3.259      7.584
REMARK SMILES CCn1nc(C(C)C)cc1C(=O)N1CCCC[C@@H]1C(=O)OCCOC(=O)c1ccc(-c2c3nc(c(-c4c(F)cc(S(=O)(=O)[O-])cc4F)c4ccc([nH]4)c(-c4c(F)cc(S(=O)(=O)[O-])cc4F)c4nc(c(-c5c(F)cc(S(=O)(=O)[O-])cc5F)c5ccc2[nH]5)C=C4)C=C3)cc1
REMARK SMILES IDX 22 1 21 2 19 3 20 4 18 5 13 6 14 7 15 8 17 9 16 10 11 11
REMARK SMILES IDX 12 12 10 13 3 14 4 15 5 16 9 17 2 18 1 19 6 20 7 21 8 22
REMARK SMILES IDX 23 23 24 24 25 25 26 26 27 27 28 28 92 29 29 30 91 31 30 32
REMARK SMILES IDX 31 33 32 34 85 35 33 36 90 37 84 38 86 39 34 40 89 41 83 42
REMARK SMILES IDX 82 43 35 45 69 46 48 47 68 48 49 49 52 50 67 51 87 52 50 53
REMARK SMILES IDX 51 54 66 56 88 57 53 58 36 59 37 60 46 61 38 62 39 63 45 64
REMARK SMILES IDX 47 65 40 66 41 67 42 68 43 69 44 70 70 71 71 72 80 73 72 74
REMARK SMILES IDX 73 75 79 76 81 77 74 78 75 79 76 80 77 81 78 82 54 83 55 84
REMARK SMILES IDX 64 85 56 86 57 87 63 88 65 89 58 90 59 91 60 92 61 93 62 94
REMARK H PARENT 86 44 52 55
REMARK Flexibility Score: inf
ROOT
ATOM      1  C   UNL A   1      36.729  22.116  24.289  1.00  0.00     0.274 C 
ENDROOT
BRANCH   1   2
ATOM      2  O   UNL A   1      35.542  22.743  24.822  1.00  0.00    -0.461 OA
BRANCH   2   3
ATOM      3  C   UNL A   1      34.882  23.606  23.992  1.00  0.00     0.328 C 
ATOM      4  O   UNL A   1      35.033  23.667  22.775  1.00  0.00    -0.250 OA
BRANCH   3   5
ATOM      5  C   UNL A   1      33.954  24.562  24.757  1.00  0.00     0.195 C 
ATOM      6  N   UNL A   1      32.516  24.201  24.805  1.00  0.00    -0.323 N 
ATOM      7  C   UNL A   1      31.648  25.150  25.486  1.00  0.00     0.121 C 
ATOM      8  C   UNL A   1      31.808  26.567  24.954  1.00  0.00     0.022 C 
ATOM      9  C   UNL A   1      34.153  26.017  24.286  1.00  0.00     0.037 C 
ATOM     10  C   UNL A   1      33.263  27.002  25.035  1.00  0.00     0.005 C 
BRANCH   6  11
ATOM     11  C   UNL A   1      31.930  23.179  24.057  1.00  0.00     0.272 C 
ATOM     12  O   UNL A   1      31.048  23.425  23.236  1.00  0.00    -0.267 OA
BRANCH  11  13
ATOM     13  C   UNL A   1      32.315  21.823  24.395  1.00  0.00     0.126 A 
ATOM     14  N   UNL A   1      32.588  21.327  25.648  1.00  0.00    -0.260 N 
ATOM     15  N   UNL A   1      32.807  19.992  25.664  1.00  0.00    -0.177 NA
ATOM     16  C   UNL A   1      32.768  19.632  24.378  1.00  0.00     0.066 A 
ATOM     17  C   UNL A   1      32.551  20.750  23.548  1.00  0.00     0.059 A 
BRANCH  14  18
ATOM     18  C   UNL A   1      32.606  22.020  26.924  1.00  0.00     0.142 C 
ATOM     19  C   UNL A   1      33.927  21.827  27.653  1.00  0.00     0.029 C 
ENDBRANCH  14  18
BRANCH  16  20
ATOM     20  C   UNL A   1      32.929  18.201  23.949  1.00  0.00     0.034 C 
ATOM     21  C   UNL A   1      32.382  17.982  22.539  1.00  0.00     0.014 C 
ATOM     22  C   UNL A   1      34.376  17.713  24.048  1.00  0.00     0.014 C 
ENDBRANCH  16  20
ENDBRANCH  11  13
ENDBRANCH   6  11
ENDBRANCH   3   5
ENDBRANCH   2   3
ENDBRANCH   1   2
BRANCH   1  23
ATOM     23  C   UNL A   1      37.408  21.168  25.274  1.00  0.00     0.275 C 
BRANCH  23  24
ATOM     24  O   UNL A   1      38.789  21.483  25.381  1.00  0.00    -0.458 OA
BRANCH  24  25
ATOM     25  C   UNL A   1      39.583  20.411  25.612  1.00  0.00     0.338 C 
ATOM     26  O   UNL A   1      39.318  19.248  25.373  1.00  0.00    -0.246 OA
BRANCH  25  27
ATOM     27  C   UNL A   1      40.812  20.837  26.287  1.00  0.00     0.060 A 
ATOM     28  C   UNL A   1      40.790  20.781  27.686  1.00  0.00     0.016 A 
ATOM     29  C   UNL A   1      41.648  21.695  25.576  1.00  0.00     0.016 A 
ATOM     30  C   UNL A   1      41.331  21.841  28.371  1.00  0.00     0.010 A 
ATOM     31  C   UNL A   1      42.123  22.782  26.250  1.00  0.00     0.010 A 
ATOM     32  C   UNL A   1      41.862  22.887  27.618  1.00  0.00    -0.014 A 
BRANCH  32  33
ATOM     33  C   UNL A   1      42.231  24.117  28.277  1.00  0.00     0.031 A 
ATOM     34  C   UNL A   1      41.207  25.159  28.062  1.00  0.00     0.074 A 
ATOM     35  C   UNL A   1      43.272  24.157  29.131  1.00  0.00     0.049 A 
ATOM     36  N   UNL A   1      41.266  26.179  27.269  1.00  0.00    -0.248 NA
ATOM     37  C   UNL A   1      39.844  24.866  28.549  1.00  0.00     0.031 C 
ATOM     38  C   UNL A   1      44.119  23.046  29.577  1.00  0.00     0.029 A 
ATOM     39  N   UNL A   1      43.707  25.192  29.894  1.00  0.00    -0.354 N 
ATOM     40  C   UNL A   1      40.026  26.793  27.413  1.00  0.00     0.074 A 
ATOM     41  C   UNL A   1      39.137  25.769  27.871  1.00  0.00     0.031 C 
ATOM     42  C   UNL A   1      44.793  23.417  30.690  1.00  0.00     0.029 A 
ATOM     43  C   UNL A   1      44.511  24.813  30.970  1.00  0.00     0.049 A 
ATOM     44  H   UNL A   1      43.476  26.131  29.705  1.00  0.00     0.167 HD
ATOM     45  C   UNL A   1      39.931  28.142  27.567  1.00  0.00     0.037 A 
ATOM     46  C   UNL A   1      44.790  25.594  32.048  1.00  0.00     0.037 A 
ATOM     47  C   UNL A   1      41.150  28.783  27.120  1.00  0.00     0.049 A 
ATOM     48  C   UNL A   1      44.481  27.000  31.643  1.00  0.00     0.074 A 
ATOM     49  C   UNL A   1      41.865  28.789  25.938  1.00  0.00     0.029 A 
ATOM     50  N   UNL A   1      42.017  29.233  28.089  1.00  0.00    -0.354 N 
ATOM     51  N   UNL A   1      45.139  27.645  30.717  1.00  0.00    -0.248 NA
ATOM     52  C   UNL A   1      43.130  27.485  31.895  1.00  0.00     0.031 C 
ATOM     53  C   UNL A   1      43.236  28.800  26.331  1.00  0.00     0.029 A 
ATOM     54  C   UNL A   1      43.289  28.882  27.723  1.00  0.00     0.049 A 
ATOM     55  H   UNL A   1      41.766  29.723  28.905  1.00  0.00     0.167 HD
ATOM     56  C   UNL A   1      44.166  28.320  29.988  1.00  0.00     0.074 A 
ATOM     57  C   UNL A   1      42.953  28.228  30.799  1.00  0.00     0.031 C 
ATOM     58  C   UNL A   1      44.354  28.622  28.668  1.00  0.00     0.037 A 
BRANCH  45  59
ATOM     59  C   UNL A   1      38.966  28.821  28.531  1.00  0.00     0.058 A 
ATOM     60  C   UNL A   1      38.145  29.850  28.026  1.00  0.00     0.135 A 
ATOM     61  C   UNL A   1      38.994  28.726  29.945  1.00  0.00     0.135 A 
ATOM     62  F   UNL A   1      37.994  30.017  26.702  1.00  0.00    -0.206 F 
ATOM     63  C   UNL A   1      37.524  30.789  28.850  1.00  0.00     0.059 A 
ATOM     64  C   UNL A   1      38.349  29.625  30.783  1.00  0.00     0.059 A 
ATOM     65  F   UNL A   1      39.696  27.812  30.618  1.00  0.00    -0.206 F 
ATOM     66  C   UNL A   1      37.659  30.683  30.228  1.00  0.00     0.060 A 
BRANCH  66  67
ATOM     67  S   UNL A   1      36.966  31.952  31.295  1.00  0.00     0.124 S 
ATOM     68  O   UNL A   1      38.172  32.518  31.886  1.00  0.00    -0.237 OA
ATOM     69  O   UNL A   1      36.262  32.795  30.335  1.00  0.00    -0.237 OA
ATOM     70  O   UNL A   1      36.110  31.196  32.204  1.00  0.00    -0.744 OA
ENDBRANCH  66  67
ENDBRANCH  45  59
BRANCH  46  71
ATOM     71  C   UNL A   1      44.899  25.179  33.477  1.00  0.00     0.058 A 
ATOM     72  C   UNL A   1      44.119  24.129  33.999  1.00  0.00     0.135 A 
ATOM     73  C   UNL A   1      45.963  25.616  34.294  1.00  0.00     0.135 A 
ATOM     74  F   UNL A   1      43.099  23.631  33.285  1.00  0.00    -0.206 F 
ATOM     75  C   UNL A   1      44.403  23.522  35.232  1.00  0.00     0.059 A 
ATOM     76  C   UNL A   1      46.258  25.036  35.528  1.00  0.00     0.059 A 
ATOM     77  F   UNL A   1      46.813  26.564  33.877  1.00  0.00    -0.206 F 
ATOM     78  C   UNL A   1      45.489  23.972  35.982  1.00  0.00     0.060 A 
BRANCH  78  79
ATOM     79  S   UNL A   1      45.968  23.094  37.491  1.00  0.00     0.124 S 
ATOM     80  O   UNL A   1      47.402  23.354  37.551  1.00  0.00    -0.237 OA
ATOM     81  O   UNL A   1      45.157  23.757  38.507  1.00  0.00    -0.237 OA
ATOM     82  O   UNL A   1      45.597  21.710  37.210  1.00  0.00    -0.744 OA
ENDBRANCH  78  79
ENDBRANCH  46  71
BRANCH  58  83
ATOM     83  C   UNL A   1      45.739  28.483  28.091  1.00  0.00     0.058 A 
ATOM     84  C   UNL A   1      46.262  27.300  27.540  1.00  0.00     0.135 A 
ATOM     85  C   UNL A   1      46.501  29.651  27.939  1.00  0.00     0.135 A 
ATOM     86  F   UNL A   1      45.552  26.163  27.552  1.00  0.00    -0.206 F 
ATOM     87  C   UNL A   1      47.503  27.275  26.895  1.00  0.00     0.059 A 
ATOM     88  C   UNL A   1      47.722  29.656  27.274  1.00  0.00     0.059 A 
ATOM     89  F   UNL A   1      46.027  30.824  28.388  1.00  0.00    -0.206 F 
ATOM     90  C   UNL A   1      48.225  28.461  26.766  1.00  0.00     0.060 A 
BRANCH  90  91
ATOM     91  S   UNL A   1      49.793  28.450  25.869  1.00  0.00     0.124 S 
ATOM     92  O   UNL A   1      49.364  28.162  24.506  1.00  0.00    -0.237 OA
ATOM     93  O   UNL A   1      50.301  29.799  26.103  1.00  0.00    -0.237 OA
ATOM     94  O   UNL A   1      50.552  27.387  26.523  1.00  0.00    -0.744 OA
ENDBRANCH  90  91
ENDBRANCH  58  83
ENDBRANCH  32  33
ENDBRANCH  25  27
ENDBRANCH  24  25
ENDBRANCH  23  24
ENDBRANCH   1  23
TORSDOF 18
ENDMDL
