MODEL 1
REMARK VINA RESULT:     -12.2      0.000      0.000
REMARK SMILES Cc1c(CC(=O)N[C@@H](CCO)C(=O)OCCOC(=O)c2ccc(-c3c4nc(c(-c5c(F)cc(S(=O)(=O)[O-])cc5F)c5ccc([nH]5)c(-c5c(F)cc(S(=O)(=O)[O-])cc5F)c5nc(c(-c6c(F)cc(S(=O)(=O)[O-])cc6F)c6ccc3[nH]6)C=C5)C=C4)cc2)cc(-c2ccc(S(C)(=O)=O)cc2)n1-c1ccc(F)cc1
REMARK SMILES IDX 15 1 14 2 12 3 13 4 8 5 7 6 5 7 6 8 4 10 3 11 1 12 2 13
REMARK SMILES IDX 98 14 86 15 87 16 99 17 100 18 105 19 101 20 104 21 102 22
REMARK SMILES IDX 103 23 88 24 89 25 97 26 90 27 96 28 91 29 92 30 93 31 94 32
REMARK SMILES IDX 95 33 9 34 10 35 11 36 16 38 17 39 18 40 19 41 20 42 21 43
REMARK SMILES IDX 85 44 22 45 84 46 23 47 24 48 25 49 78 50 26 51 83 52 77 53
REMARK SMILES IDX 79 54 27 55 82 56 76 57 75 58 28 60 62 61 41 62 61 63 42 64
REMARK SMILES IDX 45 65 60 66 80 67 43 68 44 69 59 71 81 72 46 73 29 74 30 75
REMARK SMILES IDX 39 76 31 77 32 78 38 79 40 80 33 81 34 82 35 83 36 84 37 85
REMARK SMILES IDX 63 86 64 87 73 88 65 89 66 90 72 91 74 92 67 93 68 94 69 95
REMARK SMILES IDX 70 96 71 97 47 98 48 99 57 100 49 101 50 102 56 103 58 104
REMARK SMILES IDX 51 105 52 106 53 107 54 108 55 109
REMARK H PARENT 7 9 11 37 79 59 45 70
REMARK Flexibility Score: inf
ROOT
ATOM      1  C   UNL A   1      32.567  30.583  26.453  1.00  0.00     0.274 C 
ENDROOT
BRANCH   1   2
ATOM      2  O   UNL A   1      32.334  29.246  25.935  1.00  0.00    -0.461 OA
BRANCH   2   3
ATOM      3  C   UNL A   1      32.237  29.118  24.580  1.00  0.00     0.328 C 
ATOM      4  O   UNL A   1      33.124  29.414  23.788  1.00  0.00    -0.250 OA
BRANCH   3   5
ATOM      5  C   UNL A   1      30.900  28.471  24.151  1.00  0.00     0.194 C 
BRANCH   5   6
ATOM      6  N   UNL A   1      30.333  27.494  25.084  1.00  0.00    -0.342 N 
ATOM      7  C   UNL A   1      30.033  26.178  24.883  1.00  0.00     0.225 C 
ATOM      8  O   UNL A   1      29.457  25.589  25.802  1.00  0.00    -0.275 OA
ATOM      9  H   UNL A   1      30.142  27.837  25.987  1.00  0.00     0.164 HD
BRANCH   7  10
ATOM     10  C   UNL A   1      30.409  25.474  23.585  1.00  0.00     0.137 C 
BRANCH  10  11
ATOM     11  C   UNL A   1      31.477  24.427  23.756  1.00  0.00    -0.017 A 
ATOM     12  C   UNL A   1      33.593  25.897  23.990  1.00  0.00     0.065 C 
ATOM     13  C   UNL A   1      32.830  24.609  24.012  1.00  0.00     0.024 A 
ATOM     14  N   UNL A   1      33.419  23.354  24.162  1.00  0.00    -0.314 N 
ATOM     15  C   UNL A   1      31.271  23.027  23.640  1.00  0.00     0.033 A 
ATOM     16  C   UNL A   1      32.445  22.374  23.961  1.00  0.00     0.053 A 
BRANCH  14  17
ATOM     17  C   UNL A   1      34.785  23.097  24.457  1.00  0.00     0.046 A 
ATOM     18  C   UNL A   1      35.657  22.732  23.421  1.00  0.00     0.029 A 
ATOM     19  C   UNL A   1      35.235  23.144  25.782  1.00  0.00     0.029 A 
ATOM     20  C   UNL A   1      36.986  22.429  23.714  1.00  0.00     0.041 A 
ATOM     21  C   UNL A   1      36.565  22.831  26.067  1.00  0.00     0.041 A 
ATOM     22  C   UNL A   1      37.426  22.480  25.032  1.00  0.00     0.123 A 
ATOM     23  F   UNL A   1      38.701  22.175  25.312  1.00  0.00    -0.207 F 
ENDBRANCH  14  17
BRANCH  16  24
ATOM     24  C   UNL A   1      32.625  20.929  24.162  1.00  0.00    -0.001 A 
ATOM     25  C   UNL A   1      32.484  20.030  23.092  1.00  0.00     0.011 A 
ATOM     26  C   UNL A   1      32.983  20.434  25.423  1.00  0.00     0.011 A 
ATOM     27  C   UNL A   1      32.656  18.657  23.288  1.00  0.00     0.021 A 
ATOM     28  C   UNL A   1      33.156  19.062  25.628  1.00  0.00     0.021 A 
ATOM     29  C   UNL A   1      32.976  18.179  24.560  1.00  0.00     0.067 A 
BRANCH  29  30
ATOM     30  S   UNL A   1      33.189  16.433  24.807  1.00  0.00     0.175 S 
ATOM     31  C   UNL A   1      34.839  16.286  25.439  1.00  0.00     0.163 C 
ATOM     32  O   UNL A   1      32.268  16.034  25.863  1.00  0.00    -0.224 OA
ATOM     33  O   UNL A   1      33.163  15.787  23.515  1.00  0.00    -0.224 OA
ENDBRANCH  29  30
ENDBRANCH  16  24
ENDBRANCH  10  11
ENDBRANCH   7  10
ENDBRANCH   5   6
BRANCH   5  34
ATOM     34  C   UNL A   1      29.824  29.488  23.723  1.00  0.00     0.065 C 
BRANCH  34  35
ATOM     35  C   UNL A   1      30.001  30.094  22.334  1.00  0.00     0.159 C 
BRANCH  35  36
ATOM     36  O   UNL A   1      30.416  29.123  21.390  1.00  0.00    -0.396 OA
ATOM     37  H   UNL A   1      29.921  29.242  20.564  1.00  0.00     0.210 HD
ENDBRANCH  35  36
ENDBRANCH  34  35
ENDBRANCH   5  34
ENDBRANCH   3   5
ENDBRANCH   2   3
ENDBRANCH   1   2
BRANCH   1  38
ATOM     38  C   UNL A   1      33.795  30.603  27.397  1.00  0.00     0.275 C 
BRANCH  38  39
ATOM     39  O   UNL A   1      34.474  31.884  27.612  1.00  0.00    -0.458 OA
BRANCH  39  40
ATOM     40  C   UNL A   1      34.908  32.151  28.881  1.00  0.00     0.338 C 
ATOM     41  O   UNL A   1      34.330  32.919  29.638  1.00  0.00    -0.246 OA
BRANCH  40  42
ATOM     42  C   UNL A   1      36.119  31.325  29.302  1.00  0.00     0.060 A 
ATOM     43  C   UNL A   1      37.188  31.247  28.425  1.00  0.00     0.016 A 
ATOM     44  C   UNL A   1      36.204  30.487  30.436  1.00  0.00     0.016 A 
ATOM     45  C   UNL A   1      38.307  30.406  28.705  1.00  0.00     0.010 A 
ATOM     46  C   UNL A   1      37.319  29.560  30.669  1.00  0.00     0.010 A 
ATOM     47  C   UNL A   1      38.421  29.473  29.802  1.00  0.00    -0.014 A 
BRANCH  47  48
ATOM     48  C   UNL A   1      39.511  28.286  29.641  1.00  0.00     0.031 A 
ATOM     49  C   UNL A   1      40.219  28.291  30.960  1.00  0.00     0.074 A 
ATOM     50  C   UNL A   1      40.049  27.369  28.732  1.00  0.00     0.049 A 
ATOM     51  N   UNL A   1      40.774  29.382  31.415  1.00  0.00    -0.248 NA
ATOM     52  C   UNL A   1      39.978  27.260  31.974  1.00  0.00     0.031 C 
ATOM     53  C   UNL A   1      39.741  27.216  27.301  1.00  0.00     0.029 A 
ATOM     54  N   UNL A   1      41.022  26.321  28.873  1.00  0.00    -0.354 N 
ATOM     55  C   UNL A   1      41.227  29.079  32.673  1.00  0.00     0.074 A 
ATOM     56  C   UNL A   1      40.499  27.872  33.041  1.00  0.00     0.031 C 
ATOM     57  C   UNL A   1      40.355  26.119  26.759  1.00  0.00     0.029 A 
ATOM     58  C   UNL A   1      41.200  25.438  27.739  1.00  0.00     0.049 A 
ATOM     59  H   UNL A   1      41.544  26.208  29.701  1.00  0.00     0.167 HD
ATOM     60  C   UNL A   1      42.525  29.388  32.951  1.00  0.00     0.037 A 
ATOM     61  C   UNL A   1      41.997  24.303  27.564  1.00  0.00     0.037 A 
ATOM     62  C   UNL A   1      43.364  28.221  32.949  1.00  0.00     0.049 A 
ATOM     63  C   UNL A   1      43.079  24.405  28.555  1.00  0.00     0.074 A 
ATOM     64  C   UNL A   1      43.235  26.957  33.491  1.00  0.00     0.029 A 
ATOM     65  N   UNL A   1      44.264  28.114  31.909  1.00  0.00    -0.354 N 
ATOM     66  N   UNL A   1      44.079  25.215  28.404  1.00  0.00    -0.248 NA
ATOM     67  C   UNL A   1      43.139  23.533  29.724  1.00  0.00     0.031 C 
ATOM     68  C   UNL A   1      43.617  26.082  32.449  1.00  0.00     0.029 A 
ATOM     69  C   UNL A   1      44.302  26.804  31.480  1.00  0.00     0.049 A 
ATOM     70  H   UNL A   1      44.796  28.854  31.534  1.00  0.00     0.167 HD
ATOM     71  C   UNL A   1      44.606  25.299  29.653  1.00  0.00     0.074 A 
ATOM     72  C   UNL A   1      44.186  24.090  30.335  1.00  0.00     0.031 C 
ATOM     73  C   UNL A   1      44.803  26.541  30.151  1.00  0.00     0.037 A 
BRANCH  60  74
ATOM     74  C   UNL A   1      42.980  30.742  32.485  1.00  0.00     0.058 A 
ATOM     75  C   UNL A   1      43.055  31.786  33.412  1.00  0.00     0.135 A 
ATOM     76  C   UNL A   1      43.260  31.048  31.137  1.00  0.00     0.135 A 
ATOM     77  F   UNL A   1      42.846  31.546  34.718  1.00  0.00    -0.206 F 
ATOM     78  C   UNL A   1      43.335  33.091  33.015  1.00  0.00     0.059 A 
ATOM     79  C   UNL A   1      43.492  32.352  30.709  1.00  0.00     0.059 A 
ATOM     80  F   UNL A   1      43.324  30.073  30.217  1.00  0.00    -0.206 F 
ATOM     81  C   UNL A   1      43.522  33.368  31.658  1.00  0.00     0.060 A 
BRANCH  81  82
ATOM     82  S   UNL A   1      43.751  35.087  31.155  1.00  0.00     0.124 S 
ATOM     83  O   UNL A   1      44.823  34.979  30.168  1.00  0.00    -0.237 OA
ATOM     84  O   UNL A   1      42.437  35.417  30.616  1.00  0.00    -0.237 OA
ATOM     85  O   UNL A   1      44.128  35.762  32.393  1.00  0.00    -0.744 OA
ENDBRANCH  81  82
ENDBRANCH  60  74
BRANCH  61  86
ATOM     86  C   UNL A   1      42.263  23.056  26.654  1.00  0.00     0.058 A 
ATOM     87  C   UNL A   1      43.294  23.077  25.646  1.00  0.00     0.135 A 
ATOM     88  C   UNL A   1      41.859  21.756  26.989  1.00  0.00     0.135 A 
ATOM     89  F   UNL A   1      43.767  24.234  25.162  1.00  0.00    -0.206 F 
ATOM     90  C   UNL A   1      43.956  21.939  25.145  1.00  0.00     0.059 A 
ATOM     91  C   UNL A   1      42.492  20.587  26.470  1.00  0.00     0.059 A 
ATOM     92  F   UNL A   1      40.897  21.574  27.905  1.00  0.00    -0.206 F 
ATOM     93  C   UNL A   1      43.577  20.689  25.594  1.00  0.00     0.060 A 
BRANCH  93  94
ATOM     94  S   UNL A   1      44.604  19.251  25.139  1.00  0.00     0.124 S 
ATOM     95  O   UNL A   1      44.090  18.200  26.009  1.00  0.00    -0.237 OA
ATOM     96  O   UNL A   1      44.307  19.093  23.716  1.00  0.00    -0.237 OA
ATOM     97  O   UNL A   1      45.962  19.699  25.433  1.00  0.00    -0.744 OA
ENDBRANCH  93  94
ENDBRANCH  61  86
BRANCH  73  98
ATOM     98  C   UNL A   1      45.401  27.580  29.216  1.00  0.00     0.058 A 
ATOM     99  C   UNL A   1      46.759  27.963  29.114  1.00  0.00     0.135 A 
ATOM    100  C   UNL A   1      44.498  28.296  28.413  1.00  0.00     0.135 A 
ATOM    101  F   UNL A   1      47.737  27.285  29.732  1.00  0.00    -0.206 F 
ATOM    102  C   UNL A   1      47.166  29.059  28.346  1.00  0.00     0.059 A 
ATOM    103  C   UNL A   1      44.890  29.354  27.596  1.00  0.00     0.059 A 
ATOM    104  F   UNL A   1      43.195  27.969  28.418  1.00  0.00    -0.206 F 
ATOM    105  C   UNL A   1      46.220  29.760  27.603  1.00  0.00     0.060 A 
BRANCH 105 106
ATOM    106  S   UNL A   1      46.734  31.204  26.649  1.00  0.00     0.124 S 
ATOM    107  O   UNL A   1      46.329  32.301  27.525  1.00  0.00    -0.237 OA
ATOM    108  O   UNL A   1      48.172  31.007  26.513  1.00  0.00    -0.237 OA
ATOM    109  O   UNL A   1      45.962  31.085  25.415  1.00  0.00    -0.744 OA
ENDBRANCH 105 106
ENDBRANCH  73  98
ENDBRANCH  47  48
ENDBRANCH  40  42
ENDBRANCH  39  40
ENDBRANCH  38  39
ENDBRANCH   1  38
TORSDOF 23
ENDMDL
MODEL 2
REMARK VINA RESULT:     -10.7      4.498      9.185
REMARK SMILES Cc1c(CC(=O)N[C@@H](CCO)C(=O)OCCOC(=O)c2ccc(-c3c4nc(c(-c5c(F)cc(S(=O)(=O)[O-])cc5F)c5ccc([nH]5)c(-c5c(F)cc(S(=O)(=O)[O-])cc5F)c5nc(c(-c6c(F)cc(S(=O)(=O)[O-])cc6F)c6ccc3[nH]6)C=C5)C=C4)cc2)cc(-c2ccc(S(C)(=O)=O)cc2)n1-c1ccc(F)cc1
REMARK SMILES IDX 15 1 14 2 12 3 13 4 8 5 7 6 5 7 6 8 4 10 3 11 1 12 2 13
REMARK SMILES IDX 98 14 86 15 87 16 99 17 100 18 105 19 101 20 104 21 102 22
REMARK SMILES IDX 103 23 88 24 89 25 97 26 90 27 96 28 91 29 92 30 93 31 94 32
REMARK SMILES IDX 95 33 9 34 10 35 11 36 16 38 17 39 18 40 19 41 20 42 21 43
REMARK SMILES IDX 85 44 22 45 84 46 23 47 24 48 25 49 78 50 26 51 83 52 77 53
REMARK SMILES IDX 79 54 27 55 82 56 76 57 75 58 28 60 62 61 41 62 61 63 42 64
REMARK SMILES IDX 45 65 60 66 80 67 43 68 44 69 59 71 81 72 46 73 29 74 30 75
REMARK SMILES IDX 39 76 31 77 32 78 38 79 40 80 33 81 34 82 35 83 36 84 37 85
REMARK SMILES IDX 63 86 64 87 73 88 65 89 66 90 72 91 74 92 67 93 68 94 69 95
REMARK SMILES IDX 70 96 71 97 47 98 48 99 57 100 49 101 50 102 56 103 58 104
REMARK SMILES IDX 51 105 52 106 53 107 54 108 55 109
REMARK H PARENT 7 9 11 37 79 59 45 70
REMARK Flexibility Score: inf
ROOT
ATOM      1  C   UNL A   1      33.315  29.623  25.029  1.00  0.00     0.274 C 
ENDROOT
BRANCH   1   2
ATOM      2  O   UNL A   1      32.090  28.910  24.713  1.00  0.00    -0.461 OA
BRANCH   2   3
ATOM      3  C   UNL A   1      31.678  28.935  23.412  1.00  0.00     0.328 C 
ATOM      4  O   UNL A   1      32.324  29.417  22.489  1.00  0.00    -0.250 OA
BRANCH   3   5
ATOM      5  C   UNL A   1      30.331  28.206  23.214  1.00  0.00     0.194 C 
BRANCH   5   6
ATOM      6  N   UNL A   1      29.902  27.340  24.316  1.00  0.00    -0.342 N 
ATOM      7  C   UNL A   1      29.704  25.990  24.330  1.00  0.00     0.225 C 
ATOM      8  O   UNL A   1      29.234  25.504  25.362  1.00  0.00    -0.275 OA
ATOM      9  H   UNL A   1      29.735  27.799  25.171  1.00  0.00     0.164 HD
BRANCH   7  10
ATOM     10  C   UNL A   1      30.064  25.129  23.125  1.00  0.00     0.137 C 
BRANCH  10  11
ATOM     11  C   UNL A   1      31.216  24.193  23.376  1.00  0.00    -0.017 A 
ATOM     12  C   UNL A   1      33.120  25.866  23.897  1.00  0.00     0.065 C 
ATOM     13  C   UNL A   1      32.506  24.505  23.788  1.00  0.00     0.024 A 
ATOM     14  N   UNL A   1      33.209  23.313  23.958  1.00  0.00    -0.314 N 
ATOM     15  C   UNL A   1      31.179  22.786  23.188  1.00  0.00     0.033 A 
ATOM     16  C   UNL A   1      32.376  22.247  23.615  1.00  0.00     0.053 A 
BRANCH  14  17
ATOM     17  C   UNL A   1      34.556  23.188  24.394  1.00  0.00     0.046 A 
ATOM     18  C   UNL A   1      34.866  23.394  25.745  1.00  0.00     0.029 A 
ATOM     19  C   UNL A   1      35.570  22.926  23.464  1.00  0.00     0.029 A 
ATOM     20  C   UNL A   1      36.192  23.322  26.167  1.00  0.00     0.041 A 
ATOM     21  C   UNL A   1      36.897  22.863  23.894  1.00  0.00     0.041 A 
ATOM     22  C   UNL A   1      37.193  23.059  25.239  1.00  0.00     0.123 A 
ATOM     23  F   UNL A   1      38.469  23.004  25.645  1.00  0.00    -0.207 F 
ENDBRANCH  14  17
BRANCH  16  24
ATOM     24  C   UNL A   1      32.692  20.821  23.783  1.00  0.00    -0.001 A 
ATOM     25  C   UNL A   1      32.255  19.871  22.845  1.00  0.00     0.011 A 
ATOM     26  C   UNL A   1      33.473  20.397  24.866  1.00  0.00     0.011 A 
ATOM     27  C   UNL A   1      32.557  18.516  23.009  1.00  0.00     0.021 A 
ATOM     28  C   UNL A   1      33.779  19.043  25.039  1.00  0.00     0.021 A 
ATOM     29  C   UNL A   1      33.305  18.108  24.115  1.00  0.00     0.067 A 
BRANCH  29  30
ATOM     30  S   UNL A   1      33.684  16.385  24.323  1.00  0.00     0.175 S 
ATOM     31  C   UNL A   1      35.165  16.385  25.299  1.00  0.00     0.163 C 
ATOM     32  O   UNL A   1      32.618  15.807  25.130  1.00  0.00    -0.224 OA
ATOM     33  O   UNL A   1      34.019  15.836  23.029  1.00  0.00    -0.224 OA
ENDBRANCH  29  30
ENDBRANCH  16  24
ENDBRANCH  10  11
ENDBRANCH   7  10
ENDBRANCH   5   6
BRANCH   5  34
ATOM     34  C   UNL A   1      29.177  29.133  22.784  1.00  0.00     0.065 C 
BRANCH  34  35
ATOM     35  C   UNL A   1      27.773  28.646  23.130  1.00  0.00     0.159 C 
BRANCH  35  36
ATOM     36  O   UNL A   1      26.902  29.726  23.416  1.00  0.00    -0.396 OA
ATOM     37  H   UNL A   1      27.307  30.556  23.120  1.00  0.00     0.210 HD
ENDBRANCH  35  36
ENDBRANCH  34  35
ENDBRANCH   5  34
ENDBRANCH   3   5
ENDBRANCH   2   3
ENDBRANCH   1   2
BRANCH   1  38
ATOM     38  C   UNL A   1      34.040  28.970  26.232  1.00  0.00     0.275 C 
BRANCH  38  39
ATOM     39  O   UNL A   1      33.907  29.609  27.544  1.00  0.00    -0.458 OA
BRANCH  39  40
ATOM     40  C   UNL A   1      33.941  30.975  27.575  1.00  0.00     0.338 C 
ATOM     41  O   UNL A   1      33.058  31.678  27.103  1.00  0.00    -0.246 OA
BRANCH  40  42
ATOM     42  C   UNL A   1      35.131  31.541  28.343  1.00  0.00     0.060 A 
ATOM     43  C   UNL A   1      35.816  30.693  29.198  1.00  0.00     0.016 A 
ATOM     44  C   UNL A   1      35.517  32.899  28.401  1.00  0.00     0.016 A 
ATOM     45  C   UNL A   1      36.868  31.181  30.029  1.00  0.00     0.010 A 
ATOM     46  C   UNL A   1      36.542  33.405  29.324  1.00  0.00     0.010 A 
ATOM     47  C   UNL A   1      37.259  32.563  30.189  1.00  0.00    -0.014 A 
BRANCH  47  48
ATOM     48  C   UNL A   1      38.097  32.934  31.525  1.00  0.00     0.031 A 
ATOM     49  C   UNL A   1      39.474  33.198  31.001  1.00  0.00     0.074 A 
ATOM     50  C   UNL A   1      38.014  33.010  32.919  1.00  0.00     0.049 A 
ATOM     51  N   UNL A   1      40.100  32.302  30.287  1.00  0.00    -0.248 NA
ATOM     52  C   UNL A   1      40.011  34.557  30.884  1.00  0.00     0.031 C 
ATOM     53  C   UNL A   1      36.887  32.634  33.788  1.00  0.00     0.029 A 
ATOM     54  N   UNL A   1      38.941  33.458  33.922  1.00  0.00    -0.354 N 
ATOM     55  C   UNL A   1      41.267  32.893  29.878  1.00  0.00     0.074 A 
ATOM     56  C   UNL A   1      41.037  34.319  30.060  1.00  0.00     0.031 C 
ATOM     57  C   UNL A   1      37.110  32.978  35.094  1.00  0.00     0.029 A 
ATOM     58  C   UNL A   1      38.436  33.567  35.276  1.00  0.00     0.049 A 
ATOM     59  H   UNL A   1      39.875  33.680  33.701  1.00  0.00     0.167 HD
ATOM     60  C   UNL A   1      42.419  32.199  30.099  1.00  0.00     0.037 A 
ATOM     61  C   UNL A   1      39.035  34.022  36.454  1.00  0.00     0.037 A 
ATOM     62  C   UNL A   1      43.162  32.736  31.207  1.00  0.00     0.049 A 
ATOM     63  C   UNL A   1      40.486  33.900  36.250  1.00  0.00     0.074 A 
ATOM     64  C   UNL A   1      43.507  34.019  31.585  1.00  0.00     0.029 A 
ATOM     65  N   UNL A   1      43.210  31.961  32.347  1.00  0.00    -0.354 N 
ATOM     66  N   UNL A   1      41.096  32.757  36.300  1.00  0.00    -0.248 NA
ATOM     67  C   UNL A   1      41.341  35.069  36.071  1.00  0.00     0.031 C 
ATOM     68  C   UNL A   1      43.217  34.071  32.968  1.00  0.00     0.029 A 
ATOM     69  C   UNL A   1      43.076  32.777  33.451  1.00  0.00     0.049 A 
ATOM     70  H   UNL A   1      43.323  30.983  32.369  1.00  0.00     0.167 HD
ATOM     71  C   UNL A   1      42.284  33.010  35.690  1.00  0.00     0.074 A 
ATOM     72  C   UNL A   1      42.488  34.440  35.812  1.00  0.00     0.031 C 
ATOM     73  C   UNL A   1      42.647  32.173  34.691  1.00  0.00     0.037 A 
BRANCH  60  74
ATOM     74  C   UNL A   1      42.365  30.735  29.765  1.00  0.00     0.058 A 
ATOM     75  C   UNL A   1      43.117  30.260  28.685  1.00  0.00     0.135 A 
ATOM     76  C   UNL A   1      41.528  29.814  30.429  1.00  0.00     0.135 A 
ATOM     77  F   UNL A   1      43.968  31.079  28.044  1.00  0.00    -0.206 F 
ATOM     78  C   UNL A   1      43.001  28.945  28.242  1.00  0.00     0.059 A 
ATOM     79  C   UNL A   1      41.357  28.511  29.973  1.00  0.00     0.059 A 
ATOM     80  F   UNL A   1      40.872  30.173  31.544  1.00  0.00    -0.206 F 
ATOM     81  C   UNL A   1      42.096  28.088  28.874  1.00  0.00     0.060 A 
BRANCH  81  82
ATOM     82  S   UNL A   1      41.867  26.429  28.196  1.00  0.00     0.124 S 
ATOM     83  O   UNL A   1      43.060  25.733  28.675  1.00  0.00    -0.237 OA
ATOM     84  O   UNL A   1      40.614  26.023  28.822  1.00  0.00    -0.237 OA
ATOM     85  O   UNL A   1      41.826  26.648  26.754  1.00  0.00    -0.744 OA
ENDBRANCH  81  82
ENDBRANCH  60  74
BRANCH  61  86
ATOM     86  C   UNL A   1      38.769  34.474  37.930  1.00  0.00     0.058 A 
ATOM     87  C   UNL A   1      38.465  33.513  38.960  1.00  0.00     0.135 A 
ATOM     88  C   UNL A   1      39.194  35.707  38.447  1.00  0.00     0.135 A 
ATOM     89  F   UNL A   1      37.993  32.295  38.655  1.00  0.00    -0.206 F 
ATOM     90  C   UNL A   1      38.705  33.700  40.335  1.00  0.00     0.059 A 
ATOM     91  C   UNL A   1      39.413  35.931  39.839  1.00  0.00     0.059 A 
ATOM     92  F   UNL A   1      39.502  36.709  37.611  1.00  0.00    -0.206 F 
ATOM     93  C   UNL A   1      39.222  34.905  40.770  1.00  0.00     0.060 A 
BRANCH  93  94
ATOM     94  S   UNL A   1      39.767  35.046  42.505  1.00  0.00     0.124 S 
ATOM     95  O   UNL A   1      38.657  35.752  43.135  1.00  0.00    -0.237 OA
ATOM     96  O   UNL A   1      39.926  33.646  42.896  1.00  0.00    -0.237 OA
ATOM     97  O   UNL A   1      41.014  35.799  42.407  1.00  0.00    -0.744 OA
ENDBRANCH  93  94
ENDBRANCH  61  86
BRANCH  73  98
ATOM     98  C   UNL A   1      42.434  30.685  34.916  1.00  0.00     0.058 A 
ATOM     99  C   UNL A   1      41.219  29.967  34.819  1.00  0.00     0.135 A 
ATOM    100  C   UNL A   1      43.552  29.947  35.338  1.00  0.00     0.135 A 
ATOM    101  F   UNL A   1      40.105  30.519  34.315  1.00  0.00    -0.206 F 
ATOM    102  C   UNL A   1      41.110  28.633  35.225  1.00  0.00     0.059 A 
ATOM    103  C   UNL A   1      43.479  28.602  35.691  1.00  0.00     0.059 A 
ATOM    104  F   UNL A   1      44.754  30.542  35.417  1.00  0.00    -0.206 F 
ATOM    105  C   UNL A   1      42.244  27.964  35.677  1.00  0.00     0.060 A 
BRANCH 105 106
ATOM    106  S   UNL A   1      42.097  26.256  36.247  1.00  0.00     0.124 S 
ATOM    107  O   UNL A   1      43.181  25.603  35.517  1.00  0.00    -0.237 OA
ATOM    108  O   UNL A   1      42.293  26.378  37.687  1.00  0.00    -0.237 OA
ATOM    109  O   UNL A   1      40.752  25.874  35.824  1.00  0.00    -0.744 OA
ENDBRANCH 105 106
ENDBRANCH  73  98
ENDBRANCH  47  48
ENDBRANCH  40  42
ENDBRANCH  39  40
ENDBRANCH  38  39
ENDBRANCH   1  38
TORSDOF 23
ENDMDL
MODEL 3
REMARK VINA RESULT:     -10.0      9.414     15.849
REMARK SMILES Cc1c(CC(=O)N[C@@H](CCO)C(=O)OCCOC(=O)c2ccc(-c3c4nc(c(-c5c(F)cc(S(=O)(=O)[O-])cc5F)c5ccc([nH]5)c(-c5c(F)cc(S(=O)(=O)[O-])cc5F)c5nc(c(-c6c(F)cc(S(=O)(=O)[O-])cc6F)c6ccc3[nH]6)C=C5)C=C4)cc2)cc(-c2ccc(S(C)(=O)=O)cc2)n1-c1ccc(F)cc1
REMARK SMILES IDX 15 1 14 2 12 3 13 4 8 5 7 6 5 7 6 8 4 10 3 11 1 12 2 13
REMARK SMILES IDX 98 14 86 15 87 16 99 17 100 18 105 19 101 20 104 21 102 22
REMARK SMILES IDX 103 23 88 24 89 25 97 26 90 27 96 28 91 29 92 30 93 31 94 32
REMARK SMILES IDX 95 33 9 34 10 35 11 36 16 38 17 39 18 40 19 41 20 42 21 43
REMARK SMILES IDX 85 44 22 45 84 46 23 47 24 48 25 49 78 50 26 51 83 52 77 53
REMARK SMILES IDX 79 54 27 55 82 56 76 57 75 58 28 60 62 61 41 62 61 63 42 64
REMARK SMILES IDX 45 65 60 66 80 67 43 68 44 69 59 71 81 72 46 73 29 74 30 75
REMARK SMILES IDX 39 76 31 77 32 78 38 79 40 80 33 81 34 82 35 83 36 84 37 85
REMARK SMILES IDX 63 86 64 87 73 88 65 89 66 90 72 91 74 92 67 93 68 94 69 95
REMARK SMILES IDX 70 96 71 97 47 98 48 99 57 100 49 101 50 102 56 103 58 104
REMARK SMILES IDX 51 105 52 106 53 107 54 108 55 109
REMARK H PARENT 7 9 11 37 79 59 45 70
REMARK Flexibility Score: inf
ROOT
ATOM      1  C   UNL A   1      45.730  38.347  28.078  1.00  0.00     0.274 C 
ENDROOT
BRANCH   1   2
ATOM      2  O   UNL A   1      45.068  38.645  26.820  1.00  0.00    -0.461 OA
BRANCH   2   3
ATOM      3  C   UNL A   1      44.489  39.875  26.704  1.00  0.00     0.328 C 
ATOM      4  O   UNL A   1      43.509  40.245  27.340  1.00  0.00    -0.250 OA
BRANCH   3   5
ATOM      5  C   UNL A   1      45.263  40.794  25.732  1.00  0.00     0.194 C 
BRANCH   5   6
ATOM      6  N   UNL A   1      45.150  42.233  25.984  1.00  0.00    -0.342 N 
ATOM      7  C   UNL A   1      44.431  43.177  25.309  1.00  0.00     0.225 C 
ATOM      8  O   UNL A   1      44.587  44.351  25.653  1.00  0.00    -0.275 OA
ATOM      9  H   UNL A   1      45.667  42.567  26.753  1.00  0.00     0.164 HD
BRANCH   7  10
ATOM     10  C   UNL A   1      43.471  42.785  24.192  1.00  0.00     0.137 C 
BRANCH  10  11
ATOM     11  C   UNL A   1      43.909  43.252  22.830  1.00  0.00    -0.017 A 
ATOM     12  C   UNL A   1      41.715  43.002  21.481  1.00  0.00     0.065 C 
ATOM     13  C   UNL A   1      43.136  43.424  21.688  1.00  0.00     0.024 A 
ATOM     14  N   UNL A   1      43.953  43.941  20.683  1.00  0.00    -0.314 N 
ATOM     15  C   UNL A   1      45.245  43.570  22.468  1.00  0.00     0.033 A 
ATOM     16  C   UNL A   1      45.253  44.060  21.177  1.00  0.00     0.053 A 
BRANCH  14  17
ATOM     17  C   UNL A   1      43.547  44.284  19.364  1.00  0.00     0.046 A 
ATOM     18  C   UNL A   1      43.035  45.564  19.111  1.00  0.00     0.029 A 
ATOM     19  C   UNL A   1      43.600  43.324  18.346  1.00  0.00     0.029 A 
ATOM     20  C   UNL A   1      42.589  45.886  17.830  1.00  0.00     0.041 A 
ATOM     21  C   UNL A   1      43.144  43.653  17.068  1.00  0.00     0.041 A 
ATOM     22  C   UNL A   1      42.646  44.929  16.823  1.00  0.00     0.123 A 
ATOM     23  F   UNL A   1      42.204  45.238  15.596  1.00  0.00    -0.207 F 
ENDBRANCH  14  17
BRANCH  16  24
ATOM     24  C   UNL A   1      46.384  44.688  20.479  1.00  0.00    -0.001 A 
ATOM     25  C   UNL A   1      47.233  43.932  19.655  1.00  0.00     0.011 A 
ATOM     26  C   UNL A   1      46.603  46.068  20.595  1.00  0.00     0.011 A 
ATOM     27  C   UNL A   1      48.307  44.533  18.993  1.00  0.00     0.021 A 
ATOM     28  C   UNL A   1      47.676  46.678  19.938  1.00  0.00     0.021 A 
ATOM     29  C   UNL A   1      48.532  45.902  19.152  1.00  0.00     0.067 A 
BRANCH  29  30
ATOM     30  S   UNL A   1      49.900  46.663  18.313  1.00  0.00     0.175 S 
ATOM     31  C   UNL A   1      49.141  47.598  17.011  1.00  0.00     0.163 C 
ATOM     32  O   UNL A   1      50.504  47.606  19.246  1.00  0.00    -0.224 OA
ATOM     33  O   UNL A   1      50.688  45.622  17.695  1.00  0.00    -0.224 OA
ENDBRANCH  29  30
ENDBRANCH  16  24
ENDBRANCH  10  11
ENDBRANCH   7  10
ENDBRANCH   5   6
BRANCH   5  34
ATOM     34  C   UNL A   1      46.741  40.399  25.544  1.00  0.00     0.065 C 
BRANCH  34  35
ATOM     35  C   UNL A   1      47.030  39.453  24.382  1.00  0.00     0.159 C 
BRANCH  35  36
ATOM     36  O   UNL A   1      47.204  38.119  24.825  1.00  0.00    -0.396 OA
ATOM     37  H   UNL A   1      47.897  37.691  24.299  1.00  0.00     0.210 HD
ENDBRANCH  35  36
ENDBRANCH  34  35
ENDBRANCH   5  34
ENDBRANCH   3   5
ENDBRANCH   2   3
ENDBRANCH   1   2
BRANCH   1  38
ATOM     38  C   UNL A   1      44.739  37.717  29.088  1.00  0.00     0.275 C 
BRANCH  38  39
ATOM     39  O   UNL A   1      43.727  36.792  28.570  1.00  0.00    -0.458 OA
BRANCH  39  40
ATOM     40  C   UNL A   1      43.353  35.760  29.386  1.00  0.00     0.338 C 
ATOM     41  O   UNL A   1      42.919  35.926  30.518  1.00  0.00    -0.246 OA
BRANCH  40  42
ATOM     42  C   UNL A   1      43.429  34.391  28.718  1.00  0.00     0.060 A 
ATOM     43  C   UNL A   1      43.390  33.269  29.530  1.00  0.00     0.016 A 
ATOM     44  C   UNL A   1      43.701  34.142  27.354  1.00  0.00     0.016 A 
ATOM     45  C   UNL A   1      43.566  31.962  28.985  1.00  0.00     0.010 A 
ATOM     46  C   UNL A   1      43.967  32.800  26.819  1.00  0.00     0.010 A 
ATOM     47  C   UNL A   1      43.920  31.647  27.620  1.00  0.00    -0.014 A 
BRANCH  47  48
ATOM     48  C   UNL A   1      44.557  30.182  27.351  1.00  0.00     0.031 A 
ATOM     49  C   UNL A   1      43.383  29.380  26.882  1.00  0.00     0.074 A 
ATOM     50  C   UNL A   1      45.727  29.425  27.473  1.00  0.00     0.049 A 
ATOM     51  N   UNL A   1      42.299  29.296  27.606  1.00  0.00    -0.248 NA
ATOM     52  C   UNL A   1      43.206  29.017  25.472  1.00  0.00     0.031 C 
ATOM     53  C   UNL A   1      47.011  29.820  28.075  1.00  0.00     0.029 A 
ATOM     54  N   UNL A   1      46.061  28.085  27.075  1.00  0.00    -0.354 N 
ATOM     55  C   UNL A   1      41.394  28.597  26.850  1.00  0.00     0.074 A 
ATOM     56  C   UNL A   1      41.914  28.676  25.492  1.00  0.00     0.031 C 
ATOM     57  C   UNL A   1      47.977  28.870  27.891  1.00  0.00     0.029 A 
ATOM     58  C   UNL A   1      47.449  27.693  27.201  1.00  0.00     0.049 A 
ATOM     59  H   UNL A   1      45.378  27.462  26.733  1.00  0.00     0.167 HD
ATOM     60  C   UNL A   1      40.783  27.536  27.449  1.00  0.00     0.037 A 
ATOM     61  C   UNL A   1      48.115  26.514  26.853  1.00  0.00     0.037 A 
ATOM     62  C   UNL A   1      41.322  26.283  26.995  1.00  0.00     0.049 A 
ATOM     63  C   UNL A   1      47.087  25.464  26.800  1.00  0.00     0.074 A 
ATOM     64  C   UNL A   1      41.638  25.782  25.747  1.00  0.00     0.029 A 
ATOM     65  N   UNL A   1      42.070  25.569  27.908  1.00  0.00    -0.354 N 
ATOM     66  N   UNL A   1      46.579  24.941  27.872  1.00  0.00    -0.248 NA
ATOM     67  C   UNL A   1      46.645  24.880  25.537  1.00  0.00     0.031 C 
ATOM     68  C   UNL A   1      42.915  25.198  25.912  1.00  0.00     0.029 A 
ATOM     69  C   UNL A   1      43.163  25.026  27.267  1.00  0.00     0.049 A 
ATOM     70  H   UNL A   1      41.857  25.465  28.864  1.00  0.00     0.167 HD
ATOM     71  C   UNL A   1      45.445  24.343  27.421  1.00  0.00     0.074 A 
ATOM     72  C   UNL A   1      45.665  24.107  26.007  1.00  0.00     0.031 C 
ATOM     73  C   UNL A   1      44.298  24.639  28.074  1.00  0.00     0.037 A 
BRANCH  60  74
ATOM     74  C   UNL A   1      40.301  27.776  28.851  1.00  0.00     0.058 A 
ATOM     75  C   UNL A   1      38.941  28.022  29.067  1.00  0.00     0.135 A 
ATOM     76  C   UNL A   1      41.160  27.851  29.969  1.00  0.00     0.135 A 
ATOM     77  F   UNL A   1      38.068  27.918  28.051  1.00  0.00    -0.206 F 
ATOM     78  C   UNL A   1      38.459  28.387  30.321  1.00  0.00     0.059 A 
ATOM     79  C   UNL A   1      40.709  28.263  31.219  1.00  0.00     0.059 A 
ATOM     80  F   UNL A   1      42.453  27.510  29.856  1.00  0.00    -0.206 F 
ATOM     81  C   UNL A   1      39.355  28.535  31.383  1.00  0.00     0.060 A 
BRANCH  81  82
ATOM     82  S   UNL A   1      38.725  29.138  32.963  1.00  0.00     0.124 S 
ATOM     83  O   UNL A   1      39.837  28.853  33.868  1.00  0.00    -0.237 OA
ATOM     84  O   UNL A   1      38.500  30.549  32.675  1.00  0.00    -0.237 OA
ATOM     85  O   UNL A   1      37.532  28.329  33.191  1.00  0.00    -0.744 OA
ENDBRANCH  81  82
ENDBRANCH  60  74
BRANCH  61  86
ATOM     86  C   UNL A   1      49.520  25.857  26.634  1.00  0.00     0.058 A 
ATOM     87  C   UNL A   1      50.193  25.947  25.362  1.00  0.00     0.135 A 
ATOM     88  C   UNL A   1      50.387  25.522  27.684  1.00  0.00     0.135 A 
ATOM     89  F   UNL A   1      49.516  26.207  24.235  1.00  0.00    -0.206 F 
ATOM     90  C   UNL A   1      51.588  25.869  25.181  1.00  0.00     0.059 A 
ATOM     91  C   UNL A   1      51.799  25.405  27.519  1.00  0.00     0.059 A 
ATOM     92  F   UNL A   1      49.904  25.388  28.928  1.00  0.00    -0.206 F 
ATOM     93  C   UNL A   1      52.397  25.636  26.276  1.00  0.00     0.060 A 
BRANCH  93  94
ATOM     94  S   UNL A   1      54.203  25.792  26.075  1.00  0.00     0.124 S 
ATOM     95  O   UNL A   1      54.382  27.226  25.874  1.00  0.00    -0.237 OA
ATOM     96  O   UNL A   1      54.705  25.266  27.343  1.00  0.00    -0.237 OA
ATOM     97  O   UNL A   1      54.487  24.957  24.912  1.00  0.00    -0.744 OA
ENDBRANCH  93  94
ENDBRANCH  61  86
BRANCH  73  98
ATOM     98  C   UNL A   1      44.349  24.677  29.593  1.00  0.00     0.058 A 
ATOM     99  C   UNL A   1      44.844  25.721  30.410  1.00  0.00     0.135 A 
ATOM    100  C   UNL A   1      43.928  23.518  30.264  1.00  0.00     0.135 A 
ATOM    101  F   UNL A   1      45.166  26.923  29.909  1.00  0.00    -0.206 F 
ATOM    102  C   UNL A   1      45.007  25.570  31.790  1.00  0.00     0.059 A 
ATOM    103  C   UNL A   1      44.027  23.368  31.645  1.00  0.00     0.059 A 
ATOM    104  F   UNL A   1      43.406  22.495  29.567  1.00  0.00    -0.206 F 
ATOM    105  C   UNL A   1      44.612  24.381  32.397  1.00  0.00     0.060 A 
BRANCH 105 106
ATOM    106  S   UNL A   1      44.867  24.164  34.172  1.00  0.00     0.124 S 
ATOM    107  O   UNL A   1      44.277  22.847  34.400  1.00  0.00    -0.237 OA
ATOM    108  O   UNL A   1      46.318  24.233  34.301  1.00  0.00    -0.237 OA
ATOM    109  O   UNL A   1      44.129  25.280  34.758  1.00  0.00    -0.744 OA
ENDBRANCH 105 106
ENDBRANCH  73  98
ENDBRANCH  47  48
ENDBRANCH  40  42
ENDBRANCH  39  40
ENDBRANCH  38  39
ENDBRANCH   1  38
TORSDOF 23
ENDMDL
