MODEL 1
REMARK VINA RESULT:      -9.2      0.000      0.000
REMARK SMILES Cc1cccc(C[NH+]2CCC(OCC(=O)OCCOC(=O)c3ccc(-c4c5nc(c(-c6c(F)cc(S(=O)(=O)[O-])cc6F)c6ccc([nH]6)c(-c6c(F)cc(S(=O)(=O)[O-])cc6F)c6nc(c(-c7c(F)cc(S(=O)(=O)[O-])cc7F)c7ccc4[nH]7)C=C6)C=C5)cc3)CC2)n1
REMARK SMILES IDX 17 1 16 2 14 3 15 4 13 5 12 6 11 7 8 8 9 9 89 10 10 12 88 13
REMARK SMILES IDX 7 14 6 15 1 16 2 17 3 18 90 19 4 20 5 21 18 22 19 23 20 24
REMARK SMILES IDX 21 25 22 26 23 27 87 28 24 29 86 30 25 31 26 32 27 33 80 34
REMARK SMILES IDX 28 35 85 36 79 37 81 38 29 39 84 40 78 41 77 42 30 44 64 45
REMARK SMILES IDX 43 46 63 47 44 48 47 49 62 50 82 51 45 52 46 53 61 55 83 56
REMARK SMILES IDX 48 57 31 58 32 59 41 60 33 61 34 62 40 63 42 64 35 65 36 66
REMARK SMILES IDX 37 67 38 68 39 69 65 70 66 71 75 72 67 73 68 74 74 75 76 76
REMARK SMILES IDX 69 77 70 78 71 79 72 80 73 81 49 82 50 83 59 84 51 85 52 86
REMARK SMILES IDX 58 87 60 88 53 89 54 90 55 91 56 92 57 93
REMARK H PARENT 8 11 81 43 47 54
REMARK Flexibility Score: inf
ROOT
ATOM      1  C   UNL A   1      34.419  33.408  29.327  1.00  0.00     0.274 C 
ENDROOT
BRANCH   1   2
ATOM      2  O   UNL A   1      34.768  32.646  30.514  1.00  0.00    -0.460 OA
BRANCH   2   3
ATOM      3  C   UNL A   1      34.535  33.256  31.710  1.00  0.00     0.332 C 
ATOM      4  O   UNL A   1      33.826  32.774  32.594  1.00  0.00    -0.250 OA
BRANCH   3   5
ATOM      5  C   UNL A   1      35.271  34.614  31.906  1.00  0.00     0.283 C 
BRANCH   5   6
ATOM      6  O   UNL A   1      35.702  35.235  33.103  1.00  0.00    -0.366 OA
BRANCH   6   7
ATOM      7  C   UNL A   1      36.840  34.723  33.822  1.00  0.00     0.130 C 
ATOM      8  N   UNL A   1      38.601  32.481  34.372  1.00  0.00    -0.330 N 
ATOM      9  C   UNL A   1      37.854  33.048  35.492  1.00  0.00     0.265 C 
ATOM     10  C   UNL A   1      39.077  33.549  33.488  1.00  0.00     0.265 C 
ATOM     11  H   UNL A   1      37.949  31.899  33.846  1.00  0.00     0.348 HD
ATOM     12  C   UNL A   1      36.579  33.738  34.978  1.00  0.00     0.093 C 
ATOM     13  C   UNL A   1      37.930  34.309  32.841  1.00  0.00     0.093 C 
BRANCH   8  14
ATOM     14  C   UNL A   1      39.667  31.536  34.765  1.00  0.00     0.319 C 
BRANCH  14  15
ATOM     15  C   UNL A   1      39.813  30.270  33.942  1.00  0.00     0.095 A 
ATOM     16  C   UNL A   1      42.616  28.012  33.225  1.00  0.00     0.067 C 
ATOM     17  C   UNL A   1      41.235  28.587  33.178  1.00  0.00     0.038 A 
ATOM     18  C   UNL A   1      40.178  27.914  32.584  1.00  0.00     0.023 A 
ATOM     19  N   UNL A   1      41.068  29.762  33.819  1.00  0.00    -0.252 NA
ATOM     20  C   UNL A   1      38.904  28.470  32.659  1.00  0.00     0.004 A 
ATOM     21  C   UNL A   1      38.711  29.659  33.356  1.00  0.00     0.030 A 
ENDBRANCH  14  15
ENDBRANCH   8  14
ENDBRANCH   6   7
ENDBRANCH   5   6
ENDBRANCH   3   5
ENDBRANCH   2   3
ENDBRANCH   1   2
BRANCH   1  22
ATOM     22  C   UNL A   1      34.492  32.553  28.035  1.00  0.00     0.275 C 
BRANCH  22  23
ATOM     23  O   UNL A   1      33.735  31.311  28.041  1.00  0.00    -0.458 OA
BRANCH  23  24
ATOM     24  C   UNL A   1      34.442  30.249  27.611  1.00  0.00     0.338 C 
ATOM     25  O   UNL A   1      34.050  29.436  26.796  1.00  0.00    -0.246 OA
BRANCH  24  26
ATOM     26  C   UNL A   1      35.796  30.063  28.127  1.00  0.00     0.060 A 
ATOM     27  C   UNL A   1      36.808  30.162  27.158  1.00  0.00     0.016 A 
ATOM     28  C   UNL A   1      36.076  29.587  29.406  1.00  0.00     0.016 A 
ATOM     29  C   UNL A   1      38.091  29.740  27.443  1.00  0.00     0.010 A 
ATOM     30  C   UNL A   1      37.389  29.208  29.709  1.00  0.00     0.010 A 
ATOM     31  C   UNL A   1      38.394  29.279  28.727  1.00  0.00    -0.014 A 
BRANCH  31  32
ATOM     32  C   UNL A   1      39.813  29.028  29.043  1.00  0.00     0.031 A 
ATOM     33  C   UNL A   1      40.656  30.043  29.745  1.00  0.00     0.074 A 
ATOM     34  C   UNL A   1      40.292  27.807  28.743  1.00  0.00     0.049 A 
ATOM     35  N   UNL A   1      41.918  29.969  30.076  1.00  0.00    -0.248 NA
ATOM     36  C   UNL A   1      40.002  31.302  30.134  1.00  0.00     0.031 C 
ATOM     37  C   UNL A   1      39.512  26.736  28.112  1.00  0.00     0.029 A 
ATOM     38  N   UNL A   1      41.525  27.252  28.938  1.00  0.00    -0.354 N 
ATOM     39  C   UNL A   1      42.222  31.173  30.697  1.00  0.00     0.074 A 
ATOM     40  C   UNL A   1      41.008  31.964  30.697  1.00  0.00     0.031 C 
ATOM     41  C   UNL A   1      40.285  25.650  27.982  1.00  0.00     0.029 A 
ATOM     42  C   UNL A   1      41.622  25.967  28.467  1.00  0.00     0.049 A 
ATOM     43  H   UNL A   1      42.271  27.728  29.372  1.00  0.00     0.167 HD
ATOM     44  C   UNL A   1      43.411  31.569  31.209  1.00  0.00     0.037 A 
ATOM     45  C   UNL A   1      42.682  25.144  28.402  1.00  0.00     0.037 A 
ATOM     46  C   UNL A   1      44.601  30.755  31.200  1.00  0.00     0.049 A 
ATOM     47  C   UNL A   1      43.995  25.625  28.934  1.00  0.00     0.074 A 
ATOM     48  C   UNL A   1      45.859  31.058  31.692  1.00  0.00     0.029 A 
ATOM     49  N   UNL A   1      44.681  29.473  30.669  1.00  0.00    -0.354 N 
ATOM     50  N   UNL A   1      44.277  26.780  29.490  1.00  0.00    -0.248 NA
ATOM     51  C   UNL A   1      45.131  24.706  28.824  1.00  0.00     0.031 C 
ATOM     52  C   UNL A   1      46.706  29.972  31.431  1.00  0.00     0.029 A 
ATOM     53  C   UNL A   1      45.968  28.980  30.805  1.00  0.00     0.049 A 
ATOM     54  H   UNL A   1      43.930  28.986  30.257  1.00  0.00     0.167 HD
ATOM     55  C   UNL A   1      45.629  26.731  29.794  1.00  0.00     0.074 A 
ATOM     56  C   UNL A   1      46.101  25.422  29.379  1.00  0.00     0.031 C 
ATOM     57  C   UNL A   1      46.411  27.681  30.362  1.00  0.00     0.037 A 
BRANCH  44  58
ATOM     58  C   UNL A   1      43.498  32.953  31.786  1.00  0.00     0.058 A 
ATOM     59  C   UNL A   1      43.730  34.078  30.982  1.00  0.00     0.135 A 
ATOM     60  C   UNL A   1      43.304  33.160  33.162  1.00  0.00     0.135 A 
ATOM     61  F   UNL A   1      43.938  33.935  29.663  1.00  0.00    -0.206 F 
ATOM     62  C   UNL A   1      43.781  35.361  31.522  1.00  0.00     0.059 A 
ATOM     63  C   UNL A   1      43.337  34.434  33.722  1.00  0.00     0.059 A 
ATOM     64  F   UNL A   1      43.082  32.117  33.977  1.00  0.00    -0.206 F 
ATOM     65  C   UNL A   1      43.590  35.527  32.895  1.00  0.00     0.060 A 
BRANCH  65  66
ATOM     66  S   UNL A   1      43.670  37.193  33.588  1.00  0.00     0.124 S 
ATOM     67  O   UNL A   1      42.435  37.241  34.365  1.00  0.00    -0.237 OA
ATOM     68  O   UNL A   1      44.905  37.154  34.365  1.00  0.00    -0.237 OA
ATOM     69  O   UNL A   1      43.704  38.050  32.407  1.00  0.00    -0.744 OA
ENDBRANCH  65  66
ENDBRANCH  44  58
BRANCH  45  70
ATOM     70  C   UNL A   1      42.520  23.811  27.772  1.00  0.00     0.058 A 
ATOM     71  C   UNL A   1      42.581  23.655  26.382  1.00  0.00     0.135 A 
ATOM     72  C   UNL A   1      42.401  22.657  28.563  1.00  0.00     0.135 A 
ATOM     73  F   UNL A   1      42.697  24.731  25.589  1.00  0.00    -0.206 F 
ATOM     74  C   UNL A   1      42.540  22.395  25.794  1.00  0.00     0.059 A 
ATOM     75  C   UNL A   1      42.379  21.388  28.000  1.00  0.00     0.059 A 
ATOM     76  F   UNL A   1      42.361  22.759  29.901  1.00  0.00    -0.206 F 
ATOM     77  C   UNL A   1      42.448  21.267  26.612  1.00  0.00     0.060 A 
BRANCH  77  78
ATOM     78  S   UNL A   1      42.498  19.628  25.855  1.00  0.00     0.124 S 
ATOM     79  O   UNL A   1      42.880  18.794  26.989  1.00  0.00    -0.237 OA
ATOM     80  O   UNL A   1      41.130  19.464  25.372  1.00  0.00    -0.237 OA
ATOM     81  O   UNL A   1      43.506  19.778  24.809  1.00  0.00    -0.744 OA
ENDBRANCH  77  78
ENDBRANCH  45  70
BRANCH  57  82
ATOM     82  C   UNL A   1      47.854  27.328  30.555  1.00  0.00     0.058 A 
ATOM     83  C   UNL A   1      48.814  27.643  29.581  1.00  0.00     0.135 A 
ATOM     84  C   UNL A   1      48.281  26.677  31.721  1.00  0.00     0.135 A 
ATOM     85  F   UNL A   1      48.447  28.256  28.443  1.00  0.00    -0.206 F 
ATOM     86  C   UNL A   1      50.150  27.300  29.746  1.00  0.00     0.059 A 
ATOM     87  C   UNL A   1      49.616  26.340  31.915  1.00  0.00     0.059 A 
ATOM     88  F   UNL A   1      47.398  26.361  32.681  1.00  0.00    -0.206 F 
ATOM     89  C   UNL A   1      50.540  26.643  30.915  1.00  0.00     0.060 A 
BRANCH  89  90
ATOM     90  S   UNL A   1      52.279  26.208  31.129  1.00  0.00     0.124 S 
ATOM     91  O   UNL A   1      52.750  26.197  29.748  1.00  0.00    -0.237 OA
ATOM     92  O   UNL A   1      52.779  27.298  31.961  1.00  0.00    -0.237 OA
ATOM     93  O   UNL A   1      52.220  24.904  31.785  1.00  0.00    -0.744 OA
ENDBRANCH  89  90
ENDBRANCH  57  82
ENDBRANCH  31  32
ENDBRANCH  24  26
ENDBRANCH  23  24
ENDBRANCH  22  23
ENDBRANCH   1  22
TORSDOF 18
ENDMDL
MODEL 2
REMARK VINA RESULT:      -9.0      3.531      5.657
REMARK SMILES Cc1cccc(C[NH+]2CCC(OCC(=O)OCCOC(=O)c3ccc(-c4c5nc(c(-c6c(F)cc(S(=O)(=O)[O-])cc6F)c6ccc([nH]6)c(-c6c(F)cc(S(=O)(=O)[O-])cc6F)c6nc(c(-c7c(F)cc(S(=O)(=O)[O-])cc7F)c7ccc4[nH]7)C=C6)C=C5)cc3)CC2)n1
REMARK SMILES IDX 17 1 16 2 14 3 15 4 13 5 12 6 11 7 8 8 9 9 89 10 10 12 88 13
REMARK SMILES IDX 7 14 6 15 1 16 2 17 3 18 90 19 4 20 5 21 18 22 19 23 20 24
REMARK SMILES IDX 21 25 22 26 23 27 87 28 24 29 86 30 25 31 26 32 27 33 80 34
REMARK SMILES IDX 28 35 85 36 79 37 81 38 29 39 84 40 78 41 77 42 30 44 64 45
REMARK SMILES IDX 43 46 63 47 44 48 47 49 62 50 82 51 45 52 46 53 61 55 83 56
REMARK SMILES IDX 48 57 31 58 32 59 41 60 33 61 34 62 40 63 42 64 35 65 36 66
REMARK SMILES IDX 37 67 38 68 39 69 65 70 66 71 75 72 67 73 68 74 74 75 76 76
REMARK SMILES IDX 69 77 70 78 71 79 72 80 73 81 49 82 50 83 59 84 51 85 52 86
REMARK SMILES IDX 58 87 60 88 53 89 54 90 55 91 56 92 57 93
REMARK H PARENT 8 11 81 43 47 54
REMARK Flexibility Score: inf
ROOT
ATOM      1  C   UNL A   1      34.437  33.128  31.277  1.00  0.00     0.274 C 
ENDROOT
BRANCH   1   2
ATOM      2  O   UNL A   1      34.620  34.085  30.199  1.00  0.00    -0.460 OA
BRANCH   2   3
ATOM      3  C   UNL A   1      33.622  34.146  29.275  1.00  0.00     0.332 C 
ATOM      4  O   UNL A   1      32.606  34.827  29.413  1.00  0.00    -0.250 OA
BRANCH   3   5
ATOM      5  C   UNL A   1      33.873  33.312  27.984  1.00  0.00     0.283 C 
BRANCH   5   6
ATOM      6  O   UNL A   1      34.453  32.029  27.844  1.00  0.00    -0.366 OA
BRANCH   6   7
ATOM      7  C   UNL A   1      33.621  30.864  27.690  1.00  0.00     0.130 C 
ATOM      8  N   UNL A   1      32.703  28.702  25.983  1.00  0.00    -0.330 N 
ATOM      9  C   UNL A   1      31.702  29.636  26.492  1.00  0.00     0.265 C 
ATOM     10  C   UNL A   1      33.695  28.406  27.020  1.00  0.00     0.265 C 
ATOM     11  H   UNL A   1      33.178  29.170  25.211  1.00  0.00     0.348 HD
ATOM     12  C   UNL A   1      32.360  30.989  26.812  1.00  0.00     0.093 C 
ATOM     13  C   UNL A   1      34.489  29.639  27.421  1.00  0.00     0.093 C 
BRANCH   8  14
ATOM     14  C   UNL A   1      32.140  27.488  25.355  1.00  0.00     0.319 C 
BRANCH  14  15
ATOM     15  C   UNL A   1      32.934  26.202  25.493  1.00  0.00     0.095 A 
ATOM     16  C   UNL A   1      32.305  22.993  27.160  1.00  0.00     0.067 C 
ATOM     17  C   UNL A   1      33.028  24.047  26.381  1.00  0.00     0.038 A 
ATOM     18  C   UNL A   1      34.217  23.787  25.717  1.00  0.00     0.023 A 
ATOM     19  N   UNL A   1      32.409  25.244  26.302  1.00  0.00    -0.252 NA
ATOM     20  C   UNL A   1      34.784  24.793  24.940  1.00  0.00     0.004 A 
ATOM     21  C   UNL A   1      34.131  26.016  24.813  1.00  0.00     0.030 A 
ENDBRANCH  14  15
ENDBRANCH   8  14
ENDBRANCH   6   7
ENDBRANCH   5   6
ENDBRANCH   3   5
ENDBRANCH   2   3
ENDBRANCH   1   2
BRANCH   1  22
ATOM     22  C   UNL A   1      35.693  32.243  31.500  1.00  0.00     0.275 C 
BRANCH  22  23
ATOM     23  O   UNL A   1      36.243  31.598  30.319  1.00  0.00    -0.458 OA
BRANCH  23  24
ATOM     24  C   UNL A   1      36.602  30.317  30.525  1.00  0.00     0.338 C 
ATOM     25  O   UNL A   1      35.929  29.492  31.111  1.00  0.00    -0.246 OA
BRANCH  24  26
ATOM     26  C   UNL A   1      37.877  29.858  29.978  1.00  0.00     0.060 A 
ATOM     27  C   UNL A   1      38.858  29.579  30.942  1.00  0.00     0.016 A 
ATOM     28  C   UNL A   1      38.200  29.914  28.624  1.00  0.00     0.016 A 
ATOM     29  C   UNL A   1      40.176  29.407  30.567  1.00  0.00     0.010 A 
ATOM     30  C   UNL A   1      39.527  29.689  28.240  1.00  0.00     0.010 A 
ATOM     31  C   UNL A   1      40.515  29.440  29.211  1.00  0.00    -0.014 A 
BRANCH  31  32
ATOM     32  C   UNL A   1      41.891  29.056  28.844  1.00  0.00     0.031 A 
ATOM     33  C   UNL A   1      43.029  30.019  28.935  1.00  0.00     0.074 A 
ATOM     34  C   UNL A   1      42.088  27.769  28.502  1.00  0.00     0.049 A 
ATOM     35  N   UNL A   1      44.287  29.829  28.633  1.00  0.00    -0.248 NA
ATOM     36  C   UNL A   1      42.726  31.369  29.433  1.00  0.00     0.031 C 
ATOM     37  C   UNL A   1      41.035  26.748  28.450  1.00  0.00     0.029 A 
ATOM     38  N   UNL A   1      43.224  27.095  28.153  1.00  0.00    -0.354 N 
ATOM     39  C   UNL A   1      44.927  31.034  28.886  1.00  0.00     0.074 A 
ATOM     40  C   UNL A   1      43.917  31.954  29.368  1.00  0.00     0.031 C 
ATOM     41  C   UNL A   1      41.579  25.575  28.100  1.00  0.00     0.029 A 
ATOM     42  C   UNL A   1      43.000  25.776  27.851  1.00  0.00     0.049 A 
ATOM     43  H   UNL A   1      44.114  27.516  28.121  1.00  0.00     0.167 HD
ATOM     44  C   UNL A   1      46.238  31.331  28.721  1.00  0.00     0.037 A 
ATOM     45  C   UNL A   1      43.844  24.836  27.390  1.00  0.00     0.037 A 
ATOM     46  C   UNL A   1      47.222  30.390  28.246  1.00  0.00     0.049 A 
ATOM     47  C   UNL A   1      45.277  25.206  27.174  1.00  0.00     0.074 A 
ATOM     48  C   UNL A   1      48.577  30.586  28.043  1.00  0.00     0.029 A 
ATOM     49  N   UNL A   1      46.955  29.072  27.900  1.00  0.00    -0.354 N 
ATOM     50  N   UNL A   1      45.864  26.359  27.386  1.00  0.00    -0.248 NA
ATOM     51  C   UNL A   1      46.158  24.159  26.649  1.00  0.00     0.031 C 
ATOM     52  C   UNL A   1      49.122  29.395  27.543  1.00  0.00     0.029 A 
ATOM     53  C   UNL A   1      48.113  28.448  27.467  1.00  0.00     0.049 A 
ATOM     54  H   UNL A   1      46.070  28.642  27.955  1.00  0.00     0.167 HD
ATOM     55  C   UNL A   1      47.189  26.182  27.016  1.00  0.00     0.074 A 
ATOM     56  C   UNL A   1      47.318  24.801  26.587  1.00  0.00     0.031 C 
ATOM     57  C   UNL A   1      48.205  27.078  27.026  1.00  0.00     0.037 A 
BRANCH  44  58
ATOM     58  C   UNL A   1      46.679  32.736  29.017  1.00  0.00     0.058 A 
ATOM     59  C   UNL A   1      47.160  33.110  30.281  1.00  0.00     0.135 A 
ATOM     60  C   UNL A   1      46.662  33.712  28.008  1.00  0.00     0.135 A 
ATOM     61  F   UNL A   1      47.183  32.221  31.286  1.00  0.00    -0.206 F 
ATOM     62  C   UNL A   1      47.593  34.409  30.539  1.00  0.00     0.059 A 
ATOM     63  C   UNL A   1      47.103  35.011  28.238  1.00  0.00     0.059 A 
ATOM     64  F   UNL A   1      46.208  33.407  26.781  1.00  0.00    -0.206 F 
ATOM     65  C   UNL A   1      47.555  35.354  29.512  1.00  0.00     0.060 A 
BRANCH  65  66
ATOM     66  S   UNL A   1      48.108  37.038  29.859  1.00  0.00     0.124 S 
ATOM     67  O   UNL A   1      47.405  37.791  28.824  1.00  0.00    -0.237 OA
ATOM     68  O   UNL A   1      47.640  37.250  31.225  1.00  0.00    -0.237 OA
ATOM     69  O   UNL A   1      49.557  36.957  29.702  1.00  0.00    -0.744 OA
ENDBRANCH  65  66
ENDBRANCH  44  58
BRANCH  45  70
ATOM     70  C   UNL A   1      43.314  23.487  27.078  1.00  0.00     0.058 A 
ATOM     71  C   UNL A   1      43.076  23.090  25.756  1.00  0.00     0.135 A 
ATOM     72  C   UNL A   1      43.133  22.537  28.096  1.00  0.00     0.135 A 
ATOM     73  F   UNL A   1      43.239  23.965  24.752  1.00  0.00    -0.206 F 
ATOM     74  C   UNL A   1      42.686  21.790  25.450  1.00  0.00     0.059 A 
ATOM     75  C   UNL A   1      42.764  21.228  27.813  1.00  0.00     0.059 A 
ATOM     76  F   UNL A   1      43.372  22.868  29.375  1.00  0.00    -0.206 F 
ATOM     77  C   UNL A   1      42.541  20.864  26.486  1.00  0.00     0.060 A 
BRANCH  77  78
ATOM     78  S   UNL A   1      42.134  19.152  26.081  1.00  0.00     0.124 S 
ATOM     79  O   UNL A   1      40.692  19.233  25.883  1.00  0.00    -0.237 OA
ATOM     80  O   UNL A   1      42.932  18.916  24.881  1.00  0.00    -0.237 OA
ATOM     81  O   UNL A   1      42.572  18.419  27.265  1.00  0.00    -0.744 OA
ENDBRANCH  77  78
ENDBRANCH  45  70
BRANCH  57  82
ATOM     82  C   UNL A   1      49.536  26.580  26.552  1.00  0.00     0.058 A 
ATOM     83  C   UNL A   1      50.418  25.925  27.425  1.00  0.00     0.135 A 
ATOM     84  C   UNL A   1      49.930  26.755  25.217  1.00  0.00     0.135 A 
ATOM     85  F   UNL A   1      50.086  25.747  28.714  1.00  0.00    -0.206 F 
ATOM     86  C   UNL A   1      51.662  25.480  26.995  1.00  0.00     0.059 A 
ATOM     87  C   UNL A   1      51.163  26.301  24.761  1.00  0.00     0.059 A 
ATOM     88  F   UNL A   1      49.117  27.372  24.347  1.00  0.00    -0.206 F 
ATOM     89  C   UNL A   1      52.028  25.677  25.662  1.00  0.00     0.060 A 
BRANCH  89  90
ATOM     90  S   UNL A   1      53.641  25.088  25.105  1.00  0.00     0.124 S 
ATOM     91  O   UNL A   1      53.479  23.643  25.221  1.00  0.00    -0.237 OA
ATOM     92  O   UNL A   1      53.717  25.611  23.745  1.00  0.00    -0.237 OA
ATOM     93  O   UNL A   1      54.567  25.697  26.057  1.00  0.00    -0.744 OA
ENDBRANCH  89  90
ENDBRANCH  57  82
ENDBRANCH  31  32
ENDBRANCH  24  26
ENDBRANCH  23  24
ENDBRANCH  22  23
ENDBRANCH   1  22
TORSDOF 18
ENDMDL
MODEL 3
REMARK VINA RESULT:      -8.8      4.264      6.686
REMARK SMILES Cc1cccc(C[NH+]2CCC(OCC(=O)OCCOC(=O)c3ccc(-c4c5nc(c(-c6c(F)cc(S(=O)(=O)[O-])cc6F)c6ccc([nH]6)c(-c6c(F)cc(S(=O)(=O)[O-])cc6F)c6nc(c(-c7c(F)cc(S(=O)(=O)[O-])cc7F)c7ccc4[nH]7)C=C6)C=C5)cc3)CC2)n1
REMARK SMILES IDX 17 1 16 2 14 3 15 4 13 5 12 6 11 7 8 8 9 9 89 10 10 12 88 13
REMARK SMILES IDX 7 14 6 15 1 16 2 17 3 18 90 19 4 20 5 21 18 22 19 23 20 24
REMARK SMILES IDX 21 25 22 26 23 27 87 28 24 29 86 30 25 31 26 32 27 33 80 34
REMARK SMILES IDX 28 35 85 36 79 37 81 38 29 39 84 40 78 41 77 42 30 44 64 45
REMARK SMILES IDX 43 46 63 47 44 48 47 49 62 50 82 51 45 52 46 53 61 55 83 56
REMARK SMILES IDX 48 57 31 58 32 59 41 60 33 61 34 62 40 63 42 64 35 65 36 66
REMARK SMILES IDX 37 67 38 68 39 69 65 70 66 71 75 72 67 73 68 74 74 75 76 76
REMARK SMILES IDX 69 77 70 78 71 79 72 80 73 81 49 82 50 83 59 84 51 85 52 86
REMARK SMILES IDX 58 87 60 88 53 89 54 90 55 91 56 92 57 93
REMARK H PARENT 8 11 81 43 47 54
REMARK Flexibility Score: inf
ROOT
ATOM      1  C   UNL A   1      33.736  31.933  27.927  1.00  0.00     0.274 C 
ENDROOT
BRANCH   1   2
ATOM      2  O   UNL A   1      33.114  30.727  27.409  1.00  0.00    -0.460 OA
BRANCH   2   3
ATOM      3  C   UNL A   1      32.015  30.906  26.624  1.00  0.00     0.332 C 
ATOM      4  O   UNL A   1      31.338  31.934  26.625  1.00  0.00    -0.250 OA
BRANCH   3   5
ATOM      5  C   UNL A   1      31.687  29.716  25.675  1.00  0.00     0.283 C 
BRANCH   5   6
ATOM      6  O   UNL A   1      32.170  29.450  24.371  1.00  0.00    -0.366 OA
BRANCH   6   7
ATOM      7  C   UNL A   1      31.855  28.208  23.715  1.00  0.00     0.130 C 
ATOM      8  N   UNL A   1      31.332  25.361  23.952  1.00  0.00    -0.330 N 
ATOM      9  C   UNL A   1      32.466  25.777  23.130  1.00  0.00     0.265 C 
ATOM     10  C   UNL A   1      30.200  26.269  23.753  1.00  0.00     0.265 C 
ATOM     11  H   UNL A   1      31.632  25.434  24.925  1.00  0.00     0.348 HD
ATOM     12  C   UNL A   1      32.973  27.154  23.590  1.00  0.00     0.093 C 
ATOM     13  C   UNL A   1      30.512  27.684  24.214  1.00  0.00     0.093 C 
BRANCH   8  14
ATOM     14  C   UNL A   1      30.965  23.937  23.810  1.00  0.00     0.319 C 
BRANCH  14  15
ATOM     15  C   UNL A   1      31.911  22.912  24.408  1.00  0.00     0.095 A 
ATOM     16  C   UNL A   1      33.273  22.371  27.774  1.00  0.00     0.067 C 
ATOM     17  C   UNL A   1      33.043  22.171  26.308  1.00  0.00     0.038 A 
ATOM     18  C   UNL A   1      33.516  21.054  25.635  1.00  0.00     0.023 A 
ATOM     19  N   UNL A   1      32.281  23.106  25.702  1.00  0.00    -0.252 NA
ATOM     20  C   UNL A   1      33.185  20.894  24.292  1.00  0.00     0.004 A 
ATOM     21  C   UNL A   1      32.362  21.827  23.668  1.00  0.00     0.030 A 
ENDBRANCH  14  15
ENDBRANCH   8  14
ENDBRANCH   6   7
ENDBRANCH   5   6
ENDBRANCH   3   5
ENDBRANCH   2   3
ENDBRANCH   1   2
BRANCH   1  22
ATOM     22  C   UNL A   1      35.026  31.632  28.734  1.00  0.00     0.275 C 
BRANCH  22  23
ATOM     23  O   UNL A   1      35.346  30.228  28.936  1.00  0.00    -0.458 OA
BRANCH  23  24
ATOM     24  C   UNL A   1      36.326  30.024  29.836  1.00  0.00     0.338 C 
ATOM     25  O   UNL A   1      36.202  30.151  31.040  1.00  0.00    -0.246 OA
BRANCH  24  26
ATOM     26  C   UNL A   1      37.631  29.583  29.352  1.00  0.00     0.060 A 
ATOM     27  C   UNL A   1      38.585  29.368  30.360  1.00  0.00     0.016 A 
ATOM     28  C   UNL A   1      38.001  29.600  28.009  1.00  0.00     0.016 A 
ATOM     29  C   UNL A   1      39.920  29.221  30.037  1.00  0.00     0.010 A 
ATOM     30  C   UNL A   1      39.347  29.400  27.681  1.00  0.00     0.010 A 
ATOM     31  C   UNL A   1      40.306  29.215  28.694  1.00  0.00    -0.014 A 
BRANCH  31  32
ATOM     32  C   UNL A   1      41.705  28.858  28.390  1.00  0.00     0.031 A 
ATOM     33  C   UNL A   1      42.810  29.860  28.472  1.00  0.00     0.074 A 
ATOM     34  C   UNL A   1      41.951  27.564  28.113  1.00  0.00     0.049 A 
ATOM     35  N   UNL A   1      44.082  29.696  28.221  1.00  0.00    -0.248 NA
ATOM     36  C   UNL A   1      42.449  31.221  28.898  1.00  0.00     0.031 C 
ATOM     37  C   UNL A   1      40.932  26.509  28.074  1.00  0.00     0.029 A 
ATOM     38  N   UNL A   1      43.119  26.912  27.833  1.00  0.00    -0.354 N 
ATOM     39  C   UNL A   1      44.677  30.931  28.439  1.00  0.00     0.074 A 
ATOM     40  C   UNL A   1      43.624  31.839  28.845  1.00  0.00     0.031 C 
ATOM     41  C   UNL A   1      41.522  25.339  27.796  1.00  0.00     0.029 A 
ATOM     42  C   UNL A   1      42.945  25.573  27.585  1.00  0.00     0.049 A 
ATOM     43  H   UNL A   1      43.996  27.358  27.811  1.00  0.00     0.167 HD
ATOM     44  C   UNL A   1      45.983  31.261  28.303  1.00  0.00     0.037 A 
ATOM     45  C   UNL A   1      43.831  24.641  27.195  1.00  0.00     0.037 A 
ATOM     46  C   UNL A   1      47.010  30.331  27.904  1.00  0.00     0.049 A 
ATOM     47  C   UNL A   1      45.259  25.045  27.008  1.00  0.00     0.074 A 
ATOM     48  C   UNL A   1      48.366  30.560  27.736  1.00  0.00     0.029 A 
ATOM     49  N   UNL A   1      46.795  28.990  27.610  1.00  0.00    -0.354 N 
ATOM     50  N   UNL A   1      45.804  26.225  27.187  1.00  0.00    -0.248 NA
ATOM     51  C   UNL A   1      46.188  24.004  26.561  1.00  0.00     0.031 C 
ATOM     52  C   UNL A   1      48.962  29.366  27.309  1.00  0.00     0.029 A 
ATOM     53  C   UNL A   1      47.985  28.385  27.244  1.00  0.00     0.049 A 
ATOM     54  H   UNL A   1      45.922  28.537  27.656  1.00  0.00     0.167 HD
ATOM     55  C   UNL A   1      47.145  26.073  26.868  1.00  0.00     0.074 A 
ATOM     56  C   UNL A   1      47.330  24.679  26.507  1.00  0.00     0.031 C 
ATOM     57  C   UNL A   1      48.132  27.000  26.870  1.00  0.00     0.037 A 
BRANCH  44  58
ATOM     58  C   UNL A   1      46.372  32.691  28.549  1.00  0.00     0.058 A 
ATOM     59  C   UNL A   1      46.370  33.645  27.521  1.00  0.00     0.135 A 
ATOM     60  C   UNL A   1      46.711  33.121  29.842  1.00  0.00     0.135 A 
ATOM     61  F   UNL A   1      46.070  33.285  26.263  1.00  0.00    -0.206 F 
ATOM     62  C   UNL A   1      46.706  34.976  27.764  1.00  0.00     0.059 A 
ATOM     63  C   UNL A   1      47.036  34.447  30.111  1.00  0.00     0.059 A 
ATOM     64  F   UNL A   1      46.732  32.246  30.860  1.00  0.00    -0.206 F 
ATOM     65  C   UNL A   1      47.044  35.365  29.062  1.00  0.00     0.060 A 
BRANCH  65  66
ATOM     66  S   UNL A   1      47.488  37.089  29.364  1.00  0.00     0.124 S 
ATOM     67  O   UNL A   1      46.186  37.673  29.672  1.00  0.00    -0.237 OA
ATOM     68  O   UNL A   1      48.417  36.985  30.486  1.00  0.00    -0.237 OA
ATOM     69  O   UNL A   1      48.084  37.512  28.100  1.00  0.00    -0.744 OA
ENDBRANCH  65  66
ENDBRANCH  44  58
BRANCH  45  70
ATOM     70  C   UNL A   1      43.353  23.263  26.928  1.00  0.00     0.058 A 
ATOM     71  C   UNL A   1      43.233  22.778  25.620  1.00  0.00     0.135 A 
ATOM     72  C   UNL A   1      43.104  22.375  27.987  1.00  0.00     0.135 A 
ATOM     73  F   UNL A   1      43.463  23.592  24.578  1.00  0.00    -0.206 F 
ATOM     74  C   UNL A   1      42.892  21.453  25.367  1.00  0.00     0.059 A 
ATOM     75  C   UNL A   1      42.783  21.043  27.760  1.00  0.00     0.059 A 
ATOM     76  F   UNL A   1      43.229  22.791  29.257  1.00  0.00    -0.206 F 
ATOM     77  C   UNL A   1      42.677  20.591  26.445  1.00  0.00     0.060 A 
BRANCH  77  78
ATOM     78  S   UNL A   1      42.335  18.848  26.119  1.00  0.00     0.124 S 
ATOM     79  O   UNL A   1      42.580  18.253  27.427  1.00  0.00    -0.237 OA
ATOM     80  O   UNL A   1      40.943  18.878  25.681  1.00  0.00    -0.237 OA
ATOM     81  O   UNL A   1      43.301  18.511  25.077  1.00  0.00    -0.744 OA
ENDBRANCH  77  78
ENDBRANCH  45  70
BRANCH  57  82
ATOM     82  C   UNL A   1      49.494  26.524  26.462  1.00  0.00     0.058 A 
ATOM     83  C   UNL A   1      50.335  25.867  27.373  1.00  0.00     0.135 A 
ATOM     84  C   UNL A   1      49.957  26.720  25.153  1.00  0.00     0.135 A 
ATOM     85  F   UNL A   1      49.935  25.668  28.640  1.00  0.00    -0.206 F 
ATOM     86  C   UNL A   1      51.605  25.441  27.006  1.00  0.00     0.059 A 
ATOM     87  C   UNL A   1      51.218  26.286  24.759  1.00  0.00     0.059 A 
ATOM     88  F   UNL A   1      49.185  27.340  24.248  1.00  0.00    -0.206 F 
ATOM     89  C   UNL A   1      52.040  25.660  25.697  1.00  0.00     0.060 A 
BRANCH  89  90
ATOM     90  S   UNL A   1      53.688  25.097  25.222  1.00  0.00     0.124 S 
ATOM     91  O   UNL A   1      54.520  25.742  26.233  1.00  0.00    -0.237 OA
ATOM     92  O   UNL A   1      53.570  23.646  25.328  1.00  0.00    -0.237 OA
ATOM     93  O   UNL A   1      53.838  25.609  23.862  1.00  0.00    -0.744 OA
ENDBRANCH  89  90
ENDBRANCH  57  82
ENDBRANCH  31  32
ENDBRANCH  24  26
ENDBRANCH  23  24
ENDBRANCH  22  23
ENDBRANCH   1  22
TORSDOF 18
ENDMDL
