MODEL 1
REMARK VINA RESULT:     -14.3      0.000      0.000
REMARK SMILES Cc1ccc(N2C(=O)C[C@H](Sc3ccccc3C(=O)OCCOC(=O)c3ccc(-c4c5nc(c(-c6c(F)cc(S(=O)(=O)[O-])cc6F)c6ccc([nH]6)c(-c6c(F)cc(S(=O)(=O)[O-])cc6F)c6nc(c(-c7c(F)cc(S(=O)(=O)[O-])cc7F)c7ccc4[nH]7)C=C6)C=C5)cc3)C2=O)cc1
REMARK SMILES IDX 21 1 20 2 18 3 19 4 17 5 12 6 13 7 14 8 16 9 15 10 11 11
REMARK SMILES IDX 10 12 6 13 7 14 92 15 8 16 9 17 93 18 5 19 1 20 2 21 3 22
REMARK SMILES IDX 95 23 4 24 94 25 22 26 23 27 24 28 25 29 26 30 27 31 91 32
REMARK SMILES IDX 28 33 90 34 29 35 30 36 31 37 84 38 32 39 89 40 83 41 85 42
REMARK SMILES IDX 33 43 88 44 82 45 81 46 34 48 68 49 47 50 67 51 48 52 51 53
REMARK SMILES IDX 66 54 86 55 49 56 50 57 65 59 87 60 52 61 35 62 36 63 45 64
REMARK SMILES IDX 37 65 38 66 44 67 46 68 39 69 40 70 41 71 42 72 43 73 69 74
REMARK SMILES IDX 70 75 79 76 71 77 72 78 78 79 80 80 73 81 74 82 75 83 76 84
REMARK SMILES IDX 77 85 53 86 54 87 63 88 55 89 56 90 62 91 64 92 57 93 58 94
REMARK SMILES IDX 59 95 60 96 61 97
REMARK H PARENT 85 47 51 58
REMARK Flexibility Score: inf
ROOT
ATOM      1  C   UNL A   1      36.628  22.557  24.890  1.00  0.00     0.275 C 
ENDROOT
BRANCH   1   2
ATOM      2  O   UNL A   1      35.702  23.334  25.677  1.00  0.00    -0.458 OA
BRANCH   2   3
ATOM      3  C   UNL A   1      35.030  24.446  24.962  1.00  0.00     0.339 C 
ATOM      4  O   UNL A   1      35.251  24.085  23.764  1.00  0.00    -0.246 OA
BRANCH   3   5
ATOM      5  C   UNL A   1      33.890  26.112  25.762  1.00  0.00     0.073 A 
ATOM      6  C   UNL A   1      32.290  26.128  26.277  1.00  0.00     0.023 A 
ATOM      7  C   UNL A   1      31.544  27.250  26.762  1.00  0.00     0.016 A 
ATOM      8  C   UNL A   1      32.163  28.461  26.967  1.00  0.00     0.001 A 
ATOM      9  C   UNL A   1      34.274  27.533  26.074  1.00  0.00     0.017 A 
ATOM     10  C   UNL A   1      33.498  28.592  26.644  1.00  0.00     0.001 A 
BRANCH   6  11
ATOM     11  S   UNL A   1      30.746  24.717  26.183  1.00  0.00    -0.111 SA
BRANCH  11  12
ATOM     12  C   UNL A   1      30.759  23.549  24.554  1.00  0.00     0.151 C 
ATOM     13  N   UNL A   1      32.190  21.811  23.938  1.00  0.00    -0.250 N 
ATOM     14  C   UNL A   1      32.313  22.694  22.895  1.00  0.00     0.235 C 
ATOM     15  C   UNL A   1      31.296  22.187  24.918  1.00  0.00     0.247 C 
ATOM     16  O   UNL A   1      33.013  22.555  21.901  1.00  0.00    -0.274 OA
ATOM     17  C   UNL A   1      31.393  23.848  23.149  1.00  0.00     0.126 C 
ATOM     18  O   UNL A   1      30.937  21.520  25.881  1.00  0.00    -0.273 OA
BRANCH  13  19
ATOM     19  C   UNL A   1      32.693  20.513  23.829  1.00  0.00     0.052 A 
ATOM     20  C   UNL A   1      34.224  16.520  23.645  1.00  0.00     0.044 C 
ATOM     21  C   UNL A   1      33.668  17.907  23.719  1.00  0.00    -0.051 A 
ATOM     22  C   UNL A   1      34.272  18.845  24.565  1.00  0.00     0.005 A 
ATOM     23  C   UNL A   1      32.552  18.279  22.954  1.00  0.00     0.005 A 
ATOM     24  C   UNL A   1      33.782  20.144  24.625  1.00  0.00     0.027 A 
ATOM     25  C   UNL A   1      32.065  19.584  23.005  1.00  0.00     0.027 A 
ENDBRANCH  13  19
ENDBRANCH  11  12
ENDBRANCH   6  11
ENDBRANCH   3   5
ENDBRANCH   2   3
ENDBRANCH   1   2
BRANCH   1  26
ATOM     26  C   UNL A   1      37.431  21.582  25.778  1.00  0.00     0.275 C 
BRANCH  26  27
ATOM     27  O   UNL A   1      38.870  21.611  25.631  1.00  0.00    -0.458 OA
BRANCH  27  28
ATOM     28  C   UNL A   1      39.585  22.204  26.619  1.00  0.00     0.338 C 
ATOM     29  O   UNL A   1      40.404  21.721  27.372  1.00  0.00    -0.246 OA
BRANCH  28  30
ATOM     30  C   UNL A   1      39.312  23.635  26.489  1.00  0.00     0.060 A 
ATOM     31  C   UNL A   1      40.513  24.551  25.512  1.00  0.00     0.016 A 
ATOM     32  C   UNL A   1      38.631  24.375  27.938  1.00  0.00     0.016 A 
ATOM     33  C   UNL A   1      41.045  26.287  25.948  1.00  0.00     0.010 A 
ATOM     34  C   UNL A   1      39.228  25.998  28.459  1.00  0.00     0.010 A 
ATOM     35  C   UNL A   1      40.396  26.962  27.472  1.00  0.00    -0.014 A 
BRANCH  35  36
ATOM     36  C   UNL A   1      41.053  27.940  28.320  1.00  0.00     0.031 A 
ATOM     37  C   UNL A   1      40.220  29.137  28.598  1.00  0.00     0.074 A 
ATOM     38  C   UNL A   1      42.101  27.490  29.061  1.00  0.00     0.049 A 
ATOM     39  N   UNL A   1      40.628  30.159  29.242  1.00  0.00    -0.248 NA
ATOM     40  C   UNL A   1      38.832  29.337  28.146  1.00  0.00     0.031 C 
ATOM     41  C   UNL A   1      42.577  27.909  30.381  1.00  0.00     0.029 A 
ATOM     42  N   UNL A   1      43.075  26.562  28.670  1.00  0.00    -0.354 N 
ATOM     43  C   UNL A   1      39.514  30.869  29.653  1.00  0.00     0.074 A 
ATOM     44  C   UNL A   1      38.441  30.411  28.831  1.00  0.00     0.031 C 
ATOM     45  C   UNL A   1      43.844  27.485  30.563  1.00  0.00     0.029 A 
ATOM     46  C   UNL A   1      44.279  26.830  29.343  1.00  0.00     0.049 A 
ATOM     47  H   UNL A   1      42.936  25.833  28.022  1.00  0.00     0.167 HD
ATOM     48  C   UNL A   1      39.650  31.624  30.772  1.00  0.00     0.037 A 
ATOM     49  C   UNL A   1      45.366  27.237  28.620  1.00  0.00     0.037 A 
ATOM     50  C   UNL A   1      41.069  31.636  31.136  1.00  0.00     0.049 A 
ATOM     51  C   UNL A   1      45.556  28.728  28.648  1.00  0.00     0.074 A 
ATOM     52  C   UNL A   1      41.806  30.915  32.056  1.00  0.00     0.029 A 
ATOM     53  N   UNL A   1      41.971  32.115  30.194  1.00  0.00    -0.354 N 
ATOM     54  N   UNL A   1      44.636  29.533  29.107  1.00  0.00    -0.248 NA
ATOM     55  C   UNL A   1      46.767  29.441  28.246  1.00  0.00     0.031 C 
ATOM     56  C   UNL A   1      43.153  30.880  31.586  1.00  0.00     0.029 A 
ATOM     57  C   UNL A   1      43.229  31.580  30.390  1.00  0.00     0.049 A 
ATOM     58  H   UNL A   1      41.743  32.752  29.479  1.00  0.00     0.167 HD
ATOM     59  C   UNL A   1      45.076  30.817  29.055  1.00  0.00     0.074 A 
ATOM     60  C   UNL A   1      46.425  30.710  28.529  1.00  0.00     0.031 C 
ATOM     61  C   UNL A   1      44.292  31.866  29.433  1.00  0.00     0.037 A 
BRANCH  48  62
ATOM     62  C   UNL A   1      38.561  32.174  31.664  1.00  0.00     0.058 A 
ATOM     63  C   UNL A   1      37.859  33.320  31.227  1.00  0.00     0.135 A 
ATOM     64  C   UNL A   1      38.184  31.713  32.946  1.00  0.00     0.135 A 
ATOM     65  F   UNL A   1      38.110  33.885  30.038  1.00  0.00    -0.206 F 
ATOM     66  C   UNL A   1      36.873  33.948  31.981  1.00  0.00     0.059 A 
ATOM     67  C   UNL A   1      37.181  32.318  33.715  1.00  0.00     0.059 A 
ATOM     68  F   UNL A   1      38.771  30.666  33.535  1.00  0.00    -0.206 F 
ATOM     69  C   UNL A   1      36.528  33.434  33.220  1.00  0.00     0.060 A 
BRANCH  69  70
ATOM     70  S   UNL A   1      35.200  34.234  34.133  1.00  0.00     0.124 S 
ATOM     71  O   UNL A   1      35.330  35.623  33.705  1.00  0.00    -0.237 OA
ATOM     72  O   UNL A   1      34.026  33.522  33.638  1.00  0.00    -0.237 OA
ATOM     73  O   UNL A   1      35.543  33.977  35.529  1.00  0.00    -0.744 OA
ENDBRANCH  69  70
ENDBRANCH  48  62
BRANCH  49  74
ATOM     74  C   UNL A   1      45.663  26.290  27.526  1.00  0.00     0.058 A 
ATOM     75  C   UNL A   1      46.142  25.032  27.935  1.00  0.00     0.135 A 
ATOM     76  C   UNL A   1      45.072  26.386  26.259  1.00  0.00     0.135 A 
ATOM     77  F   UNL A   1      46.728  24.893  29.135  1.00  0.00    -0.206 F 
ATOM     78  C   UNL A   1      45.944  23.892  27.175  1.00  0.00     0.059 A 
ATOM     79  C   UNL A   1      44.889  25.252  25.462  1.00  0.00     0.059 A 
ATOM     80  F   UNL A   1      44.568  27.553  25.830  1.00  0.00    -0.206 F 
ATOM     81  C   UNL A   1      45.330  24.014  25.935  1.00  0.00     0.060 A 
BRANCH  81  82
ATOM     82  S   UNL A   1      45.225  22.528  24.938  1.00  0.00     0.124 S 
ATOM     83  O   UNL A   1      44.009  21.905  25.446  1.00  0.00    -0.237 OA
ATOM     84  O   UNL A   1      45.140  23.066  23.584  1.00  0.00    -0.237 OA
ATOM     85  O   UNL A   1      46.460  21.820  25.257  1.00  0.00    -0.744 OA
ENDBRANCH  81  82
ENDBRANCH  49  74
BRANCH  61  86
ATOM     86  C   UNL A   1      44.554  33.272  28.975  1.00  0.00     0.058 A 
ATOM     87  C   UNL A   1      45.089  34.264  29.816  1.00  0.00     0.135 A 
ATOM     88  C   UNL A   1      44.358  33.651  27.629  1.00  0.00     0.135 A 
ATOM     89  F   UNL A   1      45.539  33.983  31.048  1.00  0.00    -0.206 F 
ATOM     90  C   UNL A   1      45.198  35.586  29.414  1.00  0.00     0.059 A 
ATOM     91  C   UNL A   1      44.573  34.941  27.177  1.00  0.00     0.059 A 
ATOM     92  F   UNL A   1      43.944  32.786  26.692  1.00  0.00    -0.206 F 
ATOM     93  C   UNL A   1      44.908  35.917  28.097  1.00  0.00     0.060 A 
BRANCH  93  94
ATOM     94  S   UNL A   1      44.939  37.638  27.605  1.00  0.00     0.124 S 
ATOM     95  O   UNL A   1      46.050  37.639  26.659  1.00  0.00    -0.237 OA
ATOM     96  O   UNL A   1      43.612  37.823  27.027  1.00  0.00    -0.237 OA
ATOM     97  O   UNL A   1      45.175  38.344  28.861  1.00  0.00    -0.744 OA
ENDBRANCH  93  94
ENDBRANCH  61  86
ENDBRANCH  35  36
ENDBRANCH  28  30
ENDBRANCH  27  28
ENDBRANCH  26  27
ENDBRANCH   1  26
TORSDOF 17
ENDMDL
MODEL 2
REMARK VINA RESULT:     -14.1      1.002      3.902
REMARK SMILES Cc1ccc(N2C(=O)C[C@H](Sc3ccccc3C(=O)OCCOC(=O)c3ccc(-c4c5nc(c(-c6c(F)cc(S(=O)(=O)[O-])cc6F)c6ccc([nH]6)c(-c6c(F)cc(S(=O)(=O)[O-])cc6F)c6nc(c(-c7c(F)cc(S(=O)(=O)[O-])cc7F)c7ccc4[nH]7)C=C6)C=C5)cc3)C2=O)cc1
REMARK SMILES IDX 21 1 20 2 18 3 19 4 17 5 12 6 13 7 14 8 16 9 15 10 11 11
REMARK SMILES IDX 10 12 6 13 7 14 92 15 8 16 9 17 93 18 5 19 1 20 2 21 3 22
REMARK SMILES IDX 95 23 4 24 94 25 22 26 23 27 24 28 25 29 26 30 27 31 91 32
REMARK SMILES IDX 28 33 90 34 29 35 30 36 31 37 84 38 32 39 89 40 83 41 85 42
REMARK SMILES IDX 33 43 88 44 82 45 81 46 34 48 68 49 47 50 67 51 48 52 51 53
REMARK SMILES IDX 66 54 86 55 49 56 50 57 65 59 87 60 52 61 35 62 36 63 45 64
REMARK SMILES IDX 37 65 38 66 44 67 46 68 39 69 40 70 41 71 42 72 43 73 69 74
REMARK SMILES IDX 70 75 79 76 71 77 72 78 78 79 80 80 73 81 74 82 75 83 76 84
REMARK SMILES IDX 77 85 53 86 54 87 63 88 55 89 56 90 62 91 64 92 57 93 58 94
REMARK SMILES IDX 59 95 60 96 61 97
REMARK H PARENT 85 47 51 58
REMARK Flexibility Score: inf
ROOT
ATOM      1  C   UNL A   1      36.920  21.988  25.003  1.00  0.00     0.275 C 
ENDROOT
BRANCH   1   2
ATOM      2  O   UNL A   1      35.881  22.394  25.918  1.00  0.00    -0.458 OA
BRANCH   2   3
ATOM      3  C   UNL A   1      34.792  21.408  26.127  1.00  0.00     0.339 C 
ATOM      4  O   UNL A   1      34.483  21.692  27.325  1.00  0.00    -0.246 OA
BRANCH   3   5
ATOM      5  C   UNL A   1      33.914  20.004  24.722  1.00  0.00     0.073 A 
ATOM      6  C   UNL A   1      32.894  20.327  23.426  1.00  0.00     0.023 A 
ATOM      7  C   UNL A   1      32.291  19.379  22.537  1.00  0.00     0.016 A 
ATOM      8  C   UNL A   1      32.622  18.047  22.612  1.00  0.00     0.001 A 
ATOM      9  C   UNL A   1      34.064  18.515  24.567  1.00  0.00     0.017 A 
ATOM     10  C   UNL A   1      33.497  17.630  23.595  1.00  0.00     0.001 A 
BRANCH   6  11
ATOM     11  S   UNL A   1      31.923  22.062  22.772  1.00  0.00    -0.111 SA
BRANCH  11  12
ATOM     12  C   UNL A   1      31.058  23.149  24.217  1.00  0.00     0.151 C 
ATOM     13  N   UNL A   1      31.925  24.831  25.582  1.00  0.00    -0.250 N 
ATOM     14  C   UNL A   1      31.488  23.897  26.487  1.00  0.00     0.235 C 
ATOM     15  C   UNL A   1      31.690  24.518  24.260  1.00  0.00     0.247 C 
ATOM     16  O   UNL A   1      31.554  23.975  27.706  1.00  0.00    -0.274 OA
ATOM     17  C   UNL A   1      30.856  22.771  25.728  1.00  0.00     0.126 C 
ATOM     18  O   UNL A   1      31.886  25.237  23.288  1.00  0.00    -0.273 OA
BRANCH  13  19
ATOM     19  C   UNL A   1      32.278  26.114  26.005  1.00  0.00     0.052 A 
ATOM     20  C   UNL A   1      33.427  30.071  27.168  1.00  0.00     0.044 C 
ATOM     21  C   UNL A   1      33.012  28.697  26.743  1.00  0.00    -0.051 A 
ATOM     22  C   UNL A   1      33.977  27.808  26.255  1.00  0.00     0.005 A 
ATOM     23  C   UNL A   1      31.672  28.289  26.828  1.00  0.00     0.005 A 
ATOM     24  C   UNL A   1      33.610  26.521  25.880  1.00  0.00     0.027 A 
ATOM     25  C   UNL A   1      31.304  26.995  26.463  1.00  0.00     0.027 A 
ENDBRANCH  13  19
ENDBRANCH  11  12
ENDBRANCH   6  11
ENDBRANCH   3   5
ENDBRANCH   2   3
ENDBRANCH   1   2
BRANCH   1  26
ATOM     26  C   UNL A   1      37.995  21.144  25.721  1.00  0.00     0.275 C 
BRANCH  26  27
ATOM     27  O   UNL A   1      39.358  21.619  25.625  1.00  0.00    -0.458 OA
BRANCH  27  28
ATOM     28  C   UNL A   1      39.886  22.221  26.719  1.00  0.00     0.338 C 
ATOM     29  O   UNL A   1      40.606  21.759  27.580  1.00  0.00    -0.246 OA
BRANCH  28  30
ATOM     30  C   UNL A   1      39.565  23.641  26.574  1.00  0.00     0.060 A 
ATOM     31  C   UNL A   1      40.750  24.592  25.611  1.00  0.00     0.016 A 
ATOM     32  C   UNL A   1      38.832  24.366  28.005  1.00  0.00     0.016 A 
ATOM     33  C   UNL A   1      41.211  26.349  26.043  1.00  0.00     0.010 A 
ATOM     34  C   UNL A   1      39.362  26.013  28.524  1.00  0.00     0.010 A 
ATOM     35  C   UNL A   1      40.511  27.011  27.550  1.00  0.00    -0.014 A 
BRANCH  35  36
ATOM     36  C   UNL A   1      41.118  28.018  28.402  1.00  0.00     0.031 A 
ATOM     37  C   UNL A   1      40.248  29.198  28.634  1.00  0.00     0.074 A 
ATOM     38  C   UNL A   1      42.153  27.605  29.183  1.00  0.00     0.049 A 
ATOM     39  N   UNL A   1      40.611  30.240  29.273  1.00  0.00    -0.248 NA
ATOM     40  C   UNL A   1      38.871  29.358  28.135  1.00  0.00     0.031 C 
ATOM     41  C   UNL A   1      42.576  28.056  30.510  1.00  0.00     0.029 A 
ATOM     42  N   UNL A   1      43.160  26.694  28.838  1.00  0.00    -0.354 N 
ATOM     43  C   UNL A   1      39.469  30.930  29.637  1.00  0.00     0.074 A 
ATOM     44  C   UNL A   1      38.434  30.432  28.790  1.00  0.00     0.031 C 
ATOM     45  C   UNL A   1      43.846  27.666  30.739  1.00  0.00     0.029 A 
ATOM     46  C   UNL A   1      44.335  27.002  29.544  1.00  0.00     0.049 A 
ATOM     47  H   UNL A   1      43.059  25.952  28.199  1.00  0.00     0.167 HD
ATOM     48  C   UNL A   1      39.551  31.706  30.748  1.00  0.00     0.037 A 
ATOM     49  C   UNL A   1      45.434  27.423  28.850  1.00  0.00     0.037 A 
ATOM     50  C   UNL A   1      40.957  31.757  31.155  1.00  0.00     0.049 A 
ATOM     51  C   UNL A   1      45.588  28.919  28.859  1.00  0.00     0.074 A 
ATOM     52  C   UNL A   1      41.681  31.069  32.110  1.00  0.00     0.029 A 
ATOM     53  N   UNL A   1      41.877  32.242  30.234  1.00  0.00    -0.354 N 
ATOM     54  N   UNL A   1      44.636  29.709  29.275  1.00  0.00    -0.248 NA
ATOM     55  C   UNL A   1      46.795  29.654  28.483  1.00  0.00     0.031 C 
ATOM     56  C   UNL A   1      43.043  31.059  31.683  1.00  0.00     0.029 A 
ATOM     57  C   UNL A   1      43.140  31.741  30.479  1.00  0.00     0.049 A 
ATOM     58  H   UNL A   1      41.657  32.863  29.502  1.00  0.00     0.167 HD
ATOM     59  C   UNL A   1      45.047  31.002  29.216  1.00  0.00     0.074 A 
ATOM     60  C   UNL A   1      46.414  30.920  28.734  1.00  0.00     0.031 C 
ATOM     61  C   UNL A   1      44.227  32.037  29.551  1.00  0.00     0.037 A 
BRANCH  48  62
ATOM     62  C   UNL A   1      38.422  32.243  31.595  1.00  0.00     0.058 A 
ATOM     63  C   UNL A   1      38.203  33.639  31.605  1.00  0.00     0.135 A 
ATOM     64  C   UNL A   1      37.568  31.513  32.454  1.00  0.00     0.135 A 
ATOM     65  F   UNL A   1      38.941  34.469  30.854  1.00  0.00    -0.206 F 
ATOM     66  C   UNL A   1      37.231  34.258  32.384  1.00  0.00     0.059 A 
ATOM     67  C   UNL A   1      36.569  32.112  33.233  1.00  0.00     0.059 A 
ATOM     68  F   UNL A   1      37.659  30.188  32.602  1.00  0.00    -0.206 F 
ATOM     69  C   UNL A   1      36.406  33.487  33.186  1.00  0.00     0.060 A 
BRANCH  69  70
ATOM     70  S   UNL A   1      35.115  34.317  34.124  1.00  0.00     0.124 S 
ATOM     71  O   UNL A   1      35.262  35.701  33.686  1.00  0.00    -0.237 OA
ATOM     72  O   UNL A   1      33.916  33.626  33.660  1.00  0.00    -0.237 OA
ATOM     73  O   UNL A   1      35.483  34.060  35.513  1.00  0.00    -0.744 OA
ENDBRANCH  69  70
ENDBRANCH  48  62
BRANCH  49  74
ATOM     74  C   UNL A   1      45.789  26.467  27.781  1.00  0.00     0.058 A 
ATOM     75  C   UNL A   1      46.125  25.173  28.221  1.00  0.00     0.135 A 
ATOM     76  C   UNL A   1      45.358  26.617  26.455  1.00  0.00     0.135 A 
ATOM     77  F   UNL A   1      46.556  24.981  29.478  1.00  0.00    -0.206 F 
ATOM     78  C   UNL A   1      45.936  24.057  27.424  1.00  0.00     0.059 A 
ATOM     79  C   UNL A   1      45.189  25.506  25.624  1.00  0.00     0.059 A 
ATOM     80  F   UNL A   1      44.992  27.821  25.991  1.00  0.00    -0.206 F 
ATOM     81  C   UNL A   1      45.481  24.235  26.123  1.00  0.00     0.060 A 
BRANCH  81  82
ATOM     82  S   UNL A   1      45.386  22.769  25.096  1.00  0.00     0.124 S 
ATOM     83  O   UNL A   1      45.659  23.307  23.770  1.00  0.00    -0.237 OA
ATOM     84  O   UNL A   1      46.433  21.924  25.662  1.00  0.00    -0.237 OA
ATOM     85  O   UNL A   1      44.020  22.301  25.302  1.00  0.00    -0.744 OA
ENDBRANCH  81  82
ENDBRANCH  49  74
BRANCH  61  86
ATOM     86  C   UNL A   1      44.470  33.442  29.078  1.00  0.00     0.058 A 
ATOM     87  C   UNL A   1      44.366  33.825  27.730  1.00  0.00     0.135 A 
ATOM     88  C   UNL A   1      44.730  34.486  29.992  1.00  0.00     0.135 A 
ATOM     89  F   UNL A   1      43.899  32.990  26.789  1.00  0.00    -0.206 F 
ATOM     90  C   UNL A   1      44.723  35.092  27.296  1.00  0.00     0.059 A 
ATOM     91  C   UNL A   1      44.975  35.787  29.591  1.00  0.00     0.059 A 
ATOM     92  F   UNL A   1      44.763  34.289  31.318  1.00  0.00    -0.206 F 
ATOM     93  C   UNL A   1      45.055  36.058  28.237  1.00  0.00     0.060 A 
BRANCH  93  94
ATOM     94  S   UNL A   1      45.625  37.659  27.676  1.00  0.00     0.124 S 
ATOM     95  O   UNL A   1      44.383  38.423  27.700  1.00  0.00    -0.237 OA
ATOM     96  O   UNL A   1      46.610  38.016  28.693  1.00  0.00    -0.237 OA
ATOM     97  O   UNL A   1      46.171  37.379  26.352  1.00  0.00    -0.744 OA
ENDBRANCH  93  94
ENDBRANCH  61  86
ENDBRANCH  35  36
ENDBRANCH  28  30
ENDBRANCH  27  28
ENDBRANCH  26  27
ENDBRANCH   1  26
TORSDOF 17
ENDMDL
MODEL 3
REMARK VINA RESULT:     -13.1      5.400     10.149
REMARK SMILES Cc1ccc(N2C(=O)C[C@H](Sc3ccccc3C(=O)OCCOC(=O)c3ccc(-c4c5nc(c(-c6c(F)cc(S(=O)(=O)[O-])cc6F)c6ccc([nH]6)c(-c6c(F)cc(S(=O)(=O)[O-])cc6F)c6nc(c(-c7c(F)cc(S(=O)(=O)[O-])cc7F)c7ccc4[nH]7)C=C6)C=C5)cc3)C2=O)cc1
REMARK SMILES IDX 21 1 20 2 18 3 19 4 17 5 12 6 13 7 14 8 16 9 15 10 11 11
REMARK SMILES IDX 10 12 6 13 7 14 92 15 8 16 9 17 93 18 5 19 1 20 2 21 3 22
REMARK SMILES IDX 95 23 4 24 94 25 22 26 23 27 24 28 25 29 26 30 27 31 91 32
REMARK SMILES IDX 28 33 90 34 29 35 30 36 31 37 84 38 32 39 89 40 83 41 85 42
REMARK SMILES IDX 33 43 88 44 82 45 81 46 34 48 68 49 47 50 67 51 48 52 51 53
REMARK SMILES IDX 66 54 86 55 49 56 50 57 65 59 87 60 52 61 35 62 36 63 45 64
REMARK SMILES IDX 37 65 38 66 44 67 46 68 39 69 40 70 41 71 42 72 43 73 69 74
REMARK SMILES IDX 70 75 79 76 71 77 72 78 78 79 80 80 73 81 74 82 75 83 76 84
REMARK SMILES IDX 77 85 53 86 54 87 63 88 55 89 56 90 62 91 64 92 57 93 58 94
REMARK SMILES IDX 59 95 60 96 61 97
REMARK H PARENT 85 47 51 58
REMARK Flexibility Score: inf
ROOT
ATOM      1  C   UNL A   1      39.047  24.064  26.494  1.00  0.00     0.275 C 
ENDROOT
BRANCH   1   2
ATOM      2  O   UNL A   1      37.676  23.805  26.125  1.00  0.00    -0.458 OA
BRANCH   2   3
ATOM      3  C   UNL A   1      37.386  22.423  25.674  1.00  0.00     0.339 C 
ATOM      4  O   UNL A   1      38.568  21.961  25.645  1.00  0.00    -0.246 OA
BRANCH   3   5
ATOM      5  C   UNL A   1      35.471  21.462  25.315  1.00  0.00     0.073 A 
ATOM      6  C   UNL A   1      33.936  22.147  25.362  1.00  0.00     0.023 A 
ATOM      7  C   UNL A   1      32.682  21.485  25.164  1.00  0.00     0.016 A 
ATOM      8  C   UNL A   1      32.646  20.166  24.777  1.00  0.00     0.001 A 
ATOM      9  C   UNL A   1      35.113  20.059  24.908  1.00  0.00     0.017 A 
ATOM     10  C   UNL A   1      33.834  19.477  24.639  1.00  0.00     0.001 A 
BRANCH   6  11
ATOM     11  S   UNL A   1      33.231  24.028  25.949  1.00  0.00    -0.111 SA
BRANCH  11  12
ATOM     12  C   UNL A   1      33.231  25.424  24.510  1.00  0.00     0.151 C 
ATOM     13  N   UNL A   1      31.465  26.557  23.487  1.00  0.00    -0.250 N 
ATOM     14  C   UNL A   1      32.091  25.946  22.430  1.00  0.00     0.235 C 
ATOM     15  C   UNL A   1      32.062  26.355  24.714  1.00  0.00     0.247 C 
ATOM     16  O   UNL A   1      31.766  26.015  21.252  1.00  0.00    -0.274 OA
ATOM     17  C   UNL A   1      33.288  25.215  22.954  1.00  0.00     0.126 C 
ATOM     18  O   UNL A   1      31.755  26.882  25.776  1.00  0.00    -0.273 OA
BRANCH  13  19
ATOM     19  C   UNL A   1      30.506  27.547  23.265  1.00  0.00     0.052 A 
ATOM     20  C   UNL A   1      27.621  30.602  22.445  1.00  0.00     0.044 C 
ATOM     21  C   UNL A   1      28.620  29.520  22.713  1.00  0.00    -0.051 A 
ATOM     22  C   UNL A   1      29.982  29.779  22.515  1.00  0.00     0.005 A 
ATOM     23  C   UNL A   1      28.212  28.254  23.159  1.00  0.00     0.005 A 
ATOM     24  C   UNL A   1      30.923  28.792  22.784  1.00  0.00     0.027 A 
ATOM     25  C   UNL A   1      29.154  27.267  23.440  1.00  0.00     0.027 A 
ENDBRANCH  13  19
ENDBRANCH  11  12
ENDBRANCH   6  11
ENDBRANCH   3   5
ENDBRANCH   2   3
ENDBRANCH   1   2
BRANCH   1  26
ATOM     26  C   UNL A   1      39.145  25.261  27.464  1.00  0.00     0.275 C 
BRANCH  26  27
ATOM     27  O   UNL A   1      40.156  26.252  27.166  1.00  0.00    -0.458 OA
BRANCH  27  28
ATOM     28  C   UNL A   1      40.030  27.466  27.754  1.00  0.00     0.338 C 
ATOM     29  O   UNL A   1      39.611  28.507  27.291  1.00  0.00    -0.246 OA
BRANCH  28  30
ATOM     30  C   UNL A   1      40.335  27.246  29.168  1.00  0.00     0.060 A 
ATOM     31  C   UNL A   1      38.899  27.145  30.248  1.00  0.00     0.016 A 
ATOM     32  C   UNL A   1      41.784  28.078  29.732  1.00  0.00     0.016 A 
ATOM     33  C   UNL A   1      38.892  27.854  31.975  1.00  0.00     0.010 A 
ATOM     34  C   UNL A   1      41.759  28.892  31.345  1.00  0.00     0.010 A 
ATOM     35  C   UNL A   1      40.350  28.764  32.470  1.00  0.00    -0.014 A 
BRANCH  35  36
ATOM     36  C   UNL A   1      40.389  29.862  33.419  1.00  0.00     0.031 A 
ATOM     37  C   UNL A   1      41.131  29.543  34.664  1.00  0.00     0.074 A 
ATOM     38  C   UNL A   1      40.138  31.103  32.918  1.00  0.00     0.049 A 
ATOM     39  N   UNL A   1      41.214  30.324  35.668  1.00  0.00    -0.248 NA
ATOM     40  C   UNL A   1      41.840  28.280  34.938  1.00  0.00     0.031 C 
ATOM     41  C   UNL A   1      40.656  32.410  33.324  1.00  0.00     0.029 A 
ATOM     42  N   UNL A   1      39.202  31.441  31.931  1.00  0.00    -0.354 N 
ATOM     43  C   UNL A   1      42.276  29.899  36.445  1.00  0.00     0.074 A 
ATOM     44  C   UNL A   1      42.536  28.556  36.039  1.00  0.00     0.031 C 
ATOM     45  C   UNL A   1      39.866  33.385  32.831  1.00  0.00     0.029 A 
ATOM     46  C   UNL A   1      38.755  32.757  32.139  1.00  0.00     0.049 A 
ATOM     47  H   UNL A   1      38.904  30.847  31.204  1.00  0.00     0.167 HD
ATOM     48  C   UNL A   1      42.893  30.840  37.204  1.00  0.00     0.037 A 
ATOM     49  C   UNL A   1      37.447  32.967  32.475  1.00  0.00     0.037 A 
ATOM     50  C   UNL A   1      42.092  32.065  37.139  1.00  0.00     0.049 A 
ATOM     51  C   UNL A   1      37.252  33.161  33.953  1.00  0.00     0.074 A 
ATOM     52  C   UNL A   1      42.204  33.219  36.388  1.00  0.00     0.029 A 
ATOM     53  N   UNL A   1      40.768  31.990  37.555  1.00  0.00    -0.354 N 
ATOM     54  N   UNL A   1      38.199  32.905  34.814  1.00  0.00    -0.248 NA
ATOM     55  C   UNL A   1      36.053  33.701  34.591  1.00  0.00     0.031 C 
ATOM     56  C   UNL A   1      40.897  33.778  36.271  1.00  0.00     0.029 A 
ATOM     57  C   UNL A   1      40.000  32.966  36.952  1.00  0.00     0.049 A 
ATOM     58  H   UNL A   1      40.423  31.328  38.196  1.00  0.00     0.167 HD
ATOM     59  C   UNL A   1      37.776  33.201  36.071  1.00  0.00     0.074 A 
ATOM     60  C   UNL A   1      36.433  33.718  35.881  1.00  0.00     0.031 C 
ATOM     61  C   UNL A   1      38.557  32.984  37.166  1.00  0.00     0.037 A 
BRANCH  48  62
ATOM     62  C   UNL A   1      44.269  30.782  37.825  1.00  0.00     0.058 A 
ATOM     63  C   UNL A   1      44.413  31.202  39.166  1.00  0.00     0.135 A 
ATOM     64  C   UNL A   1      45.481  30.409  37.198  1.00  0.00     0.135 A 
ATOM     65  F   UNL A   1      43.359  31.599  39.893  1.00  0.00    -0.206 F 
ATOM     66  C   UNL A   1      45.634  31.244  39.831  1.00  0.00     0.059 A 
ATOM     67  C   UNL A   1      46.720  30.425  37.853  1.00  0.00     0.059 A 
ATOM     68  F   UNL A   1      45.540  30.024  35.920  1.00  0.00    -0.206 F 
ATOM     69  C   UNL A   1      46.784  30.840  39.172  1.00  0.00     0.060 A 
BRANCH  69  70
ATOM     70  S   UNL A   1      48.333  30.843  40.087  1.00  0.00     0.124 S 
ATOM     71  O   UNL A   1      47.884  30.562  41.447  1.00  0.00    -0.237 OA
ATOM     72  O   UNL A   1      49.073  29.771  39.427  1.00  0.00    -0.237 OA
ATOM     73  O   UNL A   1      48.856  32.188  39.869  1.00  0.00    -0.744 OA
ENDBRANCH  69  70
ENDBRANCH  48  62
BRANCH  49  74
ATOM     74  C   UNL A   1      36.537  32.330  31.500  1.00  0.00     0.058 A 
ATOM     75  C   UNL A   1      36.406  33.004  30.272  1.00  0.00     0.135 A 
ATOM     76  C   UNL A   1      36.225  30.964  31.535  1.00  0.00     0.135 A 
ATOM     77  F   UNL A   1      36.680  34.317  30.193  1.00  0.00    -0.206 F 
ATOM     78  C   UNL A   1      36.092  32.337  29.101  1.00  0.00     0.059 A 
ATOM     79  C   UNL A   1      35.877  30.277  30.369  1.00  0.00     0.059 A 
ATOM     80  F   UNL A   1      36.363  30.263  32.670  1.00  0.00    -0.206 F 
ATOM     81  C   UNL A   1      35.815  30.976  29.162  1.00  0.00     0.060 A 
BRANCH  81  82
ATOM     82  S   UNL A   1      35.282  30.194  27.639  1.00  0.00     0.124 S 
ATOM     83  O   UNL A   1      34.362  31.184  27.094  1.00  0.00    -0.237 OA
ATOM     84  O   UNL A   1      36.539  30.033  26.915  1.00  0.00    -0.237 OA
ATOM     85  O   UNL A   1      34.657  28.958  28.097  1.00  0.00    -0.744 OA
ENDBRANCH  81  82
ENDBRANCH  49  74
BRANCH  61  86
ATOM     86  C   UNL A   1      37.986  32.865  38.550  1.00  0.00     0.058 A 
ATOM     87  C   UNL A   1      37.238  31.753  38.976  1.00  0.00     0.135 A 
ATOM     88  C   UNL A   1      38.252  33.838  39.537  1.00  0.00     0.135 A 
ATOM     89  F   UNL A   1      37.106  30.653  38.219  1.00  0.00    -0.206 F 
ATOM     90  C   UNL A   1      36.608  31.721  40.211  1.00  0.00     0.059 A 
ATOM     91  C   UNL A   1      37.729  33.768  40.816  1.00  0.00     0.059 A 
ATOM     92  F   UNL A   1      39.030  34.904  39.303  1.00  0.00    -0.206 F 
ATOM     93  C   UNL A   1      36.839  32.752  41.112  1.00  0.00     0.060 A 
BRANCH  93  94
ATOM     94  S   UNL A   1      35.940  32.771  42.660  1.00  0.00     0.124 S 
ATOM     95  O   UNL A   1      36.920  32.173  43.561  1.00  0.00    -0.237 OA
ATOM     96  O   UNL A   1      35.683  34.194  42.856  1.00  0.00    -0.237 OA
ATOM     97  O   UNL A   1      34.762  31.958  42.377  1.00  0.00    -0.744 OA
ENDBRANCH  93  94
ENDBRANCH  61  86
ENDBRANCH  35  36
ENDBRANCH  28  30
ENDBRANCH  27  28
ENDBRANCH  26  27
ENDBRANCH   1  26
TORSDOF 17
ENDMDL
