MODEL 1
REMARK VINA RESULT:     -13.4      0.000      0.000
REMARK SMILES Cc1ccc(-c2cc(Cl)ccc2Cl)c(C(=O)OCCOC(=O)c2ccc(-c3c4nc(c(-c5c(F)cc(S(=O)(=O)[O-])cc5F)c5ccc([nH]5)c(-c5c(F)cc(S(=O)(=O)[O-])cc5F)c5nc(c(-c6c(F)cc(S(=O)(=O)[O-])cc6F)c6ccc3[nH]6)C=C5)C=C4)cc2)c1
REMARK SMILES IDX 19 1 18 2 17 3 15 4 16 5 14 6 1 7 2 8 3 9 89 10 4 11 5 12
REMARK SMILES IDX 6 13 7 14 12 15 8 16 11 17 13 18 9 19 10 20 20 21 21 22
REMARK SMILES IDX 22 23 23 24 24 25 88 26 25 27 87 28 26 29 27 30 28 31 81 32
REMARK SMILES IDX 29 33 86 34 80 35 82 36 30 37 85 38 79 39 78 40 31 42 65 43
REMARK SMILES IDX 44 44 64 45 45 46 48 47 63 48 83 49 46 50 47 51 62 53 84 54
REMARK SMILES IDX 49 55 32 56 33 57 42 58 34 59 35 60 41 61 43 62 36 63 37 64
REMARK SMILES IDX 38 65 39 66 40 67 66 68 67 69 76 70 68 71 69 72 75 73 77 74
REMARK SMILES IDX 70 75 71 76 72 77 73 78 74 79 50 80 51 81 60 82 52 83 53 84
REMARK SMILES IDX 59 85 61 86 54 87 55 88 56 89 57 90 58 91
REMARK H PARENT 82 41 48 52
REMARK Flexibility Score: inf
ROOT
ATOM      1  C   UNL A   1      33.956  30.456  27.279  1.00  0.00     0.275 C 
ENDROOT
BRANCH   1   2
ATOM      2  C   UNL A   1      32.711  29.729  26.724  1.00  0.00     0.275 C 
BRANCH   2   3
ATOM      3  O   UNL A   1      32.588  28.324  27.090  1.00  0.00    -0.458 OA
BRANCH   3   4
ATOM      4  C   UNL A   1      31.695  27.650  26.309  1.00  0.00     0.338 C 
ATOM      5  O   UNL A   1      30.844  26.890  26.761  1.00  0.00    -0.246 OA
BRANCH   4   6
ATOM      6  C   UNL A   1      32.000  27.506  24.865  1.00  0.00     0.068 A 
ATOM      7  C   UNL A   1      34.353  24.794  23.554  1.00  0.00     0.044 C 
ATOM      8  C   UNL A   1      33.354  25.907  23.568  1.00  0.00    -0.050 A 
ATOM      9  C   UNL A   1      32.628  26.226  22.433  1.00  0.00     0.004 A 
ATOM     10  C   UNL A   1      33.083  26.597  24.747  1.00  0.00     0.019 A 
ATOM     11  C   UNL A   1      31.610  27.173  22.507  1.00  0.00     0.010 A 
ATOM     12  C   UNL A   1      31.205  27.789  23.723  1.00  0.00    -0.002 A 
BRANCH  12  13
ATOM     13  C   UNL A   1      29.962  28.599  23.577  1.00  0.00     0.003 A 
ATOM     14  C   UNL A   1      30.035  29.970  23.264  1.00  0.00     0.030 A 
ATOM     15  C   UNL A   1      28.669  27.999  23.500  1.00  0.00     0.049 A 
ATOM     16  C   UNL A   1      28.891  30.688  22.871  1.00  0.00     0.041 A 
ATOM     17  C   UNL A   1      27.533  28.721  23.098  1.00  0.00     0.023 A 
ATOM     18  Cl  UNL A   1      28.400  26.326  23.883  1.00  0.00    -0.084 Cl
ATOM     19  Cl  UNL A   1      29.022  32.362  22.470  1.00  0.00    -0.084 Cl
ATOM     20  C   UNL A   1      27.647  30.066  22.771  1.00  0.00     0.022 A 
ENDBRANCH  12  13
ENDBRANCH   4   6
ENDBRANCH   3   4
ENDBRANCH   2   3
ENDBRANCH   1   2
BRANCH   1  21
ATOM     21  O   UNL A   1      35.130  29.700  27.643  1.00  0.00    -0.458 OA
BRANCH  21  22
ATOM     22  C   UNL A   1      36.303  30.373  27.665  1.00  0.00     0.338 C 
ATOM     23  O   UNL A   1      36.359  31.601  27.726  1.00  0.00    -0.246 OA
BRANCH  22  24
ATOM     24  C   UNL A   1      37.407  29.413  27.909  1.00  0.00     0.060 A 
ATOM     25  C   UNL A   1      38.565  29.514  27.129  1.00  0.00     0.016 A 
ATOM     26  C   UNL A   1      37.404  28.642  29.069  1.00  0.00     0.016 A 
ATOM     27  C   UNL A   1      39.759  28.940  27.528  1.00  0.00     0.010 A 
ATOM     28  C   UNL A   1      38.596  28.139  29.520  1.00  0.00     0.010 A 
ATOM     29  C   UNL A   1      39.758  28.280  28.739  1.00  0.00    -0.014 A 
BRANCH  29  30
ATOM     30  C   UNL A   1      40.866  27.480  29.197  1.00  0.00     0.031 A 
ATOM     31  C   UNL A   1      41.024  26.073  28.789  1.00  0.00     0.074 A 
ATOM     32  C   UNL A   1      41.796  28.275  29.766  1.00  0.00     0.049 A 
ATOM     33  N   UNL A   1      41.979  25.318  29.199  1.00  0.00    -0.248 NA
ATOM     34  C   UNL A   1      40.097  25.350  27.922  1.00  0.00     0.031 C 
ATOM     35  C   UNL A   1      43.232  28.126  29.855  1.00  0.00     0.029 A 
ATOM     36  N   UNL A   1      41.578  29.472  30.432  1.00  0.00    -0.354 N 
ATOM     37  C   UNL A   1      42.014  24.203  28.381  1.00  0.00     0.074 A 
ATOM     38  C   UNL A   1      40.735  24.188  27.730  1.00  0.00     0.031 C 
ATOM     39  C   UNL A   1      43.698  29.006  30.767  1.00  0.00     0.029 A 
ATOM     40  C   UNL A   1      42.545  29.628  31.409  1.00  0.00     0.049 A 
ATOM     41  H   UNL A   1      40.851  30.108  30.241  1.00  0.00     0.167 HD
ATOM     42  C   UNL A   1      43.213  23.566  28.241  1.00  0.00     0.037 A 
ATOM     43  C   UNL A   1      42.202  29.428  32.721  1.00  0.00     0.037 A 
ATOM     44  C   UNL A   1      44.152  24.136  29.208  1.00  0.00     0.049 A 
ATOM     45  C   UNL A   1      42.800  28.152  33.250  1.00  0.00     0.074 A 
ATOM     46  C   UNL A   1      45.094  25.143  29.090  1.00  0.00     0.029 A 
ATOM     47  N   UNL A   1      43.897  23.979  30.566  1.00  0.00    -0.354 N 
ATOM     48  N   UNL A   1      43.030  27.090  32.525  1.00  0.00    -0.248 NA
ATOM     49  C   UNL A   1      43.324  28.043  34.606  1.00  0.00     0.031 C 
ATOM     50  C   UNL A   1      45.304  25.680  30.389  1.00  0.00     0.029 A 
ATOM     51  C   UNL A   1      44.502  24.992  31.288  1.00  0.00     0.049 A 
ATOM     52  H   UNL A   1      43.365  23.250  30.958  1.00  0.00     0.167 HD
ATOM     53  C   UNL A   1      43.805  26.221  33.241  1.00  0.00     0.074 A 
ATOM     54  C   UNL A   1      43.945  26.855  34.544  1.00  0.00     0.031 C 
ATOM     55  C   UNL A   1      44.336  25.070  32.730  1.00  0.00     0.037 A 
BRANCH  42  56
ATOM     56  C   UNL A   1      43.669  22.667  27.100  1.00  0.00     0.058 A 
ATOM     57  C   UNL A   1      42.994  21.440  26.880  1.00  0.00     0.135 A 
ATOM     58  C   UNL A   1      44.783  22.869  26.258  1.00  0.00     0.135 A 
ATOM     59  F   UNL A   1      41.893  21.113  27.572  1.00  0.00    -0.206 F 
ATOM     60  C   UNL A   1      43.418  20.479  25.959  1.00  0.00     0.059 A 
ATOM     61  C   UNL A   1      45.219  21.925  25.317  1.00  0.00     0.059 A 
ATOM     62  F   UNL A   1      45.515  23.986  26.300  1.00  0.00    -0.206 F 
ATOM     63  C   UNL A   1      44.541  20.723  25.184  1.00  0.00     0.060 A 
BRANCH  63  64
ATOM     64  S   UNL A   1      45.072  19.467  24.006  1.00  0.00     0.124 S 
ATOM     65  O   UNL A   1      44.437  18.265  24.537  1.00  0.00    -0.237 OA
ATOM     66  O   UNL A   1      44.528  19.971  22.750  1.00  0.00    -0.237 OA
ATOM     67  O   UNL A   1      46.529  19.497  24.109  1.00  0.00    -0.744 OA
ENDBRANCH  63  64
ENDBRANCH  42  56
BRANCH  43  68
ATOM     68  C   UNL A   1      40.883  30.033  33.087  1.00  0.00     0.058 A 
ATOM     69  C   UNL A   1      40.867  31.440  33.124  1.00  0.00     0.135 A 
ATOM     70  C   UNL A   1      39.672  29.381  32.801  1.00  0.00     0.135 A 
ATOM     71  F   UNL A   1      41.980  32.113  33.453  1.00  0.00    -0.206 F 
ATOM     72  C   UNL A   1      39.794  32.167  32.633  1.00  0.00     0.059 A 
ATOM     73  C   UNL A   1      38.577  30.100  32.309  1.00  0.00     0.059 A 
ATOM     74  F   UNL A   1      39.597  28.043  32.820  1.00  0.00    -0.206 F 
ATOM     75  C   UNL A   1      38.690  31.482  32.142  1.00  0.00     0.060 A 
BRANCH  75  76
ATOM     76  S   UNL A   1      37.569  32.427  31.085  1.00  0.00     0.124 S 
ATOM     77  O   UNL A   1      37.380  33.651  31.853  1.00  0.00    -0.237 OA
ATOM     78  O   UNL A   1      38.350  32.547  29.857  1.00  0.00    -0.237 OA
ATOM     79  O   UNL A   1      36.405  31.566  30.994  1.00  0.00    -0.744 OA
ENDBRANCH  75  76
ENDBRANCH  43  68
BRANCH  55  80
ATOM     80  C   UNL A   1      44.882  23.957  33.581  1.00  0.00     0.058 A 
ATOM     81  C   UNL A   1      46.223  23.898  33.993  1.00  0.00     0.135 A 
ATOM     82  C   UNL A   1      44.028  22.969  34.127  1.00  0.00     0.135 A 
ATOM     83  F   UNL A   1      47.095  24.873  33.697  1.00  0.00    -0.206 F 
ATOM     84  C   UNL A   1      46.718  22.849  34.757  1.00  0.00     0.059 A 
ATOM     85  C   UNL A   1      44.484  21.961  34.964  1.00  0.00     0.059 A 
ATOM     86  F   UNL A   1      42.710  22.954  33.877  1.00  0.00    -0.206 F 
ATOM     87  C   UNL A   1      45.843  21.878  35.225  1.00  0.00     0.060 A 
BRANCH  87  88
ATOM     88  S   UNL A   1      46.492  20.514  36.194  1.00  0.00     0.124 S 
ATOM     89  O   UNL A   1      47.917  20.602  35.889  1.00  0.00    -0.237 OA
ATOM     90  O   UNL A   1      46.114  20.881  37.556  1.00  0.00    -0.237 OA
ATOM     91  O   UNL A   1      45.799  19.351  35.650  1.00  0.00    -0.744 OA
ENDBRANCH  87  88
ENDBRANCH  55  80
ENDBRANCH  29  30
ENDBRANCH  22  24
ENDBRANCH  21  22
ENDBRANCH   1  21
TORSDOF 15
ENDMDL
MODEL 2
REMARK VINA RESULT:     -13.3      1.355      2.710
REMARK SMILES Cc1ccc(-c2cc(Cl)ccc2Cl)c(C(=O)OCCOC(=O)c2ccc(-c3c4nc(c(-c5c(F)cc(S(=O)(=O)[O-])cc5F)c5ccc([nH]5)c(-c5c(F)cc(S(=O)(=O)[O-])cc5F)c5nc(c(-c6c(F)cc(S(=O)(=O)[O-])cc6F)c6ccc3[nH]6)C=C5)C=C4)cc2)c1
REMARK SMILES IDX 19 1 18 2 17 3 15 4 16 5 14 6 1 7 2 8 3 9 89 10 4 11 5 12
REMARK SMILES IDX 6 13 7 14 12 15 8 16 11 17 13 18 9 19 10 20 20 21 21 22
REMARK SMILES IDX 22 23 23 24 24 25 88 26 25 27 87 28 26 29 27 30 28 31 81 32
REMARK SMILES IDX 29 33 86 34 80 35 82 36 30 37 85 38 79 39 78 40 31 42 65 43
REMARK SMILES IDX 44 44 64 45 45 46 48 47 63 48 83 49 46 50 47 51 62 53 84 54
REMARK SMILES IDX 49 55 32 56 33 57 42 58 34 59 35 60 41 61 43 62 36 63 37 64
REMARK SMILES IDX 38 65 39 66 40 67 66 68 67 69 76 70 68 71 69 72 75 73 77 74
REMARK SMILES IDX 70 75 71 76 72 77 73 78 74 79 50 80 51 81 60 82 52 83 53 84
REMARK SMILES IDX 59 85 61 86 54 87 55 88 56 89 57 90 58 91
REMARK H PARENT 82 41 48 52
REMARK Flexibility Score: inf
ROOT
ATOM      1  C   UNL A   1      34.144  30.649  27.651  1.00  0.00     0.275 C 
ENDROOT
BRANCH   1   2
ATOM      2  C   UNL A   1      32.850  29.939  27.196  1.00  0.00     0.275 C 
BRANCH   2   3
ATOM      3  O   UNL A   1      33.029  28.610  26.626  1.00  0.00    -0.458 OA
BRANCH   3   4
ATOM      4  C   UNL A   1      31.877  27.879  26.615  1.00  0.00     0.338 C 
ATOM      5  O   UNL A   1      31.326  27.476  27.635  1.00  0.00    -0.246 OA
BRANCH   4   6
ATOM      6  C   UNL A   1      31.488  27.207  25.352  1.00  0.00     0.068 A 
ATOM      7  C   UNL A   1      30.331  29.172  22.284  1.00  0.00     0.044 C 
ATOM      8  C   UNL A   1      30.773  28.029  23.142  1.00  0.00    -0.050 A 
ATOM      9  C   UNL A   1      31.161  26.825  22.578  1.00  0.00     0.004 A 
ATOM     10  C   UNL A   1      30.873  28.180  24.523  1.00  0.00     0.019 A 
ATOM     11  C   UNL A   1      31.696  25.825  23.385  1.00  0.00     0.010 A 
ATOM     12  C   UNL A   1      31.952  25.997  24.773  1.00  0.00    -0.002 A 
BRANCH  12  13
ATOM     13  C   UNL A   1      32.721  24.864  25.366  1.00  0.00     0.003 A 
ATOM     14  C   UNL A   1      34.122  24.808  25.243  1.00  0.00     0.030 A 
ATOM     15  C   UNL A   1      32.126  23.936  26.273  1.00  0.00     0.049 A 
ATOM     16  C   UNL A   1      34.884  23.902  26.002  1.00  0.00     0.041 A 
ATOM     17  C   UNL A   1      32.894  23.040  27.034  1.00  0.00     0.023 A 
ATOM     18  Cl  UNL A   1      30.408  23.851  26.519  1.00  0.00    -0.084 Cl
ATOM     19  Cl  UNL A   1      36.602  23.879  25.845  1.00  0.00    -0.084 Cl
ATOM     20  C   UNL A   1      34.278  23.032  26.907  1.00  0.00     0.022 A 
ENDBRANCH  12  13
ENDBRANCH   4   6
ENDBRANCH   3   4
ENDBRANCH   2   3
ENDBRANCH   1   2
BRANCH   1  21
ATOM     21  O   UNL A   1      35.320  29.875  27.967  1.00  0.00    -0.458 OA
BRANCH  21  22
ATOM     22  C   UNL A   1      36.511  30.502  27.843  1.00  0.00     0.338 C 
ATOM     23  O   UNL A   1      36.614  31.727  27.811  1.00  0.00    -0.246 OA
BRANCH  22  24
ATOM     24  C   UNL A   1      37.600  29.518  28.062  1.00  0.00     0.060 A 
ATOM     25  C   UNL A   1      38.758  29.618  27.281  1.00  0.00     0.016 A 
ATOM     26  C   UNL A   1      37.587  28.721  29.203  1.00  0.00     0.016 A 
ATOM     27  C   UNL A   1      39.943  29.015  27.662  1.00  0.00     0.010 A 
ATOM     28  C   UNL A   1      38.772  28.188  29.639  1.00  0.00     0.010 A 
ATOM     29  C   UNL A   1      39.934  28.327  28.858  1.00  0.00    -0.014 A 
BRANCH  29  30
ATOM     30  C   UNL A   1      41.030  27.499  29.294  1.00  0.00     0.031 A 
ATOM     31  C   UNL A   1      41.149  26.091  28.875  1.00  0.00     0.074 A 
ATOM     32  C   UNL A   1      41.987  28.267  29.854  1.00  0.00     0.049 A 
ATOM     33  N   UNL A   1      42.092  25.312  29.266  1.00  0.00    -0.248 NA
ATOM     34  C   UNL A   1      40.193  25.396  28.017  1.00  0.00     0.031 C 
ATOM     35  C   UNL A   1      43.420  28.086  29.921  1.00  0.00     0.029 A 
ATOM     36  N   UNL A   1      41.807  29.465  30.531  1.00  0.00    -0.354 N 
ATOM     37  C   UNL A   1      42.089  24.202  28.440  1.00  0.00     0.074 A 
ATOM     38  C   UNL A   1      40.800  24.221  27.808  1.00  0.00     0.031 C 
ATOM     39  C   UNL A   1      43.920  28.948  30.831  1.00  0.00     0.029 A 
ATOM     40  C   UNL A   1      42.792  29.592  31.494  1.00  0.00     0.049 A 
ATOM     41  H   UNL A   1      41.092  30.119  30.355  1.00  0.00     0.167 HD
ATOM     42  C   UNL A   1      43.270  23.538  28.278  1.00  0.00     0.037 A 
ATOM     43  C   UNL A   1      42.464  29.392  32.810  1.00  0.00     0.037 A 
ATOM     44  C   UNL A   1      44.237  24.079  29.235  1.00  0.00     0.049 A 
ATOM     45  C   UNL A   1      43.039  28.099  33.322  1.00  0.00     0.074 A 
ATOM     46  C   UNL A   1      45.201  25.065  29.108  1.00  0.00     0.029 A 
ATOM     47  N   UNL A   1      43.999  23.919  30.595  1.00  0.00    -0.354 N 
ATOM     48  N   UNL A   1      43.234  27.036  32.586  1.00  0.00    -0.248 NA
ATOM     49  C   UNL A   1      43.581  27.968  34.669  1.00  0.00     0.031 C 
ATOM     50  C   UNL A   1      45.442  25.588  30.408  1.00  0.00     0.029 A 
ATOM     51  C   UNL A   1      44.638  24.913  31.314  1.00  0.00     0.049 A 
ATOM     52  H   UNL A   1      43.456  23.200  30.990  1.00  0.00     0.167 HD
ATOM     53  C   UNL A   1      43.999  26.144  33.285  1.00  0.00     0.074 A 
ATOM     54  C   UNL A   1      44.173  26.766  34.590  1.00  0.00     0.031 C 
ATOM     55  C   UNL A   1      44.496  24.985  32.759  1.00  0.00     0.037 A 
BRANCH  42  56
ATOM     56  C   UNL A   1      43.688  22.636  27.125  1.00  0.00     0.058 A 
ATOM     57  C   UNL A   1      43.009  21.406  26.933  1.00  0.00     0.135 A 
ATOM     58  C   UNL A   1      44.771  22.838  26.243  1.00  0.00     0.135 A 
ATOM     59  F   UNL A   1      41.934  21.079  27.664  1.00  0.00    -0.206 F 
ATOM     60  C   UNL A   1      43.403  20.444  26.000  1.00  0.00     0.059 A 
ATOM     61  C   UNL A   1      45.176  21.892  25.290  1.00  0.00     0.059 A 
ATOM     62  F   UNL A   1      45.501  23.957  26.256  1.00  0.00    -0.206 F 
ATOM     63  C   UNL A   1      44.497  20.688  25.186  1.00  0.00     0.060 A 
BRANCH  63  64
ATOM     64  S   UNL A   1      44.989  19.429  23.994  1.00  0.00     0.124 S 
ATOM     65  O   UNL A   1      44.528  20.005  22.735  1.00  0.00    -0.237 OA
ATOM     66  O   UNL A   1      46.435  19.379  24.177  1.00  0.00    -0.237 OA
ATOM     67  O   UNL A   1      44.266  18.239  24.435  1.00  0.00    -0.744 OA
ENDBRANCH  63  64
ENDBRANCH  42  56
BRANCH  43  68
ATOM     68  C   UNL A   1      41.165  30.024  33.200  1.00  0.00     0.058 A 
ATOM     69  C   UNL A   1      41.180  31.431  33.235  1.00  0.00     0.135 A 
ATOM     70  C   UNL A   1      39.935  29.399  32.937  1.00  0.00     0.135 A 
ATOM     71  F   UNL A   1      42.313  32.081  33.543  1.00  0.00    -0.206 F 
ATOM     72  C   UNL A   1      40.113  32.181  32.763  1.00  0.00     0.059 A 
ATOM     73  C   UNL A   1      38.847  30.140  32.464  1.00  0.00     0.059 A 
ATOM     74  F   UNL A   1      39.832  28.062  32.958  1.00  0.00    -0.206 F 
ATOM     75  C   UNL A   1      38.986  31.520  32.293  1.00  0.00     0.060 A 
BRANCH  75  76
ATOM     76  S   UNL A   1      37.866  32.487  31.257  1.00  0.00     0.124 S 
ATOM     77  O   UNL A   1      37.676  33.694  32.052  1.00  0.00    -0.237 OA
ATOM     78  O   UNL A   1      38.649  32.634  30.033  1.00  0.00    -0.237 OA
ATOM     79  O   UNL A   1      36.702  31.629  31.145  1.00  0.00    -0.744 OA
ENDBRANCH  75  76
ENDBRANCH  43  68
BRANCH  55  80
ATOM     80  C   UNL A   1      45.028  23.854  33.595  1.00  0.00     0.058 A 
ATOM     81  C   UNL A   1      46.361  23.790  34.033  1.00  0.00     0.135 A 
ATOM     82  C   UNL A   1      44.166  22.850  34.098  1.00  0.00     0.135 A 
ATOM     83  F   UNL A   1      47.234  24.775  33.779  1.00  0.00    -0.206 F 
ATOM     84  C   UNL A   1      46.843  22.725  34.782  1.00  0.00     0.059 A 
ATOM     85  C   UNL A   1      44.609  21.825  34.921  1.00  0.00     0.059 A 
ATOM     86  F   UNL A   1      42.854  22.836  33.821  1.00  0.00    -0.206 F 
ATOM     87  C   UNL A   1      45.963  21.739  35.209  1.00  0.00     0.060 A 
BRANCH  87  88
ATOM     88  S   UNL A   1      46.597  20.355  36.158  1.00  0.00     0.124 S 
ATOM     89  O   UNL A   1      45.945  19.231  35.491  1.00  0.00    -0.237 OA
ATOM     90  O   UNL A   1      48.039  20.461  35.952  1.00  0.00    -0.237 OA
ATOM     91  O   UNL A   1      46.142  20.637  37.515  1.00  0.00    -0.744 OA
ENDBRANCH  87  88
ENDBRANCH  55  80
ENDBRANCH  29  30
ENDBRANCH  22  24
ENDBRANCH  21  22
ENDBRANCH   1  21
TORSDOF 15
ENDMDL
MODEL 3
REMARK VINA RESULT:     -13.0      5.353     11.493
REMARK SMILES Cc1ccc(-c2cc(Cl)ccc2Cl)c(C(=O)OCCOC(=O)c2ccc(-c3c4nc(c(-c5c(F)cc(S(=O)(=O)[O-])cc5F)c5ccc([nH]5)c(-c5c(F)cc(S(=O)(=O)[O-])cc5F)c5nc(c(-c6c(F)cc(S(=O)(=O)[O-])cc6F)c6ccc3[nH]6)C=C5)C=C4)cc2)c1
REMARK SMILES IDX 19 1 18 2 17 3 15 4 16 5 14 6 1 7 2 8 3 9 89 10 4 11 5 12
REMARK SMILES IDX 6 13 7 14 12 15 8 16 11 17 13 18 9 19 10 20 20 21 21 22
REMARK SMILES IDX 22 23 23 24 24 25 88 26 25 27 87 28 26 29 27 30 28 31 81 32
REMARK SMILES IDX 29 33 86 34 80 35 82 36 30 37 85 38 79 39 78 40 31 42 65 43
REMARK SMILES IDX 44 44 64 45 45 46 48 47 63 48 83 49 46 50 47 51 62 53 84 54
REMARK SMILES IDX 49 55 32 56 33 57 42 58 34 59 35 60 41 61 43 62 36 63 37 64
REMARK SMILES IDX 38 65 39 66 40 67 66 68 67 69 76 70 68 71 69 72 75 73 77 74
REMARK SMILES IDX 70 75 71 76 72 77 73 78 74 79 50 80 51 81 60 82 52 83 53 84
REMARK SMILES IDX 59 85 61 86 54 87 55 88 56 89 57 90 58 91
REMARK H PARENT 82 41 48 52
REMARK Flexibility Score: inf
ROOT
ATOM      1  C   UNL A   1      38.501  22.493  25.991  1.00  0.00     0.275 C 
ENDROOT
BRANCH   1   2
ATOM      2  C   UNL A   1      37.384  22.079  25.007  1.00  0.00     0.275 C 
BRANCH   2   3
ATOM      3  O   UNL A   1      36.625  20.892  25.380  1.00  0.00    -0.458 OA
BRANCH   3   4
ATOM      4  C   UNL A   1      35.291  21.143  25.527  1.00  0.00     0.338 C 
ATOM      5  O   UNL A   1      34.794  21.548  26.573  1.00  0.00    -0.246 OA
BRANCH   4   6
ATOM      6  C   UNL A   1      34.355  20.537  24.549  1.00  0.00     0.068 A 
ATOM      7  C   UNL A   1      33.628  16.785  24.497  1.00  0.00     0.044 C 
ATOM      8  C   UNL A   1      33.528  18.245  24.187  1.00  0.00    -0.050 A 
ATOM      9  C   UNL A   1      32.427  18.757  23.522  1.00  0.00     0.004 A 
ATOM     10  C   UNL A   1      34.510  19.129  24.627  1.00  0.00     0.019 A 
ATOM     11  C   UNL A   1      32.292  20.134  23.366  1.00  0.00     0.010 A 
ATOM     12  C   UNL A   1      33.196  21.075  23.931  1.00  0.00    -0.002 A 
BRANCH  12  13
ATOM     13  C   UNL A   1      32.722  22.483  23.805  1.00  0.00     0.003 A 
ATOM     14  C   UNL A   1      33.068  23.257  22.681  1.00  0.00     0.030 A 
ATOM     15  C   UNL A   1      31.719  23.026  24.664  1.00  0.00     0.049 A 
ATOM     16  C   UNL A   1      32.429  24.482  22.416  1.00  0.00     0.041 A 
ATOM     17  C   UNL A   1      31.080  24.246  24.389  1.00  0.00     0.023 A 
ATOM     18  Cl  UNL A   1      31.199  22.213  26.109  1.00  0.00    -0.084 Cl
ATOM     19  Cl  UNL A   1      32.861  25.392  21.015  1.00  0.00    -0.084 Cl
ATOM     20  C   UNL A   1      31.428  24.970  23.255  1.00  0.00     0.022 A 
ENDBRANCH  12  13
ENDBRANCH   4   6
ENDBRANCH   3   4
ENDBRANCH   2   3
ENDBRANCH   1   2
BRANCH   1  21
ATOM     21  O   UNL A   1      38.350  23.680  26.796  1.00  0.00    -0.458 OA
BRANCH  21  22
ATOM     22  C   UNL A   1      39.366  23.978  27.637  1.00  0.00     0.338 C 
ATOM     23  O   UNL A   1      40.299  23.203  27.846  1.00  0.00    -0.246 OA
BRANCH  22  24
ATOM     24  C   UNL A   1      39.308  25.421  27.974  1.00  0.00     0.060 A 
ATOM     25  C   UNL A   1      38.900  25.791  29.261  1.00  0.00     0.016 A 
ATOM     26  C   UNL A   1      39.924  26.348  27.137  1.00  0.00     0.016 A 
ATOM     27  C   UNL A   1      39.178  27.043  29.778  1.00  0.00     0.010 A 
ATOM     28  C   UNL A   1      40.280  27.562  27.661  1.00  0.00     0.010 A 
ATOM     29  C   UNL A   1      39.892  27.904  28.970  1.00  0.00    -0.014 A 
BRANCH  29  30
ATOM     30  C   UNL A   1      40.096  29.294  29.292  1.00  0.00     0.031 A 
ATOM     31  C   UNL A   1      39.038  30.299  29.084  1.00  0.00     0.074 A 
ATOM     32  C   UNL A   1      41.218  29.431  30.028  1.00  0.00     0.049 A 
ATOM     33  N   UNL A   1      39.189  31.550  29.328  1.00  0.00    -0.248 NA
ATOM     34  C   UNL A   1      37.718  30.012  28.528  1.00  0.00     0.031 C 
ATOM     35  C   UNL A   1      41.567  30.405  31.038  1.00  0.00     0.029 A 
ATOM     36  N   UNL A   1      42.352  28.633  29.980  1.00  0.00    -0.354 N 
ATOM     37  C   UNL A   1      37.934  32.131  29.344  1.00  0.00     0.074 A 
ATOM     38  C   UNL A   1      37.086  31.184  28.676  1.00  0.00     0.031 C 
ATOM     39  C   UNL A   1      42.893  30.322  31.275  1.00  0.00     0.029 A 
ATOM     40  C   UNL A   1      43.459  29.401  30.295  1.00  0.00     0.049 A 
ATOM     41  H   UNL A   1      42.367  27.675  29.755  1.00  0.00     0.167 HD
ATOM     42  C   UNL A   1      37.772  33.255  30.100  1.00  0.00     0.037 A 
ATOM     43  C   UNL A   1      44.310  29.783  29.291  1.00  0.00     0.037 A 
ATOM     44  C   UNL A   1      39.091  33.696  30.556  1.00  0.00     0.049 A 
ATOM     45  C   UNL A   1      44.182  31.254  29.000  1.00  0.00     0.074 A 
ATOM     46  C   UNL A   1      39.784  33.455  31.730  1.00  0.00     0.029 A 
ATOM     47  N   UNL A   1      40.025  34.112  29.614  1.00  0.00    -0.354 N 
ATOM     48  N   UNL A   1      43.078  31.939  29.140  1.00  0.00    -0.248 NA
ATOM     49  C   UNL A   1      45.335  32.087  28.680  1.00  0.00     0.031 C 
ATOM     50  C   UNL A   1      41.168  33.606  31.441  1.00  0.00     0.029 A 
ATOM     51  C   UNL A   1      41.308  33.947  30.104  1.00  0.00     0.049 A 
ATOM     52  H   UNL A   1      39.804  34.475  28.726  1.00  0.00     0.167 HD
ATOM     53  C   UNL A   1      43.366  33.272  29.047  1.00  0.00     0.074 A 
ATOM     54  C   UNL A   1      44.788  33.311  28.739  1.00  0.00     0.031 C 
ATOM     55  C   UNL A   1      42.459  34.269  29.278  1.00  0.00     0.037 A 
BRANCH  42  56
ATOM     56  C   UNL A   1      36.483  33.813  30.686  1.00  0.00     0.058 A 
ATOM     57  C   UNL A   1      35.481  34.298  29.807  1.00  0.00     0.135 A 
ATOM     58  C   UNL A   1      36.186  33.998  32.053  1.00  0.00     0.135 A 
ATOM     59  F   UNL A   1      35.593  34.164  28.478  1.00  0.00    -0.206 F 
ATOM     60  C   UNL A   1      34.328  34.958  30.239  1.00  0.00     0.059 A 
ATOM     61  C   UNL A   1      35.028  34.646  32.510  1.00  0.00     0.059 A 
ATOM     62  F   UNL A   1      36.999  33.570  33.023  1.00  0.00    -0.206 F 
ATOM     63  C   UNL A   1      34.111  35.139  31.595  1.00  0.00     0.060 A 
BRANCH  63  64
ATOM     64  S   UNL A   1      32.619  35.998  32.128  1.00  0.00     0.124 S 
ATOM     65  O   UNL A   1      32.171  36.625  30.889  1.00  0.00    -0.237 OA
ATOM     66  O   UNL A   1      31.791  34.904  32.622  1.00  0.00    -0.237 OA
ATOM     67  O   UNL A   1      33.103  36.921  33.152  1.00  0.00    -0.744 OA
ENDBRANCH  63  64
ENDBRANCH  42  56
BRANCH  43  68
ATOM     68  C   UNL A   1      44.604  28.688  28.315  1.00  0.00     0.058 A 
ATOM     69  C   UNL A   1      44.161  28.933  27.001  1.00  0.00     0.135 A 
ATOM     70  C   UNL A   1      45.712  27.839  28.474  1.00  0.00     0.135 A 
ATOM     71  F   UNL A   1      43.070  29.685  26.792  1.00  0.00    -0.206 F 
ATOM     72  C   UNL A   1      44.931  28.591  25.899  1.00  0.00     0.059 A 
ATOM     73  C   UNL A   1      46.497  27.481  27.374  1.00  0.00     0.059 A 
ATOM     74  F   UNL A   1      46.144  27.504  29.699  1.00  0.00    -0.206 F 
ATOM     75  C   UNL A   1      46.144  27.946  26.105  1.00  0.00     0.060 A 
BRANCH  75  76
ATOM     76  S   UNL A   1      47.307  27.973  24.722  1.00  0.00     0.124 S 
ATOM     77  O   UNL A   1      48.555  28.344  25.377  1.00  0.00    -0.237 OA
ATOM     78  O   UNL A   1      47.215  26.601  24.232  1.00  0.00    -0.237 OA
ATOM     79  O   UNL A   1      46.745  28.981  23.843  1.00  0.00    -0.744 OA
ENDBRANCH  75  76
ENDBRANCH  43  68
BRANCH  55  80
ATOM     80  C   UNL A   1      42.664  35.695  28.846  1.00  0.00     0.058 A 
ATOM     81  C   UNL A   1      43.266  36.662  29.668  1.00  0.00     0.135 A 
ATOM     82  C   UNL A   1      42.376  36.106  27.523  1.00  0.00     0.135 A 
ATOM     83  F   UNL A   1      43.752  36.355  30.879  1.00  0.00    -0.206 F 
ATOM     84  C   UNL A   1      43.424  37.981  29.265  1.00  0.00     0.059 A 
ATOM     85  C   UNL A   1      42.607  37.397  27.071  1.00  0.00     0.059 A 
ATOM     86  F   UNL A   1      41.871  35.261  26.611  1.00  0.00    -0.206 F 
ATOM     87  C   UNL A   1      43.077  38.343  27.969  1.00  0.00     0.060 A 
BRANCH  87  88
ATOM     88  S   UNL A   1      43.263  40.053  27.461  1.00  0.00     0.124 S 
ATOM     89  O   UNL A   1      41.879  40.515  27.504  1.00  0.00    -0.237 OA
ATOM     90  O   UNL A   1      44.143  40.598  28.493  1.00  0.00    -0.237 OA
ATOM     91  O   UNL A   1      43.856  39.950  26.132  1.00  0.00    -0.744 OA
ENDBRANCH  87  88
ENDBRANCH  55  80
ENDBRANCH  29  30
ENDBRANCH  22  24
ENDBRANCH  21  22
ENDBRANCH   1  21
TORSDOF 15
ENDMDL
