MODEL 1
REMARK VINA RESULT:     -10.4      0.000      0.000
REMARK SMILES C[C@H]([NH2+][C@H](C)[C@@H](C)C(=O)OCCOC(=O)c1ccc(-c2c3nc(c(-c4c(F)cc(S(=O)(=O)[O-])cc4F)c4ccc([nH]4)c(-c4c(F)cc(S(=O)(=O)[O-])cc4F)c4nc(c(-c5c(F)cc(S(=O)(=O)[O-])cc5F)c5ccc2[nH]5)C=C4)C=C3)cc1)C1CCCCC1
REMARK SMILES IDX 11 1 10 2 8 3 9 4 6 5 7 6 4 7 5 8 3 9 2 12 1 13 82 14 83 15
REMARK SMILES IDX 87 16 84 17 86 18 85 19 12 20 13 21 14 22 15 23 16 24 17 25
REMARK SMILES IDX 81 26 18 27 80 28 19 29 20 30 21 31 74 32 22 33 79 34 73 35
REMARK SMILES IDX 75 36 23 37 78 38 72 39 71 40 24 42 58 43 37 44 57 45 38 46
REMARK SMILES IDX 41 47 56 48 76 49 39 50 40 51 55 53 77 54 42 55 25 56 26 57
REMARK SMILES IDX 35 58 27 59 28 60 34 61 36 62 29 63 30 64 31 65 32 66 33 67
REMARK SMILES IDX 59 68 60 69 69 70 61 71 62 72 68 73 70 74 63 75 64 76 65 77
REMARK SMILES IDX 66 78 67 79 43 80 44 81 53 82 45 83 46 84 52 85 54 86 47 87
REMARK SMILES IDX 48 88 49 89 50 90 51 91
REMARK H PARENT 3 10 3 11 75 41 41 52
REMARK Flexibility Score: inf
ROOT
ATOM      1  C   UNL A   1      32.788  30.079  27.299  1.00  0.00     0.274 C 
ENDROOT
BRANCH   1   2
ATOM      2  O   UNL A   1      32.902  28.666  27.046  1.00  0.00    -0.462 OA
BRANCH   2   3
ATOM      3  C   UNL A   1      32.664  28.289  25.760  1.00  0.00     0.314 C 
ATOM      4  O   UNL A   1      31.641  28.572  25.140  1.00  0.00    -0.252 OA
BRANCH   3   5
ATOM      5  C   UNL A   1      33.700  27.334  25.186  1.00  0.00     0.154 C 
ATOM      6  C   UNL A   1      33.990  27.847  23.770  1.00  0.00     0.026 C 
BRANCH   5   7
ATOM      7  C   UNL A   1      33.322  25.831  25.209  1.00  0.00     0.193 C 
ATOM      8  C   UNL A   1      32.412  25.452  26.386  1.00  0.00     0.076 C 
BRANCH   7   9
ATOM      9  N   UNL A   1      32.861  25.348  23.897  1.00  0.00    -0.341 N 
ATOM     10  H   UNL A   1      31.863  25.556  23.849  1.00  0.00     0.346 HD
ATOM     11  H   UNL A   1      33.493  25.825  23.254  1.00  0.00     0.346 HD
BRANCH   9  12
ATOM     12  C   UNL A   1      33.010  23.937  23.494  1.00  0.00     0.182 C 
ATOM     13  C   UNL A   1      33.213  23.795  21.978  1.00  0.00     0.075 C 
BRANCH  12  14
ATOM     14  C   UNL A   1      34.243  23.291  24.230  1.00  0.00     0.047 C 
ATOM     15  C   UNL A   1      34.068  21.811  24.637  1.00  0.00     0.010 C 
ATOM     16  C   UNL A   1      35.528  23.395  23.374  1.00  0.00     0.010 C 
ATOM     17  C   UNL A   1      35.274  21.318  25.436  1.00  0.00     0.001 C 
ATOM     18  C   UNL A   1      36.760  22.865  24.112  1.00  0.00     0.001 C 
ATOM     19  C   UNL A   1      36.563  21.447  24.637  1.00  0.00     0.000 C 
ENDBRANCH  12  14
ENDBRANCH   9  12
ENDBRANCH   7   9
ENDBRANCH   5   7
ENDBRANCH   3   5
ENDBRANCH   2   3
ENDBRANCH   1   2
BRANCH   1  20
ATOM     20  C   UNL A   1      34.149  30.738  27.507  1.00  0.00     0.275 C 
BRANCH  20  21
ATOM     21  O   UNL A   1      35.022  29.872  28.250  1.00  0.00    -0.458 OA
BRANCH  21  22
ATOM     22  C   UNL A   1      35.941  30.513  29.007  1.00  0.00     0.338 C 
ATOM     23  O   UNL A   1      35.755  31.521  29.667  1.00  0.00    -0.246 OA
BRANCH  22  24
ATOM     24  C   UNL A   1      37.276  29.893  28.896  1.00  0.00     0.060 A 
ATOM     25  C   UNL A   1      38.048  29.572  30.012  1.00  0.00     0.016 A 
ATOM     26  C   UNL A   1      37.818  29.767  27.612  1.00  0.00     0.016 A 
ATOM     27  C   UNL A   1      39.391  29.216  29.844  1.00  0.00     0.010 A 
ATOM     28  C   UNL A   1      39.136  29.342  27.444  1.00  0.00     0.010 A 
ATOM     29  C   UNL A   1      39.948  29.097  28.560  1.00  0.00    -0.014 A 
BRANCH  29  30
ATOM     30  C   UNL A   1      41.366  28.690  28.372  1.00  0.00     0.031 A 
ATOM     31  C   UNL A   1      42.486  29.691  28.486  1.00  0.00     0.074 A 
ATOM     32  C   UNL A   1      41.645  27.407  28.071  1.00  0.00     0.049 A 
ATOM     33  N   UNL A   1      43.759  29.537  28.218  1.00  0.00    -0.248 NA
ATOM     34  C   UNL A   1      42.133  31.041  28.953  1.00  0.00     0.031 C 
ATOM     35  C   UNL A   1      40.652  26.341  27.936  1.00  0.00     0.029 A 
ATOM     36  N   UNL A   1      42.841  26.783  27.828  1.00  0.00    -0.354 N 
ATOM     37  C   UNL A   1      44.353  30.772  28.448  1.00  0.00     0.074 A 
ATOM     38  C   UNL A   1      43.302  31.669  28.883  1.00  0.00     0.031 C 
ATOM     39  C   UNL A   1      41.280  25.187  27.672  1.00  0.00     0.029 A 
ATOM     40  C   UNL A   1      42.711  25.444  27.550  1.00  0.00     0.049 A 
ATOM     41  H   UNL A   1      43.708  27.248  27.850  1.00  0.00     0.167 HD
ATOM     42  C   UNL A   1      45.655  31.124  28.304  1.00  0.00     0.037 A 
ATOM     43  C   UNL A   1      43.633  24.525  27.204  1.00  0.00     0.037 A 
ATOM     44  C   UNL A   1      46.704  30.221  27.899  1.00  0.00     0.049 A 
ATOM     45  C   UNL A   1      45.064  24.936  27.054  1.00  0.00     0.074 A 
ATOM     46  C   UNL A   1      48.054  30.485  27.735  1.00  0.00     0.029 A 
ATOM     47  N   UNL A   1      46.525  28.877  27.608  1.00  0.00    -0.354 N 
ATOM     48  N   UNL A   1      45.598  26.122  27.223  1.00  0.00    -0.248 NA
ATOM     49  C   UNL A   1      46.015  23.894  26.645  1.00  0.00     0.031 C 
ATOM     50  C   UNL A   1      48.687  29.306  27.323  1.00  0.00     0.029 A 
ATOM     51  C   UNL A   1      47.737  28.301  27.257  1.00  0.00     0.049 A 
ATOM     52  H   UNL A   1      45.664  28.401  27.645  1.00  0.00     0.167 HD
ATOM     53  C   UNL A   1      46.943  25.975  26.917  1.00  0.00     0.074 A 
ATOM     54  C   UNL A   1      47.149  24.578  26.587  1.00  0.00     0.031 C 
ATOM     55  C   UNL A   1      47.917  26.918  26.900  1.00  0.00     0.037 A 
BRANCH  42  56
ATOM     56  C   UNL A   1      46.027  32.557  28.562  1.00  0.00     0.058 A 
ATOM     57  C   UNL A   1      46.475  32.988  29.819  1.00  0.00     0.135 A 
ATOM     58  C   UNL A   1      46.007  33.495  27.516  1.00  0.00     0.135 A 
ATOM     59  F   UNL A   1      46.502  32.134  30.855  1.00  0.00    -0.206 F 
ATOM     60  C   UNL A   1      46.883  34.301  30.035  1.00  0.00     0.059 A 
ATOM     61  C   UNL A   1      46.423  34.810  27.705  1.00  0.00     0.059 A 
ATOM     62  F   UNL A   1      45.587  33.133  26.294  1.00  0.00    -0.206 F 
ATOM     63  C   UNL A   1      46.853  35.206  28.971  1.00  0.00     0.060 A 
BRANCH  63  64
ATOM     64  S   UNL A   1      47.412  36.902  29.251  1.00  0.00     0.124 S 
ATOM     65  O   UNL A   1      48.004  36.795  30.581  1.00  0.00    -0.237 OA
ATOM     66  O   UNL A   1      48.351  37.112  28.154  1.00  0.00    -0.237 OA
ATOM     67  O   UNL A   1      46.179  37.679  29.173  1.00  0.00    -0.744 OA
ENDBRANCH  63  64
ENDBRANCH  42  56
BRANCH  43  68
ATOM     68  C   UNL A   1      43.192  23.133  26.951  1.00  0.00     0.058 A 
ATOM     69  C   UNL A   1      43.104  22.634  25.646  1.00  0.00     0.135 A 
ATOM     70  C   UNL A   1      42.959  22.246  28.015  1.00  0.00     0.135 A 
ATOM     71  F   UNL A   1      43.313  23.449  24.600  1.00  0.00    -0.206 F 
ATOM     72  C   UNL A   1      42.825  21.294  25.399  1.00  0.00     0.059 A 
ATOM     73  C   UNL A   1      42.697  20.900  27.794  1.00  0.00     0.059 A 
ATOM     74  F   UNL A   1      43.047  22.681  29.282  1.00  0.00    -0.206 F 
ATOM     75  C   UNL A   1      42.636  20.431  26.482  1.00  0.00     0.060 A 
BRANCH  75  76
ATOM     76  S   UNL A   1      42.412  18.665  26.177  1.00  0.00     0.124 S 
ATOM     77  O   UNL A   1      41.018  18.616  25.753  1.00  0.00    -0.237 OA
ATOM     78  O   UNL A   1      43.403  18.393  25.140  1.00  0.00    -0.237 OA
ATOM     79  O   UNL A   1      42.703  18.070  27.478  1.00  0.00    -0.744 OA
ENDBRANCH  75  76
ENDBRANCH  43  68
BRANCH  55  80
ATOM     80  C   UNL A   1      49.284  26.461  26.482  1.00  0.00     0.058 A 
ATOM     81  C   UNL A   1      50.159  25.868  27.403  1.00  0.00     0.135 A 
ATOM     82  C   UNL A   1      49.724  26.623  25.161  1.00  0.00     0.135 A 
ATOM     83  F   UNL A   1      49.783  25.700  28.682  1.00  0.00    -0.206 F 
ATOM     84  C   UNL A   1      51.441  25.475  27.036  1.00  0.00     0.059 A 
ATOM     85  C   UNL A   1      50.997  26.224  24.767  1.00  0.00     0.059 A 
ATOM     86  F   UNL A   1      48.919  27.182  24.243  1.00  0.00    -0.206 F 
ATOM     87  C   UNL A   1      51.855  25.667  25.716  1.00  0.00     0.060 A 
BRANCH  87  88
ATOM     88  S   UNL A   1      53.523  25.165  25.243  1.00  0.00     0.124 S 
ATOM     89  O   UNL A   1      54.331  25.866  26.234  1.00  0.00    -0.237 OA
ATOM     90  O   UNL A   1      53.472  23.712  25.380  1.00  0.00    -0.237 OA
ATOM     91  O   UNL A   1      53.644  25.653  23.872  1.00  0.00    -0.744 OA
ENDBRANCH  87  88
ENDBRANCH  55  80
ENDBRANCH  29  30
ENDBRANCH  22  24
ENDBRANCH  21  22
ENDBRANCH  20  21
ENDBRANCH   1  20
TORSDOF 18
ENDMDL
MODEL 2
REMARK VINA RESULT:     -10.1      2.024      3.766
REMARK SMILES C[C@H]([NH2+][C@H](C)[C@@H](C)C(=O)OCCOC(=O)c1ccc(-c2c3nc(c(-c4c(F)cc(S(=O)(=O)[O-])cc4F)c4ccc([nH]4)c(-c4c(F)cc(S(=O)(=O)[O-])cc4F)c4nc(c(-c5c(F)cc(S(=O)(=O)[O-])cc5F)c5ccc2[nH]5)C=C4)C=C3)cc1)C1CCCCC1
REMARK SMILES IDX 11 1 10 2 8 3 9 4 6 5 7 6 4 7 5 8 3 9 2 12 1 13 82 14 83 15
REMARK SMILES IDX 87 16 84 17 86 18 85 19 12 20 13 21 14 22 15 23 16 24 17 25
REMARK SMILES IDX 81 26 18 27 80 28 19 29 20 30 21 31 74 32 22 33 79 34 73 35
REMARK SMILES IDX 75 36 23 37 78 38 72 39 71 40 24 42 58 43 37 44 57 45 38 46
REMARK SMILES IDX 41 47 56 48 76 49 39 50 40 51 55 53 77 54 42 55 25 56 26 57
REMARK SMILES IDX 35 58 27 59 28 60 34 61 36 62 29 63 30 64 31 65 32 66 33 67
REMARK SMILES IDX 59 68 60 69 69 70 61 71 62 72 68 73 70 74 63 75 64 76 65 77
REMARK SMILES IDX 66 78 67 79 43 80 44 81 53 82 45 83 46 84 52 85 54 86 47 87
REMARK SMILES IDX 48 88 49 89 50 90 51 91
REMARK H PARENT 3 10 3 11 75 41 41 52
REMARK Flexibility Score: inf
ROOT
ATOM      1  C   UNL A   1      33.133  30.271  27.243  1.00  0.00     0.274 C 
ENDROOT
BRANCH   1   2
ATOM      2  O   UNL A   1      33.423  29.393  26.139  1.00  0.00    -0.462 OA
BRANCH   2   3
ATOM      3  C   UNL A   1      32.449  28.486  25.852  1.00  0.00     0.314 C 
ATOM      4  O   UNL A   1      31.539  28.190  26.622  1.00  0.00    -0.252 OA
BRANCH   3   5
ATOM      5  C   UNL A   1      32.663  27.730  24.549  1.00  0.00     0.154 C 
ATOM      6  C   UNL A   1      33.662  28.572  23.747  1.00  0.00     0.026 C 
BRANCH   5   7
ATOM      7  C   UNL A   1      31.383  27.395  23.742  1.00  0.00     0.193 C 
ATOM      8  C   UNL A   1      30.831  25.992  24.033  1.00  0.00     0.076 C 
BRANCH   7   9
ATOM      9  N   UNL A   1      30.381  28.473  23.807  1.00  0.00    -0.341 N 
ATOM     10  H   UNL A   1      29.882  28.348  24.689  1.00  0.00     0.346 HD
ATOM     11  H   UNL A   1      30.951  29.309  23.679  1.00  0.00     0.346 HD
BRANCH   9  12
ATOM     12  C   UNL A   1      29.349  28.636  22.766  1.00  0.00     0.182 C 
ATOM     13  C   UNL A   1      27.967  28.178  23.256  1.00  0.00     0.075 C 
BRANCH  12  14
ATOM     14  C   UNL A   1      29.253  30.146  22.330  1.00  0.00     0.047 C 
ATOM     15  C   UNL A   1      28.205  30.453  21.237  1.00  0.00     0.010 C 
ATOM     16  C   UNL A   1      28.955  31.064  23.540  1.00  0.00     0.010 C 
ATOM     17  C   UNL A   1      28.270  31.920  20.814  1.00  0.00     0.001 C 
ATOM     18  C   UNL A   1      28.958  32.546  23.156  1.00  0.00     0.001 C 
ATOM     19  C   UNL A   1      28.024  32.852  21.990  1.00  0.00     0.000 C 
ENDBRANCH  12  14
ENDBRANCH   9  12
ENDBRANCH   7   9
ENDBRANCH   5   7
ENDBRANCH   3   5
ENDBRANCH   2   3
ENDBRANCH   1   2
BRANCH   1  20
ATOM     20  C   UNL A   1      34.382  30.985  27.754  1.00  0.00     0.275 C 
BRANCH  20  21
ATOM     21  O   UNL A   1      35.366  30.032  28.189  1.00  0.00    -0.458 OA
BRANCH  21  22
ATOM     22  C   UNL A   1      36.212  30.491  29.139  1.00  0.00     0.338 C 
ATOM     23  O   UNL A   1      35.956  31.324  29.992  1.00  0.00    -0.246 OA
BRANCH  22  24
ATOM     24  C   UNL A   1      37.565  29.920  28.993  1.00  0.00     0.060 A 
ATOM     25  C   UNL A   1      38.393  29.667  30.086  1.00  0.00     0.016 A 
ATOM     26  C   UNL A   1      38.061  29.772  27.693  1.00  0.00     0.016 A 
ATOM     27  C   UNL A   1      39.741  29.357  29.875  1.00  0.00     0.010 A 
ATOM     28  C   UNL A   1      39.386  29.392  27.484  1.00  0.00     0.010 A 
ATOM     29  C   UNL A   1      40.251  29.216  28.573  1.00  0.00    -0.014 A 
BRANCH  29  30
ATOM     30  C   UNL A   1      41.676  28.858  28.341  1.00  0.00     0.031 A 
ATOM     31  C   UNL A   1      42.762  29.901  28.404  1.00  0.00     0.074 A 
ATOM     32  C   UNL A   1      41.991  27.583  28.046  1.00  0.00     0.049 A 
ATOM     33  N   UNL A   1      44.029  29.789  28.093  1.00  0.00    -0.248 NA
ATOM     34  C   UNL A   1      42.376  31.243  28.867  1.00  0.00     0.031 C 
ATOM     35  C   UNL A   1      41.033  26.479  27.958  1.00  0.00     0.029 A 
ATOM     36  N   UNL A   1      43.200  26.998  27.768  1.00  0.00    -0.354 N 
ATOM     37  C   UNL A   1      44.587  31.047  28.287  1.00  0.00     0.074 A 
ATOM     38  C   UNL A   1      43.519  31.912  28.748  1.00  0.00     0.031 C 
ATOM     39  C   UNL A   1      41.694  25.346  27.686  1.00  0.00     0.029 A 
ATOM     40  C   UNL A   1      43.109  25.652  27.511  1.00  0.00     0.049 A 
ATOM     41  H   UNL A   1      44.050  27.495  27.754  1.00  0.00     0.167 HD
ATOM     42  C   UNL A   1      45.869  31.444  28.093  1.00  0.00     0.037 A 
ATOM     43  C   UNL A   1      44.051  24.763  27.145  1.00  0.00     0.037 A 
ATOM     44  C   UNL A   1      46.935  30.573  27.663  1.00  0.00     0.049 A 
ATOM     45  C   UNL A   1      45.460  25.222  26.940  1.00  0.00     0.074 A 
ATOM     46  C   UNL A   1      48.268  30.884  27.448  1.00  0.00     0.029 A 
ATOM     47  N   UNL A   1      46.796  29.220  27.395  1.00  0.00    -0.354 N 
ATOM     48  N   UNL A   1      45.956  26.429  27.075  1.00  0.00    -0.248 NA
ATOM     49  C   UNL A   1      46.433  24.210  26.510  1.00  0.00     0.031 C 
ATOM     50  C   UNL A   1      48.929  29.723  27.029  1.00  0.00     0.029 A 
ATOM     51  C   UNL A   1      48.015  28.684  27.008  1.00  0.00     0.049 A 
ATOM     52  H   UNL A   1      45.954  28.714  27.467  1.00  0.00     0.167 HD
ATOM     53  C   UNL A   1      47.295  26.327  26.724  1.00  0.00     0.074 A 
ATOM     54  C   UNL A   1      47.540  24.934  26.404  1.00  0.00     0.031 C 
ATOM     55  C   UNL A   1      48.233  27.303  26.662  1.00  0.00     0.037 A 
BRANCH  42  56
ATOM     56  C   UNL A   1      46.197  32.892  28.321  1.00  0.00     0.058 A 
ATOM     57  C   UNL A   1      46.063  33.848  27.303  1.00  0.00     0.135 A 
ATOM     58  C   UNL A   1      46.580  33.341  29.595  1.00  0.00     0.135 A 
ATOM     59  F   UNL A   1      45.711  33.469  26.064  1.00  0.00    -0.206 F 
ATOM     60  C   UNL A   1      46.304  35.199  27.537  1.00  0.00     0.059 A 
ATOM     61  C   UNL A   1      46.813  34.689  29.856  1.00  0.00     0.059 A 
ATOM     62  F   UNL A   1      46.723  32.467  30.604  1.00  0.00    -0.206 F 
ATOM     63  C   UNL A   1      46.679  35.610  28.819  1.00  0.00     0.060 A 
BRANCH  63  64
ATOM     64  S   UNL A   1      46.961  37.369  29.123  1.00  0.00     0.124 S 
ATOM     65  O   UNL A   1      46.513  37.499  30.506  1.00  0.00    -0.237 OA
ATOM     66  O   UNL A   1      48.399  37.502  28.909  1.00  0.00    -0.237 OA
ATOM     67  O   UNL A   1      46.120  38.022  28.125  1.00  0.00    -0.744 OA
ENDBRANCH  63  64
ENDBRANCH  42  56
BRANCH  43  68
ATOM     68  C   UNL A   1      43.652  23.352  26.923  1.00  0.00     0.058 A 
ATOM     69  C   UNL A   1      43.417  22.494  28.005  1.00  0.00     0.135 A 
ATOM     70  C   UNL A   1      43.392  22.872  25.630  1.00  0.00     0.135 A 
ATOM     71  F   UNL A   1      43.660  22.912  29.258  1.00  0.00    -0.206 F 
ATOM     72  C   UNL A   1      42.912  21.212  27.817  1.00  0.00     0.059 A 
ATOM     73  C   UNL A   1      42.870  21.602  25.418  1.00  0.00     0.059 A 
ATOM     74  F   UNL A   1      43.590  23.667  24.566  1.00  0.00    -0.206 F 
ATOM     75  C   UNL A   1      42.629  20.780  26.519  1.00  0.00     0.060 A 
BRANCH  75  76
ATOM     76  S   UNL A   1      41.842  19.172  26.275  1.00  0.00     0.124 S 
ATOM     77  O   UNL A   1      42.689  18.586  25.243  1.00  0.00    -0.237 OA
ATOM     78  O   UNL A   1      41.939  18.566  27.599  1.00  0.00    -0.237 OA
ATOM     79  O   UNL A   1      40.489  19.531  25.859  1.00  0.00    -0.744 OA
ENDBRANCH  75  76
ENDBRANCH  43  68
BRANCH  55  80
ATOM     80  C   UNL A   1      49.599  26.891  26.202  1.00  0.00     0.058 A 
ATOM     81  C   UNL A   1      49.966  26.984  24.851  1.00  0.00     0.135 A 
ATOM     82  C   UNL A   1      50.545  26.394  27.111  1.00  0.00     0.135 A 
ATOM     83  F   UNL A   1      49.089  27.446  23.944  1.00  0.00    -0.206 F 
ATOM     84  C   UNL A   1      51.217  26.571  24.409  1.00  0.00     0.059 A 
ATOM     85  C   UNL A   1      51.809  25.988  26.693  1.00  0.00     0.059 A 
ATOM     86  F   UNL A   1      50.242  26.291  28.414  1.00  0.00    -0.206 F 
ATOM     87  C   UNL A   1      52.129  26.064  25.337  1.00  0.00     0.060 A 
BRANCH  87  88
ATOM     88  S   UNL A   1      53.750  25.518  24.759  1.00  0.00     0.124 S 
ATOM     89  O   UNL A   1      53.817  26.145  23.444  1.00  0.00    -0.237 OA
ATOM     90  O   UNL A   1      54.651  26.066  25.769  1.00  0.00    -0.237 OA
ATOM     91  O   UNL A   1      53.633  24.063  24.758  1.00  0.00    -0.744 OA
ENDBRANCH  87  88
ENDBRANCH  55  80
ENDBRANCH  29  30
ENDBRANCH  22  24
ENDBRANCH  21  22
ENDBRANCH  20  21
ENDBRANCH   1  20
TORSDOF 18
ENDMDL
MODEL 3
REMARK VINA RESULT:     -10.1      2.649      3.267
REMARK SMILES C[C@H]([NH2+][C@H](C)[C@@H](C)C(=O)OCCOC(=O)c1ccc(-c2c3nc(c(-c4c(F)cc(S(=O)(=O)[O-])cc4F)c4ccc([nH]4)c(-c4c(F)cc(S(=O)(=O)[O-])cc4F)c4nc(c(-c5c(F)cc(S(=O)(=O)[O-])cc5F)c5ccc2[nH]5)C=C4)C=C3)cc1)C1CCCCC1
REMARK SMILES IDX 11 1 10 2 8 3 9 4 6 5 7 6 4 7 5 8 3 9 2 12 1 13 82 14 83 15
REMARK SMILES IDX 87 16 84 17 86 18 85 19 12 20 13 21 14 22 15 23 16 24 17 25
REMARK SMILES IDX 81 26 18 27 80 28 19 29 20 30 21 31 74 32 22 33 79 34 73 35
REMARK SMILES IDX 75 36 23 37 78 38 72 39 71 40 24 42 58 43 37 44 57 45 38 46
REMARK SMILES IDX 41 47 56 48 76 49 39 50 40 51 55 53 77 54 42 55 25 56 26 57
REMARK SMILES IDX 35 58 27 59 28 60 34 61 36 62 29 63 30 64 31 65 32 66 33 67
REMARK SMILES IDX 59 68 60 69 69 70 61 71 62 72 68 73 70 74 63 75 64 76 65 77
REMARK SMILES IDX 66 78 67 79 43 80 44 81 53 82 45 83 46 84 52 85 54 86 47 87
REMARK SMILES IDX 48 88 49 89 50 90 51 91
REMARK H PARENT 3 10 3 11 75 41 41 52
REMARK Flexibility Score: inf
ROOT
ATOM      1  C   UNL A   1      31.808  28.656  27.225  1.00  0.00     0.274 C 
ENDROOT
BRANCH   1   2
ATOM      2  O   UNL A   1      31.172  28.261  25.995  1.00  0.00    -0.462 OA
BRANCH   2   3
ATOM      3  C   UNL A   1      31.039  26.918  25.819  1.00  0.00     0.314 C 
ATOM      4  O   UNL A   1      30.887  26.117  26.739  1.00  0.00    -0.252 OA
BRANCH   3   5
ATOM      5  C   UNL A   1      31.258  26.449  24.388  1.00  0.00     0.154 C 
ATOM      6  C   UNL A   1      29.990  25.670  24.014  1.00  0.00     0.026 C 
BRANCH   5   7
ATOM      7  C   UNL A   1      32.553  25.639  24.132  1.00  0.00     0.193 C 
ATOM      8  C   UNL A   1      33.633  26.438  23.388  1.00  0.00     0.076 C 
BRANCH   7   9
ATOM      9  N   UNL A   1      33.028  24.943  25.340  1.00  0.00    -0.341 N 
ATOM     10  H   UNL A   1      33.996  25.237  25.478  1.00  0.00     0.346 HD
ATOM     11  H   UNL A   1      32.331  25.211  26.034  1.00  0.00     0.346 HD
BRANCH   9  12
ATOM     12  C   UNL A   1      33.023  23.472  25.441  1.00  0.00     0.182 C 
ATOM     13  C   UNL A   1      32.415  22.816  24.193  1.00  0.00     0.075 C 
BRANCH  12  14
ATOM     14  C   UNL A   1      34.494  22.938  25.625  1.00  0.00     0.047 C 
ATOM     15  C   UNL A   1      34.906  21.799  24.666  1.00  0.00     0.010 C 
ATOM     16  C   UNL A   1      35.530  24.077  25.476  1.00  0.00     0.010 C 
ATOM     17  C   UNL A   1      36.306  21.284  24.999  1.00  0.00     0.001 C 
ATOM     18  C   UNL A   1      36.958  23.599  25.750  1.00  0.00     0.001 C 
ATOM     19  C   UNL A   1      37.345  22.391  24.904  1.00  0.00     0.000 C 
ENDBRANCH  12  14
ENDBRANCH   9  12
ENDBRANCH   7   9
ENDBRANCH   5   7
ENDBRANCH   3   5
ENDBRANCH   2   3
ENDBRANCH   1   2
BRANCH   1  20
ATOM     20  C   UNL A   1      33.331  28.613  27.126  1.00  0.00     0.275 C 
BRANCH  20  21
ATOM     21  O   UNL A   1      33.849  29.904  26.764  1.00  0.00    -0.458 OA
BRANCH  21  22
ATOM     22  C   UNL A   1      34.438  30.579  27.778  1.00  0.00     0.338 C 
ATOM     23  O   UNL A   1      34.003  31.577  28.327  1.00  0.00    -0.246 OA
BRANCH  22  24
ATOM     24  C   UNL A   1      35.756  30.013  28.123  1.00  0.00     0.060 A 
ATOM     25  C   UNL A   1      36.064  29.563  29.407  1.00  0.00     0.016 A 
ATOM     26  C   UNL A   1      36.756  30.077  27.147  1.00  0.00     0.016 A 
ATOM     27  C   UNL A   1      37.392  29.266  29.735  1.00  0.00     0.010 A 
ATOM     28  C   UNL A   1      38.066  29.712  27.457  1.00  0.00     0.010 A 
ATOM     29  C   UNL A   1      38.406  29.338  28.765  1.00  0.00    -0.014 A 
BRANCH  29  30
ATOM     30  C   UNL A   1      39.814  28.996  29.098  1.00  0.00     0.031 A 
ATOM     31  C   UNL A   1      40.708  29.980  29.807  1.00  0.00     0.074 A 
ATOM     32  C   UNL A   1      40.299  27.793  28.736  1.00  0.00     0.049 A 
ATOM     33  N   UNL A   1      41.993  29.899  30.049  1.00  0.00    -0.248 NA
ATOM     34  C   UNL A   1      40.084  31.218  30.299  1.00  0.00     0.031 C 
ATOM     35  C   UNL A   1      39.535  26.750  28.050  1.00  0.00     0.029 A 
ATOM     36  N   UNL A   1      41.545  27.243  28.897  1.00  0.00    -0.354 N 
ATOM     37  C   UNL A   1      42.340  31.083  30.689  1.00  0.00     0.074 A 
ATOM     38  C   UNL A   1      41.128  31.869  30.802  1.00  0.00     0.031 C 
ATOM     39  C   UNL A   1      40.315  25.674  27.881  1.00  0.00     0.029 A 
ATOM     40  C   UNL A   1      41.651  25.973  28.384  1.00  0.00     0.049 A 
ATOM     41  H   UNL A   1      42.290  27.712  29.336  1.00  0.00     0.167 HD
ATOM     42  C   UNL A   1      43.559  31.477  31.134  1.00  0.00     0.037 A 
ATOM     43  C   UNL A   1      42.711  25.148  28.296  1.00  0.00     0.037 A 
ATOM     44  C   UNL A   1      44.757  30.680  31.046  1.00  0.00     0.049 A 
ATOM     45  C   UNL A   1      44.045  25.603  28.797  1.00  0.00     0.074 A 
ATOM     46  C   UNL A   1      46.035  30.992  31.479  1.00  0.00     0.029 A 
ATOM     47  N   UNL A   1      44.824  29.406  30.501  1.00  0.00    -0.354 N 
ATOM     48  N   UNL A   1      44.366  26.749  29.349  1.00  0.00    -0.248 NA
ATOM     49  C   UNL A   1      45.167  24.668  28.644  1.00  0.00     0.031 C 
ATOM     50  C   UNL A   1      46.879  29.917  31.176  1.00  0.00     0.029 A 
ATOM     51  C   UNL A   1      46.122  28.924  30.578  1.00  0.00     0.049 A 
ATOM     52  H   UNL A   1      44.062  28.917  30.115  1.00  0.00     0.167 HD
ATOM     53  C   UNL A   1      45.730  26.683  29.588  1.00  0.00     0.074 A 
ATOM     54  C   UNL A   1      46.170  25.372  29.153  1.00  0.00     0.031 C 
ATOM     55  C   UNL A   1      46.548  27.630  30.110  1.00  0.00     0.037 A 
BRANCH  42  56
ATOM     56  C   UNL A   1      43.674  32.847  31.741  1.00  0.00     0.058 A 
ATOM     57  C   UNL A   1      43.589  33.049  33.127  1.00  0.00     0.135 A 
ATOM     58  C   UNL A   1      43.948  33.961  30.931  1.00  0.00     0.135 A 
ATOM     59  F   UNL A   1      43.318  32.020  33.944  1.00  0.00    -0.206 F 
ATOM     60  C   UNL A   1      43.765  34.311  33.689  1.00  0.00     0.059 A 
ATOM     61  C   UNL A   1      44.140  35.230  31.473  1.00  0.00     0.059 A 
ATOM     62  F   UNL A   1      44.039  33.821  29.599  1.00  0.00    -0.206 F 
ATOM     63  C   UNL A   1      44.040  35.396  32.853  1.00  0.00     0.060 A 
BRANCH  63  64
ATOM     64  S   UNL A   1      44.295  37.025  33.593  1.00  0.00     0.124 S 
ATOM     65  O   UNL A   1      43.919  37.905  32.491  1.00  0.00    -0.237 OA
ATOM     66  O   UNL A   1      43.379  37.006  34.729  1.00  0.00    -0.237 OA
ATOM     67  O   UNL A   1      45.714  37.020  33.936  1.00  0.00    -0.744 OA
ENDBRANCH  63  64
ENDBRANCH  42  56
BRANCH  43  68
ATOM     68  C   UNL A   1      42.527  23.815  27.672  1.00  0.00     0.058 A 
ATOM     69  C   UNL A   1      42.619  23.654  26.284  1.00  0.00     0.135 A 
ATOM     70  C   UNL A   1      42.368  22.666  28.462  1.00  0.00     0.135 A 
ATOM     71  F   UNL A   1      42.765  24.727  25.491  1.00  0.00    -0.206 F 
ATOM     72  C   UNL A   1      42.585  22.393  25.697  1.00  0.00     0.059 A 
ATOM     73  C   UNL A   1      42.351  21.396  27.901  1.00  0.00     0.059 A 
ATOM     74  F   UNL A   1      42.291  22.775  29.798  1.00  0.00    -0.206 F 
ATOM     75  C   UNL A   1      42.464  21.268  26.517  1.00  0.00     0.060 A 
BRANCH  75  76
ATOM     76  S   UNL A   1      42.560  19.622  25.778  1.00  0.00     0.124 S 
ATOM     77  O   UNL A   1      43.502  19.846  24.687  1.00  0.00    -0.237 OA
ATOM     78  O   UNL A   1      43.048  18.805  26.884  1.00  0.00    -0.237 OA
ATOM     79  O   UNL A   1      41.179  19.362  25.382  1.00  0.00    -0.744 OA
ENDBRANCH  75  76
ENDBRANCH  43  68
BRANCH  55  80
ATOM     80  C   UNL A   1      48.003  27.280  30.207  1.00  0.00     0.058 A 
ATOM     81  C   UNL A   1      48.512  26.617  31.334  1.00  0.00     0.135 A 
ATOM     82  C   UNL A   1      48.894  27.612  29.177  1.00  0.00     0.135 A 
ATOM     83  F   UNL A   1      47.696  26.287  32.349  1.00  0.00    -0.206 F 
ATOM     84  C   UNL A   1      49.865  26.321  31.451  1.00  0.00     0.059 A 
ATOM     85  C   UNL A   1      50.249  27.312  29.265  1.00  0.00     0.059 A 
ATOM     86  F   UNL A   1      48.451  28.242  28.077  1.00  0.00    -0.206 F 
ATOM     87  C   UNL A   1      50.728  26.682  30.415  1.00  0.00     0.060 A 
BRANCH  87  88
ATOM     88  S   UNL A   1      52.487  26.304  30.573  1.00  0.00     0.124 S 
ATOM     89  O   UNL A   1      52.452  25.074  31.354  1.00  0.00    -0.237 OA
ATOM     90  O   UNL A   1      52.910  26.160  29.182  1.00  0.00    -0.237 OA
ATOM     91  O   UNL A   1      53.020  27.475  31.264  1.00  0.00    -0.744 OA
ENDBRANCH  87  88
ENDBRANCH  55  80
ENDBRANCH  29  30
ENDBRANCH  22  24
ENDBRANCH  21  22
ENDBRANCH  20  21
ENDBRANCH   1  20
TORSDOF 18
ENDMDL
