MODEL 1
REMARK VINA RESULT:     -11.8      0.000      0.000
REMARK SMILES O=C(OCCOC(=O)c1ccccc1/N=C/c1coc2ccccc2c1=O)c1ccc(-c2c3nc(c(-c4c(F)cc(S(=O)(=O)[O-])cc4F)c4ccc([nH]4)c(-c4c(F)cc(S(=O)(=O)[O-])cc4F)c4nc(c(-c5c(F)cc(S(=O)(=O)[O-])cc5F)c5ccc2[nH]5)C=C4)C=C3)cc1
REMARK SMILES IDX 4 1 3 2 2 3 1 4 28 5 29 6 93 7 30 8 92 9 31 10 32 11 33 12
REMARK SMILES IDX 86 13 34 14 91 15 85 16 87 17 35 18 90 19 84 20 83 21 36 23
REMARK SMILES IDX 70 24 49 25 69 26 50 27 53 28 68 29 88 30 51 31 52 32 67 34
REMARK SMILES IDX 89 35 54 36 37 37 38 38 47 39 39 40 40 41 46 42 48 43 41 44
REMARK SMILES IDX 42 45 43 46 44 47 45 48 71 49 72 50 81 51 73 52 74 53 80 54
REMARK SMILES IDX 82 55 75 56 76 57 77 58 78 59 79 60 55 61 56 62 65 63 57 64
REMARK SMILES IDX 58 65 64 66 66 67 59 68 60 69 61 70 62 71 63 72 5 73 6 74
REMARK SMILES IDX 7 75 8 76 9 77 10 78 14 79 11 80 13 81 12 82 15 83 16 84
REMARK SMILES IDX 17 85 18 86 26 87 19 88 25 89 27 90 20 91 24 92 21 93 23 94
REMARK SMILES IDX 22 95
REMARK H PARENT 87 22 53 33
REMARK Flexibility Score: inf
ROOT
ATOM      1  C   UNL A   1      38.991  19.993  25.207  1.00  0.00     0.275 C 
ENDROOT
BRANCH   1   2
ATOM      2  O   UNL A   1      39.985  19.820  26.231  1.00  0.00    -0.458 OA
BRANCH   2   3
ATOM      3  C   UNL A   1      41.331  19.881  26.096  1.00  0.00     0.338 C 
ATOM      4  O   UNL A   1      41.915  18.945  25.548  1.00  0.00    -0.246 OA
BRANCH   3   5
ATOM      5  C   UNL A   1      42.154  21.035  26.575  1.00  0.00     0.060 A 
ATOM      6  C   UNL A   1      42.288  21.423  27.913  1.00  0.00     0.016 A 
ATOM      7  C   UNL A   1      42.701  21.870  25.586  1.00  0.00     0.016 A 
ATOM      8  C   UNL A   1      42.988  22.590  28.264  1.00  0.00     0.010 A 
ATOM      9  C   UNL A   1      43.365  23.053  25.928  1.00  0.00     0.010 A 
ATOM     10  C   UNL A   1      43.502  23.428  27.273  1.00  0.00    -0.014 A 
BRANCH  10  11
ATOM     11  C   UNL A   1      44.005  24.790  27.581  1.00  0.00     0.031 A 
ATOM     12  C   UNL A   1      43.030  25.924  27.605  1.00  0.00     0.074 A 
ATOM     13  C   UNL A   1      45.311  25.051  27.763  1.00  0.00     0.049 A 
ATOM     14  N   UNL A   1      43.270  27.197  27.782  1.00  0.00    -0.248 NA
ATOM     15  C   UNL A   1      41.604  25.584  27.474  1.00  0.00     0.031 C 
ATOM     16  C   UNL A   1      46.364  24.059  27.899  1.00  0.00     0.029 A 
ATOM     17  N   UNL A   1      45.988  26.246  27.749  1.00  0.00    -0.354 N 
ATOM     18  C   UNL A   1      42.027  27.782  27.941  1.00  0.00     0.074 A 
ATOM     19  C   UNL A   1      41.035  26.764  27.672  1.00  0.00     0.031 C 
ATOM     20  C   UNL A   1      47.553  24.655  27.704  1.00  0.00     0.029 A 
ATOM     21  C   UNL A   1      47.334  26.080  27.508  1.00  0.00     0.049 A 
ATOM     22  H   UNL A   1      45.560  27.121  27.896  1.00  0.00     0.167 HD
ATOM     23  C   UNL A   1      41.754  29.032  28.382  1.00  0.00     0.037 A 
ATOM     24  C   UNL A   1      48.261  26.977  27.124  1.00  0.00     0.037 A 
ATOM     25  C   UNL A   1      42.752  30.045  28.579  1.00  0.00     0.049 A 
ATOM     26  C   UNL A   1      47.915  28.430  27.210  1.00  0.00     0.074 A 
ATOM     27  C   UNL A   1      42.614  31.324  29.083  1.00  0.00     0.029 A 
ATOM     28  N   UNL A   1      44.086  29.895  28.229  1.00  0.00    -0.354 N 
ATOM     29  N   UNL A   1      46.758  28.972  27.500  1.00  0.00    -0.248 NA
ATOM     30  C   UNL A   1      49.010  29.391  27.033  1.00  0.00     0.031 C 
ATOM     31  C   UNL A   1      43.861  31.961  29.000  1.00  0.00     0.029 A 
ATOM     32  C   UNL A   1      44.778  31.070  28.464  1.00  0.00     0.049 A 
ATOM     33  H   UNL A   1      44.483  29.070  27.866  1.00  0.00     0.167 HD
ATOM     34  C   UNL A   1      47.013  30.322  27.683  1.00  0.00     0.074 A 
ATOM     35  C   UNL A   1      48.411  30.531  27.358  1.00  0.00     0.031 C 
ATOM     36  C   UNL A   1      46.175  31.271  28.164  1.00  0.00     0.037 A 
BRANCH  23  37
ATOM     37  C   UNL A   1      40.326  29.290  28.747  1.00  0.00     0.058 A 
ATOM     38  C   UNL A   1      39.376  29.531  27.738  1.00  0.00     0.135 A 
ATOM     39  C   UNL A   1      39.913  29.391  30.080  1.00  0.00     0.135 A 
ATOM     40  F   UNL A   1      39.732  29.464  26.444  1.00  0.00    -0.206 F 
ATOM     41  C   UNL A   1      38.077  29.916  28.039  1.00  0.00     0.059 A 
ATOM     42  C   UNL A   1      38.612  29.762  30.406  1.00  0.00     0.059 A 
ATOM     43  F   UNL A   1      40.788  29.181  31.076  1.00  0.00    -0.206 F 
ATOM     44  C   UNL A   1      37.711  30.049  29.379  1.00  0.00     0.060 A 
BRANCH  44  45
ATOM     45  S   UNL A   1      36.047  30.637  29.761  1.00  0.00     0.124 S 
ATOM     46  O   UNL A   1      35.295  30.134  28.615  1.00  0.00    -0.237 OA
ATOM     47  O   UNL A   1      35.765  29.985  31.036  1.00  0.00    -0.237 OA
ATOM     48  O   UNL A   1      36.208  32.085  29.824  1.00  0.00    -0.744 OA
ENDBRANCH  44  45
ENDBRANCH  23  37
BRANCH  24  49
ATOM     49  C   UNL A   1      49.587  26.528  26.640  1.00  0.00     0.058 A 
ATOM     50  C   UNL A   1      50.632  26.204  27.513  1.00  0.00     0.135 A 
ATOM     51  C   UNL A   1      49.822  26.401  25.261  1.00  0.00     0.135 A 
ATOM     52  F   UNL A   1      50.457  26.323  28.838  1.00  0.00    -0.206 F 
ATOM     53  C   UNL A   1      51.863  25.757  27.039  1.00  0.00     0.059 A 
ATOM     54  C   UNL A   1      51.044  25.958  24.763  1.00  0.00     0.059 A 
ATOM     55  F   UNL A   1      48.848  26.691  24.383  1.00  0.00    -0.206 F 
ATOM     56  C   UNL A   1      52.056  25.632  25.661  1.00  0.00     0.060 A 
BRANCH  56  57
ATOM     57  S   UNL A   1      53.629  24.974  25.059  1.00  0.00     0.124 S 
ATOM     58  O   UNL A   1      54.556  25.440  26.083  1.00  0.00    -0.237 OA
ATOM     59  O   UNL A   1      53.367  23.538  25.035  1.00  0.00    -0.237 OA
ATOM     60  O   UNL A   1      53.769  25.596  23.746  1.00  0.00    -0.744 OA
ENDBRANCH  56  57
ENDBRANCH  24  49
BRANCH  36  61
ATOM     61  C   UNL A   1      46.774  32.601  28.499  1.00  0.00     0.058 A 
ATOM     62  C   UNL A   1      47.368  32.864  29.739  1.00  0.00     0.135 A 
ATOM     63  C   UNL A   1      46.789  33.615  27.526  1.00  0.00     0.135 A 
ATOM     64  F   UNL A   1      47.356  31.932  30.705  1.00  0.00    -0.206 F 
ATOM     65  C   UNL A   1      47.966  34.092  30.005  1.00  0.00     0.059 A 
ATOM     66  C   UNL A   1      47.395  34.842  27.765  1.00  0.00     0.059 A 
ATOM     67  F   UNL A   1      46.226  33.409  26.325  1.00  0.00    -0.206 F 
ATOM     68  C   UNL A   1      47.978  35.073  29.009  1.00  0.00     0.060 A 
BRANCH  68  69
ATOM     69  S   UNL A   1      48.816  36.638  29.331  1.00  0.00     0.124 S 
ATOM     70  O   UNL A   1      50.152  36.184  29.701  1.00  0.00    -0.237 OA
ATOM     71  O   UNL A   1      48.713  37.324  28.046  1.00  0.00    -0.237 OA
ATOM     72  O   UNL A   1      48.029  37.225  30.410  1.00  0.00    -0.744 OA
ENDBRANCH  68  69
ENDBRANCH  36  61
ENDBRANCH  10  11
ENDBRANCH   3   5
ENDBRANCH   2   3
ENDBRANCH   1   2
BRANCH   1  73
ATOM     73  C   UNL A   1      38.104  21.215  25.385  1.00  0.00     0.275 C 
BRANCH  73  74
ATOM     74  O   UNL A   1      36.846  21.085  24.715  1.00  0.00    -0.458 OA
BRANCH  74  75
ATOM     75  C   UNL A   1      35.755  21.143  25.519  1.00  0.00     0.340 C 
ATOM     76  O   UNL A   1      35.616  21.774  26.547  1.00  0.00    -0.246 OA
BRANCH  75  77
ATOM     77  C   UNL A   1      34.738  20.240  24.983  1.00  0.00     0.085 A 
ATOM     78  C   UNL A   1      35.172  18.938  24.675  1.00  0.00     0.018 A 
ATOM     79  C   UNL A   1      33.403  20.632  24.801  1.00  0.00     0.077 A 
ATOM     80  C   UNL A   1      34.266  17.987  24.209  1.00  0.00     0.001 A 
ATOM     81  C   UNL A   1      32.524  19.651  24.301  1.00  0.00     0.029 A 
ATOM     82  C   UNL A   1      32.938  18.346  24.019  1.00  0.00     0.002 A 
BRANCH  79  83
ATOM     83  N   UNL A   1      32.725  21.764  25.290  1.00  0.00    -0.255 NA
ATOM     84  C   UNL A   1      32.748  22.958  24.789  1.00  0.00     0.127 C 
BRANCH  84  85
ATOM     85  C   UNL A   1      33.070  24.014  25.793  1.00  0.00     0.076 A 
ATOM     86  C   UNL A   1      33.949  24.961  25.420  1.00  0.00     0.209 A 
ATOM     87  C   UNL A   1      31.847  24.558  26.466  1.00  0.00     0.201 A 
ATOM     88  O   UNL A   1      33.669  26.328  25.526  1.00  0.00    -0.463 OA
ATOM     89  C   UNL A   1      31.356  25.723  25.698  1.00  0.00     0.065 A 
ATOM     90  O   UNL A   1      31.276  24.024  27.365  1.00  0.00    -0.288 OA
ATOM     91  C   UNL A   1      32.338  26.607  25.250  1.00  0.00     0.137 A 
ATOM     92  C   UNL A   1      30.058  25.762  25.206  1.00  0.00     0.016 A 
ATOM     93  C   UNL A   1      31.998  27.634  24.383  1.00  0.00     0.048 A 
ATOM     94  C   UNL A   1      29.720  26.763  24.298  1.00  0.00     0.001 A 
ATOM     95  C   UNL A   1      30.684  27.697  23.899  1.00  0.00     0.004 A 
ENDBRANCH  84  85
ENDBRANCH  79  83
ENDBRANCH  75  77
ENDBRANCH  74  75
ENDBRANCH  73  74
ENDBRANCH   1  73
TORSDOF 16
ENDMDL
MODEL 2
REMARK VINA RESULT:     -11.8      6.511     10.961
REMARK SMILES O=C(OCCOC(=O)c1ccccc1/N=C/c1coc2ccccc2c1=O)c1ccc(-c2c3nc(c(-c4c(F)cc(S(=O)(=O)[O-])cc4F)c4ccc([nH]4)c(-c4c(F)cc(S(=O)(=O)[O-])cc4F)c4nc(c(-c5c(F)cc(S(=O)(=O)[O-])cc5F)c5ccc2[nH]5)C=C4)C=C3)cc1
REMARK SMILES IDX 4 1 3 2 2 3 1 4 28 5 29 6 93 7 30 8 92 9 31 10 32 11 33 12
REMARK SMILES IDX 86 13 34 14 91 15 85 16 87 17 35 18 90 19 84 20 83 21 36 23
REMARK SMILES IDX 70 24 49 25 69 26 50 27 53 28 68 29 88 30 51 31 52 32 67 34
REMARK SMILES IDX 89 35 54 36 37 37 38 38 47 39 39 40 40 41 46 42 48 43 41 44
REMARK SMILES IDX 42 45 43 46 44 47 45 48 71 49 72 50 81 51 73 52 74 53 80 54
REMARK SMILES IDX 82 55 75 56 76 57 77 58 78 59 79 60 55 61 56 62 65 63 57 64
REMARK SMILES IDX 58 65 64 66 66 67 59 68 60 69 61 70 62 71 63 72 5 73 6 74
REMARK SMILES IDX 7 75 8 76 9 77 10 78 14 79 11 80 13 81 12 82 15 83 16 84
REMARK SMILES IDX 17 85 18 86 26 87 19 88 25 89 27 90 20 91 24 92 21 93 23 94
REMARK SMILES IDX 22 95
REMARK H PARENT 87 22 53 33
REMARK Flexibility Score: inf
ROOT
ATOM      1  C   UNL A   1      38.221  24.159  26.215  1.00  0.00     0.275 C 
ENDROOT
BRANCH   1   2
ATOM      2  O   UNL A   1      39.657  24.214  26.258  1.00  0.00    -0.458 OA
BRANCH   2   3
ATOM      3  C   UNL A   1      40.435  25.301  26.469  1.00  0.00     0.338 C 
ATOM      4  O   UNL A   1      41.149  25.706  25.549  1.00  0.00    -0.246 OA
BRANCH   3   5
ATOM      5  C   UNL A   1      40.475  26.047  27.765  1.00  0.00     0.060 A 
ATOM      6  C   UNL A   1      39.446  26.063  28.713  1.00  0.00     0.016 A 
ATOM      7  C   UNL A   1      41.567  26.911  27.960  1.00  0.00     0.016 A 
ATOM      8  C   UNL A   1      39.519  26.884  29.851  1.00  0.00     0.010 A 
ATOM      9  C   UNL A   1      41.626  27.758  29.071  1.00  0.00     0.010 A 
ATOM     10  C   UNL A   1      40.593  27.760  30.020  1.00  0.00    -0.014 A 
BRANCH  10  11
ATOM     11  C   UNL A   1      40.581  28.825  31.052  1.00  0.00     0.031 A 
ATOM     12  C   UNL A   1      41.174  28.530  32.394  1.00  0.00     0.074 A 
ATOM     13  C   UNL A   1      39.990  30.016  30.851  1.00  0.00     0.049 A 
ATOM     14  N   UNL A   1      41.202  29.292  33.454  1.00  0.00    -0.248 NA
ATOM     15  C   UNL A   1      41.874  27.245  32.546  1.00  0.00     0.031 C 
ATOM     16  C   UNL A   1      39.485  30.510  29.581  1.00  0.00     0.029 A 
ATOM     17  N   UNL A   1      39.611  30.983  31.751  1.00  0.00    -0.354 N 
ATOM     18  C   UNL A   1      42.050  28.652  34.339  1.00  0.00     0.074 A 
ATOM     19  C   UNL A   1      42.380  27.365  33.765  1.00  0.00     0.031 C 
ATOM     20  C   UNL A   1      38.656  31.542  29.812  1.00  0.00     0.029 A 
ATOM     21  C   UNL A   1      38.642  31.819  31.240  1.00  0.00     0.049 A 
ATOM     22  H   UNL A   1      39.989  31.069  32.656  1.00  0.00     0.167 HD
ATOM     23  C   UNL A   1      42.589  29.153  35.476  1.00  0.00     0.037 A 
ATOM     24  C   UNL A   1      37.813  32.669  31.873  1.00  0.00     0.037 A 
ATOM     25  C   UNL A   1      42.197  30.405  36.060  1.00  0.00     0.049 A 
ATOM     26  C   UNL A   1      38.103  33.007  33.301  1.00  0.00     0.074 A 
ATOM     27  C   UNL A   1      42.709  31.053  37.168  1.00  0.00     0.029 A 
ATOM     28  N   UNL A   1      41.146  31.181  35.593  1.00  0.00    -0.354 N 
ATOM     29  N   UNL A   1      39.010  32.484  34.090  1.00  0.00    -0.248 NA
ATOM     30  C   UNL A   1      37.348  34.116  33.894  1.00  0.00     0.031 C 
ATOM     31  C   UNL A   1      41.939  32.204  37.393  1.00  0.00     0.029 A 
ATOM     32  C   UNL A   1      40.963  32.281  36.412  1.00  0.00     0.049 A 
ATOM     33  H   UNL A   1      40.608  30.978  34.794  1.00  0.00     0.167 HD
ATOM     34  C   UNL A   1      39.035  33.290  35.217  1.00  0.00     0.074 A 
ATOM     35  C   UNL A   1      37.975  34.266  35.056  1.00  0.00     0.031 C 
ATOM     36  C   UNL A   1      39.923  33.267  36.239  1.00  0.00     0.037 A 
BRANCH  23  37
ATOM     37  C   UNL A   1      43.706  28.354  36.068  1.00  0.00     0.058 A 
ATOM     38  C   UNL A   1      43.422  27.292  36.945  1.00  0.00     0.135 A 
ATOM     39  C   UNL A   1      45.047  28.687  35.846  1.00  0.00     0.135 A 
ATOM     40  F   UNL A   1      42.149  26.950  37.203  1.00  0.00    -0.206 F 
ATOM     41  C   UNL A   1      44.429  26.623  37.626  1.00  0.00     0.059 A 
ATOM     42  C   UNL A   1      46.075  28.020  36.506  1.00  0.00     0.059 A 
ATOM     43  F   UNL A   1      45.365  29.700  35.025  1.00  0.00    -0.206 F 
ATOM     44  C   UNL A   1      45.753  27.009  37.415  1.00  0.00     0.060 A 
BRANCH  44  45
ATOM     45  S   UNL A   1      47.050  26.193  38.370  1.00  0.00     0.124 S 
ATOM     46  O   UNL A   1      47.610  25.284  37.376  1.00  0.00    -0.237 OA
ATOM     47  O   UNL A   1      47.907  27.309  38.760  1.00  0.00    -0.237 OA
ATOM     48  O   UNL A   1      46.316  25.561  39.461  1.00  0.00    -0.744 OA
ENDBRANCH  44  45
ENDBRANCH  23  37
BRANCH  24  49
ATOM     49  C   UNL A   1      36.651  33.255  31.163  1.00  0.00     0.058 A 
ATOM     50  C   UNL A   1      35.334  32.876  31.444  1.00  0.00     0.135 A 
ATOM     51  C   UNL A   1      36.856  34.238  30.181  1.00  0.00     0.135 A 
ATOM     52  F   UNL A   1      35.092  31.931  32.365  1.00  0.00    -0.206 F 
ATOM     53  C   UNL A   1      34.254  33.460  30.786  1.00  0.00     0.059 A 
ATOM     54  C   UNL A   1      35.794  34.834  29.508  1.00  0.00     0.059 A 
ATOM     55  F   UNL A   1      38.102  34.642  29.883  1.00  0.00    -0.206 F 
ATOM     56  C   UNL A   1      34.495  34.443  29.823  1.00  0.00     0.060 A 
BRANCH  56  57
ATOM     57  S   UNL A   1      33.085  35.252  29.033  1.00  0.00     0.124 S 
ATOM     58  O   UNL A   1      32.647  34.229  28.091  1.00  0.00    -0.237 OA
ATOM     59  O   UNL A   1      32.202  35.499  30.168  1.00  0.00    -0.237 OA
ATOM     60  O   UNL A   1      33.676  36.447  28.440  1.00  0.00    -0.744 OA
ENDBRANCH  56  57
ENDBRANCH  24  49
BRANCH  36  61
ATOM     61  C   UNL A   1      39.877  34.407  37.207  1.00  0.00     0.058 A 
ATOM     62  C   UNL A   1      40.563  35.607  36.983  1.00  0.00     0.135 A 
ATOM     63  C   UNL A   1      39.083  34.300  38.361  1.00  0.00     0.135 A 
ATOM     64  F   UNL A   1      41.351  35.744  35.906  1.00  0.00    -0.206 F 
ATOM     65  C   UNL A   1      40.460  36.671  37.873  1.00  0.00     0.059 A 
ATOM     66  C   UNL A   1      38.952  35.357  39.253  1.00  0.00     0.059 A 
ATOM     67  F   UNL A   1      38.412  33.167  38.618  1.00  0.00    -0.206 F 
ATOM     68  C   UNL A   1      39.648  36.538  39.003  1.00  0.00     0.060 A 
BRANCH  68  69
ATOM     69  S   UNL A   1      39.459  37.945  40.117  1.00  0.00     0.124 S 
ATOM     70  O   UNL A   1      38.250  38.572  39.594  1.00  0.00    -0.237 OA
ATOM     71  O   UNL A   1      39.326  37.302  41.421  1.00  0.00    -0.237 OA
ATOM     72  O   UNL A   1      40.694  38.697  39.921  1.00  0.00    -0.744 OA
ENDBRANCH  68  69
ENDBRANCH  36  61
ENDBRANCH  10  11
ENDBRANCH   3   5
ENDBRANCH   2   3
ENDBRANCH   1   2
BRANCH   1  73
ATOM     73  C   UNL A   1      37.654  23.207  25.172  1.00  0.00     0.275 C 
BRANCH  73  74
ATOM     74  O   UNL A   1      36.264  23.434  24.916  1.00  0.00    -0.458 OA
BRANCH  74  75
ATOM     75  C   UNL A   1      35.831  23.039  23.693  1.00  0.00     0.340 C 
ATOM     76  O   UNL A   1      36.467  22.960  22.663  1.00  0.00    -0.246 OA
BRANCH  75  77
ATOM     77  C   UNL A   1      34.396  22.771  23.778  1.00  0.00     0.085 A 
ATOM     78  C   UNL A   1      34.010  21.761  24.678  1.00  0.00     0.018 A 
ATOM     79  C   UNL A   1      33.451  23.487  23.027  1.00  0.00     0.077 A 
ATOM     80  C   UNL A   1      32.661  21.469  24.870  1.00  0.00     0.001 A 
ATOM     81  C   UNL A   1      32.099  23.142  23.228  1.00  0.00     0.029 A 
ATOM     82  C   UNL A   1      31.703  22.160  24.141  1.00  0.00     0.002 A 
BRANCH  79  83
ATOM     83  N   UNL A   1      33.599  24.683  22.302  1.00  0.00    -0.255 NA
ATOM     84  C   UNL A   1      34.081  25.801  22.742  1.00  0.00     0.127 C 
BRANCH  84  85
ATOM     85  C   UNL A   1      33.197  26.973  22.472  1.00  0.00     0.076 A 
ATOM     86  C   UNL A   1      32.136  26.764  21.672  1.00  0.00     0.209 A 
ATOM     87  C   UNL A   1      32.873  27.746  23.714  1.00  0.00     0.201 A 
ATOM     88  O   UNL A   1      30.834  27.114  22.048  1.00  0.00    -0.463 OA
ATOM     89  C   UNL A   1      31.631  27.203  24.306  1.00  0.00     0.065 A 
ATOM     90  O   UNL A   1      33.599  28.542  24.223  1.00  0.00    -0.288 OA
ATOM     91  C   UNL A   1      30.611  26.908  23.401  1.00  0.00     0.137 A 
ATOM     92  C   UNL A   1      31.604  26.740  25.616  1.00  0.00     0.016 A 
ATOM     93  C   UNL A   1      29.476  26.240  23.836  1.00  0.00     0.048 A 
ATOM     94  C   UNL A   1      30.487  26.029  26.047  1.00  0.00     0.001 A 
ATOM     95  C   UNL A   1      29.427  25.791  25.163  1.00  0.00     0.004 A 
ENDBRANCH  84  85
ENDBRANCH  79  83
ENDBRANCH  75  77
ENDBRANCH  74  75
ENDBRANCH  73  74
ENDBRANCH   1  73
TORSDOF 16
ENDMDL
MODEL 3
REMARK VINA RESULT:     -11.7      6.450     10.680
REMARK SMILES O=C(OCCOC(=O)c1ccccc1/N=C/c1coc2ccccc2c1=O)c1ccc(-c2c3nc(c(-c4c(F)cc(S(=O)(=O)[O-])cc4F)c4ccc([nH]4)c(-c4c(F)cc(S(=O)(=O)[O-])cc4F)c4nc(c(-c5c(F)cc(S(=O)(=O)[O-])cc5F)c5ccc2[nH]5)C=C4)C=C3)cc1
REMARK SMILES IDX 4 1 3 2 2 3 1 4 28 5 29 6 93 7 30 8 92 9 31 10 32 11 33 12
REMARK SMILES IDX 86 13 34 14 91 15 85 16 87 17 35 18 90 19 84 20 83 21 36 23
REMARK SMILES IDX 70 24 49 25 69 26 50 27 53 28 68 29 88 30 51 31 52 32 67 34
REMARK SMILES IDX 89 35 54 36 37 37 38 38 47 39 39 40 40 41 46 42 48 43 41 44
REMARK SMILES IDX 42 45 43 46 44 47 45 48 71 49 72 50 81 51 73 52 74 53 80 54
REMARK SMILES IDX 82 55 75 56 76 57 77 58 78 59 79 60 55 61 56 62 65 63 57 64
REMARK SMILES IDX 58 65 64 66 66 67 59 68 60 69 61 70 62 71 63 72 5 73 6 74
REMARK SMILES IDX 7 75 8 76 9 77 10 78 14 79 11 80 13 81 12 82 15 83 16 84
REMARK SMILES IDX 17 85 18 86 26 87 19 88 25 89 27 90 20 91 24 92 21 93 23 94
REMARK SMILES IDX 22 95
REMARK H PARENT 87 22 53 33
REMARK Flexibility Score: inf
ROOT
ATOM      1  C   UNL A   1      32.918  32.638  27.439  1.00  0.00     0.275 C 
ENDROOT
BRANCH   1   2
ATOM      2  O   UNL A   1      32.532  33.976  27.799  1.00  0.00    -0.458 OA
BRANCH   2   3
ATOM      3  C   UNL A   1      33.094  34.772  28.738  1.00  0.00     0.338 C 
ATOM      4  O   UNL A   1      32.599  35.881  28.948  1.00  0.00    -0.246 OA
BRANCH   3   5
ATOM      5  C   UNL A   1      34.292  34.377  29.544  1.00  0.00     0.060 A 
ATOM      6  C   UNL A   1      35.599  34.302  29.053  1.00  0.00     0.016 A 
ATOM      7  C   UNL A   1      34.045  33.900  30.843  1.00  0.00     0.016 A 
ATOM      8  C   UNL A   1      36.647  33.808  29.848  1.00  0.00     0.010 A 
ATOM      9  C   UNL A   1      35.077  33.372  31.625  1.00  0.00     0.010 A 
ATOM     10  C   UNL A   1      36.387  33.310  31.126  1.00  0.00    -0.014 A 
BRANCH  10  11
ATOM     11  C   UNL A   1      37.400  32.541  31.889  1.00  0.00     0.031 A 
ATOM     12  C   UNL A   1      38.140  33.229  32.993  1.00  0.00     0.074 A 
ATOM     13  C   UNL A   1      37.730  31.276  31.575  1.00  0.00     0.049 A 
ATOM     14  N   UNL A   1      39.110  32.762  33.733  1.00  0.00    -0.248 NA
ATOM     15  C   UNL A   1      37.696  34.585  33.351  1.00  0.00     0.031 C 
ATOM     16  C   UNL A   1      37.030  30.426  30.628  1.00  0.00     0.029 A 
ATOM     17  N   UNL A   1      38.821  30.525  31.944  1.00  0.00    -0.354 N 
ATOM     18  C   UNL A   1      39.284  33.698  34.736  1.00  0.00     0.074 A 
ATOM     19  C   UNL A   1      38.443  34.832  34.417  1.00  0.00     0.031 C 
ATOM     20  C   UNL A   1      37.824  29.392  30.298  1.00  0.00     0.029 A 
ATOM     21  C   UNL A   1      39.050  29.479  31.077  1.00  0.00     0.049 A 
ATOM     22  H   UNL A   1      39.373  30.712  32.737  1.00  0.00     0.167 HD
ATOM     23  C   UNL A   1      40.001  33.563  35.877  1.00  0.00     0.037 A 
ATOM     24  C   UNL A   1      40.149  28.721  30.909  1.00  0.00     0.037 A 
ATOM     25  C   UNL A   1      40.879  32.459  36.141  1.00  0.00     0.049 A 
ATOM     26  C   UNL A   1      41.217  28.785  31.954  1.00  0.00     0.074 A 
ATOM     27  C   UNL A   1      41.607  32.172  37.280  1.00  0.00     0.029 A 
ATOM     28  N   UNL A   1      41.181  31.471  35.214  1.00  0.00    -0.354 N 
ATOM     29  N   UNL A   1      41.297  29.591  32.984  1.00  0.00    -0.248 NA
ATOM     30  C   UNL A   1      42.281  27.776  31.889  1.00  0.00     0.031 C 
ATOM     31  C   UNL A   1      42.381  31.030  37.025  1.00  0.00     0.029 A 
ATOM     32  C   UNL A   1      42.116  30.596  35.735  1.00  0.00     0.049 A 
ATOM     33  H   UNL A   1      40.785  31.404  34.315  1.00  0.00     0.167 HD
ATOM     34  C   UNL A   1      42.330  29.099  33.766  1.00  0.00     0.074 A 
ATOM     35  C   UNL A   1      42.919  27.995  33.033  1.00  0.00     0.031 C 
ATOM     36  C   UNL A   1      42.685  29.481  35.016  1.00  0.00     0.037 A 
BRANCH  23  37
ATOM     37  C   UNL A   1      39.763  34.611  36.917  1.00  0.00     0.058 A 
ATOM     38  C   UNL A   1      40.453  35.835  36.853  1.00  0.00     0.135 A 
ATOM     39  C   UNL A   1      38.930  34.380  38.018  1.00  0.00     0.135 A 
ATOM     40  F   UNL A   1      41.278  36.093  35.824  1.00  0.00    -0.206 F 
ATOM     41  C   UNL A   1      40.370  36.771  37.873  1.00  0.00     0.059 A 
ATOM     42  C   UNL A   1      38.820  35.311  39.047  1.00  0.00     0.059 A 
ATOM     43  F   UNL A   1      38.260  33.223  38.128  1.00  0.00    -0.206 F 
ATOM     44  C   UNL A   1      39.565  36.490  38.978  1.00  0.00     0.060 A 
BRANCH  44  45
ATOM     45  S   UNL A   1      39.532  37.673  40.341  1.00  0.00     0.124 S 
ATOM     46  O   UNL A   1      38.743  36.947  41.332  1.00  0.00    -0.237 OA
ATOM     47  O   UNL A   1      40.948  37.834  40.657  1.00  0.00    -0.237 OA
ATOM     48  O   UNL A   1      38.887  38.842  39.756  1.00  0.00    -0.744 OA
ENDBRANCH  44  45
ENDBRANCH  23  37
BRANCH  24  49
ATOM     49  C   UNL A   1      40.283  27.843  29.723  1.00  0.00     0.058 A 
ATOM     50  C   UNL A   1      41.170  28.127  28.679  1.00  0.00     0.135 A 
ATOM     51  C   UNL A   1      39.513  26.671  29.630  1.00  0.00     0.135 A 
ATOM     52  F   UNL A   1      41.915  29.241  28.718  1.00  0.00    -0.206 F 
ATOM     53  C   UNL A   1      41.302  27.274  27.585  1.00  0.00     0.059 A 
ATOM     54  C   UNL A   1      39.626  25.804  28.547  1.00  0.00     0.059 A 
ATOM     55  F   UNL A   1      38.655  26.350  30.612  1.00  0.00    -0.206 F 
ATOM     56  C   UNL A   1      40.528  26.111  27.532  1.00  0.00     0.060 A 
BRANCH  56  57
ATOM     57  S   UNL A   1      40.766  24.970  26.150  1.00  0.00     0.124 S 
ATOM     58  O   UNL A   1      41.810  24.094  26.667  1.00  0.00    -0.237 OA
ATOM     59  O   UNL A   1      39.439  24.378  26.015  1.00  0.00    -0.237 OA
ATOM     60  O   UNL A   1      41.162  25.851  25.056  1.00  0.00    -0.744 OA
ENDBRANCH  56  57
ENDBRANCH  24  49
BRANCH  36  61
ATOM     61  C   UNL A   1      43.674  28.620  35.735  1.00  0.00     0.058 A 
ATOM     62  C   UNL A   1      45.052  28.864  35.691  1.00  0.00     0.135 A 
ATOM     63  C   UNL A   1      43.213  27.553  36.525  1.00  0.00     0.135 A 
ATOM     64  F   UNL A   1      45.538  29.857  34.932  1.00  0.00    -0.206 F 
ATOM     65  C   UNL A   1      45.945  28.079  36.413  1.00  0.00     0.059 A 
ATOM     66  C   UNL A   1      44.086  26.768  37.268  1.00  0.00     0.059 A 
ATOM     67  F   UNL A   1      41.900  27.279  36.593  1.00  0.00    -0.206 F 
ATOM     68  C   UNL A   1      45.452  27.036  37.202  1.00  0.00     0.060 A 
BRANCH  68  69
ATOM     69  S   UNL A   1      46.605  26.066  38.194  1.00  0.00     0.124 S 
ATOM     70  O   UNL A   1      47.252  27.103  38.989  1.00  0.00    -0.237 OA
ATOM     71  O   UNL A   1      45.718  25.167  38.926  1.00  0.00    -0.237 OA
ATOM     72  O   UNL A   1      47.449  25.421  37.192  1.00  0.00    -0.744 OA
ENDBRANCH  68  69
ENDBRANCH  36  61
ENDBRANCH  10  11
ENDBRANCH   3   5
ENDBRANCH   2   3
ENDBRANCH   1   2
BRANCH   1  73
ATOM     73  C   UNL A   1      31.788  31.779  26.890  1.00  0.00     0.275 C 
BRANCH  73  74
ATOM     74  O   UNL A   1      32.263  30.684  26.100  1.00  0.00    -0.458 OA
BRANCH  74  75
ATOM     75  C   UNL A   1      31.755  29.471  26.431  1.00  0.00     0.340 C 
ATOM     76  O   UNL A   1      31.543  29.026  27.540  1.00  0.00    -0.246 OA
BRANCH  75  77
ATOM     77  C   UNL A   1      31.552  28.706  25.202  1.00  0.00     0.085 A 
ATOM     78  C   UNL A   1      30.685  29.281  24.255  1.00  0.00     0.018 A 
ATOM     79  C   UNL A   1      32.194  27.481  24.963  1.00  0.00     0.077 A 
ATOM     80  C   UNL A   1      30.470  28.655  23.029  1.00  0.00     0.001 A 
ATOM     81  C   UNL A   1      31.927  26.865  23.724  1.00  0.00     0.029 A 
ATOM     82  C   UNL A   1      31.091  27.442  22.764  1.00  0.00     0.002 A 
BRANCH  79  83
ATOM     83  N   UNL A   1      33.277  26.887  25.637  1.00  0.00    -0.255 NA
ATOM     84  C   UNL A   1      34.246  26.215  25.104  1.00  0.00     0.127 C 
BRANCH  84  85
ATOM     85  C   UNL A   1      34.472  24.889  25.749  1.00  0.00     0.076 A 
ATOM     86  C   UNL A   1      33.443  24.365  26.440  1.00  0.00     0.209 A 
ATOM     87  C   UNL A   1      35.144  23.911  24.834  1.00  0.00     0.201 A 
ATOM     88  O   UNL A   1      32.966  23.070  26.207  1.00  0.00    -0.463 OA
ATOM     89  C   UNL A   1      34.108  23.151  24.101  1.00  0.00     0.065 A 
ATOM     90  O   UNL A   1      36.314  23.886  24.613  1.00  0.00    -0.288 OA
ATOM     91  C   UNL A   1      33.016  22.733  24.862  1.00  0.00     0.137 A 
ATOM     92  C   UNL A   1      34.083  23.128  22.713  1.00  0.00     0.016 A 
ATOM     93  C   UNL A   1      31.917  22.163  24.237  1.00  0.00     0.048 A 
ATOM     94  C   UNL A   1      32.963  22.599  22.075  1.00  0.00     0.001 A 
ATOM     95  C   UNL A   1      31.893  22.112  22.836  1.00  0.00     0.004 A 
ENDBRANCH  84  85
ENDBRANCH  79  83
ENDBRANCH  75  77
ENDBRANCH  74  75
ENDBRANCH  73  74
ENDBRANCH   1  73
TORSDOF 16
ENDMDL
