MODEL 1
REMARK VINA RESULT:     -12.4      0.000      0.000
REMARK SMILES Cc1ccc(S(=O)(=O)/C=C/C(=O)OCCOC(=O)c2ccc(-c3c4nc(c(-c5c(F)cc(S(=O)(=O)[O-])cc5F)c5ccc([nH]5)c(-c5c(F)cc(S(=O)(=O)[O-])cc5F)c5nc(c(-c6c(F)cc(S(=O)(=O)[O-])cc6F)c6ccc3[nH]6)C=C5)C=C4)cc2)cc1
REMARK SMILES IDX 15 1 14 2 13 3 11 4 12 5 10 6 9 7 6 8 7 9 8 10 5 11 1 12
REMARK SMILES IDX 2 13 3 14 86 15 4 16 85 17 16 18 17 19 18 20 19 21 20 22
REMARK SMILES IDX 84 23 21 24 83 25 22 26 23 27 24 28 77 29 25 30 82 31 76 32
REMARK SMILES IDX 78 33 26 34 81 35 75 36 74 37 27 39 61 40 40 41 60 42 41 43
REMARK SMILES IDX 44 44 59 45 79 46 42 47 43 48 58 50 80 51 45 52 28 53 29 54
REMARK SMILES IDX 38 55 30 56 31 57 37 58 39 59 32 60 33 61 34 62 35 63 36 64
REMARK SMILES IDX 62 65 63 66 72 67 64 68 65 69 71 70 73 71 66 72 67 73 68 74
REMARK SMILES IDX 69 75 70 76 46 77 47 78 56 79 48 80 49 81 55 82 57 83 50 84
REMARK SMILES IDX 51 85 52 86 53 87 54 88
REMARK H PARENT 78 38 44 49
REMARK Flexibility Score: inf
ROOT
ATOM      1  C   UNL A   1      34.115  31.523  28.001  1.00  0.00     0.275 C 
ENDROOT
BRANCH   1   2
ATOM      2  C   UNL A   1      33.240  30.389  27.453  1.00  0.00     0.275 C 
BRANCH   2   3
ATOM      3  O   UNL A   1      33.772  29.981  26.182  1.00  0.00    -0.459 OA
BRANCH   3   4
ATOM      4  C   UNL A   1      32.856  29.242  25.329  1.00  0.00     0.331 C 
ATOM      5  O   UNL A   1      31.846  29.982  25.209  1.00  0.00    -0.247 OA
BRANCH   4   6
ATOM      6  C   UNL A   1      33.247  27.289  24.545  1.00  0.00     0.106 C 
ATOM      7  C   UNL A   1      33.757  26.551  23.473  1.00  0.00     0.118 C 
BRANCH   7   8
ATOM      8  S   UNL A   1      33.560  24.802  23.352  1.00  0.00     0.200 S 
ATOM      9  O   UNL A   1      33.548  24.398  21.958  1.00  0.00    -0.219 OA
ATOM     10  O   UNL A   1      32.432  24.465  24.206  1.00  0.00    -0.219 OA
BRANCH   8  11
ATOM     11  C   UNL A   1      34.980  23.988  24.098  1.00  0.00     0.071 A 
ATOM     12  C   UNL A   1      38.470  22.038  25.762  1.00  0.00     0.044 C 
ATOM     13  C   UNL A   1      37.245  22.692  25.192  1.00  0.00    -0.051 A 
ATOM     14  C   UNL A   1      36.696  22.266  23.975  1.00  0.00     0.005 A 
ATOM     15  C   UNL A   1      36.648  23.765  25.853  1.00  0.00     0.005 A 
ATOM     16  C   UNL A   1      35.565  22.904  23.434  1.00  0.00     0.021 A 
ATOM     17  C   UNL A   1      35.535  24.408  25.302  1.00  0.00     0.021 A 
ENDBRANCH   8  11
ENDBRANCH   7   8
ENDBRANCH   4   6
ENDBRANCH   3   4
ENDBRANCH   2   3
ENDBRANCH   1   2
BRANCH   1  18
ATOM     18  O   UNL A   1      35.418  31.644  27.378  1.00  0.00    -0.458 OA
BRANCH  18  19
ATOM     19  C   UNL A   1      36.515  31.551  28.169  1.00  0.00     0.338 C 
ATOM     20  O   UNL A   1      37.028  32.427  28.837  1.00  0.00    -0.246 OA
BRANCH  19  21
ATOM     21  C   UNL A   1      36.964  30.156  28.173  1.00  0.00     0.060 A 
ATOM     22  C   UNL A   1      36.897  29.246  29.745  1.00  0.00     0.016 A 
ATOM     23  C   UNL A   1      38.231  29.762  26.931  1.00  0.00     0.016 A 
ATOM     24  C   UNL A   1      38.209  28.046  30.178  1.00  0.00     0.010 A 
ATOM     25  C   UNL A   1      39.568  28.618  27.380  1.00  0.00     0.010 A 
ATOM     26  C   UNL A   1      39.597  27.829  29.022  1.00  0.00    -0.014 A 
BRANCH  26  27
ATOM     27  C   UNL A   1      40.884  27.301  29.365  1.00  0.00     0.031 A 
ATOM     28  C   UNL A   1      41.107  25.906  28.994  1.00  0.00     0.074 A 
ATOM     29  C   UNL A   1      41.845  28.195  29.678  1.00  0.00     0.049 A 
ATOM     30  N   UNL A   1      42.143  25.243  29.330  1.00  0.00    -0.248 NA
ATOM     31  C   UNL A   1      40.154  25.109  28.224  1.00  0.00     0.031 C 
ATOM     32  C   UNL A   1      43.292  28.079  29.563  1.00  0.00     0.029 A 
ATOM     33  N   UNL A   1      41.676  29.401  30.342  1.00  0.00    -0.354 N 
ATOM     34  C   UNL A   1      42.196  24.138  28.513  1.00  0.00     0.074 A 
ATOM     35  C   UNL A   1      40.885  24.032  27.933  1.00  0.00     0.031 C 
ATOM     36  C   UNL A   1      43.872  29.010  30.345  1.00  0.00     0.029 A 
ATOM     37  C   UNL A   1      42.821  29.677  31.096  1.00  0.00     0.049 A 
ATOM     38  H   UNL A   1      40.876  29.972  30.292  1.00  0.00     0.167 HD
ATOM     39  C   UNL A   1      43.420  23.579  28.315  1.00  0.00     0.037 A 
ATOM     40  C   UNL A   1      42.706  29.653  32.461  1.00  0.00     0.037 A 
ATOM     41  C   UNL A   1      44.403  24.240  29.191  1.00  0.00     0.049 A 
ATOM     42  C   UNL A   1      43.284  28.375  33.076  1.00  0.00     0.074 A 
ATOM     43  C   UNL A   1      45.370  25.218  29.019  1.00  0.00     0.029 A 
ATOM     44  N   UNL A   1      44.158  24.214  30.553  1.00  0.00    -0.354 N 
ATOM     45  N   UNL A   1      43.798  27.391  32.381  1.00  0.00    -0.248 NA
ATOM     46  C   UNL A   1      43.321  28.088  34.508  1.00  0.00     0.031 C 
ATOM     47  C   UNL A   1      45.682  25.769  30.306  1.00  0.00     0.029 A 
ATOM     48  C   UNL A   1      44.920  25.118  31.259  1.00  0.00     0.049 A 
ATOM     49  H   UNL A   1      43.505  23.610  30.974  1.00  0.00     0.167 HD
ATOM     50  C   UNL A   1      44.179  26.356  33.197  1.00  0.00     0.074 A 
ATOM     51  C   UNL A   1      43.829  26.840  34.526  1.00  0.00     0.031 C 
ATOM     52  C   UNL A   1      44.729  25.194  32.708  1.00  0.00     0.037 A 
BRANCH  39  53
ATOM     53  C   UNL A   1      43.766  22.637  27.185  1.00  0.00     0.058 A 
ATOM     54  C   UNL A   1      43.113  21.390  27.101  1.00  0.00     0.135 A 
ATOM     55  C   UNL A   1      44.727  22.862  26.176  1.00  0.00     0.135 A 
ATOM     56  F   UNL A   1      42.145  21.044  27.960  1.00  0.00    -0.206 F 
ATOM     57  C   UNL A   1      43.421  20.433  26.136  1.00  0.00     0.059 A 
ATOM     58  C   UNL A   1      45.085  21.901  25.224  1.00  0.00     0.059 A 
ATOM     59  F   UNL A   1      45.332  24.044  26.018  1.00  0.00    -0.206 F 
ATOM     60  C   UNL A   1      44.415  20.689  25.206  1.00  0.00     0.060 A 
BRANCH  60  61
ATOM     61  S   UNL A   1      44.772  19.443  23.960  1.00  0.00     0.124 S 
ATOM     62  O   UNL A   1      44.510  20.166  22.719  1.00  0.00    -0.237 OA
ATOM     63  O   UNL A   1      46.172  19.137  24.234  1.00  0.00    -0.237 OA
ATOM     64  O   UNL A   1      43.826  18.372  24.265  1.00  0.00    -0.744 OA
ENDBRANCH  60  61
ENDBRANCH  39  53
BRANCH  40  65
ATOM     65  C   UNL A   1      41.506  30.447  32.900  1.00  0.00     0.058 A 
ATOM     66  C   UNL A   1      40.421  29.710  33.435  1.00  0.00     0.135 A 
ATOM     67  C   UNL A   1      41.569  31.803  33.245  1.00  0.00     0.135 A 
ATOM     68  F   UNL A   1      40.273  28.415  33.110  1.00  0.00    -0.206 F 
ATOM     69  C   UNL A   1      39.570  30.231  34.410  1.00  0.00     0.059 A 
ATOM     70  C   UNL A   1      40.686  32.362  34.186  1.00  0.00     0.059 A 
ATOM     71  F   UNL A   1      42.573  32.571  32.796  1.00  0.00    -0.206 F 
ATOM     72  C   UNL A   1      39.737  31.550  34.813  1.00  0.00     0.060 A 
BRANCH  72  73
ATOM     73  S   UNL A   1      38.795  32.139  36.245  1.00  0.00     0.124 S 
ATOM     74  O   UNL A   1      38.507  33.519  35.872  1.00  0.00    -0.237 OA
ATOM     75  O   UNL A   1      37.646  31.241  36.265  1.00  0.00    -0.237 OA
ATOM     76  O   UNL A   1      39.731  31.979  37.356  1.00  0.00    -0.744 OA
ENDBRANCH  72  73
ENDBRANCH  40  65
BRANCH  52  77
ATOM     77  C   UNL A   1      45.109  23.975  33.542  1.00  0.00     0.058 A 
ATOM     78  C   UNL A   1      44.171  23.065  34.046  1.00  0.00     0.135 A 
ATOM     79  C   UNL A   1      46.449  23.720  33.947  1.00  0.00     0.135 A 
ATOM     80  F   UNL A   1      42.854  23.280  33.909  1.00  0.00    -0.206 F 
ATOM     81  C   UNL A   1      44.543  21.923  34.765  1.00  0.00     0.059 A 
ATOM     82  C   UNL A   1      46.836  22.628  34.711  1.00  0.00     0.059 A 
ATOM     83  F   UNL A   1      47.479  24.507  33.620  1.00  0.00    -0.206 F 
ATOM     84  C   UNL A   1      45.882  21.708  35.083  1.00  0.00     0.060 A 
BRANCH  84  85
ATOM     85  S   UNL A   1      46.363  20.259  36.027  1.00  0.00     0.124 S 
ATOM     86  O   UNL A   1      47.817  20.377  36.048  1.00  0.00    -0.237 OA
ATOM     87  O   UNL A   1      45.687  20.501  37.299  1.00  0.00    -0.237 OA
ATOM     88  O   UNL A   1      45.841  19.145  35.243  1.00  0.00    -0.744 OA
ENDBRANCH  84  85
ENDBRANCH  52  77
ENDBRANCH  26  27
ENDBRANCH  19  21
ENDBRANCH  18  19
ENDBRANCH   1  18
TORSDOF 16
ENDMDL
MODEL 2
REMARK VINA RESULT:     -11.8      1.398      2.175
REMARK SMILES Cc1ccc(S(=O)(=O)/C=C/C(=O)OCCOC(=O)c2ccc(-c3c4nc(c(-c5c(F)cc(S(=O)(=O)[O-])cc5F)c5ccc([nH]5)c(-c5c(F)cc(S(=O)(=O)[O-])cc5F)c5nc(c(-c6c(F)cc(S(=O)(=O)[O-])cc6F)c6ccc3[nH]6)C=C5)C=C4)cc2)cc1
REMARK SMILES IDX 15 1 14 2 13 3 11 4 12 5 10 6 9 7 6 8 7 9 8 10 5 11 1 12
REMARK SMILES IDX 2 13 3 14 86 15 4 16 85 17 16 18 17 19 18 20 19 21 20 22
REMARK SMILES IDX 84 23 21 24 83 25 22 26 23 27 24 28 77 29 25 30 82 31 76 32
REMARK SMILES IDX 78 33 26 34 81 35 75 36 74 37 27 39 61 40 40 41 60 42 41 43
REMARK SMILES IDX 44 44 59 45 79 46 42 47 43 48 58 50 80 51 45 52 28 53 29 54
REMARK SMILES IDX 38 55 30 56 31 57 37 58 39 59 32 60 33 61 34 62 35 63 36 64
REMARK SMILES IDX 62 65 63 66 72 67 64 68 65 69 71 70 73 71 66 72 67 73 68 74
REMARK SMILES IDX 69 75 70 76 46 77 47 78 56 79 48 80 49 81 55 82 57 83 50 84
REMARK SMILES IDX 51 85 52 86 53 87 54 88
REMARK H PARENT 78 38 44 49
REMARK Flexibility Score: inf
ROOT
ATOM      1  C   UNL A   1      34.436  30.420  27.690  1.00  0.00     0.275 C 
ENDROOT
BRANCH   1   2
ATOM      2  C   UNL A   1      33.622  30.090  26.432  1.00  0.00     0.275 C 
BRANCH   2   3
ATOM      3  O   UNL A   1      32.309  29.672  26.840  1.00  0.00    -0.459 OA
BRANCH   3   4
ATOM      4  C   UNL A   1      31.583  28.863  25.876  1.00  0.00     0.331 C 
ATOM      5  O   UNL A   1      31.016  29.687  25.112  1.00  0.00    -0.247 OA
BRANCH   4   6
ATOM      6  C   UNL A   1      31.533  26.723  25.891  1.00  0.00     0.106 C 
ATOM      7  C   UNL A   1      30.732  25.581  25.807  1.00  0.00     0.118 C 
BRANCH   7   8
ATOM      8  S   UNL A   1      31.350  23.965  26.149  1.00  0.00     0.200 S 
ATOM      9  O   UNL A   1      30.421  22.963  25.662  1.00  0.00    -0.219 OA
ATOM     10  O   UNL A   1      31.730  23.969  27.553  1.00  0.00    -0.219 OA
BRANCH   8  11
ATOM     11  C   UNL A   1      32.885  23.709  25.245  1.00  0.00     0.071 A 
ATOM     12  C   UNL A   1      36.607  22.972  23.159  1.00  0.00     0.044 C 
ATOM     13  C   UNL A   1      35.325  23.252  23.888  1.00  0.00    -0.051 A 
ATOM     14  C   UNL A   1      35.287  23.318  25.287  1.00  0.00     0.005 A 
ATOM     15  C   UNL A   1      34.136  23.422  23.180  1.00  0.00     0.005 A 
ATOM     16  C   UNL A   1      34.076  23.552  25.962  1.00  0.00     0.021 A 
ATOM     17  C   UNL A   1      32.931  23.636  23.856  1.00  0.00     0.021 A 
ENDBRANCH   8  11
ENDBRANCH   7   8
ENDBRANCH   4   6
ENDBRANCH   3   4
ENDBRANCH   2   3
ENDBRANCH   1   2
BRANCH   1  18
ATOM     18  O   UNL A   1      35.291  31.584  27.574  1.00  0.00    -0.458 OA
BRANCH  18  19
ATOM     19  C   UNL A   1      36.502  31.549  28.182  1.00  0.00     0.338 C 
ATOM     20  O   UNL A   1      37.118  32.476  28.672  1.00  0.00    -0.246 OA
BRANCH  19  21
ATOM     21  C   UNL A   1      36.946  30.154  28.246  1.00  0.00     0.060 A 
ATOM     22  C   UNL A   1      36.922  29.327  29.865  1.00  0.00     0.016 A 
ATOM     23  C   UNL A   1      38.175  29.689  26.989  1.00  0.00     0.016 A 
ATOM     24  C   UNL A   1      38.242  28.144  30.321  1.00  0.00     0.010 A 
ATOM     25  C   UNL A   1      39.520  28.563  27.458  1.00  0.00     0.010 A 
ATOM     26  C   UNL A   1      39.594  27.860  29.138  1.00  0.00    -0.014 A 
BRANCH  26  27
ATOM     27  C   UNL A   1      40.889  27.343  29.470  1.00  0.00     0.031 A 
ATOM     28  C   UNL A   1      41.132  25.961  29.068  1.00  0.00     0.074 A 
ATOM     29  C   UNL A   1      41.837  28.245  29.802  1.00  0.00     0.049 A 
ATOM     30  N   UNL A   1      42.178  25.306  29.390  1.00  0.00    -0.248 NA
ATOM     31  C   UNL A   1      40.191  25.167  28.280  1.00  0.00     0.031 C 
ATOM     32  C   UNL A   1      43.285  28.153  29.686  1.00  0.00     0.029 A 
ATOM     33  N   UNL A   1      41.650  29.433  30.493  1.00  0.00    -0.354 N 
ATOM     34  C   UNL A   1      42.248  24.220  28.549  1.00  0.00     0.074 A 
ATOM     35  C   UNL A   1      40.939  24.108  27.966  1.00  0.00     0.031 C 
ATOM     36  C   UNL A   1      43.851  29.075  30.489  1.00  0.00     0.029 A 
ATOM     37  C   UNL A   1      42.790  29.710  31.253  1.00  0.00     0.049 A 
ATOM     38  H   UNL A   1      40.841  29.993  30.455  1.00  0.00     0.167 HD
ATOM     39  C   UNL A   1      43.480  23.683  28.340  1.00  0.00     0.037 A 
ATOM     40  C   UNL A   1      42.675  29.654  32.617  1.00  0.00     0.037 A 
ATOM     41  C   UNL A   1      44.453  24.339  29.231  1.00  0.00     0.049 A 
ATOM     42  C   UNL A   1      43.272  28.371  33.204  1.00  0.00     0.074 A 
ATOM     43  C   UNL A   1      45.405  25.336  29.080  1.00  0.00     0.029 A 
ATOM     44  N   UNL A   1      44.208  24.280  30.591  1.00  0.00    -0.354 N 
ATOM     45  N   UNL A   1      43.800  27.410  32.488  1.00  0.00    -0.248 NA
ATOM     46  C   UNL A   1      43.312  28.053  34.629  1.00  0.00     0.031 C 
ATOM     47  C   UNL A   1      45.709  25.862  30.379  1.00  0.00     0.029 A 
ATOM     48  C   UNL A   1      44.956  25.180  31.317  1.00  0.00     0.049 A 
ATOM     49  H   UNL A   1      43.564  23.658  30.999  1.00  0.00     0.167 HD
ATOM     50  C   UNL A   1      44.196  26.364  33.281  1.00  0.00     0.074 A 
ATOM     51  C   UNL A   1      43.839  26.812  34.620  1.00  0.00     0.031 C 
ATOM     52  C   UNL A   1      44.763  25.221  32.767  1.00  0.00     0.037 A 
BRANCH  39  53
ATOM     53  C   UNL A   1      43.840  22.772  27.189  1.00  0.00     0.058 A 
ATOM     54  C   UNL A   1      43.216  21.511  27.086  1.00  0.00     0.135 A 
ATOM     55  C   UNL A   1      44.789  23.039  26.178  1.00  0.00     0.135 A 
ATOM     56  F   UNL A   1      42.263  21.127  27.943  1.00  0.00    -0.206 F 
ATOM     57  C   UNL A   1      43.539  20.580  26.100  1.00  0.00     0.059 A 
ATOM     58  C   UNL A   1      45.162  22.105  25.206  1.00  0.00     0.059 A 
ATOM     59  F   UNL A   1      45.365  24.237  26.040  1.00  0.00    -0.206 F 
ATOM     60  C   UNL A   1      44.521  20.878  25.169  1.00  0.00     0.060 A 
BRANCH  60  61
ATOM     61  S   UNL A   1      44.898  19.664  23.896  1.00  0.00     0.124 S 
ATOM     62  O   UNL A   1      44.510  20.367  22.678  1.00  0.00    -0.237 OA
ATOM     63  O   UNL A   1      46.331  19.466  24.087  1.00  0.00    -0.237 OA
ATOM     64  O   UNL A   1      44.055  18.525  24.250  1.00  0.00    -0.744 OA
ENDBRANCH  60  61
ENDBRANCH  39  53
BRANCH  40  65
ATOM     65  C   UNL A   1      41.464  30.420  33.073  1.00  0.00     0.058 A 
ATOM     66  C   UNL A   1      41.556  31.834  33.030  1.00  0.00     0.135 A 
ATOM     67  C   UNL A   1      40.171  29.880  33.076  1.00  0.00     0.135 A 
ATOM     68  F   UNL A   1      42.763  32.423  33.069  1.00  0.00    -0.206 F 
ATOM     69  C   UNL A   1      40.449  32.650  32.800  1.00  0.00     0.059 A 
ATOM     70  C   UNL A   1      39.037  30.691  32.899  1.00  0.00     0.059 A 
ATOM     71  F   UNL A   1      39.993  28.551  33.098  1.00  0.00    -0.206 F 
ATOM     72  C   UNL A   1      39.193  32.064  32.692  1.00  0.00     0.060 A 
BRANCH  72  73
ATOM     73  S   UNL A   1      37.805  33.098  32.152  1.00  0.00     0.124 S 
ATOM     74  O   UNL A   1      36.869  32.104  31.638  1.00  0.00    -0.237 OA
ATOM     75  O   UNL A   1      37.401  33.764  33.385  1.00  0.00    -0.237 OA
ATOM     76  O   UNL A   1      38.404  33.968  31.141  1.00  0.00    -0.744 OA
ENDBRANCH  72  73
ENDBRANCH  40  65
BRANCH  52  77
ATOM     77  C   UNL A   1      45.161  23.990  33.575  1.00  0.00     0.058 A 
ATOM     78  C   UNL A   1      46.462  23.765  34.045  1.00  0.00     0.135 A 
ATOM     79  C   UNL A   1      44.252  22.927  33.838  1.00  0.00     0.135 A 
ATOM     80  F   UNL A   1      47.470  24.585  33.711  1.00  0.00    -0.206 F 
ATOM     81  C   UNL A   1      46.796  22.655  34.829  1.00  0.00     0.059 A 
ATOM     82  C   UNL A   1      44.575  21.788  34.562  1.00  0.00     0.059 A 
ATOM     83  F   UNL A   1      42.982  22.925  33.419  1.00  0.00    -0.206 F 
ATOM     84  C   UNL A   1      45.841  21.677  35.091  1.00  0.00     0.060 A 
BRANCH  84  85
ATOM     85  S   UNL A   1      46.270  20.238  36.076  1.00  0.00     0.124 S 
ATOM     86  O   UNL A   1      45.605  19.161  35.348  1.00  0.00    -0.237 OA
ATOM     87  O   UNL A   1      47.728  20.253  35.994  1.00  0.00    -0.237 OA
ATOM     88  O   UNL A   1      45.712  20.537  37.390  1.00  0.00    -0.744 OA
ENDBRANCH  84  85
ENDBRANCH  52  77
ENDBRANCH  26  27
ENDBRANCH  19  21
ENDBRANCH  18  19
ENDBRANCH   1  18
TORSDOF 16
ENDMDL
MODEL 3
REMARK VINA RESULT:     -11.6      1.957      2.517
REMARK SMILES Cc1ccc(S(=O)(=O)/C=C/C(=O)OCCOC(=O)c2ccc(-c3c4nc(c(-c5c(F)cc(S(=O)(=O)[O-])cc5F)c5ccc([nH]5)c(-c5c(F)cc(S(=O)(=O)[O-])cc5F)c5nc(c(-c6c(F)cc(S(=O)(=O)[O-])cc6F)c6ccc3[nH]6)C=C5)C=C4)cc2)cc1
REMARK SMILES IDX 15 1 14 2 13 3 11 4 12 5 10 6 9 7 6 8 7 9 8 10 5 11 1 12
REMARK SMILES IDX 2 13 3 14 86 15 4 16 85 17 16 18 17 19 18 20 19 21 20 22
REMARK SMILES IDX 84 23 21 24 83 25 22 26 23 27 24 28 77 29 25 30 82 31 76 32
REMARK SMILES IDX 78 33 26 34 81 35 75 36 74 37 27 39 61 40 40 41 60 42 41 43
REMARK SMILES IDX 44 44 59 45 79 46 42 47 43 48 58 50 80 51 45 52 28 53 29 54
REMARK SMILES IDX 38 55 30 56 31 57 37 58 39 59 32 60 33 61 34 62 35 63 36 64
REMARK SMILES IDX 62 65 63 66 72 67 64 68 65 69 71 70 73 71 66 72 67 73 68 74
REMARK SMILES IDX 69 75 70 76 46 77 47 78 56 79 48 80 49 81 55 82 57 83 50 84
REMARK SMILES IDX 51 85 52 86 53 87 54 88
REMARK H PARENT 78 38 44 49
REMARK Flexibility Score: inf
ROOT
ATOM      1  C   UNL A   1      33.389  30.666  27.522  1.00  0.00     0.275 C 
ENDROOT
BRANCH   1   2
ATOM      2  C   UNL A   1      33.097  30.130  26.114  1.00  0.00     0.275 C 
BRANCH   2   3
ATOM      3  O   UNL A   1      31.676  29.978  25.975  1.00  0.00    -0.459 OA
BRANCH   3   4
ATOM      4  C   UNL A   1      31.246  28.932  25.060  1.00  0.00     0.331 C 
ATOM      5  O   UNL A   1      30.876  29.534  24.019  1.00  0.00    -0.247 OA
BRANCH   4   6
ATOM      6  C   UNL A   1      31.247  26.844  25.530  1.00  0.00     0.106 C 
ATOM      7  C   UNL A   1      31.926  25.798  26.160  1.00  0.00     0.118 C 
BRANCH   7   8
ATOM      8  S   UNL A   1      31.452  24.111  25.967  1.00  0.00     0.200 S 
ATOM      9  O   UNL A   1      30.653  23.952  24.766  1.00  0.00    -0.219 OA
ATOM     10  O   UNL A   1      30.908  23.696  27.251  1.00  0.00    -0.219 OA
BRANCH   8  11
ATOM     11  C   UNL A   1      32.922  23.101  25.728  1.00  0.00     0.071 A 
ATOM     12  C   UNL A   1      36.435  20.675  25.001  1.00  0.00     0.044 C 
ATOM     13  C   UNL A   1      35.207  21.496  25.269  1.00  0.00    -0.051 A 
ATOM     14  C   UNL A   1      33.978  21.175  24.678  1.00  0.00     0.005 A 
ATOM     15  C   UNL A   1      35.277  22.620  26.091  1.00  0.00     0.005 A 
ATOM     16  C   UNL A   1      32.839  21.967  24.911  1.00  0.00     0.021 A 
ATOM     17  C   UNL A   1      34.147  23.415  26.306  1.00  0.00     0.021 A 
ENDBRANCH   8  11
ENDBRANCH   7   8
ENDBRANCH   4   6
ENDBRANCH   3   4
ENDBRANCH   2   3
ENDBRANCH   1   2
BRANCH   1  18
ATOM     18  O   UNL A   1      33.951  32.001  27.562  1.00  0.00    -0.458 OA
BRANCH  18  19
ATOM     19  C   UNL A   1      35.207  32.150  28.048  1.00  0.00     0.338 C 
ATOM     20  O   UNL A   1      35.808  33.187  28.255  1.00  0.00    -0.246 OA
BRANCH  19  21
ATOM     21  C   UNL A   1      35.732  30.825  28.386  1.00  0.00     0.060 A 
ATOM     22  C   UNL A   1      35.853  30.382  30.145  1.00  0.00     0.016 A 
ATOM     23  C   UNL A   1      36.905  30.140  27.178  1.00  0.00     0.016 A 
ATOM     24  C   UNL A   1      37.263  29.387  30.755  1.00  0.00     0.010 A 
ATOM     25  C   UNL A   1      38.337  29.204  27.786  1.00  0.00     0.010 A 
ATOM     26  C   UNL A   1      38.554  28.900  29.569  1.00  0.00    -0.014 A 
BRANCH  26  27
ATOM     27  C   UNL A   1      39.893  28.524  29.913  1.00  0.00     0.031 A 
ATOM     28  C   UNL A   1      40.297  27.187  29.486  1.00  0.00     0.074 A 
ATOM     29  C   UNL A   1      40.729  29.519  30.281  1.00  0.00     0.049 A 
ATOM     30  N   UNL A   1      41.405  26.647  29.812  1.00  0.00    -0.248 NA
ATOM     31  C   UNL A   1      39.463  26.311  28.665  1.00  0.00     0.031 C 
ATOM     32  C   UNL A   1      42.180  29.592  30.188  1.00  0.00     0.029 A 
ATOM     33  N   UNL A   1      40.398  30.662  30.993  1.00  0.00    -0.354 N 
ATOM     34  C   UNL A   1      41.609  25.595  28.951  1.00  0.00     0.074 A 
ATOM     35  C   UNL A   1      40.330  25.350  28.342  1.00  0.00     0.031 C 
ATOM     36  C   UNL A   1      42.626  30.553  31.019  1.00  0.00     0.029 A 
ATOM     37  C   UNL A   1      41.489  31.048  31.779  1.00  0.00     0.049 A 
ATOM     38  H   UNL A   1      39.533  31.128  30.953  1.00  0.00     0.167 HD
ATOM     39  C   UNL A   1      42.897  25.205  28.751  1.00  0.00     0.037 A 
ATOM     40  C   UNL A   1      41.361  30.948  33.139  1.00  0.00     0.037 A 
ATOM     41  C   UNL A   1      43.776  25.945  29.673  1.00  0.00     0.049 A 
ATOM     42  C   UNL A   1      42.089  29.727  33.709  1.00  0.00     0.074 A 
ATOM     43  C   UNL A   1      44.612  27.046  29.560  1.00  0.00     0.029 A 
ATOM     44  N   UNL A   1      43.519  25.828  31.027  1.00  0.00    -0.354 N 
ATOM     45  N   UNL A   1      42.733  28.848  32.982  1.00  0.00    -0.248 NA
ATOM     46  C   UNL A   1      42.144  29.383  35.128  1.00  0.00     0.031 C 
ATOM     47  C   UNL A   1      44.836  27.573  30.875  1.00  0.00     0.029 A 
ATOM     48  C   UNL A   1      44.150  26.789  31.785  1.00  0.00     0.049 A 
ATOM     49  H   UNL A   1      42.943  25.128  31.410  1.00  0.00     0.167 HD
ATOM     50  C   UNL A   1      43.232  27.835  33.760  1.00  0.00     0.074 A 
ATOM     51  C   UNL A   1      42.807  28.210  35.102  1.00  0.00     0.031 C 
ATOM     52  C   UNL A   1      43.933  26.775  33.232  1.00  0.00     0.037 A 
BRANCH  39  53
ATOM     53  C   UNL A   1      43.374  24.367  27.588  1.00  0.00     0.058 A 
ATOM     54  C   UNL A   1      43.113  22.981  27.583  1.00  0.00     0.135 A 
ATOM     55  C   UNL A   1      44.106  24.827  26.472  1.00  0.00     0.135 A 
ATOM     56  F   UNL A   1      42.394  22.398  28.550  1.00  0.00    -0.206 F 
ATOM     57  C   UNL A   1      43.577  22.122  26.588  1.00  0.00     0.059 A 
ATOM     58  C   UNL A   1      44.621  23.980  25.485  1.00  0.00     0.059 A 
ATOM     59  F   UNL A   1      44.313  26.128  26.243  1.00  0.00    -0.206 F 
ATOM     60  C   UNL A   1      44.340  22.625  25.547  1.00  0.00     0.060 A 
BRANCH  60  61
ATOM     61  S   UNL A   1      44.905  21.494  24.267  1.00  0.00     0.124 S 
ATOM     62  O   UNL A   1      44.137  20.289  24.563  1.00  0.00    -0.237 OA
ATOM     63  O   UNL A   1      44.527  22.206  23.051  1.00  0.00    -0.237 OA
ATOM     64  O   UNL A   1      46.341  21.390  24.512  1.00  0.00    -0.744 OA
ENDBRANCH  60  61
ENDBRANCH  39  53
BRANCH  40  65
ATOM     65  C   UNL A   1      40.064  31.563  33.590  1.00  0.00     0.058 A 
ATOM     66  C   UNL A   1      39.982  32.977  33.538  1.00  0.00     0.135 A 
ATOM     67  C   UNL A   1      38.848  30.868  33.596  1.00  0.00     0.135 A 
ATOM     68  F   UNL A   1      41.108  33.709  33.573  1.00  0.00    -0.206 F 
ATOM     69  C   UNL A   1      38.784  33.650  33.302  1.00  0.00     0.059 A 
ATOM     70  C   UNL A   1      37.622  31.533  33.413  1.00  0.00     0.059 A 
ATOM     71  F   UNL A   1      38.834  29.528  33.626  1.00  0.00    -0.206 F 
ATOM     72  C   UNL A   1      37.609  32.914  33.198  1.00  0.00     0.060 A 
BRANCH  72  73
ATOM     73  S   UNL A   1      36.105  33.765  32.651  1.00  0.00     0.124 S 
ATOM     74  O   UNL A   1      36.104  34.953  33.497  1.00  0.00    -0.237 OA
ATOM     75  O   UNL A   1      36.366  34.001  31.235  1.00  0.00    -0.237 OA
ATOM     76  O   UNL A   1      35.046  32.799  32.936  1.00  0.00    -0.744 OA
ENDBRANCH  72  73
ENDBRANCH  40  65
BRANCH  52  77
ATOM     77  C   UNL A   1      44.455  25.578  34.020  1.00  0.00     0.058 A 
ATOM     78  C   UNL A   1      43.619  24.670  34.684  1.00  0.00     0.135 A 
ATOM     79  C   UNL A   1      45.845  25.344  34.215  1.00  0.00     0.135 A 
ATOM     80  F   UNL A   1      42.294  24.870  34.751  1.00  0.00    -0.206 F 
ATOM     81  C   UNL A   1      44.114  23.548  35.358  1.00  0.00     0.059 A 
ATOM     82  C   UNL A   1      46.360  24.273  34.929  1.00  0.00     0.059 A 
ATOM     83  F   UNL A   1      46.800  26.134  33.714  1.00  0.00    -0.206 F 
ATOM     84  C   UNL A   1      45.488  23.353  35.465  1.00  0.00     0.060 A 
BRANCH  84  85
ATOM     85  S   UNL A   1      46.130  21.929  36.351  1.00  0.00     0.124 S 
ATOM     86  O   UNL A   1      47.563  22.034  36.100  1.00  0.00    -0.237 OA
ATOM     87  O   UNL A   1      45.701  22.217  37.717  1.00  0.00    -0.237 OA
ATOM     88  O   UNL A   1      45.468  20.796  35.712  1.00  0.00    -0.744 OA
ENDBRANCH  84  85
ENDBRANCH  52  77
ENDBRANCH  26  27
ENDBRANCH  19  21
ENDBRANCH  18  19
ENDBRANCH   1  18
TORSDOF 16
ENDMDL
