MODEL 1
REMARK VINA RESULT:     -12.1      0.000      0.000
REMARK SMILES O=C(N[C@]1(C(=O)OCCOC(=O)c2ccc(-c3c4nc(c(-c5c(F)cc(S(=O)(=O)[O-])cc5F)c5ccc([nH]5)c(-c5c(F)cc(S(=O)(=O)[O-])cc5F)c5nc(c(-c6c(F)cc(S(=O)(=O)[O-])cc6F)c6ccc3[nH]6)C=C5)C=C4)cc2)CC[C@H](c2ccccc2)CC1)OCC1c2ccccc2-c2ccccc21
REMARK SMILES IDX 8 1 7 2 5 3 6 4 4 5 79 6 89 7 80 8 88 9 81 10 3 11 1 12 2 13
REMARK SMILES IDX 90 15 91 16 92 17 93 18 104 19 94 20 98 21 99 22 103 23
REMARK SMILES IDX 95 24 97 25 100 26 102 27 96 28 101 29 82 30 83 31 87 32
REMARK SMILES IDX 84 33 86 34 85 35 9 36 10 37 11 38 12 39 13 40 14 41 78 42
REMARK SMILES IDX 15 43 77 44 16 45 17 46 18 47 71 48 19 49 76 50 70 51 72 52
REMARK SMILES IDX 20 53 75 54 69 55 68 56 21 58 55 59 34 60 54 61 35 62 38 63
REMARK SMILES IDX 53 64 73 65 36 66 37 67 52 69 74 70 39 71 22 72 23 73 32 74
REMARK SMILES IDX 24 75 25 76 31 77 33 78 26 79 27 80 28 81 29 82 30 83 56 84
REMARK SMILES IDX 57 85 66 86 58 87 59 88 65 89 67 90 60 91 61 92 62 93 63 94
REMARK SMILES IDX 64 95 40 96 41 97 50 98 42 99 43 100 49 101 51 102 44 103
REMARK SMILES IDX 45 104 46 105 47 106 48 107
REMARK H PARENT 3 14 72 57 38 68
REMARK Flexibility Score: inf
ROOT
ATOM      1  C   UNL A   1      31.760  30.513  25.520  1.00  0.00     0.274 C 
ENDROOT
BRANCH   1   2
ATOM      2  O   UNL A   1      31.162  29.336  24.952  1.00  0.00    -0.460 OA
BRANCH   2   3
ATOM      3  C   UNL A   1      31.665  28.904  23.765  1.00  0.00     0.332 C 
ATOM      4  O   UNL A   1      31.714  29.594  22.750  1.00  0.00    -0.249 OA
BRANCH   3   5
ATOM      5  C   UNL A   1      32.061  27.394  23.785  1.00  0.00     0.141 C 
ATOM      6  C   UNL A   1      30.767  26.729  24.279  1.00  0.00     0.041 C 
ATOM      7  C   UNL A   1      33.331  27.199  24.615  1.00  0.00     0.041 C 
ATOM      8  C   UNL A   1      30.666  26.506  25.787  1.00  0.00     0.011 C 
ATOM      9  C   UNL A   1      33.127  26.936  26.108  1.00  0.00     0.011 C 
ATOM     10  C   UNL A   1      31.984  25.570  26.594  1.00  0.00     0.019 C 
BRANCH   5  11
ATOM     11  N   UNL A   1      32.381  27.044  22.368  1.00  0.00    -0.305 N 
ATOM     12  O   UNL A   1      33.289  25.934  20.632  1.00  0.00    -0.225 OA
ATOM     13  C   UNL A   1      32.823  25.907  21.762  1.00  0.00     0.408 C 
ATOM     14  H   UNL A   1      32.242  27.789  21.741  1.00  0.00     0.168 HD
BRANCH  13  15
ATOM     15  O   UNL A   1      32.749  24.774  22.488  1.00  0.00    -0.449 OA
BRANCH  15  16
ATOM     16  C   UNL A   1      34.042  24.228  22.741  1.00  0.00     0.248 C 
BRANCH  16  17
ATOM     17  C   UNL A   1      33.945  23.213  23.878  1.00  0.00     0.088 C 
ATOM     18  C   UNL A   1      33.701  21.764  23.443  1.00  0.00    -0.029 A 
ATOM     19  C   UNL A   1      35.299  23.163  24.670  1.00  0.00    -0.029 A 
ATOM     20  C   UNL A   1      32.262  20.881  22.807  1.00  0.00     0.005 A 
ATOM     21  C   UNL A   1      35.043  20.859  24.218  1.00  0.00    -0.014 A 
ATOM     22  C   UNL A   1      35.929  21.882  24.746  1.00  0.00    -0.014 A 
ATOM     23  C   UNL A   1      35.912  24.256  25.273  1.00  0.00     0.005 A 
ATOM     24  C   UNL A   1      32.184  19.031  22.988  1.00  0.00     0.000 A 
ATOM     25  C   UNL A   1      34.932  19.069  24.470  1.00  0.00     0.009 A 
ATOM     26  C   UNL A   1      37.189  21.722  25.301  1.00  0.00     0.009 A 
ATOM     27  C   UNL A   1      37.170  24.086  25.865  1.00  0.00     0.000 A 
ATOM     28  C   UNL A   1      33.465  18.154  23.922  1.00  0.00     0.001 A 
ATOM     29  C   UNL A   1      37.816  22.840  25.849  1.00  0.00     0.001 A 
ENDBRANCH  16  17
ENDBRANCH  15  16
ENDBRANCH  13  15
ENDBRANCH   5  11
BRANCH  10  30
ATOM     30  C   UNL A   1      32.360  23.483  27.025  1.00  0.00    -0.045 A 
ATOM     31  C   UNL A   1      31.684  22.205  26.553  1.00  0.00     0.004 A 
ATOM     32  C   UNL A   1      33.542  22.829  27.823  1.00  0.00     0.004 A 
ATOM     33  C   UNL A   1      32.240  20.893  26.445  1.00  0.00     0.000 A 
ATOM     34  C   UNL A   1      34.048  21.506  27.792  1.00  0.00     0.000 A 
ATOM     35  C   UNL A   1      33.452  20.564  27.003  1.00  0.00     0.000 A 
ENDBRANCH  10  30
ENDBRANCH   3   5
ENDBRANCH   2   3
ENDBRANCH   1   2
BRANCH   1  36
ATOM     36  C   UNL A   1      32.422  30.190  26.857  1.00  0.00     0.275 C 
BRANCH  36  37
ATOM     37  O   UNL A   1      33.851  30.328  26.756  1.00  0.00    -0.458 OA
BRANCH  37  38
ATOM     38  C   UNL A   1      34.470  30.776  27.872  1.00  0.00     0.338 C 
ATOM     39  O   UNL A   1      34.014  31.530  28.715  1.00  0.00    -0.246 OA
BRANCH  38  40
ATOM     40  C   UNL A   1      35.775  30.118  28.027  1.00  0.00     0.060 A 
ATOM     41  C   UNL A   1      36.130  29.698  29.299  1.00  0.00     0.016 A 
ATOM     42  C   UNL A   1      36.719  30.099  27.010  1.00  0.00     0.016 A 
ATOM     43  C   UNL A   1      37.452  29.440  29.623  1.00  0.00     0.010 A 
ATOM     44  C   UNL A   1      38.015  29.648  27.296  1.00  0.00     0.010 A 
ATOM     45  C   UNL A   1      38.413  29.359  28.617  1.00  0.00    -0.014 A 
BRANCH  45  46
ATOM     46  C   UNL A   1      39.820  28.983  28.943  1.00  0.00     0.031 A 
ATOM     47  C   UNL A   1      40.747  30.016  29.527  1.00  0.00     0.074 A 
ATOM     48  C   UNL A   1      40.275  27.734  28.709  1.00  0.00     0.049 A 
ATOM     49  N   UNL A   1      42.053  30.017  29.588  1.00  0.00    -0.248 NA
ATOM     50  C   UNL A   1      40.121  31.225  30.089  1.00  0.00     0.031 C 
ATOM     51  C   UNL A   1      39.474  26.604  28.226  1.00  0.00     0.029 A 
ATOM     52  N   UNL A   1      41.535  27.199  28.839  1.00  0.00    -0.354 N 
ATOM     53  C   UNL A   1      42.407  31.250  30.125  1.00  0.00     0.074 A 
ATOM     54  C   UNL A   1      41.178  31.974  30.367  1.00  0.00     0.031 C 
ATOM     55  C   UNL A   1      40.246  25.514  28.132  1.00  0.00     0.029 A 
ATOM     56  C   UNL A   1      41.622  25.892  28.418  1.00  0.00     0.049 A 
ATOM     57  H   UNL A   1      42.301  27.703  29.197  1.00  0.00     0.167 HD
ATOM     58  C   UNL A   1      43.648  31.729  30.384  1.00  0.00     0.037 A 
ATOM     59  C   UNL A   1      42.689  25.099  28.207  1.00  0.00     0.037 A 
ATOM     60  C   UNL A   1      44.852  30.961  30.191  1.00  0.00     0.049 A 
ATOM     61  C   UNL A   1      44.059  25.664  28.448  1.00  0.00     0.074 A 
ATOM     62  C   UNL A   1      46.164  31.341  30.416  1.00  0.00     0.029 A 
ATOM     63  N   UNL A   1      44.888  29.646  29.745  1.00  0.00    -0.354 N 
ATOM     64  N   UNL A   1      44.392  26.862  28.864  1.00  0.00    -0.248 NA
ATOM     65  C   UNL A   1      45.198  24.781  28.172  1.00  0.00     0.031 C 
ATOM     66  C   UNL A   1      46.994  30.271  30.067  1.00  0.00     0.029 A 
ATOM     67  C   UNL A   1      46.200  29.204  29.677  1.00  0.00     0.049 A 
ATOM     68  H   UNL A   1      44.099  29.107  29.513  1.00  0.00     0.167 HD
ATOM     69  C   UNL A   1      45.780  26.874  28.918  1.00  0.00     0.074 A 
ATOM     70  C   UNL A   1      46.221  25.555  28.507  1.00  0.00     0.031 C 
ATOM     71  C   UNL A   1      46.613  27.882  29.273  1.00  0.00     0.037 A 
BRANCH  58  72
ATOM     72  C   UNL A   1      43.768  33.154  30.854  1.00  0.00     0.058 A 
ATOM     73  C   UNL A   1      43.844  33.494  32.215  1.00  0.00     0.135 A 
ATOM     74  C   UNL A   1      43.824  34.202  29.919  1.00  0.00     0.135 A 
ATOM     75  F   UNL A   1      43.777  32.538  33.155  1.00  0.00    -0.206 F 
ATOM     76  C   UNL A   1      43.940  34.820  32.630  1.00  0.00     0.059 A 
ATOM     77  C   UNL A   1      43.952  35.532  30.311  1.00  0.00     0.059 A 
ATOM     78  F   UNL A   1      43.755  33.938  28.604  1.00  0.00    -0.206 F 
ATOM     79  C   UNL A   1      43.992  35.832  31.670  1.00  0.00     0.060 A 
BRANCH  79  80
ATOM     80  S   UNL A   1      44.114  37.546  32.224  1.00  0.00     0.124 S 
ATOM     81  O   UNL A   1      43.742  38.272  31.013  1.00  0.00    -0.237 OA
ATOM     82  O   UNL A   1      43.143  37.593  33.313  1.00  0.00    -0.237 OA
ATOM     83  O   UNL A   1      45.511  37.677  32.627  1.00  0.00    -0.744 OA
ENDBRANCH  79  80
ENDBRANCH  58  72
BRANCH  59  84
ATOM     84  C   UNL A   1      42.499  23.719  27.678  1.00  0.00     0.058 A 
ATOM     85  C   UNL A   1      42.427  23.476  26.298  1.00  0.00     0.135 A 
ATOM     86  C   UNL A   1      42.418  22.612  28.539  1.00  0.00     0.135 A 
ATOM     87  F   UNL A   1      42.488  24.499  25.433  1.00  0.00    -0.206 F 
ATOM     88  C   UNL A   1      42.277  22.188  25.793  1.00  0.00     0.059 A 
ATOM     89  C   UNL A   1      42.301  21.312  28.056  1.00  0.00     0.059 A 
ATOM     90  F   UNL A   1      42.494  22.784  29.868  1.00  0.00    -0.206 F 
ATOM     91  C   UNL A   1      42.220  21.111  26.680  1.00  0.00     0.060 A 
BRANCH  91  92
ATOM     92  S   UNL A   1      42.080  19.440  26.010  1.00  0.00     0.124 S 
ATOM     93  O   UNL A   1      42.941  19.521  24.835  1.00  0.00    -0.237 OA
ATOM     94  O   UNL A   1      42.580  18.624  27.113  1.00  0.00    -0.237 OA
ATOM     95  O   UNL A   1      40.652  19.305  25.739  1.00  0.00    -0.744 OA
ENDBRANCH  91  92
ENDBRANCH  59  84
BRANCH  71  96
ATOM     96  C   UNL A   1      48.085  27.583  29.274  1.00  0.00     0.058 A 
ATOM     97  C   UNL A   1      48.877  27.765  28.130  1.00  0.00     0.135 A 
ATOM     98  C   UNL A   1      48.716  27.147  30.450  1.00  0.00     0.135 A 
ATOM     99  F   UNL A   1      48.320  28.170  26.979  1.00  0.00    -0.206 F 
ATOM    100  C   UNL A   1      50.244  27.504  28.147  1.00  0.00     0.059 A 
ATOM    101  C   UNL A   1      50.085  26.909  30.497  1.00  0.00     0.059 A 
ATOM    102  F   UNL A   1      48.003  26.964  31.572  1.00  0.00    -0.206 F 
ATOM    103  C   UNL A   1      50.838  27.080  29.336  1.00  0.00     0.060 A 
BRANCH 103 104
ATOM    104  S   UNL A   1      52.617  26.778  29.353  1.00  0.00     0.124 S 
ATOM    105  O   UNL A   1      53.144  28.135  29.456  1.00  0.00    -0.237 OA
ATOM    106  O   UNL A   1      52.781  25.943  30.539  1.00  0.00    -0.237 OA
ATOM    107  O   UNL A   1      52.860  26.105  28.081  1.00  0.00    -0.744 OA
ENDBRANCH 103 104
ENDBRANCH  71  96
ENDBRANCH  45  46
ENDBRANCH  38  40
ENDBRANCH  37  38
ENDBRANCH  36  37
ENDBRANCH   1  36
TORSDOF 19
ENDMDL
MODEL 2
REMARK VINA RESULT:     -12.1      3.496      9.704
REMARK SMILES O=C(N[C@]1(C(=O)OCCOC(=O)c2ccc(-c3c4nc(c(-c5c(F)cc(S(=O)(=O)[O-])cc5F)c5ccc([nH]5)c(-c5c(F)cc(S(=O)(=O)[O-])cc5F)c5nc(c(-c6c(F)cc(S(=O)(=O)[O-])cc6F)c6ccc3[nH]6)C=C5)C=C4)cc2)CC[C@H](c2ccccc2)CC1)OCC1c2ccccc2-c2ccccc21
REMARK SMILES IDX 8 1 7 2 5 3 6 4 4 5 79 6 89 7 80 8 88 9 81 10 3 11 1 12 2 13
REMARK SMILES IDX 90 15 91 16 92 17 93 18 104 19 94 20 98 21 99 22 103 23
REMARK SMILES IDX 95 24 97 25 100 26 102 27 96 28 101 29 82 30 83 31 87 32
REMARK SMILES IDX 84 33 86 34 85 35 9 36 10 37 11 38 12 39 13 40 14 41 78 42
REMARK SMILES IDX 15 43 77 44 16 45 17 46 18 47 71 48 19 49 76 50 70 51 72 52
REMARK SMILES IDX 20 53 75 54 69 55 68 56 21 58 55 59 34 60 54 61 35 62 38 63
REMARK SMILES IDX 53 64 73 65 36 66 37 67 52 69 74 70 39 71 22 72 23 73 32 74
REMARK SMILES IDX 24 75 25 76 31 77 33 78 26 79 27 80 28 81 29 82 30 83 56 84
REMARK SMILES IDX 57 85 66 86 58 87 59 88 65 89 67 90 60 91 61 92 62 93 63 94
REMARK SMILES IDX 64 95 40 96 41 97 50 98 42 99 43 100 49 101 51 102 44 103
REMARK SMILES IDX 45 104 46 105 47 106 48 107
REMARK H PARENT 3 14 72 57 38 68
REMARK Flexibility Score: inf
ROOT
ATOM      1  C   UNL A   1      36.537  21.190  25.824  1.00  0.00     0.274 C 
ENDROOT
BRANCH   1   2
ATOM      2  O   UNL A   1      35.215  20.989  25.297  1.00  0.00    -0.460 OA
BRANCH   2   3
ATOM      3  C   UNL A   1      34.176  21.242  26.136  1.00  0.00     0.332 C 
ATOM      4  O   UNL A   1      33.843  20.501  27.057  1.00  0.00    -0.249 OA
BRANCH   3   5
ATOM      5  C   UNL A   1      33.363  22.512  25.733  1.00  0.00     0.141 C 
ATOM      6  C   UNL A   1      33.155  22.296  24.226  1.00  0.00     0.041 C 
ATOM      7  C   UNL A   1      34.107  23.772  26.181  1.00  0.00     0.041 C 
ATOM      8  C   UNL A   1      34.200  22.931  23.310  1.00  0.00     0.011 C 
ATOM      9  C   UNL A   1      35.101  24.361  25.179  1.00  0.00     0.011 C 
ATOM     10  C   UNL A   1      34.496  24.707  23.469  1.00  0.00     0.019 C 
BRANCH   5  11
ATOM     11  N   UNL A   1      32.086  22.435  26.505  1.00  0.00    -0.305 N 
ATOM     12  O   UNL A   1      30.218  23.132  27.552  1.00  0.00    -0.225 OA
ATOM     13  C   UNL A   1      31.023  23.274  26.643  1.00  0.00     0.408 C 
ATOM     14  H   UNL A   1      31.992  21.602  27.022  1.00  0.00     0.168 HD
BRANCH  13  15
ATOM     15  O   UNL A   1      30.934  24.279  25.749  1.00  0.00    -0.449 OA
BRANCH  15  16
ATOM     16  C   UNL A   1      31.115  25.551  26.369  1.00  0.00     0.248 C 
BRANCH  16  17
ATOM     17  C   UNL A   1      31.407  26.596  25.296  1.00  0.00     0.088 C 
ATOM     18  C   UNL A   1      30.193  27.399  24.814  1.00  0.00    -0.029 A 
ATOM     19  C   UNL A   1      32.395  27.680  25.856  1.00  0.00    -0.029 A 
ATOM     20  C   UNL A   1      28.784  27.008  23.759  1.00  0.00     0.005 A 
ATOM     21  C   UNL A   1      30.691  29.105  25.058  1.00  0.00    -0.014 A 
ATOM     22  C   UNL A   1      31.930  29.031  25.811  1.00  0.00    -0.014 A 
ATOM     23  C   UNL A   1      33.652  27.414  26.389  1.00  0.00     0.005 A 
ATOM     24  C   UNL A   1      27.874  28.395  22.914  1.00  0.00     0.000 A 
ATOM     25  C   UNL A   1      29.860  30.450  24.172  1.00  0.00     0.009 A 
ATOM     26  C   UNL A   1      32.645  30.066  26.391  1.00  0.00     0.009 A 
ATOM     27  C   UNL A   1      34.390  28.467  26.943  1.00  0.00     0.000 A 
ATOM     28  C   UNL A   1      28.492  30.094  23.036  1.00  0.00     0.001 A 
ATOM     29  C   UNL A   1      33.878  29.773  26.974  1.00  0.00     0.001 A 
ENDBRANCH  16  17
ENDBRANCH  15  16
ENDBRANCH  13  15
ENDBRANCH   5  11
BRANCH  10  30
ATOM     30  C   UNL A   1      33.666  26.500  22.587  1.00  0.00    -0.045 A 
ATOM     31  C   UNL A   1      32.375  26.759  21.825  1.00  0.00     0.004 A 
ATOM     32  C   UNL A   1      34.169  27.982  22.685  1.00  0.00     0.004 A 
ATOM     33  C   UNL A   1      31.641  27.980  21.709  1.00  0.00     0.000 A 
ATOM     34  C   UNL A   1      33.475  29.201  22.486  1.00  0.00     0.000 A 
ATOM     35  C   UNL A   1      32.164  29.187  22.104  1.00  0.00     0.000 A 
ENDBRANCH  10  30
ENDBRANCH   3   5
ENDBRANCH   2   3
ENDBRANCH   1   2
BRANCH   1  36
ATOM     36  C   UNL A   1      37.494  21.638  24.722  1.00  0.00     0.275 C 
BRANCH  36  37
ATOM     37  O   UNL A   1      38.092  22.903  25.059  1.00  0.00    -0.458 OA
BRANCH  37  38
ATOM     38  C   UNL A   1      39.077  22.849  25.984  1.00  0.00     0.338 C 
ATOM     39  O   UNL A   1      39.872  21.941  26.162  1.00  0.00    -0.246 OA
BRANCH  38  40
ATOM     40  C   UNL A   1      39.168  24.127  26.704  1.00  0.00     0.060 A 
ATOM     41  C   UNL A   1      40.017  25.091  26.186  1.00  0.00     0.016 A 
ATOM     42  C   UNL A   1      38.610  24.308  27.961  1.00  0.00     0.016 A 
ATOM     43  C   UNL A   1      40.472  26.140  26.971  1.00  0.00     0.010 A 
ATOM     44  C   UNL A   1      38.917  25.472  28.679  1.00  0.00     0.010 A 
ATOM     45  C   UNL A   1      39.891  26.381  28.214  1.00  0.00    -0.014 A 
BRANCH  45  46
ATOM     46  C   UNL A   1      40.301  27.565  29.024  1.00  0.00     0.031 A 
ATOM     47  C   UNL A   1      41.588  27.520  29.804  1.00  0.00     0.074 A 
ATOM     48  C   UNL A   1      39.528  28.670  29.077  1.00  0.00     0.049 A 
ATOM     49  N   UNL A   1      41.981  28.271  30.799  1.00  0.00    -0.248 NA
ATOM     50  C   UNL A   1      42.549  26.467  29.434  1.00  0.00     0.031 C 
ATOM     51  C   UNL A   1      38.297  28.894  28.311  1.00  0.00     0.029 A 
ATOM     52  N   UNL A   1      39.656  29.821  29.819  1.00  0.00    -0.354 N 
ATOM     53  C   UNL A   1      43.195  27.738  31.222  1.00  0.00     0.074 A 
ATOM     54  C   UNL A   1      43.471  26.597  30.377  1.00  0.00     0.031 C 
ATOM     55  C   UNL A   1      37.806  30.107  28.596  1.00  0.00     0.029 A 
ATOM     56  C   UNL A   1      38.607  30.696  29.659  1.00  0.00     0.049 A 
ATOM     57  H   UNL A   1      40.424  30.000  30.408  1.00  0.00     0.167 HD
ATOM     58  C   UNL A   1      43.996  28.167  32.227  1.00  0.00     0.037 A 
ATOM     59  C   UNL A   1      38.272  31.811  30.336  1.00  0.00     0.037 A 
ATOM     60  C   UNL A   1      43.726  29.345  33.011  1.00  0.00     0.049 A 
ATOM     61  C   UNL A   1      39.143  32.240  31.482  1.00  0.00     0.074 A 
ATOM     62  C   UNL A   1      44.464  29.875  34.055  1.00  0.00     0.029 A 
ATOM     63  N   UNL A   1      42.640  30.190  32.821  1.00  0.00    -0.354 N 
ATOM     64  N   UNL A   1      40.237  31.678  31.937  1.00  0.00    -0.248 NA
ATOM     65  C   UNL A   1      38.726  33.438  32.218  1.00  0.00     0.031 C 
ATOM     66  C   UNL A   1      43.802  31.014  34.523  1.00  0.00     0.029 A 
ATOM     67  C   UNL A   1      42.681  31.229  33.737  1.00  0.00     0.049 A 
ATOM     68  H   UNL A   1      41.944  30.068  32.137  1.00  0.00     0.167 HD
ATOM     69  C   UNL A   1      40.652  32.465  33.004  1.00  0.00     0.074 A 
ATOM     70  C   UNL A   1      39.697  33.551  33.114  1.00  0.00     0.031 C 
ATOM     71  C   UNL A   1      41.722  32.304  33.820  1.00  0.00     0.037 A 
BRANCH  58  72
ATOM     72  C   UNL A   1      45.206  27.336  32.564  1.00  0.00     0.058 A 
ATOM     73  C   UNL A   1      45.190  26.356  33.570  1.00  0.00     0.135 A 
ATOM     74  C   UNL A   1      46.404  27.516  31.852  1.00  0.00     0.135 A 
ATOM     75  F   UNL A   1      44.080  26.151  34.295  1.00  0.00    -0.206 F 
ATOM     76  C   UNL A   1      46.324  25.608  33.876  1.00  0.00     0.059 A 
ATOM     77  C   UNL A   1      47.541  26.758  32.120  1.00  0.00     0.059 A 
ATOM     78  F   UNL A   1      46.480  28.440  30.880  1.00  0.00    -0.206 F 
ATOM     79  C   UNL A   1      47.496  25.818  33.147  1.00  0.00     0.060 A 
BRANCH  79  80
ATOM     80  S   UNL A   1      48.959  24.843  33.557  1.00  0.00     0.124 S 
ATOM     81  O   UNL A   1      49.661  24.816  32.277  1.00  0.00    -0.237 OA
ATOM     82  O   UNL A   1      49.584  25.643  34.605  1.00  0.00    -0.237 OA
ATOM     83  O   UNL A   1      48.406  23.564  33.995  1.00  0.00    -0.744 OA
ENDBRANCH  79  80
ENDBRANCH  58  72
BRANCH  59  84
ATOM     84  C   UNL A   1      37.024  32.546  29.989  1.00  0.00     0.058 A 
ATOM     85  C   UNL A   1      35.809  32.252  30.625  1.00  0.00     0.135 A 
ATOM     86  C   UNL A   1      37.028  33.582  29.039  1.00  0.00     0.135 A 
ATOM     87  F   UNL A   1      35.748  31.266  31.532  1.00  0.00    -0.206 F 
ATOM     88  C   UNL A   1      34.643  32.952  30.328  1.00  0.00     0.059 A 
ATOM     89  C   UNL A   1      35.883  34.317  28.750  1.00  0.00     0.059 A 
ATOM     90  F   UNL A   1      38.165  33.915  28.409  1.00  0.00    -0.206 F 
ATOM     91  C   UNL A   1      34.691  33.988  29.392  1.00  0.00     0.060 A 
BRANCH  91  92
ATOM     92  S   UNL A   1      33.185  34.925  29.055  1.00  0.00     0.124 S 
ATOM     93  O   UNL A   1      33.728  36.192  28.578  1.00  0.00    -0.237 OA
ATOM     94  O   UNL A   1      32.525  34.095  28.051  1.00  0.00    -0.237 OA
ATOM     95  O   UNL A   1      32.520  34.972  30.353  1.00  0.00    -0.744 OA
ENDBRANCH  91  92
ENDBRANCH  59  84
BRANCH  71  96
ATOM     96  C   UNL A   1      41.940  33.350  34.874  1.00  0.00     0.058 A 
ATOM     97  C   UNL A   1      41.424  33.212  36.172  1.00  0.00     0.135 A 
ATOM     98  C   UNL A   1      42.713  34.488  34.591  1.00  0.00     0.135 A 
ATOM     99  F   UNL A   1      40.670  32.149  36.490  1.00  0.00    -0.206 F 
ATOM    100  C   UNL A   1      41.649  34.178  37.147  1.00  0.00     0.059 A 
ATOM    101  C   UNL A   1      42.975  35.451  35.559  1.00  0.00     0.059 A 
ATOM    102  F   UNL A   1      43.235  34.663  33.367  1.00  0.00    -0.206 F 
ATOM    103  C   UNL A   1      42.429  35.292  36.831  1.00  0.00     0.060 A 
BRANCH 103 104
ATOM    104  S   UNL A   1      42.741  36.520  38.116  1.00  0.00     0.124 S 
ATOM    105  O   UNL A   1      43.549  35.757  39.062  1.00  0.00    -0.237 OA
ATOM    106  O   UNL A   1      43.445  37.567  37.383  1.00  0.00    -0.237 OA
ATOM    107  O   UNL A   1      41.403  36.877  38.579  1.00  0.00    -0.744 OA
ENDBRANCH 103 104
ENDBRANCH  71  96
ENDBRANCH  45  46
ENDBRANCH  38  40
ENDBRANCH  37  38
ENDBRANCH  36  37
ENDBRANCH   1  36
TORSDOF 19
ENDMDL
MODEL 3
REMARK VINA RESULT:     -11.5      3.863      8.197
REMARK SMILES O=C(N[C@]1(C(=O)OCCOC(=O)c2ccc(-c3c4nc(c(-c5c(F)cc(S(=O)(=O)[O-])cc5F)c5ccc([nH]5)c(-c5c(F)cc(S(=O)(=O)[O-])cc5F)c5nc(c(-c6c(F)cc(S(=O)(=O)[O-])cc6F)c6ccc3[nH]6)C=C5)C=C4)cc2)CC[C@H](c2ccccc2)CC1)OCC1c2ccccc2-c2ccccc21
REMARK SMILES IDX 8 1 7 2 5 3 6 4 4 5 79 6 89 7 80 8 88 9 81 10 3 11 1 12 2 13
REMARK SMILES IDX 90 15 91 16 92 17 93 18 104 19 94 20 98 21 99 22 103 23
REMARK SMILES IDX 95 24 97 25 100 26 102 27 96 28 101 29 82 30 83 31 87 32
REMARK SMILES IDX 84 33 86 34 85 35 9 36 10 37 11 38 12 39 13 40 14 41 78 42
REMARK SMILES IDX 15 43 77 44 16 45 17 46 18 47 71 48 19 49 76 50 70 51 72 52
REMARK SMILES IDX 20 53 75 54 69 55 68 56 21 58 55 59 34 60 54 61 35 62 38 63
REMARK SMILES IDX 53 64 73 65 36 66 37 67 52 69 74 70 39 71 22 72 23 73 32 74
REMARK SMILES IDX 24 75 25 76 31 77 33 78 26 79 27 80 28 81 29 82 30 83 56 84
REMARK SMILES IDX 57 85 66 86 58 87 59 88 65 89 67 90 60 91 61 92 62 93 63 94
REMARK SMILES IDX 64 95 40 96 41 97 50 98 42 99 43 100 49 101 51 102 44 103
REMARK SMILES IDX 45 104 46 105 47 106 48 107
REMARK H PARENT 3 14 72 57 38 68
REMARK Flexibility Score: inf
ROOT
ATOM      1  C   UNL A   1      31.924  30.424  25.399  1.00  0.00     0.274 C 
ENDROOT
BRANCH   1   2
ATOM      2  O   UNL A   1      31.257  29.325  24.758  1.00  0.00    -0.460 OA
BRANCH   2   3
ATOM      3  C   UNL A   1      31.799  28.872  23.596  1.00  0.00     0.332 C 
ATOM      4  O   UNL A   1      31.930  29.560  22.587  1.00  0.00    -0.249 OA
BRANCH   3   5
ATOM      5  C   UNL A   1      32.125  27.346  23.631  1.00  0.00     0.141 C 
ATOM      6  C   UNL A   1      30.824  26.752  24.193  1.00  0.00     0.041 C 
ATOM      7  C   UNL A   1      33.419  27.106  24.411  1.00  0.00     0.041 C 
ATOM      8  C   UNL A   1      30.777  26.562  25.709  1.00  0.00     0.011 C 
ATOM      9  C   UNL A   1      33.268  26.882  25.916  1.00  0.00     0.011 C 
ATOM     10  C   UNL A   1      32.085  25.581  26.479  1.00  0.00     0.019 C 
BRANCH   5  11
ATOM     11  N   UNL A   1      32.366  26.953  22.209  1.00  0.00    -0.305 N 
ATOM     12  O   UNL A   1      33.178  25.791  20.459  1.00  0.00    -0.225 OA
ATOM     13  C   UNL A   1      32.774  25.799  21.613  1.00  0.00     0.408 C 
ATOM     14  H   UNL A   1      32.194  27.681  21.569  1.00  0.00     0.168 HD
BRANCH  13  15
ATOM     15  O   UNL A   1      32.739  24.688  22.375  1.00  0.00    -0.449 OA
BRANCH  15  16
ATOM     16  C   UNL A   1      34.049  24.264  22.746  1.00  0.00     0.248 C 
BRANCH  16  17
ATOM     17  C   UNL A   1      33.947  23.243  23.876  1.00  0.00     0.088 C 
ATOM     18  C   UNL A   1      33.690  21.799  23.433  1.00  0.00    -0.029 A 
ATOM     19  C   UNL A   1      35.303  23.176  24.663  1.00  0.00    -0.029 A 
ATOM     20  C   UNL A   1      32.242  20.933  22.795  1.00  0.00     0.005 A 
ATOM     21  C   UNL A   1      35.026  20.878  24.198  1.00  0.00    -0.014 A 
ATOM     22  C   UNL A   1      35.923  21.889  24.730  1.00  0.00    -0.014 A 
ATOM     23  C   UNL A   1      35.927  24.259  25.272  1.00  0.00     0.005 A 
ATOM     24  C   UNL A   1      32.148  19.082  22.963  1.00  0.00     0.000 A 
ATOM     25  C   UNL A   1      34.900  19.086  24.438  1.00  0.00     0.009 A 
ATOM     26  C   UNL A   1      37.182  21.715  25.280  1.00  0.00     0.009 A 
ATOM     27  C   UNL A   1      37.185  24.076  25.860  1.00  0.00     0.000 A 
ATOM     28  C   UNL A   1      33.425  18.188  23.888  1.00  0.00     0.001 A 
ATOM     29  C   UNL A   1      37.821  22.824  25.834  1.00  0.00     0.001 A 
ENDBRANCH  16  17
ENDBRANCH  15  16
ENDBRANCH  13  15
ENDBRANCH   5  11
BRANCH  10  30
ATOM     30  C   UNL A   1      32.382  23.487  26.937  1.00  0.00    -0.045 A 
ATOM     31  C   UNL A   1      31.664  22.229  26.475  1.00  0.00     0.004 A 
ATOM     32  C   UNL A   1      33.533  22.801  27.752  1.00  0.00     0.004 A 
ATOM     33  C   UNL A   1      32.173  20.896  26.387  1.00  0.00     0.000 A 
ATOM     34  C   UNL A   1      33.992  21.460  27.741  1.00  0.00     0.000 A 
ATOM     35  C   UNL A   1      33.368  20.531  26.959  1.00  0.00     0.000 A 
ENDBRANCH  10  30
ENDBRANCH   3   5
ENDBRANCH   2   3
ENDBRANCH   1   2
BRANCH   1  36
ATOM     36  C   UNL A   1      32.317  30.056  26.827  1.00  0.00     0.275 C 
BRANCH  36  37
ATOM     37  O   UNL A   1      33.750  30.058  26.970  1.00  0.00    -0.458 OA
BRANCH  37  38
ATOM     38  C   UNL A   1      34.271  31.156  27.565  1.00  0.00     0.338 C 
ATOM     39  O   UNL A   1      33.698  32.205  27.806  1.00  0.00    -0.246 OA
BRANCH  38  40
ATOM     40  C   UNL A   1      35.640  30.882  28.024  1.00  0.00     0.060 A 
ATOM     41  C   UNL A   1      35.901  29.622  28.536  1.00  0.00     0.016 A 
ATOM     42  C   UNL A   1      36.590  31.886  28.153  1.00  0.00     0.016 A 
ATOM     43  C   UNL A   1      37.007  29.391  29.339  1.00  0.00     0.010 A 
ATOM     44  C   UNL A   1      37.800  31.595  28.798  1.00  0.00     0.010 A 
ATOM     45  C   UNL A   1      38.005  30.357  29.443  1.00  0.00    -0.014 A 
BRANCH  45  46
ATOM     46  C   UNL A   1      39.247  30.082  30.223  1.00  0.00     0.031 A 
ATOM     47  C   UNL A   1      40.262  29.110  29.683  1.00  0.00     0.074 A 
ATOM     48  C   UNL A   1      39.466  30.683  31.412  1.00  0.00     0.049 A 
ATOM     49  N   UNL A   1      41.226  28.486  30.307  1.00  0.00    -0.248 NA
ATOM     50  C   UNL A   1      40.156  28.769  28.254  1.00  0.00     0.031 C 
ATOM     51  C   UNL A   1      38.615  31.709  32.025  1.00  0.00     0.029 A 
ATOM     52  N   UNL A   1      40.473  30.512  32.332  1.00  0.00    -0.354 N 
ATOM     53  C   UNL A   1      41.793  27.628  29.371  1.00  0.00     0.074 A 
ATOM     54  C   UNL A   1      41.061  27.808  28.136  1.00  0.00     0.031 C 
ATOM     55  C   UNL A   1      39.148  32.096  33.191  1.00  0.00     0.029 A 
ATOM     56  C   UNL A   1      40.302  31.256  33.477  1.00  0.00     0.049 A 
ATOM     57  H   UNL A   1      41.241  29.914  32.187  1.00  0.00     0.167 HD
ATOM     58  C   UNL A   1      42.828  26.769  29.537  1.00  0.00     0.037 A 
ATOM     59  C   UNL A   1      40.946  31.223  34.659  1.00  0.00     0.037 A 
ATOM     60  C   UNL A   1      43.579  26.656  30.761  1.00  0.00     0.049 A 
ATOM     61  C   UNL A   1      42.054  30.227  34.842  1.00  0.00     0.074 A 
ATOM     62  C   UNL A   1      44.645  25.821  31.046  1.00  0.00     0.029 A 
ATOM     63  N   UNL A   1      43.356  27.421  31.899  1.00  0.00    -0.354 N 
ATOM     64  N   UNL A   1      42.523  29.352  33.984  1.00  0.00    -0.248 NA
ATOM     65  C   UNL A   1      42.708  30.196  36.155  1.00  0.00     0.031 C 
ATOM     66  C   UNL A   1      45.038  26.050  32.369  1.00  0.00     0.029 A 
ATOM     67  C   UNL A   1      44.255  27.068  32.892  1.00  0.00     0.049 A 
ATOM     68  H   UNL A   1      42.662  28.113  31.986  1.00  0.00     0.167 HD
ATOM     69  C   UNL A   1      43.540  28.677  34.647  1.00  0.00     0.074 A 
ATOM     70  C   UNL A   1      43.627  29.258  35.972  1.00  0.00     0.031 C 
ATOM     71  C   UNL A   1      44.328  27.668  34.202  1.00  0.00     0.037 A 
BRANCH  58  72
ATOM     72  C   UNL A   1      43.173  25.856  28.391  1.00  0.00     0.058 A 
ATOM     73  C   UNL A   1      42.533  24.622  28.191  1.00  0.00     0.135 A 
ATOM     74  C   UNL A   1      44.159  26.233  27.462  1.00  0.00     0.135 A 
ATOM     75  F   UNL A   1      41.596  24.200  29.055  1.00  0.00    -0.206 F 
ATOM     76  C   UNL A   1      42.877  23.785  27.133  1.00  0.00     0.059 A 
ATOM     77  C   UNL A   1      44.497  25.426  26.379  1.00  0.00     0.059 A 
ATOM     78  F   UNL A   1      44.807  27.401  27.602  1.00  0.00    -0.206 F 
ATOM     79  C   UNL A   1      43.862  24.195  26.233  1.00  0.00     0.060 A 
BRANCH  79  80
ATOM     80  S   UNL A   1      44.300  23.098  24.867  1.00  0.00     0.124 S 
ATOM     81  O   UNL A   1      45.288  23.901  24.152  1.00  0.00    -0.237 OA
ATOM     82  O   UNL A   1      44.821  21.926  25.562  1.00  0.00    -0.237 OA
ATOM     83  O   UNL A   1      43.033  22.898  24.169  1.00  0.00    -0.744 OA
ENDBRANCH  79  80
ENDBRANCH  58  72
BRANCH  59  84
ATOM     84  C   UNL A   1      40.507  32.111  35.771  1.00  0.00     0.058 A 
ATOM     85  C   UNL A   1      39.394  31.787  36.561  1.00  0.00     0.135 A 
ATOM     86  C   UNL A   1      41.211  33.286  36.088  1.00  0.00     0.135 A 
ATOM     87  F   UNL A   1      38.680  30.683  36.294  1.00  0.00    -0.206 F 
ATOM     88  C   UNL A   1      38.992  32.596  37.620  1.00  0.00     0.059 A 
ATOM     89  C   UNL A   1      40.847  34.092  37.162  1.00  0.00     0.059 A 
ATOM     90  F   UNL A   1      42.291  33.638  35.374  1.00  0.00    -0.206 F 
ATOM     91  C   UNL A   1      39.729  33.745  37.916  1.00  0.00     0.060 A 
BRANCH  91  92
ATOM     92  S   UNL A   1      39.230  34.757  39.326  1.00  0.00     0.124 S 
ATOM     93  O   UNL A   1      38.960  36.040  38.685  1.00  0.00    -0.237 OA
ATOM     94  O   UNL A   1      38.064  34.035  39.826  1.00  0.00    -0.237 OA
ATOM     95  O   UNL A   1      40.401  34.721  40.197  1.00  0.00    -0.744 OA
ENDBRANCH  91  92
ENDBRANCH  59  84
BRANCH  71  96
ATOM     96  C   UNL A   1      45.381  27.159  35.143  1.00  0.00     0.058 A 
ATOM     97  C   UNL A   1      46.656  27.742  35.212  1.00  0.00     0.135 A 
ATOM     98  C   UNL A   1      45.095  26.098  36.017  1.00  0.00     0.135 A 
ATOM     99  F   UNL A   1      46.983  28.751  34.390  1.00  0.00    -0.206 F 
ATOM    100  C   UNL A   1      47.618  27.276  36.102  1.00  0.00     0.059 A 
ATOM    101  C   UNL A   1      46.031  25.636  36.934  1.00  0.00     0.059 A 
ATOM    102  F   UNL A   1      43.888  25.511  35.995  1.00  0.00    -0.206 F 
ATOM    103  C   UNL A   1      47.294  26.225  36.961  1.00  0.00     0.060 A 
BRANCH 103 104
ATOM    104  S   UNL A   1      48.541  25.653  38.134  1.00  0.00     0.124 S 
ATOM    105  O   UNL A   1      49.777  26.033  37.459  1.00  0.00    -0.237 OA
ATOM    106  O   UNL A   1      48.213  26.416  39.334  1.00  0.00    -0.237 OA
ATOM    107  O   UNL A   1      48.291  24.217  38.223  1.00  0.00    -0.744 OA
ENDBRANCH 103 104
ENDBRANCH  71  96
ENDBRANCH  45  46
ENDBRANCH  38  40
ENDBRANCH  37  38
ENDBRANCH  36  37
ENDBRANCH   1  36
TORSDOF 19
ENDMDL
