MODEL 1
REMARK VINA RESULT:     -11.2      0.000      0.000
REMARK SMILES O=C(OCCOC(=O)[C@@H]1CN(c2cccc(Cl)c2)CCO1)c1ccc(-c2c3nc(c(-c4c(F)cc(S(=O)(=O)[O-])cc4F)c4ccc([nH]4)c(-c4c(F)cc(S(=O)(=O)[O-])cc4F)c4nc(c(-c5c(F)cc(S(=O)(=O)[O-])cc5F)c5ccc2[nH]5)C=C4)C=C3)cc1
REMARK SMILES IDX 4 1 3 2 2 3 1 4 22 5 23 6 87 7 24 8 86 9 25 10 26 11 27 12
REMARK SMILES IDX 80 13 28 14 85 15 79 16 81 17 29 18 84 19 78 20 77 21 30 23
REMARK SMILES IDX 64 24 43 25 63 26 44 27 47 28 62 29 82 30 45 31 46 32 61 34
REMARK SMILES IDX 83 35 48 36 31 37 32 38 41 39 33 40 34 41 40 42 42 43 35 44
REMARK SMILES IDX 36 45 37 46 38 47 39 48 65 49 66 50 75 51 67 52 68 53 74 54
REMARK SMILES IDX 76 55 69 56 70 57 71 58 72 59 73 60 49 61 50 62 59 63 51 64
REMARK SMILES IDX 52 65 58 66 60 67 53 68 54 69 55 70 56 71 57 72 5 73 6 74
REMARK SMILES IDX 7 75 8 76 9 77 10 78 21 79 11 80 20 81 19 82 12 83 13 84
REMARK SMILES IDX 18 85 14 86 16 87 15 88 17 89
REMARK H PARENT 81 22 47 33
REMARK Flexibility Score: inf
ROOT
ATOM      1  C   UNL A   1      34.334  32.760  28.368  1.00  0.00     0.275 C 
ENDROOT
BRANCH   1   2
ATOM      2  O   UNL A   1      33.811  31.633  27.649  1.00  0.00    -0.458 OA
BRANCH   2   3
ATOM      3  C   UNL A   1      34.319  30.384  27.514  1.00  0.00     0.338 C 
ATOM      4  O   UNL A   1      33.582  29.511  27.053  1.00  0.00    -0.246 OA
BRANCH   3   5
ATOM      5  C   UNL A   1      35.687  29.972  27.980  1.00  0.00     0.060 A 
ATOM      6  C   UNL A   1      36.884  30.086  27.269  1.00  0.00     0.016 A 
ATOM      7  C   UNL A   1      35.759  29.442  29.280  1.00  0.00     0.016 A 
ATOM      8  C   UNL A   1      38.117  29.795  27.861  1.00  0.00     0.010 A 
ATOM      9  C   UNL A   1      36.991  29.170  29.886  1.00  0.00     0.010 A 
ATOM     10  C   UNL A   1      38.187  29.366  29.184  1.00  0.00    -0.014 A 
BRANCH  10  11
ATOM     11  C   UNL A   1      39.501  29.030  29.787  1.00  0.00     0.031 A 
ATOM     12  C   UNL A   1      39.995  29.878  30.921  1.00  0.00     0.074 A 
ATOM     13  C   UNL A   1      40.220  27.972  29.354  1.00  0.00     0.049 A 
ATOM     14  N   UNL A   1      41.100  29.770  31.606  1.00  0.00    -0.248 NA
ATOM     15  C   UNL A   1      39.127  30.990  31.349  1.00  0.00     0.031 C 
ATOM     16  C   UNL A   1      39.819  27.061  28.280  1.00  0.00     0.029 A 
ATOM     17  N   UNL A   1      41.444  27.485  29.737  1.00  0.00    -0.354 N 
ATOM     18  C   UNL A   1      41.026  30.755  32.580  1.00  0.00     0.074 A 
ATOM     19  C   UNL A   1      39.841  31.536  32.319  1.00  0.00     0.031 C 
ATOM     20  C   UNL A   1      40.801  26.179  28.037  1.00  0.00     0.029 A 
ATOM     21  C   UNL A   1      41.889  26.428  28.971  1.00  0.00     0.049 A 
ATOM     22  H   UNL A   1      41.958  27.856  30.490  1.00  0.00     0.167 HD
ATOM     23  C   UNL A   1      41.833  30.938  33.650  1.00  0.00     0.037 A 
ATOM     24  C   UNL A   1      43.046  25.740  29.019  1.00  0.00     0.037 A 
ATOM     25  C   UNL A   1      43.008  30.153  33.897  1.00  0.00     0.049 A 
ATOM     26  C   UNL A   1      44.010  26.070  30.123  1.00  0.00     0.074 A 
ATOM     27  C   UNL A   1      43.903  30.246  34.945  1.00  0.00     0.029 A 
ATOM     28  N   UNL A   1      43.455  29.127  33.074  1.00  0.00    -0.354 N 
ATOM     29  N   UNL A   1      43.901  26.980  31.062  1.00  0.00    -0.248 NA
ATOM     30  C   UNL A   1      45.231  25.259  30.200  1.00  0.00     0.031 C 
ATOM     31  C   UNL A   1      44.912  29.299  34.737  1.00  0.00     0.029 A 
ATOM     32  C   UNL A   1      44.621  28.587  33.582  1.00  0.00     0.049 A 
ATOM     33  H   UNL A   1      43.006  28.829  32.250  1.00  0.00     0.167 HD
ATOM     34  C   UNL A   1      45.014  26.819  31.874  1.00  0.00     0.074 A 
ATOM     35  C   UNL A   1      45.785  25.727  31.310  1.00  0.00     0.031 C 
ATOM     36  C   UNL A   1      45.360  27.498  32.995  1.00  0.00     0.037 A 
BRANCH  23  37
ATOM     37  C   UNL A   1      41.422  31.996  34.632  1.00  0.00     0.058 A 
ATOM     38  C   UNL A   1      40.602  31.681  35.731  1.00  0.00     0.135 A 
ATOM     39  C   UNL A   1      41.824  33.328  34.475  1.00  0.00     0.135 A 
ATOM     40  F   UNL A   1      40.161  30.424  35.909  1.00  0.00    -0.206 F 
ATOM     41  C   UNL A   1      40.174  32.656  36.623  1.00  0.00     0.059 A 
ATOM     42  C   UNL A   1      41.430  34.317  35.370  1.00  0.00     0.059 A 
ATOM     43  F   UNL A   1      42.593  33.684  33.433  1.00  0.00    -0.206 F 
ATOM     44  C   UNL A   1      40.595  33.973  36.435  1.00  0.00     0.060 A 
BRANCH  44  45
ATOM     45  S   UNL A   1      40.041  35.225  37.609  1.00  0.00     0.124 S 
ATOM     46  O   UNL A   1      38.787  34.645  38.086  1.00  0.00    -0.237 OA
ATOM     47  O   UNL A   1      41.135  35.245  38.578  1.00  0.00    -0.237 OA
ATOM     48  O   UNL A   1      39.908  36.424  36.793  1.00  0.00    -0.744 OA
ENDBRANCH  44  45
ENDBRANCH  23  37
BRANCH  24  49
ATOM     49  C   UNL A   1      43.375  24.701  28.005  1.00  0.00     0.058 A 
ATOM     50  C   UNL A   1      43.012  23.355  28.159  1.00  0.00     0.135 A 
ATOM     51  C   UNL A   1      44.131  25.042  26.875  1.00  0.00     0.135 A 
ATOM     52  F   UNL A   1      42.307  22.971  29.233  1.00  0.00    -0.206 F 
ATOM     53  C   UNL A   1      43.407  22.382  27.241  1.00  0.00     0.059 A 
ATOM     54  C   UNL A   1      44.517  24.095  25.930  1.00  0.00     0.059 A 
ATOM     55  F   UNL A   1      44.513  26.315  26.699  1.00  0.00    -0.206 F 
ATOM     56  C   UNL A   1      44.164  22.762  26.131  1.00  0.00     0.060 A 
BRANCH  56  57
ATOM     57  S   UNL A   1      44.669  21.495  24.942  1.00  0.00     0.124 S 
ATOM     58  O   UNL A   1      46.016  21.179  25.404  1.00  0.00    -0.237 OA
ATOM     59  O   UNL A   1      43.664  20.456  25.153  1.00  0.00    -0.237 OA
ATOM     60  O   UNL A   1      44.585  22.183  23.658  1.00  0.00    -0.744 OA
ENDBRANCH  56  57
ENDBRANCH  24  49
BRANCH  36  61
ATOM     61  C   UNL A   1      46.595  27.033  33.706  1.00  0.00     0.058 A 
ATOM     62  C   UNL A   1      47.855  27.585  33.433  1.00  0.00     0.135 A 
ATOM     63  C   UNL A   1      46.505  26.034  34.687  1.00  0.00     0.135 A 
ATOM     64  F   UNL A   1      47.990  28.534  32.494  1.00  0.00    -0.206 F 
ATOM     65  C   UNL A   1      48.996  27.134  34.086  1.00  0.00     0.059 A 
ATOM     66  C   UNL A   1      47.627  25.593  35.377  1.00  0.00     0.059 A 
ATOM     67  F   UNL A   1      45.319  25.484  34.987  1.00  0.00    -0.206 F 
ATOM     68  C   UNL A   1      48.869  26.137  35.056  1.00  0.00     0.060 A 
BRANCH  68  69
ATOM     69  S   UNL A   1      50.353  25.572  35.911  1.00  0.00     0.124 S 
ATOM     70  O   UNL A   1      51.301  26.631  35.582  1.00  0.00    -0.237 OA
ATOM     71  O   UNL A   1      49.912  25.522  37.301  1.00  0.00    -0.237 OA
ATOM     72  O   UNL A   1      50.623  24.274  35.298  1.00  0.00    -0.744 OA
ENDBRANCH  68  69
ENDBRANCH  36  61
ENDBRANCH  10  11
ENDBRANCH   3   5
ENDBRANCH   2   3
ENDBRANCH   1   2
BRANCH   1  73
ATOM     73  C   UNL A   1      33.610  34.079  28.091  1.00  0.00     0.274 C 
BRANCH  73  74
ATOM     74  O   UNL A   1      32.834  34.551  29.205  1.00  0.00    -0.460 OA
BRANCH  74  75
ATOM     75  C   UNL A   1      32.874  35.896  29.449  1.00  0.00     0.337 C 
ATOM     76  O   UNL A   1      32.377  36.744  28.715  1.00  0.00    -0.249 OA
BRANCH  75  77
ATOM     77  C   UNL A   1      33.622  36.240  30.741  1.00  0.00     0.247 C 
ATOM     78  C   UNL A   1      33.571  35.039  31.699  1.00  0.00     0.160 C 
ATOM     79  O   UNL A   1      33.105  37.436  31.339  1.00  0.00    -0.363 OA
ATOM     80  N   UNL A   1      34.131  35.376  33.018  1.00  0.00    -0.366 N 
ATOM     81  C   UNL A   1      33.793  37.754  32.564  1.00  0.00     0.183 C 
ATOM     82  C   UNL A   1      33.648  36.633  33.603  1.00  0.00     0.145 C 
BRANCH  80  83
ATOM     83  C   UNL A   1      35.351  34.901  33.460  1.00  0.00     0.038 A 
ATOM     84  C   UNL A   1      35.492  34.261  34.696  1.00  0.00     0.026 A 
ATOM     85  C   UNL A   1      36.489  35.012  32.645  1.00  0.00     0.046 A 
ATOM     86  C   UNL A   1      36.723  33.748  35.110  1.00  0.00     0.004 A 
ATOM     87  C   UNL A   1      37.718  34.496  33.055  1.00  0.00     0.043 A 
ATOM     88  C   UNL A   1      37.841  33.870  34.291  1.00  0.00     0.020 A 
ATOM     89  Cl  UNL A   1      39.092  34.583  32.022  1.00  0.00    -0.084 Cl
ENDBRANCH  80  83
ENDBRANCH  75  77
ENDBRANCH  74  75
ENDBRANCH  73  74
ENDBRANCH   1  73
TORSDOF 15
ENDMDL
MODEL 2
REMARK VINA RESULT:     -10.9      4.741     12.915
REMARK SMILES O=C(OCCOC(=O)[C@@H]1CN(c2cccc(Cl)c2)CCO1)c1ccc(-c2c3nc(c(-c4c(F)cc(S(=O)(=O)[O-])cc4F)c4ccc([nH]4)c(-c4c(F)cc(S(=O)(=O)[O-])cc4F)c4nc(c(-c5c(F)cc(S(=O)(=O)[O-])cc5F)c5ccc2[nH]5)C=C4)C=C3)cc1
REMARK SMILES IDX 4 1 3 2 2 3 1 4 22 5 23 6 87 7 24 8 86 9 25 10 26 11 27 12
REMARK SMILES IDX 80 13 28 14 85 15 79 16 81 17 29 18 84 19 78 20 77 21 30 23
REMARK SMILES IDX 64 24 43 25 63 26 44 27 47 28 62 29 82 30 45 31 46 32 61 34
REMARK SMILES IDX 83 35 48 36 31 37 32 38 41 39 33 40 34 41 40 42 42 43 35 44
REMARK SMILES IDX 36 45 37 46 38 47 39 48 65 49 66 50 75 51 67 52 68 53 74 54
REMARK SMILES IDX 76 55 69 56 70 57 71 58 72 59 73 60 49 61 50 62 59 63 51 64
REMARK SMILES IDX 52 65 58 66 60 67 53 68 54 69 55 70 56 71 57 72 5 73 6 74
REMARK SMILES IDX 7 75 8 76 9 77 10 78 21 79 11 80 20 81 19 82 12 83 13 84
REMARK SMILES IDX 18 85 14 86 16 87 15 88 17 89
REMARK H PARENT 81 22 47 33
REMARK Flexibility Score: inf
ROOT
ATOM      1  C   UNL A   1      40.503  21.166  26.485  1.00  0.00     0.275 C 
ENDROOT
BRANCH   1   2
ATOM      2  O   UNL A   1      39.233  21.657  26.029  1.00  0.00    -0.458 OA
BRANCH   2   3
ATOM      3  C   UNL A   1      38.634  22.850  26.263  1.00  0.00     0.338 C 
ATOM      4  O   UNL A   1      37.429  22.944  26.027  1.00  0.00    -0.246 OA
BRANCH   3   5
ATOM      5  C   UNL A   1      39.362  24.092  26.695  1.00  0.00     0.060 A 
ATOM      6  C   UNL A   1      40.076  24.971  25.877  1.00  0.00     0.016 A 
ATOM      7  C   UNL A   1      39.285  24.404  28.063  1.00  0.00     0.016 A 
ATOM      8  C   UNL A   1      40.598  26.171  26.373  1.00  0.00     0.010 A 
ATOM      9  C   UNL A   1      39.785  25.613  28.561  1.00  0.00     0.010 A 
ATOM     10  C   UNL A   1      40.429  26.520  27.710  1.00  0.00    -0.014 A 
BRANCH  10  11
ATOM     11  C   UNL A   1      41.016  27.781  28.228  1.00  0.00     0.031 A 
ATOM     12  C   UNL A   1      42.510  27.920  28.223  1.00  0.00     0.074 A 
ATOM     13  C   UNL A   1      40.231  28.792  28.661  1.00  0.00     0.049 A 
ATOM     14  N   UNL A   1      43.242  28.926  28.615  1.00  0.00    -0.248 NA
ATOM     15  C   UNL A   1      43.282  26.779  27.700  1.00  0.00     0.031 C 
ATOM     16  C   UNL A   1      38.768  28.776  28.680  1.00  0.00     0.029 A 
ATOM     17  N   UNL A   1      40.539  30.020  29.190  1.00  0.00    -0.354 N 
ATOM     18  C   UNL A   1      44.549  28.564  28.324  1.00  0.00     0.074 A 
ATOM     19  C   UNL A   1      44.527  27.200  27.852  1.00  0.00     0.031 C 
ATOM     20  C   UNL A   1      38.305  29.896  29.257  1.00  0.00     0.029 A 
ATOM     21  C   UNL A   1      39.439  30.737  29.612  1.00  0.00     0.049 A 
ATOM     22  H   UNL A   1      41.460  30.360  29.260  1.00  0.00     0.167 HD
ATOM     23  C   UNL A   1      45.661  29.332  28.368  1.00  0.00     0.037 A 
ATOM     24  C   UNL A   1      39.358  31.938  30.216  1.00  0.00     0.037 A 
ATOM     25  C   UNL A   1      45.667  30.687  28.839  1.00  0.00     0.049 A 
ATOM     26  C   UNL A   1      40.631  32.713  30.406  1.00  0.00     0.074 A 
ATOM     27  C   UNL A   1      46.731  31.564  28.930  1.00  0.00     0.029 A 
ATOM     28  N   UNL A   1      44.547  31.362  29.305  1.00  0.00    -0.354 N 
ATOM     29  N   UNL A   1      41.856  32.368  30.085  1.00  0.00    -0.248 NA
ATOM     30  C   UNL A   1      40.511  34.049  31.001  1.00  0.00     0.031 C 
ATOM     31  C   UNL A   1      46.260  32.758  29.487  1.00  0.00     0.029 A 
ATOM     32  C   UNL A   1      44.894  32.640  29.700  1.00  0.00     0.049 A 
ATOM     33  H   UNL A   1      43.638  30.985  29.348  1.00  0.00     0.167 HD
ATOM     34  C   UNL A   1      42.648  33.464  30.391  1.00  0.00     0.074 A 
ATOM     35  C   UNL A   1      41.763  34.480  30.928  1.00  0.00     0.031 C 
ATOM     36  C   UNL A   1      43.984  33.626  30.227  1.00  0.00     0.037 A 
BRANCH  23  37
ATOM     37  C   UNL A   1      46.927  28.718  27.846  1.00  0.00     0.058 A 
ATOM     38  C   UNL A   1      47.252  28.784  26.479  1.00  0.00     0.135 A 
ATOM     39  C   UNL A   1      47.811  28.043  28.698  1.00  0.00     0.135 A 
ATOM     40  F   UNL A   1      46.421  29.390  25.614  1.00  0.00    -0.206 F 
ATOM     41  C   UNL A   1      48.396  28.181  25.973  1.00  0.00     0.059 A 
ATOM     42  C   UNL A   1      48.976  27.454  28.218  1.00  0.00     0.059 A 
ATOM     43  F   UNL A   1      47.538  27.937  30.008  1.00  0.00    -0.206 F 
ATOM     44  C   UNL A   1      49.254  27.518  26.852  1.00  0.00     0.060 A 
BRANCH  44  45
ATOM     45  S   UNL A   1      50.741  26.750  26.180  1.00  0.00     0.124 S 
ATOM     46  O   UNL A   1      50.742  25.462  26.870  1.00  0.00    -0.237 OA
ATOM     47  O   UNL A   1      50.443  26.699  24.750  1.00  0.00    -0.237 OA
ATOM     48  O   UNL A   1      51.804  27.670  26.564  1.00  0.00    -0.744 OA
ENDBRANCH  44  45
ENDBRANCH  23  37
BRANCH  24  49
ATOM     49  C   UNL A   1      38.058  32.478  30.701  1.00  0.00     0.058 A 
ATOM     50  C   UNL A   1      37.195  33.219  29.880  1.00  0.00     0.135 A 
ATOM     51  C   UNL A   1      37.688  32.309  32.043  1.00  0.00     0.135 A 
ATOM     52  F   UNL A   1      37.512  33.429  28.594  1.00  0.00    -0.206 F 
ATOM     53  C   UNL A   1      36.025  33.791  30.378  1.00  0.00     0.059 A 
ATOM     54  C   UNL A   1      36.512  32.848  32.559  1.00  0.00     0.059 A 
ATOM     55  F   UNL A   1      38.493  31.622  32.865  1.00  0.00    -0.206 F 
ATOM     56  C   UNL A   1      35.694  33.603  31.722  1.00  0.00     0.060 A 
BRANCH  56  57
ATOM     57  S   UNL A   1      34.172  34.345  32.359  1.00  0.00     0.124 S 
ATOM     58  O   UNL A   1      34.695  35.445  33.161  1.00  0.00    -0.237 OA
ATOM     59  O   UNL A   1      33.478  34.726  31.132  1.00  0.00    -0.237 OA
ATOM     60  O   UNL A   1      33.551  33.256  33.107  1.00  0.00    -0.744 OA
ENDBRANCH  56  57
ENDBRANCH  24  49
BRANCH  36  61
ATOM     61  C   UNL A   1      44.545  34.970  30.581  1.00  0.00     0.058 A 
ATOM     62  C   UNL A   1      44.589  36.020  29.653  1.00  0.00     0.135 A 
ATOM     63  C   UNL A   1      45.027  35.209  31.878  1.00  0.00     0.135 A 
ATOM     64  F   UNL A   1      44.150  35.832  28.398  1.00  0.00    -0.206 F 
ATOM     65  C   UNL A   1      45.126  37.256  29.988  1.00  0.00     0.059 A 
ATOM     66  C   UNL A   1      45.536  36.448  32.245  1.00  0.00     0.059 A 
ATOM     67  F   UNL A   1      44.996  34.237  32.802  1.00  0.00    -0.206 F 
ATOM     68  C   UNL A   1      45.598  37.459  31.287  1.00  0.00     0.060 A 
BRANCH  68  69
ATOM     69  S   UNL A   1      46.277  39.073  31.716  1.00  0.00     0.124 S 
ATOM     70  O   UNL A   1      47.232  38.720  32.761  1.00  0.00    -0.237 OA
ATOM     71  O   UNL A   1      46.853  39.516  30.450  1.00  0.00    -0.237 OA
ATOM     72  O   UNL A   1      45.107  39.825  32.162  1.00  0.00    -0.744 OA
ENDBRANCH  68  69
ENDBRANCH  36  61
ENDBRANCH  10  11
ENDBRANCH   3   5
ENDBRANCH   2   3
ENDBRANCH   1   2
BRANCH   1  73
ATOM     73  C   UNL A   1      40.734  19.675  26.230  1.00  0.00     0.274 C 
BRANCH  73  74
ATOM     74  O   UNL A   1      41.803  19.413  25.305  1.00  0.00    -0.460 OA
BRANCH  74  75
ATOM     75  C   UNL A   1      42.791  18.574  25.740  1.00  0.00     0.337 C 
ATOM     76  O   UNL A   1      42.606  17.411  26.084  1.00  0.00    -0.249 OA
BRANCH  75  77
ATOM     77  C   UNL A   1      44.168  19.246  25.764  1.00  0.00     0.247 C 
ATOM     78  C   UNL A   1      44.173  20.441  24.796  1.00  0.00     0.160 C 
ATOM     79  O   UNL A   1      45.211  18.306  25.473  1.00  0.00    -0.363 OA
ATOM     80  N   UNL A   1      45.520  21.018  24.658  1.00  0.00    -0.366 N 
ATOM     81  C   UNL A   1      46.506  18.936  25.477  1.00  0.00     0.183 C 
ATOM     82  C   UNL A   1      46.598  20.048  24.423  1.00  0.00     0.145 C 
BRANCH  80  83
ATOM     83  C   UNL A   1      45.875  22.237  25.203  1.00  0.00     0.038 A 
ATOM     84  C   UNL A   1      46.473  23.244  24.437  1.00  0.00     0.026 A 
ATOM     85  C   UNL A   1      45.598  22.516  26.551  1.00  0.00     0.046 A 
ATOM     86  C   UNL A   1      46.786  24.487  24.991  1.00  0.00     0.004 A 
ATOM     87  C   UNL A   1      45.906  23.758  27.104  1.00  0.00     0.043 A 
ATOM     88  C   UNL A   1      46.507  24.743  26.329  1.00  0.00     0.020 A 
ATOM     89  Cl  UNL A   1      45.505  24.109  28.741  1.00  0.00    -0.084 Cl
ENDBRANCH  80  83
ENDBRANCH  75  77
ENDBRANCH  74  75
ENDBRANCH  73  74
ENDBRANCH   1  73
TORSDOF 15
ENDMDL
MODEL 3
REMARK VINA RESULT:     -10.6      3.593     12.179
REMARK SMILES O=C(OCCOC(=O)[C@@H]1CN(c2cccc(Cl)c2)CCO1)c1ccc(-c2c3nc(c(-c4c(F)cc(S(=O)(=O)[O-])cc4F)c4ccc([nH]4)c(-c4c(F)cc(S(=O)(=O)[O-])cc4F)c4nc(c(-c5c(F)cc(S(=O)(=O)[O-])cc5F)c5ccc2[nH]5)C=C4)C=C3)cc1
REMARK SMILES IDX 4 1 3 2 2 3 1 4 22 5 23 6 87 7 24 8 86 9 25 10 26 11 27 12
REMARK SMILES IDX 80 13 28 14 85 15 79 16 81 17 29 18 84 19 78 20 77 21 30 23
REMARK SMILES IDX 64 24 43 25 63 26 44 27 47 28 62 29 82 30 45 31 46 32 61 34
REMARK SMILES IDX 83 35 48 36 31 37 32 38 41 39 33 40 34 41 40 42 42 43 35 44
REMARK SMILES IDX 36 45 37 46 38 47 39 48 65 49 66 50 75 51 67 52 68 53 74 54
REMARK SMILES IDX 76 55 69 56 70 57 71 58 72 59 73 60 49 61 50 62 59 63 51 64
REMARK SMILES IDX 52 65 58 66 60 67 53 68 54 69 55 70 56 71 57 72 5 73 6 74
REMARK SMILES IDX 7 75 8 76 9 77 10 78 21 79 11 80 20 81 19 82 12 83 13 84
REMARK SMILES IDX 18 85 14 86 16 87 15 88 17 89
REMARK H PARENT 81 22 47 33
REMARK Flexibility Score: inf
ROOT
ATOM      1  C   UNL A   1      45.371  25.005  25.093  1.00  0.00     0.275 C 
ENDROOT
BRANCH   1   2
ATOM      2  O   UNL A   1      44.386  24.936  26.135  1.00  0.00    -0.458 OA
BRANCH   2   3
ATOM      3  C   UNL A   1      43.123  25.427  26.164  1.00  0.00     0.338 C 
ATOM      4  O   UNL A   1      42.407  25.227  25.181  1.00  0.00    -0.246 OA
BRANCH   3   5
ATOM      5  C   UNL A   1      42.572  26.282  27.270  1.00  0.00     0.060 A 
ATOM      6  C   UNL A   1      41.461  26.003  28.070  1.00  0.00     0.016 A 
ATOM      7  C   UNL A   1      43.274  27.471  27.534  1.00  0.00     0.016 A 
ATOM      8  C   UNL A   1      41.125  26.811  29.161  1.00  0.00     0.010 A 
ATOM      9  C   UNL A   1      42.956  28.271  28.637  1.00  0.00     0.010 A 
ATOM     10  C   UNL A   1      41.887  27.933  29.476  1.00  0.00    -0.014 A 
BRANCH  10  11
ATOM     11  C   UNL A   1      41.498  28.798  30.618  1.00  0.00     0.031 A 
ATOM     12  C   UNL A   1      42.229  28.626  31.917  1.00  0.00     0.074 A 
ATOM     13  C   UNL A   1      40.537  29.738  30.488  1.00  0.00     0.049 A 
ATOM     14  N   UNL A   1      42.070  29.270  33.039  1.00  0.00    -0.248 NA
ATOM     15  C   UNL A   1      43.286  27.599  31.954  1.00  0.00     0.031 C 
ATOM     16  C   UNL A   1      39.784  30.013  29.263  1.00  0.00     0.029 A 
ATOM     17  N   UNL A   1      40.004  30.625  31.389  1.00  0.00    -0.354 N 
ATOM     18  C   UNL A   1      43.047  28.771  33.889  1.00  0.00     0.074 A 
ATOM     19  C   UNL A   1      43.703  27.683  33.206  1.00  0.00     0.031 C 
ATOM     20  C   UNL A   1      38.843  30.940  29.501  1.00  0.00     0.029 A 
ATOM     21  C   UNL A   1      38.951  31.363  30.890  1.00  0.00     0.049 A 
ATOM     22  H   UNL A   1      40.343  30.728  32.307  1.00  0.00     0.167 HD
ATOM     23  C   UNL A   1      43.420  29.238  35.102  1.00  0.00     0.037 A 
ATOM     24  C   UNL A   1      38.164  32.278  31.488  1.00  0.00     0.037 A 
ATOM     25  C   UNL A   1      42.758  30.322  35.770  1.00  0.00     0.049 A 
ATOM     26  C   UNL A   1      38.494  32.668  32.900  1.00  0.00     0.074 A 
ATOM     27  C   UNL A   1      43.045  30.883  37.000  1.00  0.00     0.029 A 
ATOM     28  N   UNL A   1      41.666  31.011  35.258  1.00  0.00    -0.354 N 
ATOM     29  N   UNL A   1      39.451  32.213  33.673  1.00  0.00    -0.248 NA
ATOM     30  C   UNL A   1      37.668  33.719  33.507  1.00  0.00     0.031 C 
ATOM     31  C   UNL A   1      42.102  31.886  37.248  1.00  0.00     0.029 A 
ATOM     32  C   UNL A   1      41.256  31.981  36.153  1.00  0.00     0.049 A 
ATOM     33  H   UNL A   1      41.245  30.833  34.385  1.00  0.00     0.167 HD
ATOM     34  C   UNL A   1      39.376  32.956  34.842  1.00  0.00     0.074 A 
ATOM     35  C   UNL A   1      38.276  33.887  34.673  1.00  0.00     0.031 C 
ATOM     36  C   UNL A   1      40.157  32.891  35.948  1.00  0.00     0.037 A 
BRANCH  23  37
ATOM     37  C   UNL A   1      44.620  28.595  35.734  1.00  0.00     0.058 A 
ATOM     38  C   UNL A   1      45.920  29.034  35.426  1.00  0.00     0.135 A 
ATOM     39  C   UNL A   1      44.483  27.527  36.631  1.00  0.00     0.135 A 
ATOM     40  F   UNL A   1      46.107  30.032  34.546  1.00  0.00    -0.206 F 
ATOM     41  C   UNL A   1      47.042  28.419  35.965  1.00  0.00     0.059 A 
ATOM     42  C   UNL A   1      45.592  26.913  37.204  1.00  0.00     0.059 A 
ATOM     43  F   UNL A   1      43.265  27.059  36.945  1.00  0.00    -0.206 F 
ATOM     44  C   UNL A   1      46.868  27.359  36.856  1.00  0.00     0.060 A 
BRANCH  44  45
ATOM     45  S   UNL A   1      48.336  26.580  37.557  1.00  0.00     0.124 S 
ATOM     46  O   UNL A   1      49.112  26.283  36.355  1.00  0.00    -0.237 OA
ATOM     47  O   UNL A   1      48.872  27.640  38.408  1.00  0.00    -0.237 OA
ATOM     48  O   UNL A   1      47.804  25.422  38.263  1.00  0.00    -0.744 OA
ENDBRANCH  44  45
ENDBRANCH  23  37
BRANCH  24  49
ATOM     49  C   UNL A   1      36.992  32.872  30.786  1.00  0.00     0.058 A 
ATOM     50  C   UNL A   1      37.121  33.891  29.832  1.00  0.00     0.135 A 
ATOM     51  C   UNL A   1      35.695  32.461  31.122  1.00  0.00     0.135 A 
ATOM     52  F   UNL A   1      38.339  34.337  29.490  1.00  0.00    -0.206 F 
ATOM     53  C   UNL A   1      36.006  34.495  29.252  1.00  0.00     0.059 A 
ATOM     54  C   UNL A   1      34.565  33.029  30.539  1.00  0.00     0.059 A 
ATOM     55  F   UNL A   1      35.527  31.501  32.043  1.00  0.00    -0.206 F 
ATOM     56  C   UNL A   1      34.730  34.060  29.617  1.00  0.00     0.060 A 
BRANCH  56  57
ATOM     57  S   UNL A   1      33.289  34.846  28.858  1.00  0.00     0.124 S 
ATOM     58  O   UNL A   1      32.838  33.807  27.938  1.00  0.00    -0.237 OA
ATOM     59  O   UNL A   1      32.428  35.091  30.011  1.00  0.00    -0.237 OA
ATOM     60  O   UNL A   1      33.844  36.044  28.236  1.00  0.00    -0.744 OA
ENDBRANCH  56  57
ENDBRANCH  24  49
BRANCH  36  61
ATOM     61  C   UNL A   1      39.876  33.893  37.027  1.00  0.00     0.058 A 
ATOM     62  C   UNL A   1      39.071  33.582  38.132  1.00  0.00     0.135 A 
ATOM     63  C   UNL A   1      40.440  35.176  36.957  1.00  0.00     0.135 A 
ATOM     64  F   UNL A   1      38.501  32.371  38.235  1.00  0.00    -0.206 F 
ATOM     65  C   UNL A   1      38.803  34.524  39.118  1.00  0.00     0.059 A 
ATOM     66  C   UNL A   1      40.214  36.123  37.949  1.00  0.00     0.059 A 
ATOM     67  F   UNL A   1      41.225  35.516  35.923  1.00  0.00    -0.206 F 
ATOM     68  C   UNL A   1      39.380  35.792  39.015  1.00  0.00     0.060 A 
BRANCH  68  69
ATOM     69  S   UNL A   1      39.041  37.001  40.309  1.00  0.00     0.124 S 
ATOM     70  O   UNL A   1      38.474  38.102  39.538  1.00  0.00    -0.237 OA
ATOM     71  O   UNL A   1      38.110  36.282  41.171  1.00  0.00    -0.237 OA
ATOM     72  O   UNL A   1      40.357  37.253  40.890  1.00  0.00    -0.744 OA
ENDBRANCH  68  69
ENDBRANCH  36  61
ENDBRANCH  10  11
ENDBRANCH   3   5
ENDBRANCH   2   3
ENDBRANCH   1   2
BRANCH   1  73
ATOM     73  C   UNL A   1      45.985  23.656  24.712  1.00  0.00     0.274 C 
BRANCH  73  74
ATOM     74  O   UNL A   1      45.006  22.651  24.397  1.00  0.00    -0.460 OA
BRANCH  74  75
ATOM     75  C   UNL A   1      44.990  21.544  25.200  1.00  0.00     0.337 C 
ATOM     76  O   UNL A   1      45.994  21.016  25.665  1.00  0.00    -0.249 OA
BRANCH  75  77
ATOM     77  C   UNL A   1      43.573  21.019  25.452  1.00  0.00     0.247 C 
ATOM     78  C   UNL A   1      42.918  21.830  26.582  1.00  0.00     0.160 C 
ATOM     79  O   UNL A   1      43.581  19.611  25.726  1.00  0.00    -0.363 OA
ATOM     80  N   UNL A   1      41.620  21.257  26.975  1.00  0.00    -0.366 N 
ATOM     81  C   UNL A   1      42.254  19.115  25.982  1.00  0.00     0.183 C 
ATOM     82  C   UNL A   1      41.615  19.805  27.195  1.00  0.00     0.145 C 
BRANCH  80  83
ATOM     83  C   UNL A   1      40.413  21.855  26.671  1.00  0.00     0.038 A 
ATOM     84  C   UNL A   1      40.146  23.191  26.993  1.00  0.00     0.026 A 
ATOM     85  C   UNL A   1      39.423  21.137  25.981  1.00  0.00     0.046 A 
ATOM     86  C   UNL A   1      38.937  23.794  26.640  1.00  0.00     0.004 A 
ATOM     87  C   UNL A   1      38.216  21.739  25.624  1.00  0.00     0.043 A 
ATOM     88  C   UNL A   1      37.967  23.065  25.959  1.00  0.00     0.020 A 
ATOM     89  Cl  UNL A   1      37.037  20.868  24.724  1.00  0.00    -0.084 Cl
ENDBRANCH  80  83
ENDBRANCH  75  77
ENDBRANCH  74  75
ENDBRANCH  73  74
ENDBRANCH   1  73
TORSDOF 15
ENDMDL
