MODEL 1
REMARK VINA RESULT:     -11.8      0.000      0.000
REMARK SMILES C[C@H](Oc1ccc(C(=O)NCc2ccccc2)cc1)C(=O)OCCOC(=O)c1ccc(-c2c3nc(c(-c4c(F)cc(S(=O)(=O)[O-])cc4F)c4ccc([nH]4)c(-c4c(F)cc(S(=O)(=O)[O-])cc4F)c4nc(c(-c5c(F)cc(S(=O)(=O)[O-])cc5F)c5ccc2[nH]5)C=C4)C=C3)cc1
REMARK SMILES IDX 23 1 22 2 20 3 21 4 2 5 1 6 3 7 4 8 5 9 19 10 6 11 18 12
REMARK SMILES IDX 7 13 8 14 9 15 10 16 11 18 12 19 13 20 17 21 14 22 16 23
REMARK SMILES IDX 15 24 24 25 25 26 26 27 27 28 28 29 29 30 93 31 30 32 92 33
REMARK SMILES IDX 31 34 32 35 33 36 86 37 34 38 91 39 85 40 87 41 35 42 90 43
REMARK SMILES IDX 84 44 83 45 36 47 70 48 49 49 69 50 50 51 53 52 68 53 88 54
REMARK SMILES IDX 51 55 52 56 67 58 89 59 54 60 37 61 38 62 47 63 39 64 40 65
REMARK SMILES IDX 46 66 48 67 41 68 42 69 43 70 44 71 45 72 71 73 72 74 81 75
REMARK SMILES IDX 73 76 74 77 80 78 82 79 75 80 76 81 77 82 78 83 79 84 55 85
REMARK SMILES IDX 56 86 65 87 57 88 58 89 64 90 66 91 59 92 60 93 61 94 62 95
REMARK SMILES IDX 63 96
REMARK H PARENT 10 17 87 46 53 57
REMARK Flexibility Score: inf
ROOT
ATOM      1  C   UNL A   1      39.623  21.310  26.256  1.00  0.00     0.274 C 
ENDROOT
BRANCH   1   2
ATOM      2  O   UNL A   1      38.496  21.898  25.582  1.00  0.00    -0.459 OA
BRANCH   2   3
ATOM      3  C   UNL A   1      37.603  21.034  25.020  1.00  0.00     0.347 C 
ATOM      4  O   UNL A   1      37.889  19.918  24.597  1.00  0.00    -0.248 OA
BRANCH   3   5
ATOM      5  C   UNL A   1      36.200  21.635  24.904  1.00  0.00     0.279 C 
ATOM      6  C   UNL A   1      36.324  23.144  25.112  1.00  0.00     0.066 C 
BRANCH   5   7
ATOM      7  O   UNL A   1      35.336  21.012  25.852  1.00  0.00    -0.479 OA
BRANCH   7   8
ATOM      8  C   UNL A   1      34.073  21.487  26.040  1.00  0.00     0.120 A 
ATOM      9  C   UNL A   1      33.027  21.438  25.127  1.00  0.00     0.047 A 
ATOM     10  C   UNL A   1      33.868  22.107  27.274  1.00  0.00     0.047 A 
ATOM     11  C   UNL A   1      31.813  22.074  25.424  1.00  0.00     0.017 A 
ATOM     12  C   UNL A   1      32.661  22.754  27.568  1.00  0.00     0.017 A 
ATOM     13  C   UNL A   1      31.619  22.750  26.641  1.00  0.00     0.040 A 
BRANCH  13  14
ATOM     14  C   UNL A   1      30.347  23.513  26.790  1.00  0.00     0.251 C 
ATOM     15  O   UNL A   1      29.526  23.134  27.627  1.00  0.00    -0.269 OA
ATOM     16  N   UNL A   1      30.011  24.611  26.046  1.00  0.00    -0.348 N 
ATOM     17  H   UNL A   1      29.105  24.949  26.231  1.00  0.00     0.164 HD
BRANCH  16  18
ATOM     18  C   UNL A   1      30.719  25.376  25.042  1.00  0.00     0.152 C 
BRANCH  18  19
ATOM     19  C   UNL A   1      31.076  26.780  25.486  1.00  0.00    -0.029 A 
ATOM     20  C   UNL A   1      31.052  27.887  24.622  1.00  0.00     0.005 A 
ATOM     21  C   UNL A   1      31.455  26.989  26.822  1.00  0.00     0.005 A 
ATOM     22  C   UNL A   1      31.399  29.161  25.078  1.00  0.00     0.000 A 
ATOM     23  C   UNL A   1      31.800  28.264  27.278  1.00  0.00     0.000 A 
ATOM     24  C   UNL A   1      31.773  29.349  26.406  1.00  0.00     0.000 A 
ENDBRANCH  18  19
ENDBRANCH  16  18
ENDBRANCH  13  14
ENDBRANCH   7   8
ENDBRANCH   5   7
ENDBRANCH   3   5
ENDBRANCH   2   3
ENDBRANCH   1   2
BRANCH   1  25
ATOM     25  C   UNL A   1      40.785  22.298  26.387  1.00  0.00     0.275 C 
BRANCH  25  26
ATOM     26  O   UNL A   1      40.319  23.638  26.624  1.00  0.00    -0.458 OA
BRANCH  26  27
ATOM     27  C   UNL A   1      41.261  24.603  26.517  1.00  0.00     0.338 C 
ATOM     28  O   UNL A   1      42.136  24.686  25.665  1.00  0.00    -0.246 OA
BRANCH  27  29
ATOM     29  C   UNL A   1      41.013  25.652  27.516  1.00  0.00     0.060 A 
ATOM     30  C   UNL A   1      41.926  26.707  27.602  1.00  0.00     0.016 A 
ATOM     31  C   UNL A   1      39.934  25.572  28.400  1.00  0.00     0.016 A 
ATOM     32  C   UNL A   1      41.763  27.692  28.573  1.00  0.00     0.010 A 
ATOM     33  C   UNL A   1      39.777  26.556  29.381  1.00  0.00     0.010 A 
ATOM     34  C   UNL A   1      40.696  27.616  29.479  1.00  0.00    -0.014 A 
BRANCH  34  35
ATOM     35  C   UNL A   1      40.582  28.617  30.566  1.00  0.00     0.031 A 
ATOM     36  C   UNL A   1      41.488  28.522  31.762  1.00  0.00     0.074 A 
ATOM     37  C   UNL A   1      39.686  29.616  30.470  1.00  0.00     0.049 A 
ATOM     38  N   UNL A   1      41.514  29.261  32.840  1.00  0.00    -0.248 NA
ATOM     39  C   UNL A   1      42.497  27.451  31.740  1.00  0.00     0.031 C 
ATOM     40  C   UNL A   1      38.782  29.829  29.340  1.00  0.00     0.029 A 
ATOM     41  N   UNL A   1      39.389  30.638  31.336  1.00  0.00    -0.354 N 
ATOM     42  C   UNL A   1      42.533  28.744  33.630  1.00  0.00     0.074 A 
ATOM     43  C   UNL A   1      43.088  27.613  32.916  1.00  0.00     0.031 C 
ATOM     44  C   UNL A   1      38.029  30.916  29.583  1.00  0.00     0.029 A 
ATOM     45  C   UNL A   1      38.372  31.451  30.898  1.00  0.00     0.049 A 
ATOM     46  H   UNL A   1      39.860  30.773  32.189  1.00  0.00     0.167 HD
ATOM     47  C   UNL A   1      42.967  29.176  34.838  1.00  0.00     0.037 A 
ATOM     48  C   UNL A   1      37.772  32.497  31.500  1.00  0.00     0.037 A 
ATOM     49  C   UNL A   1      42.413  30.305  35.540  1.00  0.00     0.049 A 
ATOM     50  C   UNL A   1      38.237  32.925  32.866  1.00  0.00     0.074 A 
ATOM     51  C   UNL A   1      42.787  30.825  36.767  1.00  0.00     0.029 A 
ATOM     52  N   UNL A   1      41.366  31.089  35.077  1.00  0.00    -0.354 N 
ATOM     53  N   UNL A   1      39.199  32.424  33.603  1.00  0.00    -0.248 NA
ATOM     54  C   UNL A   1      37.534  34.057  33.483  1.00  0.00     0.031 C 
ATOM     55  C   UNL A   1      41.943  31.902  37.062  1.00  0.00     0.029 A 
ATOM     56  C   UNL A   1      41.070  32.078  36.001  1.00  0.00     0.049 A 
ATOM     57  H   UNL A   1      40.902  30.962  34.218  1.00  0.00     0.167 HD
ATOM     58  C   UNL A   1      39.230  33.192  34.762  1.00  0.00     0.074 A 
ATOM     59  C   UNL A   1      38.196  34.198  34.624  1.00  0.00     0.031 C 
ATOM     60  C   UNL A   1      40.040  33.075  35.844  1.00  0.00     0.037 A 
BRANCH  47  61
ATOM     61  C   UNL A   1      44.082  28.407  35.489  1.00  0.00     0.058 A 
ATOM     62  C   UNL A   1      43.828  27.349  36.375  1.00  0.00     0.135 A 
ATOM     63  C   UNL A   1      45.422  28.717  35.203  1.00  0.00     0.135 A 
ATOM     64  F   UNL A   1      42.566  27.023  36.696  1.00  0.00    -0.206 F 
ATOM     65  C   UNL A   1      44.864  26.639  36.974  1.00  0.00     0.059 A 
ATOM     66  C   UNL A   1      46.473  28.007  35.774  1.00  0.00     0.059 A 
ATOM     67  F   UNL A   1      45.719  29.722  34.364  1.00  0.00    -0.206 F 
ATOM     68  C   UNL A   1      46.184  26.978  36.670  1.00  0.00     0.060 A 
BRANCH  68  69
ATOM     69  S   UNL A   1      47.520  26.053  37.458  1.00  0.00     0.124 S 
ATOM     70  O   UNL A   1      47.095  26.063  38.854  1.00  0.00    -0.237 OA
ATOM     71  O   UNL A   1      47.447  24.760  36.784  1.00  0.00    -0.237 OA
ATOM     72  O   UNL A   1      48.707  26.846  37.157  1.00  0.00    -0.744 OA
ENDBRANCH  68  69
ENDBRANCH  47  61
BRANCH  48  73
ATOM     73  C   UNL A   1      36.655  33.201  30.818  1.00  0.00     0.058 A 
ATOM     74  C   UNL A   1      35.330  33.043  31.249  1.00  0.00     0.135 A 
ATOM     75  C   UNL A   1      36.892  34.054  29.729  1.00  0.00     0.135 A 
ATOM     76  F   UNL A   1      35.052  32.230  32.279  1.00  0.00    -0.206 F 
ATOM     77  C   UNL A   1      34.277  33.699  30.619  1.00  0.00     0.059 A 
ATOM     78  C   UNL A   1      35.859  34.739  29.099  1.00  0.00     0.059 A 
ATOM     79  F   UNL A   1      38.145  34.246  29.285  1.00  0.00    -0.206 F 
ATOM     80  C   UNL A   1      34.553  34.548  29.546  1.00  0.00     0.060 A 
BRANCH  80  81
ATOM     81  S   UNL A   1      33.187  35.438  28.767  1.00  0.00     0.124 S 
ATOM     82  O   UNL A   1      32.441  35.905  29.930  1.00  0.00    -0.237 OA
ATOM     83  O   UNL A   1      33.886  36.466  28.001  1.00  0.00    -0.237 OA
ATOM     84  O   UNL A   1      32.532  34.410  27.966  1.00  0.00    -0.744 OA
ENDBRANCH  80  81
ENDBRANCH  48  73
BRANCH  60  85
ATOM     85  C   UNL A   1      39.860  34.074  36.951  1.00  0.00     0.058 A 
ATOM     86  C   UNL A   1      40.397  35.367  36.868  1.00  0.00     0.135 A 
ATOM     87  C   UNL A   1      39.101  33.748  38.086  1.00  0.00     0.135 A 
ATOM     88  F   UNL A   1      41.137  35.725  35.806  1.00  0.00    -0.206 F 
ATOM     89  C   UNL A   1      40.204  36.300  37.882  1.00  0.00     0.059 A 
ATOM     90  C   UNL A   1      38.876  34.671  39.102  1.00  0.00     0.059 A 
ATOM     91  F   UNL A   1      38.558  32.527  38.209  1.00  0.00    -0.206 F 
ATOM     92  C   UNL A   1      39.441  35.942  38.996  1.00  0.00     0.060 A 
BRANCH  92  93
ATOM     93  S   UNL A   1      39.166  37.170  40.291  1.00  0.00     0.124 S 
ATOM     94  O   UNL A   1      38.523  38.246  39.545  1.00  0.00    -0.237 OA
ATOM     95  O   UNL A   1      38.310  36.452  41.231  1.00  0.00    -0.237 OA
ATOM     96  O   UNL A   1      40.513  37.458  40.776  1.00  0.00    -0.744 OA
ENDBRANCH  92  93
ENDBRANCH  60  85
ENDBRANCH  34  35
ENDBRANCH  27  29
ENDBRANCH  26  27
ENDBRANCH  25  26
ENDBRANCH   1  25
TORSDOF 19
ENDMDL
MODEL 2
REMARK VINA RESULT:     -11.6      6.475     12.101
REMARK SMILES C[C@H](Oc1ccc(C(=O)NCc2ccccc2)cc1)C(=O)OCCOC(=O)c1ccc(-c2c3nc(c(-c4c(F)cc(S(=O)(=O)[O-])cc4F)c4ccc([nH]4)c(-c4c(F)cc(S(=O)(=O)[O-])cc4F)c4nc(c(-c5c(F)cc(S(=O)(=O)[O-])cc5F)c5ccc2[nH]5)C=C4)C=C3)cc1
REMARK SMILES IDX 23 1 22 2 20 3 21 4 2 5 1 6 3 7 4 8 5 9 19 10 6 11 18 12
REMARK SMILES IDX 7 13 8 14 9 15 10 16 11 18 12 19 13 20 17 21 14 22 16 23
REMARK SMILES IDX 15 24 24 25 25 26 26 27 27 28 28 29 29 30 93 31 30 32 92 33
REMARK SMILES IDX 31 34 32 35 33 36 86 37 34 38 91 39 85 40 87 41 35 42 90 43
REMARK SMILES IDX 84 44 83 45 36 47 70 48 49 49 69 50 50 51 53 52 68 53 88 54
REMARK SMILES IDX 51 55 52 56 67 58 89 59 54 60 37 61 38 62 47 63 39 64 40 65
REMARK SMILES IDX 46 66 48 67 41 68 42 69 43 70 44 71 45 72 71 73 72 74 81 75
REMARK SMILES IDX 73 76 74 77 80 78 82 79 75 80 76 81 77 82 78 83 79 84 55 85
REMARK SMILES IDX 56 86 65 87 57 88 58 89 64 90 66 91 59 92 60 93 61 94 62 95
REMARK SMILES IDX 63 96
REMARK H PARENT 10 17 87 46 53 57
REMARK Flexibility Score: inf
ROOT
ATOM      1  C   UNL A   1      33.650  31.572  27.898  1.00  0.00     0.274 C 
ENDROOT
BRANCH   1   2
ATOM      2  O   UNL A   1      34.142  30.699  26.865  1.00  0.00    -0.459 OA
BRANCH   2   3
ATOM      3  C   UNL A   1      33.633  29.434  26.843  1.00  0.00     0.347 C 
ATOM      4  O   UNL A   1      34.265  28.426  27.144  1.00  0.00    -0.248 OA
BRANCH   3   5
ATOM      5  C   UNL A   1      32.193  29.391  26.327  1.00  0.00     0.279 C 
ATOM      6  C   UNL A   1      31.657  27.979  26.564  1.00  0.00     0.066 C 
BRANCH   5   7
ATOM      7  O   UNL A   1      32.169  29.770  24.952  1.00  0.00    -0.479 OA
BRANCH   7   8
ATOM      8  C   UNL A   1      32.233  28.817  23.980  1.00  0.00     0.120 A 
ATOM      9  C   UNL A   1      31.165  28.107  23.447  1.00  0.00     0.047 A 
ATOM     10  C   UNL A   1      33.526  28.538  23.533  1.00  0.00     0.047 A 
ATOM     11  C   UNL A   1      31.405  27.074  22.529  1.00  0.00     0.017 A 
ATOM     12  C   UNL A   1      33.769  27.497  22.627  1.00  0.00     0.017 A 
ATOM     13  C   UNL A   1      32.708  26.747  22.118  1.00  0.00     0.040 A 
BRANCH  13  14
ATOM     14  C   UNL A   1      32.859  25.540  21.257  1.00  0.00     0.251 C 
ATOM     15  O   UNL A   1      32.942  25.691  20.037  1.00  0.00    -0.269 OA
ATOM     16  N   UNL A   1      32.897  24.255  21.725  1.00  0.00    -0.348 N 
ATOM     17  H   UNL A   1      32.932  23.577  21.011  1.00  0.00     0.164 HD
BRANCH  16  18
ATOM     18  C   UNL A   1      32.896  23.691  23.058  1.00  0.00     0.152 C 
BRANCH  18  19
ATOM     19  C   UNL A   1      34.267  23.643  23.700  1.00  0.00    -0.029 A 
ATOM     20  C   UNL A   1      35.374  23.020  23.100  1.00  0.00     0.005 A 
ATOM     21  C   UNL A   1      34.444  24.243  24.957  1.00  0.00     0.005 A 
ATOM     22  C   UNL A   1      36.617  22.995  23.738  1.00  0.00     0.000 A 
ATOM     23  C   UNL A   1      35.688  24.219  25.594  1.00  0.00     0.000 A 
ATOM     24  C   UNL A   1      36.773  23.594  24.984  1.00  0.00     0.000 A 
ENDBRANCH  18  19
ENDBRANCH  16  18
ENDBRANCH  13  14
ENDBRANCH   7   8
ENDBRANCH   5   7
ENDBRANCH   3   5
ENDBRANCH   2   3
ENDBRANCH   1   2
BRANCH   1  25
ATOM     25  C   UNL A   1      34.764  32.007  28.853  1.00  0.00     0.275 C 
BRANCH  25  26
ATOM     26  O   UNL A   1      35.625  30.908  29.198  1.00  0.00    -0.458 OA
BRANCH  26  27
ATOM     27  C   UNL A   1      36.554  31.179  30.145  1.00  0.00     0.338 C 
ATOM     28  O   UNL A   1      36.369  31.737  31.218  1.00  0.00    -0.246 OA
BRANCH  27  29
ATOM     29  C   UNL A   1      37.840  30.579  29.764  1.00  0.00     0.060 A 
ATOM     30  C   UNL A   1      38.794  30.378  30.767  1.00  0.00     0.016 A 
ATOM     31  C   UNL A   1      38.135  30.275  28.433  1.00  0.00     0.016 A 
ATOM     32  C   UNL A   1      40.048  29.867  30.443  1.00  0.00     0.010 A 
ATOM     33  C   UNL A   1      39.398  29.772  28.108  1.00  0.00     0.010 A 
ATOM     34  C   UNL A   1      40.365  29.575  29.110  1.00  0.00    -0.014 A 
BRANCH  34  35
ATOM     35  C   UNL A   1      41.731  29.119  28.762  1.00  0.00     0.031 A 
ATOM     36  C   UNL A   1      42.873  30.097  28.796  1.00  0.00     0.074 A 
ATOM     37  C   UNL A   1      41.949  27.831  28.438  1.00  0.00     0.049 A 
ATOM     38  N   UNL A   1      44.127  29.914  28.478  1.00  0.00    -0.248 NA
ATOM     39  C   UNL A   1      42.557  31.461  29.248  1.00  0.00     0.031 C 
ATOM     40  C   UNL A   1      40.926  26.786  28.408  1.00  0.00     0.029 A 
ATOM     41  N   UNL A   1      43.102  27.183  28.073  1.00  0.00    -0.354 N 
ATOM     42  C   UNL A   1      44.752  31.138  28.681  1.00  0.00     0.074 A 
ATOM     43  C   UNL A   1      43.732  32.063  29.131  1.00  0.00     0.031 C 
ATOM     44  C   UNL A   1      41.498  25.626  28.043  1.00  0.00     0.029 A 
ATOM     45  C   UNL A   1      42.916  25.854  27.778  1.00  0.00     0.049 A 
ATOM     46  H   UNL A   1      43.978  27.629  28.026  1.00  0.00     0.167 HD
ATOM     47  C   UNL A   1      46.057  31.459  28.511  1.00  0.00     0.037 A 
ATOM     48  C   UNL A   1      43.788  24.932  27.326  1.00  0.00     0.037 A 
ATOM     49  C   UNL A   1      47.067  30.532  28.068  1.00  0.00     0.049 A 
ATOM     50  C   UNL A   1      45.222  25.326  27.094  1.00  0.00     0.074 A 
ATOM     51  C   UNL A   1      48.417  30.759  27.870  1.00  0.00     0.029 A 
ATOM     52  N   UNL A   1      46.836  29.200  27.754  1.00  0.00    -0.354 N 
ATOM     53  N   UNL A   1      45.798  26.489  27.287  1.00  0.00    -0.248 NA
ATOM     54  C   UNL A   1      46.123  24.286  26.581  1.00  0.00     0.031 C 
ATOM     55  C   UNL A   1      48.997  29.574  27.403  1.00  0.00     0.029 A 
ATOM     56  C   UNL A   1      48.015  28.598  27.348  1.00  0.00     0.049 A 
ATOM     57  H   UNL A   1      45.962  28.750  27.812  1.00  0.00     0.167 HD
ATOM     58  C   UNL A   1      47.133  26.314  26.938  1.00  0.00     0.074 A 
ATOM     59  C   UNL A   1      47.281  24.931  26.532  1.00  0.00     0.031 C 
ATOM     60  C   UNL A   1      48.145  27.217  26.951  1.00  0.00     0.037 A 
BRANCH  47  61
ATOM     61  C   UNL A   1      46.462  32.880  28.783  1.00  0.00     0.058 A 
ATOM     62  C   UNL A   1      46.436  33.859  27.777  1.00  0.00     0.135 A 
ATOM     63  C   UNL A   1      46.858  33.274  30.072  1.00  0.00     0.135 A 
ATOM     64  F   UNL A   1      46.083  33.531  26.524  1.00  0.00    -0.206 F 
ATOM     65  C   UNL A   1      46.810  35.174  28.034  1.00  0.00     0.059 A 
ATOM     66  C   UNL A   1      47.216  34.588  30.356  1.00  0.00     0.059 A 
ATOM     67  F   UNL A   1      46.902  32.376  31.069  1.00  0.00    -0.206 F 
ATOM     68  C   UNL A   1      47.202  35.528  29.326  1.00  0.00     0.060 A 
BRANCH  68  69
ATOM     69  S   UNL A   1      47.691  37.237  29.646  1.00  0.00     0.124 S 
ATOM     70  O   UNL A   1      46.483  37.961  29.261  1.00  0.00    -0.237 OA
ATOM     71  O   UNL A   1      47.987  37.217  31.076  1.00  0.00    -0.237 OA
ATOM     72  O   UNL A   1      48.844  37.431  28.774  1.00  0.00    -0.744 OA
ENDBRANCH  68  69
ENDBRANCH  47  61
BRANCH  48  73
ATOM     73  C   UNL A   1      43.323  23.548  27.048  1.00  0.00     0.058 A 
ATOM     74  C   UNL A   1      43.061  23.122  25.738  1.00  0.00     0.135 A 
ATOM     75  C   UNL A   1      43.141  22.622  28.087  1.00  0.00     0.135 A 
ATOM     76  F   UNL A   1      43.209  23.975  24.713  1.00  0.00    -0.206 F 
ATOM     77  C   UNL A   1      42.625  21.828  25.467  1.00  0.00     0.059 A 
ATOM     78  C   UNL A   1      42.730  21.316  27.838  1.00  0.00     0.059 A 
ATOM     79  F   UNL A   1      43.388  22.979  29.357  1.00  0.00    -0.206 F 
ATOM     80  C   UNL A   1      42.466  20.931  26.525  1.00  0.00     0.060 A 
BRANCH  80  81
ATOM     81  S   UNL A   1      41.954  19.238  26.161  1.00  0.00     0.124 S 
ATOM     82  O   UNL A   1      42.749  18.940  24.975  1.00  0.00    -0.237 OA
ATOM     83  O   UNL A   1      42.336  18.531  27.379  1.00  0.00    -0.237 OA
ATOM     84  O   UNL A   1      40.517  19.363  25.944  1.00  0.00    -0.744 OA
ENDBRANCH  80  81
ENDBRANCH  48  73
BRANCH  60  85
ATOM     85  C   UNL A   1      49.506  26.734  26.541  1.00  0.00     0.058 A 
ATOM     86  C   UNL A   1      50.335  26.031  27.428  1.00  0.00     0.135 A 
ATOM     87  C   UNL A   1      49.967  26.935  25.230  1.00  0.00     0.135 A 
ATOM     88  F   UNL A   1      49.943  25.819  28.695  1.00  0.00    -0.206 F 
ATOM     89  C   UNL A   1      51.583  25.558  27.036  1.00  0.00     0.059 A 
ATOM     90  C   UNL A   1      51.201  26.452  24.809  1.00  0.00     0.059 A 
ATOM     91  F   UNL A   1      49.208  27.594  24.341  1.00  0.00    -0.206 F 
ATOM     92  C   UNL A   1      52.008  25.773  25.723  1.00  0.00     0.060 A 
BRANCH  92  93
ATOM     93  S   UNL A   1      53.614  25.126  25.212  1.00  0.00     0.124 S 
ATOM     94  O   UNL A   1      53.395  23.687  25.306  1.00  0.00    -0.237 OA
ATOM     95  O   UNL A   1      53.754  25.660  23.861  1.00  0.00    -0.237 OA
ATOM     96  O   UNL A   1      54.534  25.687  26.198  1.00  0.00    -0.744 OA
ENDBRANCH  92  93
ENDBRANCH  60  85
ENDBRANCH  34  35
ENDBRANCH  27  29
ENDBRANCH  26  27
ENDBRANCH  25  26
ENDBRANCH   1  25
TORSDOF 19
ENDMDL
MODEL 3
REMARK VINA RESULT:     -11.6      4.794     10.605
REMARK SMILES C[C@H](Oc1ccc(C(=O)NCc2ccccc2)cc1)C(=O)OCCOC(=O)c1ccc(-c2c3nc(c(-c4c(F)cc(S(=O)(=O)[O-])cc4F)c4ccc([nH]4)c(-c4c(F)cc(S(=O)(=O)[O-])cc4F)c4nc(c(-c5c(F)cc(S(=O)(=O)[O-])cc5F)c5ccc2[nH]5)C=C4)C=C3)cc1
REMARK SMILES IDX 23 1 22 2 20 3 21 4 2 5 1 6 3 7 4 8 5 9 19 10 6 11 18 12
REMARK SMILES IDX 7 13 8 14 9 15 10 16 11 18 12 19 13 20 17 21 14 22 16 23
REMARK SMILES IDX 15 24 24 25 25 26 26 27 27 28 28 29 29 30 93 31 30 32 92 33
REMARK SMILES IDX 31 34 32 35 33 36 86 37 34 38 91 39 85 40 87 41 35 42 90 43
REMARK SMILES IDX 84 44 83 45 36 47 70 48 49 49 69 50 50 51 53 52 68 53 88 54
REMARK SMILES IDX 51 55 52 56 67 58 89 59 54 60 37 61 38 62 47 63 39 64 40 65
REMARK SMILES IDX 46 66 48 67 41 68 42 69 43 70 44 71 45 72 71 73 72 74 81 75
REMARK SMILES IDX 73 76 74 77 80 78 82 79 75 80 76 81 77 82 78 83 79 84 55 85
REMARK SMILES IDX 56 86 65 87 57 88 58 89 64 90 66 91 59 92 60 93 61 94 62 95
REMARK SMILES IDX 63 96
REMARK H PARENT 10 17 87 46 53 57
REMARK Flexibility Score: inf
ROOT
ATOM      1  C   UNL A   1      32.291  29.014  25.625  1.00  0.00     0.274 C 
ENDROOT
BRANCH   1   2
ATOM      2  O   UNL A   1      31.927  28.315  24.421  1.00  0.00    -0.459 OA
BRANCH   2   3
ATOM      3  C   UNL A   1      30.705  28.608  23.893  1.00  0.00     0.347 C 
ATOM      4  O   UNL A   1      30.301  29.744  23.662  1.00  0.00    -0.248 OA
BRANCH   3   5
ATOM      5  C   UNL A   1      29.845  27.360  23.679  1.00  0.00     0.279 C 
ATOM      6  C   UNL A   1      28.473  27.821  23.187  1.00  0.00     0.066 C 
BRANCH   5   7
ATOM      7  O   UNL A   1      29.778  26.615  24.894  1.00  0.00    -0.479 OA
BRANCH   7   8
ATOM      8  C   UNL A   1      30.338  25.375  24.965  1.00  0.00     0.120 A 
ATOM      9  C   UNL A   1      30.857  24.766  26.101  1.00  0.00     0.047 A 
ATOM     10  C   UNL A   1      30.406  24.703  23.743  1.00  0.00     0.047 A 
ATOM     11  C   UNL A   1      31.505  23.527  25.992  1.00  0.00     0.017 A 
ATOM     12  C   UNL A   1      31.065  23.472  23.630  1.00  0.00     0.017 A 
ATOM     13  C   UNL A   1      31.629  22.871  24.756  1.00  0.00     0.040 A 
BRANCH  13  14
ATOM     14  C   UNL A   1      32.463  21.636  24.731  1.00  0.00     0.251 C 
ATOM     15  O   UNL A   1      31.940  20.564  25.042  1.00  0.00    -0.269 OA
ATOM     16  N   UNL A   1      33.789  21.604  24.397  1.00  0.00    -0.348 N 
ATOM     17  H   UNL A   1      34.199  20.714  24.500  1.00  0.00     0.164 HD
BRANCH  16  18
ATOM     18  C   UNL A   1      34.711  22.614  23.923  1.00  0.00     0.152 C 
BRANCH  18  19
ATOM     19  C   UNL A   1      36.040  22.614  24.651  1.00  0.00    -0.029 A 
ATOM     20  C   UNL A   1      36.916  21.516  24.649  1.00  0.00     0.005 A 
ATOM     21  C   UNL A   1      36.415  23.762  25.369  1.00  0.00     0.005 A 
ATOM     22  C   UNL A   1      38.127  21.564  25.345  1.00  0.00     0.000 A 
ATOM     23  C   UNL A   1      37.627  23.808  26.063  1.00  0.00     0.000 A 
ATOM     24  C   UNL A   1      38.482  22.710  26.051  1.00  0.00     0.000 A 
ENDBRANCH  18  19
ENDBRANCH  16  18
ENDBRANCH  13  14
ENDBRANCH   7   8
ENDBRANCH   5   7
ENDBRANCH   3   5
ENDBRANCH   2   3
ENDBRANCH   1   2
BRANCH   1  25
ATOM     25  C   UNL A   1      33.656  28.565  26.152  1.00  0.00     0.275 C 
BRANCH  25  26
ATOM     26  O   UNL A   1      33.799  28.837  27.557  1.00  0.00    -0.458 OA
BRANCH  26  27
ATOM     27  C   UNL A   1      34.371  30.026  27.858  1.00  0.00     0.338 C 
ATOM     28  O   UNL A   1      33.810  31.109  27.952  1.00  0.00    -0.246 OA
BRANCH  27  29
ATOM     29  C   UNL A   1      35.786  29.824  28.200  1.00  0.00     0.060 A 
ATOM     30  C   UNL A   1      36.739  30.022  27.197  1.00  0.00     0.016 A 
ATOM     31  C   UNL A   1      36.171  29.385  29.470  1.00  0.00     0.016 A 
ATOM     32  C   UNL A   1      38.086  29.785  27.459  1.00  0.00     0.010 A 
ATOM     33  C   UNL A   1      37.522  29.138  29.728  1.00  0.00     0.010 A 
ATOM     34  C   UNL A   1      38.486  29.327  28.722  1.00  0.00    -0.014 A 
BRANCH  34  35
ATOM     35  C   UNL A   1      39.909  28.990  28.965  1.00  0.00     0.031 A 
ATOM     36  C   UNL A   1      40.826  30.021  29.561  1.00  0.00     0.074 A 
ATOM     37  C   UNL A   1      40.368  27.760  28.671  1.00  0.00     0.049 A 
ATOM     38  N   UNL A   1      42.108  29.945  29.803  1.00  0.00    -0.248 NA
ATOM     39  C   UNL A   1      40.216  31.307  29.933  1.00  0.00     0.031 C 
ATOM     40  C   UNL A   1      39.562  26.668  28.124  1.00  0.00     0.029 A 
ATOM     41  N   UNL A   1      41.625  27.222  28.791  1.00  0.00    -0.354 N 
ATOM     42  C   UNL A   1      42.465  31.172  30.347  1.00  0.00     0.074 A 
ATOM     43  C   UNL A   1      41.265  31.983  30.381  1.00  0.00     0.031 C 
ATOM     44  C   UNL A   1      40.345  25.589  27.955  1.00  0.00     0.029 A 
ATOM     45  C   UNL A   1      41.712  25.925  28.347  1.00  0.00     0.049 A 
ATOM     46  H   UNL A   1      42.389  27.719  29.161  1.00  0.00     0.167 HD
ATOM     47  C   UNL A   1      43.680  31.583  30.782  1.00  0.00     0.037 A 
ATOM     48  C   UNL A   1      42.779  25.108  28.247  1.00  0.00     0.037 A 
ATOM     49  C   UNL A   1      44.868  30.768  30.749  1.00  0.00     0.049 A 
ATOM     50  C   UNL A   1      44.130  25.606  28.687  1.00  0.00     0.074 A 
ATOM     51  C   UNL A   1      46.146  31.092  31.171  1.00  0.00     0.029 A 
ATOM     52  N   UNL A   1      44.923  29.468  30.268  1.00  0.00    -0.354 N 
ATOM     53  N   UNL A   1      44.453  26.770  29.197  1.00  0.00    -0.248 NA
ATOM     54  C   UNL A   1      45.261  24.680  28.537  1.00  0.00     0.031 C 
ATOM     55  C   UNL A   1      46.981  30.000  30.912  1.00  0.00     0.029 A 
ATOM     56  C   UNL A   1      46.217  28.982  30.367  1.00  0.00     0.049 A 
ATOM     57  H   UNL A   1      44.157  28.966  29.909  1.00  0.00     0.167 HD
ATOM     58  C   UNL A   1      45.820  26.711  29.446  1.00  0.00     0.074 A 
ATOM     59  C   UNL A   1      46.261  25.392  29.041  1.00  0.00     0.031 C 
ATOM     60  C   UNL A   1      46.637  27.663  29.962  1.00  0.00     0.037 A 
BRANCH  47  61
ATOM     61  C   UNL A   1      43.790  32.986  31.307  1.00  0.00     0.058 A 
ATOM     62  C   UNL A   1      43.635  33.277  32.671  1.00  0.00     0.135 A 
ATOM     63  C   UNL A   1      44.079  34.051  30.438  1.00  0.00     0.135 A 
ATOM     64  F   UNL A   1      43.341  32.299  33.542  1.00  0.00    -0.206 F 
ATOM     65  C   UNL A   1      43.740  34.578  33.153  1.00  0.00     0.059 A 
ATOM     66  C   UNL A   1      44.209  35.357  30.900  1.00  0.00     0.059 A 
ATOM     67  F   UNL A   1      44.235  33.827  29.123  1.00  0.00    -0.206 F 
ATOM     68  C   UNL A   1      44.023  35.612  32.259  1.00  0.00     0.060 A 
BRANCH  68  69
ATOM     69  S   UNL A   1      44.151  37.298  32.895  1.00  0.00     0.124 S 
ATOM     70  O   UNL A   1      43.008  37.352  33.802  1.00  0.00    -0.237 OA
ATOM     71  O   UNL A   1      45.464  37.294  33.532  1.00  0.00    -0.237 OA
ATOM     72  O   UNL A   1      44.041  38.123  31.697  1.00  0.00    -0.744 OA
ENDBRANCH  68  69
ENDBRANCH  47  61
BRANCH  48  73
ATOM     73  C   UNL A   1      42.614  23.739  27.693  1.00  0.00     0.058 A 
ATOM     74  C   UNL A   1      42.662  23.507  26.311  1.00  0.00     0.135 A 
ATOM     75  C   UNL A   1      42.414  22.635  28.536  1.00  0.00     0.135 A 
ATOM     76  F   UNL A   1      42.839  24.533  25.465  1.00  0.00    -0.206 F 
ATOM     77  C   UNL A   1      42.509  22.229  25.782  1.00  0.00     0.059 A 
ATOM     78  C   UNL A   1      42.283  21.345  28.032  1.00  0.00     0.059 A 
ATOM     79  F   UNL A   1      42.370  22.804  29.867  1.00  0.00    -0.206 F 
ATOM     80  C   UNL A   1      42.323  21.154  26.652  1.00  0.00     0.060 A 
BRANCH  80  81
ATOM     81  S   UNL A   1      42.180  19.491  25.962  1.00  0.00     0.124 S 
ATOM     82  O   UNL A   1      42.694  18.674  27.055  1.00  0.00    -0.237 OA
ATOM     83  O   UNL A   1      40.747  19.385  25.704  1.00  0.00    -0.237 OA
ATOM     84  O   UNL A   1      43.019  19.550  24.769  1.00  0.00    -0.744 OA
ENDBRANCH  80  81
ENDBRANCH  48  73
BRANCH  60  85
ATOM     85  C   UNL A   1      48.084  27.304  30.144  1.00  0.00     0.058 A 
ATOM     86  C   UNL A   1      49.026  27.510  29.126  1.00  0.00     0.135 A 
ATOM     87  C   UNL A   1      48.541  26.794  31.370  1.00  0.00     0.135 A 
ATOM     88  F   UNL A   1      48.638  27.989  27.933  1.00  0.00    -0.206 F 
ATOM     89  C   UNL A   1      50.371  27.205  29.308  1.00  0.00     0.059 A 
ATOM     90  C   UNL A   1      49.884  26.503  31.583  1.00  0.00     0.059 A 
ATOM     91  F   UNL A   1      47.681  26.588  32.379  1.00  0.00    -0.206 F 
ATOM     92  C   UNL A   1      50.791  26.701  30.542  1.00  0.00     0.060 A 
BRANCH  92  93
ATOM     93  S   UNL A   1      52.543  26.341  30.781  1.00  0.00     0.124 S 
ATOM     94  O   UNL A   1      53.012  26.227  29.404  1.00  0.00    -0.237 OA
ATOM     95  O   UNL A   1      53.010  27.513  31.515  1.00  0.00    -0.237 OA
ATOM     96  O   UNL A   1      52.532  25.096  31.546  1.00  0.00    -0.744 OA
ENDBRANCH  92  93
ENDBRANCH  60  85
ENDBRANCH  34  35
ENDBRANCH  27  29
ENDBRANCH  26  27
ENDBRANCH  25  26
ENDBRANCH   1  25
TORSDOF 19
ENDMDL
