MODEL 1
REMARK VINA RESULT:     -11.6      0.000      0.000
REMARK SMILES Cc1ncccc1Oc1ccc(C(=O)OCCOC(=O)c2ccc(-c3c4nc(c(-c5c(F)cc(S(=O)(=O)[O-])cc5F)c5ccc([nH]5)c(-c5c(F)cc(S(=O)(=O)[O-])cc5F)c5nc(c(-c6c(F)cc(S(=O)(=O)[O-])cc6F)c6ccc3[nH]6)C=C5)C=C4)cc2)cc1Cl
REMARK SMILES IDX 17 1 16 2 15 3 13 4 14 5 12 6 9 7 10 8 88 9 11 10 87 11
REMARK SMILES IDX 89 12 8 13 7 14 1 15 2 16 3 17 4 18 6 19 5 20 18 21 19 22
REMARK SMILES IDX 20 23 21 24 22 25 86 26 23 27 85 28 24 29 25 30 26 31 79 32
REMARK SMILES IDX 27 33 84 34 78 35 80 36 28 37 83 38 77 39 76 40 29 42 63 43
REMARK SMILES IDX 42 44 62 45 43 46 46 47 61 48 81 49 44 50 45 51 60 53 82 54
REMARK SMILES IDX 47 55 30 56 31 57 40 58 32 59 33 60 39 61 41 62 34 63 35 64
REMARK SMILES IDX 36 65 37 66 38 67 64 68 65 69 74 70 66 71 67 72 73 73 75 74
REMARK SMILES IDX 68 75 69 76 70 77 71 78 72 79 48 80 49 81 58 82 50 83 51 84
REMARK SMILES IDX 57 85 59 86 52 87 53 88 54 89 55 90 56 91
REMARK H PARENT 80 41 46 52
REMARK Flexibility Score: inf
ROOT
ATOM      1  C   UNL A   1      33.987  30.940  27.615  1.00  0.00     0.275 C 
ENDROOT
BRANCH   1   2
ATOM      2  C   UNL A   1      32.856  30.080  27.052  1.00  0.00     0.275 C 
BRANCH   2   3
ATOM      3  O   UNL A   1      33.275  28.711  26.896  1.00  0.00    -0.458 OA
BRANCH   3   4
ATOM      4  C   UNL A   1      32.296  27.788  27.041  1.00  0.00     0.338 C 
ATOM      5  O   UNL A   1      31.404  27.803  27.873  1.00  0.00    -0.246 OA
BRANCH   4   6
ATOM      6  C   UNL A   1      32.403  26.718  26.020  1.00  0.00     0.061 A 
ATOM      7  C   UNL A   1      32.930  24.602  24.293  1.00  0.00     0.146 A 
ATOM      8  C   UNL A   1      32.406  24.334  25.555  1.00  0.00     0.049 A 
ATOM      9  C   UNL A   1      33.059  25.921  23.840  1.00  0.00     0.084 A 
ATOM     10  C   UNL A   1      32.188  25.392  26.431  1.00  0.00     0.019 A 
ATOM     11  C   UNL A   1      32.796  26.985  24.704  1.00  0.00     0.040 A 
ATOM     12  Cl  UNL A   1      33.633  26.268  22.250  1.00  0.00    -0.080 Cl
BRANCH   7  13
ATOM     13  O   UNL A   1      33.305  23.545  23.515  1.00  0.00    -0.454 OA
BRANCH  13  14
ATOM     14  C   UNL A   1      34.401  22.783  23.873  1.00  0.00     0.148 A 
ATOM     15  C   UNL A   1      33.347  20.720  25.029  1.00  0.00     0.071 C 
ATOM     16  C   UNL A   1      34.493  21.559  24.555  1.00  0.00     0.080 A 
ATOM     17  N   UNL A   1      35.700  20.988  24.846  1.00  0.00    -0.258 NA
ATOM     18  C   UNL A   1      36.825  21.613  24.453  1.00  0.00     0.111 A 
ATOM     19  C   UNL A   1      35.601  23.392  23.477  1.00  0.00     0.050 A 
ATOM     20  C   UNL A   1      36.828  22.806  23.765  1.00  0.00     0.024 A 
ENDBRANCH  13  14
ENDBRANCH   7  13
ENDBRANCH   4   6
ENDBRANCH   3   4
ENDBRANCH   2   3
ENDBRANCH   1   2
BRANCH   1  21
ATOM     21  O   UNL A   1      35.145  30.141  27.913  1.00  0.00    -0.458 OA
BRANCH  21  22
ATOM     22  C   UNL A   1      35.944  30.620  28.894  1.00  0.00     0.338 C 
ATOM     23  O   UNL A   1      35.648  31.406  29.776  1.00  0.00    -0.246 OA
BRANCH  22  24
ATOM     24  C   UNL A   1      37.275  30.008  28.782  1.00  0.00     0.060 A 
ATOM     25  C   UNL A   1      37.969  29.688  29.947  1.00  0.00     0.016 A 
ATOM     26  C   UNL A   1      37.882  29.857  27.539  1.00  0.00     0.016 A 
ATOM     27  C   UNL A   1      39.299  29.281  29.886  1.00  0.00     0.010 A 
ATOM     28  C   UNL A   1      39.192  29.371  27.473  1.00  0.00     0.010 A 
ATOM     29  C   UNL A   1      39.923  29.102  28.646  1.00  0.00    -0.014 A 
BRANCH  29  30
ATOM     30  C   UNL A   1      41.341  28.661  28.560  1.00  0.00     0.031 A 
ATOM     31  C   UNL A   1      42.448  29.671  28.691  1.00  0.00     0.074 A 
ATOM     32  C   UNL A   1      41.644  27.369  28.328  1.00  0.00     0.049 A 
ATOM     33  N   UNL A   1      43.714  29.556  28.391  1.00  0.00    -0.248 NA
ATOM     34  C   UNL A   1      42.069  30.995  29.210  1.00  0.00     0.031 C 
ATOM     35  C   UNL A   1      40.677  26.275  28.226  1.00  0.00     0.029 A 
ATOM     36  N   UNL A   1      42.857  26.760  28.112  1.00  0.00    -0.354 N 
ATOM     37  C   UNL A   1      44.271  30.811  28.611  1.00  0.00     0.074 A 
ATOM     38  C   UNL A   1      43.205  31.666  29.088  1.00  0.00     0.031 C 
ATOM     39  C   UNL A   1      41.330  25.133  27.968  1.00  0.00     0.029 A 
ATOM     40  C   UNL A   1      42.750  25.425  27.802  1.00  0.00     0.049 A 
ATOM     41  H   UNL A   1      43.718  27.233  28.174  1.00  0.00     0.167 HD
ATOM     42  C   UNL A   1      45.551  31.211  28.418  1.00  0.00     0.037 A 
ATOM     43  C   UNL A   1      43.675  24.544  27.371  1.00  0.00     0.037 A 
ATOM     44  C   UNL A   1      46.615  30.335  28.000  1.00  0.00     0.049 A 
ATOM     45  C   UNL A   1      45.089  25.001  27.166  1.00  0.00     0.074 A 
ATOM     46  C   UNL A   1      47.953  30.634  27.809  1.00  0.00     0.029 A 
ATOM     47  N   UNL A   1      46.463  28.986  27.719  1.00  0.00    -0.354 N 
ATOM     48  N   UNL A   1      45.596  26.200  27.332  1.00  0.00    -0.248 NA
ATOM     49  C   UNL A   1      46.054  23.997  26.699  1.00  0.00     0.031 C 
ATOM     50  C   UNL A   1      48.605  29.471  27.385  1.00  0.00     0.029 A 
ATOM     51  C   UNL A   1      47.680  28.439  27.346  1.00  0.00     0.049 A 
ATOM     52  H   UNL A   1      45.614  28.488  27.776  1.00  0.00     0.167 HD
ATOM     53  C   UNL A   1      46.939  26.095  26.995  1.00  0.00     0.074 A 
ATOM     54  C   UNL A   1      47.170  24.712  26.627  1.00  0.00     0.031 C 
ATOM     55  C   UNL A   1      47.892  27.058  26.987  1.00  0.00     0.037 A 
BRANCH  42  56
ATOM     56  C   UNL A   1      45.852  32.672  28.605  1.00  0.00     0.058 A 
ATOM     57  C   UNL A   1      45.753  33.597  27.556  1.00  0.00     0.135 A 
ATOM     58  C   UNL A   1      46.258  33.147  29.863  1.00  0.00     0.135 A 
ATOM     59  F   UNL A   1      45.387  33.193  26.330  1.00  0.00    -0.206 F 
ATOM     60  C   UNL A   1      46.087  34.937  27.736  1.00  0.00     0.059 A 
ATOM     61  C   UNL A   1      46.574  34.486  30.073  1.00  0.00     0.059 A 
ATOM     62  F   UNL A   1      46.366  32.304  30.902  1.00  0.00    -0.206 F 
ATOM     63  C   UNL A   1      46.508  35.368  28.996  1.00  0.00     0.060 A 
BRANCH  63  64
ATOM     64  S   UNL A   1      46.977  37.098  29.213  1.00  0.00     0.124 S 
ATOM     65  O   UNL A   1      45.698  37.771  29.006  1.00  0.00    -0.237 OA
ATOM     66  O   UNL A   1      47.490  37.121  30.579  1.00  0.00    -0.237 OA
ATOM     67  O   UNL A   1      47.975  37.312  28.169  1.00  0.00    -0.744 OA
ENDBRANCH  63  64
ENDBRANCH  42  56
BRANCH  43  68
ATOM     68  C   UNL A   1      43.252  23.155  27.056  1.00  0.00     0.058 A 
ATOM     69  C   UNL A   1      43.187  22.701  25.732  1.00  0.00     0.135 A 
ATOM     70  C   UNL A   1      42.995  22.230  28.082  1.00  0.00     0.135 A 
ATOM     71  F   UNL A   1      43.414  23.551  24.720  1.00  0.00    -0.206 F 
ATOM     72  C   UNL A   1      42.902  21.372  25.433  1.00  0.00     0.059 A 
ATOM     73  C   UNL A   1      42.730  20.893  27.809  1.00  0.00     0.059 A 
ATOM     74  F   UNL A   1      43.058  22.615  29.366  1.00  0.00    -0.206 F 
ATOM     75  C   UNL A   1      42.688  20.472  26.480  1.00  0.00     0.060 A 
BRANCH  75  76
ATOM     76  S   UNL A   1      42.439  18.725  26.091  1.00  0.00     0.124 S 
ATOM     77  O   UNL A   1      42.783  18.091  27.359  1.00  0.00    -0.237 OA
ATOM     78  O   UNL A   1      41.028  18.688  25.722  1.00  0.00    -0.237 OA
ATOM     79  O   UNL A   1      43.371  18.492  24.993  1.00  0.00    -0.744 OA
ENDBRANCH  75  76
ENDBRANCH  43  68
BRANCH  55  80
ATOM     80  C   UNL A   1      49.282  26.653  26.591  1.00  0.00     0.058 A 
ATOM     81  C   UNL A   1      50.166  26.074  27.514  1.00  0.00     0.135 A 
ATOM     82  C   UNL A   1      49.703  26.772  25.258  1.00  0.00     0.135 A 
ATOM     83  F   UNL A   1      49.811  25.948  28.802  1.00  0.00    -0.206 F 
ATOM     84  C   UNL A   1      51.425  25.627  27.127  1.00  0.00     0.059 A 
ATOM     85  C   UNL A   1      50.951  26.317  24.846  1.00  0.00     0.059 A 
ATOM     86  F   UNL A   1      48.889  27.314  24.338  1.00  0.00    -0.206 F 
ATOM     87  C   UNL A   1      51.807  25.749  25.789  1.00  0.00     0.060 A 
BRANCH  87  88
ATOM     88  S   UNL A   1      53.419  25.109  25.284  1.00  0.00     0.124 S 
ATOM     89  O   UNL A   1      54.281  25.611  26.348  1.00  0.00    -0.237 OA
ATOM     90  O   UNL A   1      53.196  23.667  25.273  1.00  0.00    -0.237 OA
ATOM     91  O   UNL A   1      53.625  25.713  23.970  1.00  0.00    -0.744 OA
ENDBRANCH  87  88
ENDBRANCH  55  80
ENDBRANCH  29  30
ENDBRANCH  22  24
ENDBRANCH  21  22
ENDBRANCH   1  21
TORSDOF 16
ENDMDL
MODEL 2
REMARK VINA RESULT:     -11.3      6.545     11.946
REMARK SMILES Cc1ncccc1Oc1ccc(C(=O)OCCOC(=O)c2ccc(-c3c4nc(c(-c5c(F)cc(S(=O)(=O)[O-])cc5F)c5ccc([nH]5)c(-c5c(F)cc(S(=O)(=O)[O-])cc5F)c5nc(c(-c6c(F)cc(S(=O)(=O)[O-])cc6F)c6ccc3[nH]6)C=C5)C=C4)cc2)cc1Cl
REMARK SMILES IDX 17 1 16 2 15 3 13 4 14 5 12 6 9 7 10 8 88 9 11 10 87 11
REMARK SMILES IDX 89 12 8 13 7 14 1 15 2 16 3 17 4 18 6 19 5 20 18 21 19 22
REMARK SMILES IDX 20 23 21 24 22 25 86 26 23 27 85 28 24 29 25 30 26 31 79 32
REMARK SMILES IDX 27 33 84 34 78 35 80 36 28 37 83 38 77 39 76 40 29 42 63 43
REMARK SMILES IDX 42 44 62 45 43 46 46 47 61 48 81 49 44 50 45 51 60 53 82 54
REMARK SMILES IDX 47 55 30 56 31 57 40 58 32 59 33 60 39 61 41 62 34 63 35 64
REMARK SMILES IDX 36 65 37 66 38 67 64 68 65 69 74 70 66 71 67 72 73 73 75 74
REMARK SMILES IDX 68 75 69 76 70 77 71 78 72 79 48 80 49 81 58 82 50 83 51 84
REMARK SMILES IDX 57 85 59 86 52 87 53 88 54 89 55 90 56 91
REMARK H PARENT 80 41 46 52
REMARK Flexibility Score: inf
ROOT
ATOM      1  C   UNL A   1      39.541  21.901  26.244  1.00  0.00     0.275 C 
ENDROOT
BRANCH   1   2
ATOM      2  C   UNL A   1      38.290  21.511  25.458  1.00  0.00     0.275 C 
BRANCH   2   3
ATOM      3  O   UNL A   1      37.181  22.368  25.791  1.00  0.00    -0.458 OA
BRANCH   3   4
ATOM      4  C   UNL A   1      35.961  21.894  25.444  1.00  0.00     0.338 C 
ATOM      5  O   UNL A   1      35.699  20.753  25.098  1.00  0.00    -0.246 OA
BRANCH   4   6
ATOM      6  C   UNL A   1      34.919  22.942  25.557  1.00  0.00     0.061 A 
ATOM      7  C   UNL A   1      33.158  25.029  26.087  1.00  0.00     0.146 A 
ATOM      8  C   UNL A   1      34.397  25.313  25.517  1.00  0.00     0.049 A 
ATOM      9  C   UNL A   1      32.741  23.703  26.260  1.00  0.00     0.084 A 
ATOM     10  C   UNL A   1      35.291  24.271  25.298  1.00  0.00     0.019 A 
ATOM     11  C   UNL A   1      33.623  22.654  25.996  1.00  0.00     0.040 A 
ATOM     12  Cl  UNL A   1      31.178  23.333  26.892  1.00  0.00    -0.080 Cl
BRANCH   7  13
ATOM     13  O   UNL A   1      32.367  26.076  26.460  1.00  0.00    -0.454 OA
BRANCH  13  14
ATOM     14  C   UNL A   1      32.182  27.139  25.596  1.00  0.00     0.148 A 
ATOM     15  C   UNL A   1      33.913  28.883  26.409  1.00  0.00     0.071 C 
ATOM     16  C   UNL A   1      32.800  28.397  25.533  1.00  0.00     0.080 A 
ATOM     17  N   UNL A   1      32.433  29.333  24.607  1.00  0.00    -0.258 NA
ATOM     18  C   UNL A   1      31.463  29.027  23.725  1.00  0.00     0.111 A 
ATOM     19  C   UNL A   1      31.182  26.864  24.651  1.00  0.00     0.050 A 
ATOM     20  C   UNL A   1      30.815  27.812  23.703  1.00  0.00     0.024 A 
ENDBRANCH  13  14
ENDBRANCH   7  13
ENDBRANCH   4   6
ENDBRANCH   3   4
ENDBRANCH   2   3
ENDBRANCH   1   2
BRANCH   1  21
ATOM     21  O   UNL A   1      39.514  23.295  26.600  1.00  0.00    -0.458 OA
BRANCH  21  22
ATOM     22  C   UNL A   1      40.721  23.905  26.644  1.00  0.00     0.338 C 
ATOM     23  O   UNL A   1      41.741  23.579  26.063  1.00  0.00    -0.246 OA
BRANCH  22  24
ATOM     24  C   UNL A   1      40.633  25.100  27.495  1.00  0.00     0.060 A 
ATOM     25  C   UNL A   1      41.628  26.070  27.398  1.00  0.00     0.016 A 
ATOM     26  C   UNL A   1      39.638  25.207  28.462  1.00  0.00     0.016 A 
ATOM     27  C   UNL A   1      41.680  27.119  28.312  1.00  0.00     0.010 A 
ATOM     28  C   UNL A   1      39.643  26.305  29.328  1.00  0.00     0.010 A 
ATOM     29  C   UNL A   1      40.679  27.259  29.279  1.00  0.00    -0.014 A 
BRANCH  29  30
ATOM     30  C   UNL A   1      40.712  28.378  30.259  1.00  0.00     0.031 A 
ATOM     31  C   UNL A   1      41.709  28.356  31.385  1.00  0.00     0.074 A 
ATOM     32  C   UNL A   1      39.832  29.394  30.170  1.00  0.00     0.049 A 
ATOM     33  N   UNL A   1      41.741  29.073  32.477  1.00  0.00    -0.248 NA
ATOM     34  C   UNL A   1      42.805  27.381  31.271  1.00  0.00     0.031 C 
ATOM     35  C   UNL A   1      38.841  29.569  29.106  1.00  0.00     0.029 A 
ATOM     36  N   UNL A   1      39.613  30.464  31.005  1.00  0.00    -0.354 N 
ATOM     37  C   UNL A   1      42.812  28.585  33.218  1.00  0.00     0.074 A 
ATOM     38  C   UNL A   1      43.414  27.524  32.439  1.00  0.00     0.031 C 
ATOM     39  C   UNL A   1      38.123  30.675  29.351  1.00  0.00     0.029 A 
ATOM     40  C   UNL A   1      38.543  31.240  30.630  1.00  0.00     0.049 A 
ATOM     41  H   UNL A   1      40.169  30.656  31.794  1.00  0.00     0.167 HD
ATOM     42  C   UNL A   1      43.240  28.981  34.441  1.00  0.00     0.037 A 
ATOM     43  C   UNL A   1      37.923  32.253  31.266  1.00  0.00     0.037 A 
ATOM     44  C   UNL A   1      42.669  30.077  35.179  1.00  0.00     0.049 A 
ATOM     45  C   UNL A   1      38.411  32.682  32.618  1.00  0.00     0.074 A 
ATOM     46  C   UNL A   1      43.053  30.580  36.411  1.00  0.00     0.029 A 
ATOM     47  N   UNL A   1      41.600  30.848  34.749  1.00  0.00    -0.354 N 
ATOM     48  N   UNL A   1      39.395  32.186  33.331  1.00  0.00    -0.248 NA
ATOM     49  C   UNL A   1      37.700  33.794  33.263  1.00  0.00     0.031 C 
ATOM     50  C   UNL A   1      42.196  31.638  36.737  1.00  0.00     0.029 A 
ATOM     51  C   UNL A   1      41.302  31.816  35.693  1.00  0.00     0.049 A 
ATOM     52  H   UNL A   1      41.122  30.725  33.896  1.00  0.00     0.167 HD
ATOM     53  C   UNL A   1      39.424  32.926  34.506  1.00  0.00     0.074 A 
ATOM     54  C   UNL A   1      38.368  33.913  34.404  1.00  0.00     0.031 C 
ATOM     55  C   UNL A   1      40.249  32.795  35.573  1.00  0.00     0.037 A 
BRANCH  42  56
ATOM     56  C   UNL A   1      44.345  28.183  35.076  1.00  0.00     0.058 A 
ATOM     57  C   UNL A   1      45.698  28.511  34.908  1.00  0.00     0.135 A 
ATOM     58  C   UNL A   1      44.035  27.059  35.860  1.00  0.00     0.135 A 
ATOM     59  F   UNL A   1      46.049  29.564  34.155  1.00  0.00    -0.206 F 
ATOM     60  C   UNL A   1      46.708  27.729  35.460  1.00  0.00     0.059 A 
ATOM     61  C   UNL A   1      45.027  26.277  36.442  1.00  0.00     0.059 A 
ATOM     62  F   UNL A   1      42.755  26.703  36.055  1.00  0.00    -0.206 F 
ATOM     63  C   UNL A   1      46.362  26.606  36.216  1.00  0.00     0.060 A 
BRANCH  63  64
ATOM     64  S   UNL A   1      47.678  25.574  36.897  1.00  0.00     0.124 S 
ATOM     65  O   UNL A   1      47.078  25.133  38.152  1.00  0.00    -0.237 OA
ATOM     66  O   UNL A   1      47.836  24.544  35.875  1.00  0.00    -0.237 OA
ATOM     67  O   UNL A   1      48.799  26.499  37.028  1.00  0.00    -0.744 OA
ENDBRANCH  63  64
ENDBRANCH  42  56
BRANCH  43  68
ATOM     68  C   UNL A   1      36.734  32.880  30.632  1.00  0.00     0.058 A 
ATOM     69  C   UNL A   1      35.439  32.594  31.084  1.00  0.00     0.135 A 
ATOM     70  C   UNL A   1      36.881  33.848  29.625  1.00  0.00     0.135 A 
ATOM     71  F   UNL A   1      35.249  31.670  32.036  1.00  0.00    -0.206 F 
ATOM     72  C   UNL A   1      34.328  33.260  30.573  1.00  0.00     0.059 A 
ATOM     73  C   UNL A   1      35.789  34.542  29.115  1.00  0.00     0.059 A 
ATOM     74  F   UNL A   1      38.103  34.165  29.170  1.00  0.00    -0.206 F 
ATOM     75  C   UNL A   1      34.516  34.242  29.598  1.00  0.00     0.060 A 
BRANCH  75  76
ATOM     76  S   UNL A   1      33.086  35.188  29.027  1.00  0.00     0.124 S 
ATOM     77  O   UNL A   1      32.334  35.358  30.265  1.00  0.00    -0.237 OA
ATOM     78  O   UNL A   1      33.707  36.393  28.487  1.00  0.00    -0.237 OA
ATOM     79  O   UNL A   1      32.479  34.308  28.033  1.00  0.00    -0.744 OA
ENDBRANCH  75  76
ENDBRANCH  43  68
BRANCH  55  80
ATOM     80  C   UNL A   1      40.065  33.755  36.712  1.00  0.00     0.058 A 
ATOM     81  C   UNL A   1      40.763  34.971  36.763  1.00  0.00     0.135 A 
ATOM     82  C   UNL A   1      39.123  33.491  37.717  1.00  0.00     0.135 A 
ATOM     83  F   UNL A   1      41.680  35.264  35.829  1.00  0.00    -0.206 F 
ATOM     84  C   UNL A   1      40.532  35.895  37.778  1.00  0.00     0.059 A 
ATOM     85  C   UNL A   1      38.864  34.407  38.731  1.00  0.00     0.059 A 
ATOM     86  F   UNL A   1      38.426  32.343  37.706  1.00  0.00    -0.206 F 
ATOM     87  C   UNL A   1      39.578  35.605  38.755  1.00  0.00     0.060 A 
BRANCH  87  88
ATOM     88  S   UNL A   1      39.240  36.837  40.032  1.00  0.00     0.124 S 
ATOM     89  O   UNL A   1      40.580  37.101  40.546  1.00  0.00    -0.237 OA
ATOM     90  O   UNL A   1      38.627  37.921  39.271  1.00  0.00    -0.237 OA
ATOM     91  O   UNL A   1      38.342  36.138  40.948  1.00  0.00    -0.744 OA
ENDBRANCH  87  88
ENDBRANCH  55  80
ENDBRANCH  29  30
ENDBRANCH  22  24
ENDBRANCH  21  22
ENDBRANCH   1  21
TORSDOF 16
ENDMDL
MODEL 3
REMARK VINA RESULT:     -11.3      1.409      2.248
REMARK SMILES Cc1ncccc1Oc1ccc(C(=O)OCCOC(=O)c2ccc(-c3c4nc(c(-c5c(F)cc(S(=O)(=O)[O-])cc5F)c5ccc([nH]5)c(-c5c(F)cc(S(=O)(=O)[O-])cc5F)c5nc(c(-c6c(F)cc(S(=O)(=O)[O-])cc6F)c6ccc3[nH]6)C=C5)C=C4)cc2)cc1Cl
REMARK SMILES IDX 17 1 16 2 15 3 13 4 14 5 12 6 9 7 10 8 88 9 11 10 87 11
REMARK SMILES IDX 89 12 8 13 7 14 1 15 2 16 3 17 4 18 6 19 5 20 18 21 19 22
REMARK SMILES IDX 20 23 21 24 22 25 86 26 23 27 85 28 24 29 25 30 26 31 79 32
REMARK SMILES IDX 27 33 84 34 78 35 80 36 28 37 83 38 77 39 76 40 29 42 63 43
REMARK SMILES IDX 42 44 62 45 43 46 46 47 61 48 81 49 44 50 45 51 60 53 82 54
REMARK SMILES IDX 47 55 30 56 31 57 40 58 32 59 33 60 39 61 41 62 34 63 35 64
REMARK SMILES IDX 36 65 37 66 38 67 64 68 65 69 74 70 66 71 67 72 73 73 75 74
REMARK SMILES IDX 68 75 69 76 70 77 71 78 72 79 48 80 49 81 58 82 50 83 51 84
REMARK SMILES IDX 57 85 59 86 52 87 53 88 54 89 55 90 56 91
REMARK H PARENT 80 41 46 52
REMARK Flexibility Score: inf
ROOT
ATOM      1  C   UNL A   1      33.408  29.722  27.315  1.00  0.00     0.275 C 
ENDROOT
BRANCH   1   2
ATOM      2  C   UNL A   1      32.342  30.141  26.305  1.00  0.00     0.275 C 
BRANCH   2   3
ATOM      3  O   UNL A   1      32.724  29.773  24.965  1.00  0.00    -0.458 OA
BRANCH   3   4
ATOM      4  C   UNL A   1      31.792  29.080  24.270  1.00  0.00     0.338 C 
ATOM      5  O   UNL A   1      30.665  29.457  23.994  1.00  0.00    -0.246 OA
BRANCH   4   6
ATOM      6  C   UNL A   1      32.310  27.762  23.833  1.00  0.00     0.061 A 
ATOM      7  C   UNL A   1      33.634  25.462  22.999  1.00  0.00     0.146 A 
ATOM      8  C   UNL A   1      33.752  25.870  24.325  1.00  0.00     0.049 A 
ATOM      9  C   UNL A   1      32.750  26.113  22.129  1.00  0.00     0.084 A 
ATOM     10  C   UNL A   1      33.126  27.045  24.725  1.00  0.00     0.019 A 
ATOM     11  C   UNL A   1      32.085  27.267  22.544  1.00  0.00     0.040 A 
ATOM     12  Cl  UNL A   1      32.534  25.571  20.504  1.00  0.00    -0.080 Cl
BRANCH   7  13
ATOM     13  O   UNL A   1      34.396  24.410  22.580  1.00  0.00    -0.454 OA
BRANCH  13  14
ATOM     14  C   UNL A   1      34.400  23.233  23.305  1.00  0.00     0.148 A 
ATOM     15  C   UNL A   1      36.818  23.097  24.220  1.00  0.00     0.071 C 
ATOM     16  C   UNL A   1      35.423  22.591  24.020  1.00  0.00     0.080 A 
ATOM     17  N   UNL A   1      35.221  21.392  24.644  1.00  0.00    -0.258 NA
ATOM     18  C   UNL A   1      34.001  20.825  24.580  1.00  0.00     0.111 A 
ATOM     19  C   UNL A   1      33.145  22.607  23.274  1.00  0.00     0.050 A 
ATOM     20  C   UNL A   1      32.936  21.393  23.916  1.00  0.00     0.024 A 
ENDBRANCH  13  14
ENDBRANCH   7  13
ENDBRANCH   4   6
ENDBRANCH   3   4
ENDBRANCH   2   3
ENDBRANCH   1   2
BRANCH   1  21
ATOM     21  O   UNL A   1      34.533  30.618  27.282  1.00  0.00    -0.458 OA
BRANCH  21  22
ATOM     22  C   UNL A   1      35.086  30.901  28.484  1.00  0.00     0.338 C 
ATOM     23  O   UNL A   1      34.584  31.516  29.407  1.00  0.00    -0.246 OA
BRANCH  22  24
ATOM     24  C   UNL A   1      36.426  30.302  28.557  1.00  0.00     0.060 A 
ATOM     25  C   UNL A   1      36.948  29.971  29.806  1.00  0.00     0.016 A 
ATOM     26  C   UNL A   1      37.208  30.177  27.412  1.00  0.00     0.016 A 
ATOM     27  C   UNL A   1      38.278  29.577  29.931  1.00  0.00     0.010 A 
ATOM     28  C   UNL A   1      38.519  29.703  27.529  1.00  0.00     0.010 A 
ATOM     29  C   UNL A   1      39.076  29.423  28.793  1.00  0.00    -0.014 A 
BRANCH  29  30
ATOM     30  C   UNL A   1      40.497  28.996  28.905  1.00  0.00     0.031 A 
ATOM     31  C   UNL A   1      41.555  30.005  29.260  1.00  0.00     0.074 A 
ATOM     32  C   UNL A   1      40.852  27.720  28.657  1.00  0.00     0.049 A 
ATOM     33  N   UNL A   1      42.854  29.914  29.156  1.00  0.00    -0.248 NA
ATOM     34  C   UNL A   1      41.080  31.296  29.782  1.00  0.00     0.031 C 
ATOM     35  C   UNL A   1      39.928  26.627  28.348  1.00  0.00     0.029 A 
ATOM     36  N   UNL A   1      42.092  27.132  28.602  1.00  0.00    -0.354 N 
ATOM     37  C   UNL A   1      43.351  31.159  29.526  1.00  0.00     0.074 A 
ATOM     38  C   UNL A   1      42.212  31.981  29.874  1.00  0.00     0.031 C 
ATOM     39  C   UNL A   1      40.630  25.505  28.136  1.00  0.00     0.029 A 
ATOM     40  C   UNL A   1      42.054  25.815  28.210  1.00  0.00     0.049 A 
ATOM     41  H   UNL A   1      42.926  27.607  28.822  1.00  0.00     0.167 HD
ATOM     42  C   UNL A   1      44.640  31.577  29.556  1.00  0.00     0.037 A 
ATOM     43  C   UNL A   1      43.047  24.964  27.883  1.00  0.00     0.037 A 
ATOM     44  C   UNL A   1      45.768  30.732  29.264  1.00  0.00     0.049 A 
ATOM     45  C   UNL A   1      44.469  25.441  27.925  1.00  0.00     0.074 A 
ATOM     46  C   UNL A   1      47.115  31.050  29.300  1.00  0.00     0.029 A 
ATOM     47  N   UNL A   1      45.682  29.399  28.893  1.00  0.00    -0.354 N 
ATOM     48  N   UNL A   1      44.926  26.632  28.231  1.00  0.00    -0.248 NA
ATOM     49  C   UNL A   1      45.510  24.469  27.563  1.00  0.00     0.031 C 
ATOM     50  C   UNL A   1      47.842  29.914  28.923  1.00  0.00     0.029 A 
ATOM     51  C   UNL A   1      46.950  28.881  28.687  1.00  0.00     0.049 A 
ATOM     52  H   UNL A   1      44.842  28.894  28.791  1.00  0.00     0.167 HD
ATOM     53  C   UNL A   1      46.308  26.554  28.102  1.00  0.00     0.074 A 
ATOM     54  C   UNL A   1      46.613  25.194  27.703  1.00  0.00     0.031 C 
ATOM     55  C   UNL A   1      47.235  27.522  28.294  1.00  0.00     0.037 A 
BRANCH  42  56
ATOM     56  C   UNL A   1      44.886  33.028  29.863  1.00  0.00     0.058 A 
ATOM     57  C   UNL A   1      45.108  33.489  31.169  1.00  0.00     0.135 A 
ATOM     58  C   UNL A   1      44.890  33.972  28.824  1.00  0.00     0.135 A 
ATOM     59  F   UNL A   1      45.098  32.632  32.200  1.00  0.00    -0.206 F 
ATOM     60  C   UNL A   1      45.282  34.844  31.440  1.00  0.00     0.059 A 
ATOM     61  C   UNL A   1      45.085  35.328  29.067  1.00  0.00     0.059 A 
ATOM     62  F   UNL A   1      44.686  33.583  27.555  1.00  0.00    -0.206 F 
ATOM     63  C   UNL A   1      45.257  35.757  30.383  1.00  0.00     0.060 A 
BRANCH  63  64
ATOM     64  S   UNL A   1      45.445  37.515  30.745  1.00  0.00     0.124 S 
ATOM     65  O   UNL A   1      45.833  38.039  29.439  1.00  0.00    -0.237 OA
ATOM     66  O   UNL A   1      44.111  37.890  31.206  1.00  0.00    -0.237 OA
ATOM     67  O   UNL A   1      46.487  37.541  31.766  1.00  0.00    -0.744 OA
ENDBRANCH  63  64
ENDBRANCH  42  56
BRANCH  43  68
ATOM     68  C   UNL A   1      42.699  23.591  27.434  1.00  0.00     0.058 A 
ATOM     69  C   UNL A   1      42.675  23.260  26.073  1.00  0.00     0.135 A 
ATOM     70  C   UNL A   1      42.475  22.564  28.366  1.00  0.00     0.135 A 
ATOM     71  F   UNL A   1      42.872  24.210  25.147  1.00  0.00    -0.206 F 
ATOM     72  C   UNL A   1      42.461  21.952  25.648  1.00  0.00     0.059 A 
ATOM     73  C   UNL A   1      42.281  21.246  27.966  1.00  0.00     0.059 A 
ATOM     74  F   UNL A   1      42.502  22.831  29.681  1.00  0.00    -0.206 F 
ATOM     75  C   UNL A   1      42.278  20.949  26.604  1.00  0.00     0.060 A 
BRANCH  75  76
ATOM     76  S   UNL A   1      42.123  19.236  26.051  1.00  0.00     0.124 S 
ATOM     77  O   UNL A   1      40.698  19.154  25.750  1.00  0.00    -0.237 OA
ATOM     78  O   UNL A   1      43.021  19.198  24.903  1.00  0.00    -0.237 OA
ATOM     79  O   UNL A   1      42.570  18.470  27.210  1.00  0.00    -0.744 OA
ENDBRANCH  75  76
ENDBRANCH  43  68
BRANCH  55  80
ATOM     80  C   UNL A   1      48.676  27.148  28.099  1.00  0.00     0.058 A 
ATOM     81  C   UNL A   1      49.262  27.135  26.825  1.00  0.00     0.135 A 
ATOM     82  C   UNL A   1      49.495  26.882  29.206  1.00  0.00     0.135 A 
ATOM     83  F   UNL A   1      48.517  27.375  25.735  1.00  0.00    -0.206 F 
ATOM     84  C   UNL A   1      50.617  26.866  26.655  1.00  0.00     0.059 A 
ATOM     85  C   UNL A   1      50.855  26.627  29.061  1.00  0.00     0.059 A 
ATOM     86  F   UNL A   1      48.981  26.889  30.447  1.00  0.00    -0.206 F 
ATOM     87  C   UNL A   1      51.406  26.617  27.779  1.00  0.00     0.060 A 
BRANCH  87  88
ATOM     88  S   UNL A   1      53.175  26.332  27.554  1.00  0.00     0.124 S 
ATOM     89  O   UNL A   1      53.601  26.040  28.918  1.00  0.00    -0.237 OA
ATOM     90  O   UNL A   1      53.197  25.204  26.627  1.00  0.00    -0.237 OA
ATOM     91  O   UNL A   1      53.654  27.596  27.002  1.00  0.00    -0.744 OA
ENDBRANCH  87  88
ENDBRANCH  55  80
ENDBRANCH  29  30
ENDBRANCH  22  24
ENDBRANCH  21  22
ENDBRANCH   1  21
TORSDOF 16
ENDMDL
