MODEL 1
REMARK VINA RESULT:     -10.8      0.000      0.000
REMARK SMILES C[C@H]1SCCC[C@@]1(C(=O)OCCOC(=O)c1ccc(-c2c3nc(c(-c4c(F)cc(S(=O)(=O)[O-])cc4F)c4ccc([nH]4)c(-c4c(F)cc(S(=O)(=O)[O-])cc4F)c4nc(c(-c5c(F)cc(S(=O)(=O)[O-])cc5F)c5ccc2[nH]5)C=C4)C=C3)cc1)[NH+]1CCCC1
REMARK SMILES IDX 12 1 11 2 10 3 8 4 9 5 7 6 1 7 2 8 3 9 4 10 6 11 5 12 82 13
REMARK SMILES IDX 83 14 86 15 84 17 85 18 13 19 14 20 15 21 16 22 17 23 81 24
REMARK SMILES IDX 18 25 80 26 19 27 20 28 21 29 74 30 22 31 79 32 73 33 75 34
REMARK SMILES IDX 23 35 78 36 72 37 71 38 24 40 58 41 37 42 57 43 38 44 41 45
REMARK SMILES IDX 56 46 76 47 39 48 40 49 55 51 77 52 42 53 25 54 26 55 35 56
REMARK SMILES IDX 27 57 28 58 34 59 36 60 29 61 30 62 31 63 32 64 33 65 59 66
REMARK SMILES IDX 60 67 69 68 61 69 62 70 68 71 70 72 63 73 64 74 65 75 66 76
REMARK SMILES IDX 67 77 43 78 44 79 53 80 45 81 46 82 52 83 54 84 47 85 48 86
REMARK SMILES IDX 49 87 50 88 51 89
REMARK H PARENT 82 16 75 39 41 50
REMARK Flexibility Score: inf
ROOT
ATOM      1  C   UNL A   1      39.924  22.862  26.855  1.00  0.00     0.275 C 
ENDROOT
BRANCH   1   2
ATOM      2  C   UNL A   1      39.173  21.858  25.976  1.00  0.00     0.274 C 
BRANCH   2   3
ATOM      3  O   UNL A   1      37.777  22.182  26.018  1.00  0.00    -0.457 OA
BRANCH   3   4
ATOM      4  C   UNL A   1      36.911  21.378  25.339  1.00  0.00     0.369 C 
ATOM      5  O   UNL A   1      37.190  20.234  24.995  1.00  0.00    -0.245 OA
BRANCH   4   6
ATOM      6  C   UNL A   1      35.489  22.061  25.143  1.00  0.00     0.207 C 
ATOM      7  C   UNL A   1      36.564  23.143  22.954  1.00  0.00     0.027 C 
ATOM      8  C   UNL A   1      35.881  23.348  24.309  1.00  0.00     0.117 C 
ATOM      9  S   UNL A   1      34.551  24.589  24.086  1.00  0.00    -0.152 SA
ATOM     10  C   UNL A   1      34.175  24.884  25.825  1.00  0.00     0.070 C 
ATOM     11  C   UNL A   1      35.013  22.544  26.552  1.00  0.00     0.083 C 
ATOM     12  C   UNL A   1      33.903  23.605  26.603  1.00  0.00     0.018 C 
BRANCH   6  13
ATOM     13  N   UNL A   1      34.542  21.066  24.524  1.00  0.00    -0.320 N 
ATOM     14  C   UNL A   1      33.417  21.496  23.696  1.00  0.00     0.263 C 
ATOM     15  C   UNL A   1      34.001  20.046  25.453  1.00  0.00     0.263 C 
ATOM     16  H   UNL A   1      35.239  20.699  23.876  1.00  0.00     0.349 HD
ATOM     17  C   UNL A   1      32.158  21.247  24.510  1.00  0.00     0.067 C 
ATOM     18  C   UNL A   1      32.489  20.011  25.307  1.00  0.00     0.067 C 
ENDBRANCH   6  13
ENDBRANCH   4   6
ENDBRANCH   3   4
ENDBRANCH   2   3
ENDBRANCH   1   2
BRANCH   1  19
ATOM     19  O   UNL A   1      39.432  24.195  26.608  1.00  0.00    -0.458 OA
BRANCH  19  20
ATOM     20  C   UNL A   1      40.391  25.137  26.431  1.00  0.00     0.338 C 
ATOM     21  O   UNL A   1      41.057  25.335  25.424  1.00  0.00    -0.246 OA
BRANCH  20  22
ATOM     22  C   UNL A   1      40.456  26.001  27.621  1.00  0.00     0.060 A 
ATOM     23  C   UNL A   1      39.423  25.910  28.556  1.00  0.00     0.016 A 
ATOM     24  C   UNL A   1      41.486  26.926  27.799  1.00  0.00     0.016 A 
ATOM     25  C   UNL A   1      39.419  26.726  29.686  1.00  0.00     0.010 A 
ATOM     26  C   UNL A   1      41.463  27.773  28.912  1.00  0.00     0.010 A 
ATOM     27  C   UNL A   1      40.422  27.685  29.852  1.00  0.00    -0.014 A 
BRANCH  27  28
ATOM     28  C   UNL A   1      40.268  28.712  30.909  1.00  0.00     0.031 A 
ATOM     29  C   UNL A   1      41.147  28.612  32.125  1.00  0.00     0.074 A 
ATOM     30  C   UNL A   1      39.391  29.722  30.779  1.00  0.00     0.049 A 
ATOM     31  N   UNL A   1      41.208  29.391  33.172  1.00  0.00    -0.248 NA
ATOM     32  C   UNL A   1      42.088  27.479  32.159  1.00  0.00     0.031 C 
ATOM     33  C   UNL A   1      38.521  29.945  29.627  1.00  0.00     0.029 A 
ATOM     34  N   UNL A   1      39.088  30.751  31.634  1.00  0.00    -0.354 N 
ATOM     35  C   UNL A   1      42.203  28.856  33.980  1.00  0.00     0.074 A 
ATOM     36  C   UNL A   1      42.700  27.669  33.317  1.00  0.00     0.031 C 
ATOM     37  C   UNL A   1      37.764  31.035  29.855  1.00  0.00     0.029 A 
ATOM     38  C   UNL A   1      38.089  31.576  31.175  1.00  0.00     0.049 A 
ATOM     39  H   UNL A   1      39.543  30.886  32.498  1.00  0.00     0.167 HD
ATOM     40  C   UNL A   1      42.665  29.314  35.167  1.00  0.00     0.037 A 
ATOM     41  C   UNL A   1      37.501  32.638  31.761  1.00  0.00     0.037 A 
ATOM     42  C   UNL A   1      42.138  30.468  35.843  1.00  0.00     0.049 A 
ATOM     43  C   UNL A   1      37.984  33.089  33.117  1.00  0.00     0.074 A 
ATOM     44  C   UNL A   1      42.509  30.996  37.067  1.00  0.00     0.029 A 
ATOM     45  N   UNL A   1      41.115  31.268  35.354  1.00  0.00    -0.354 N 
ATOM     46  N   UNL A   1      38.937  32.585  33.865  1.00  0.00    -0.248 NA
ATOM     47  C   UNL A   1      37.317  34.259  33.706  1.00  0.00     0.031 C 
ATOM     48  C   UNL A   1      41.683  32.095  37.335  1.00  0.00     0.029 A 
ATOM     49  C   UNL A   1      40.830  32.278  36.257  1.00  0.00     0.049 A 
ATOM     50  H   UNL A   1      40.658  31.136  34.492  1.00  0.00     0.167 HD
ATOM     51  C   UNL A   1      39.009  33.395  34.993  1.00  0.00     0.074 A 
ATOM     52  C   UNL A   1      38.003  34.425  34.828  1.00  0.00     0.031 C 
ATOM     53  C   UNL A   1      39.835  33.302  36.065  1.00  0.00     0.037 A 
BRANCH  40  54
ATOM     54  C   UNL A   1      43.772  28.533  35.816  1.00  0.00     0.058 A 
ATOM     55  C   UNL A   1      43.503  27.469  36.691  1.00  0.00     0.135 A 
ATOM     56  C   UNL A   1      45.115  28.857  35.569  1.00  0.00     0.135 A 
ATOM     57  F   UNL A   1      42.236  27.135  36.980  1.00  0.00    -0.206 F 
ATOM     58  C   UNL A   1      44.529  26.771  37.323  1.00  0.00     0.059 A 
ATOM     59  C   UNL A   1      46.156  28.158  36.172  1.00  0.00     0.059 A 
ATOM     60  F   UNL A   1      45.426  29.871  34.747  1.00  0.00    -0.206 F 
ATOM     61  C   UNL A   1      45.852  27.127  37.061  1.00  0.00     0.060 A 
BRANCH  61  62
ATOM     62  S   UNL A   1      47.173  26.224  37.897  1.00  0.00     0.124 S 
ATOM     63  O   UNL A   1      48.246  26.299  36.910  1.00  0.00    -0.237 OA
ATOM     64  O   UNL A   1      47.372  27.008  39.110  1.00  0.00    -0.237 OA
ATOM     65  O   UNL A   1      46.600  24.897  38.101  1.00  0.00    -0.744 OA
ENDBRANCH  61  62
ENDBRANCH  40  54
BRANCH  41  66
ATOM     66  C   UNL A   1      36.391  33.354  31.074  1.00  0.00     0.058 A 
ATOM     67  C   UNL A   1      36.626  34.143  29.938  1.00  0.00     0.135 A 
ATOM     68  C   UNL A   1      35.073  33.271  31.549  1.00  0.00     0.135 A 
ATOM     69  F   UNL A   1      37.871  34.265  29.453  1.00  0.00    -0.206 F 
ATOM     70  C   UNL A   1      35.599  34.841  29.310  1.00  0.00     0.059 A 
ATOM     71  C   UNL A   1      34.026  33.939  30.923  1.00  0.00     0.059 A 
ATOM     72  F   UNL A   1      34.792  32.522  32.627  1.00  0.00    -0.206 F 
ATOM     73  C   UNL A   1      34.300  34.732  29.810  1.00  0.00     0.060 A 
BRANCH  73  74
ATOM     74  S   UNL A   1      32.966  35.610  28.966  1.00  0.00     0.124 S 
ATOM     75  O   UNL A   1      32.399  34.556  28.133  1.00  0.00    -0.237 OA
ATOM     76  O   UNL A   1      32.137  36.057  30.082  1.00  0.00    -0.237 OA
ATOM     77  O   UNL A   1      33.665  36.674  28.250  1.00  0.00    -0.744 OA
ENDBRANCH  73  74
ENDBRANCH  41  66
BRANCH  53  78
ATOM     78  C   UNL A   1      39.721  34.367  37.121  1.00  0.00     0.058 A 
ATOM     79  C   UNL A   1      38.987  34.166  38.300  1.00  0.00     0.135 A 
ATOM     80  C   UNL A   1      40.397  35.588  36.968  1.00  0.00     0.135 A 
ATOM     81  F   UNL A   1      38.321  33.017  38.493  1.00  0.00    -0.206 F 
ATOM     82  C   UNL A   1      38.904  35.150  39.279  1.00  0.00     0.059 A 
ATOM     83  C   UNL A   1      40.349  36.576  37.945  1.00  0.00     0.059 A 
ATOM     84  F   UNL A   1      41.125  35.825  35.864  1.00  0.00    -0.206 F 
ATOM     85  C   UNL A   1      39.587  36.354  39.091  1.00  0.00     0.060 A 
BRANCH  85  86
ATOM     86  S   UNL A   1      39.493  37.619  40.377  1.00  0.00     0.124 S 
ATOM     87  O   UNL A   1      40.797  38.261  40.252  1.00  0.00    -0.237 OA
ATOM     88  O   UNL A   1      38.348  38.418  39.951  1.00  0.00    -0.237 OA
ATOM     89  O   UNL A   1      39.286  36.845  41.598  1.00  0.00    -0.744 OA
ENDBRANCH  85  86
ENDBRANCH  53  78
ENDBRANCH  27  28
ENDBRANCH  20  22
ENDBRANCH  19  20
ENDBRANCH   1  19
TORSDOF 15
ENDMDL
MODEL 2
REMARK VINA RESULT:     -10.6      0.953      2.012
REMARK SMILES C[C@H]1SCCC[C@@]1(C(=O)OCCOC(=O)c1ccc(-c2c3nc(c(-c4c(F)cc(S(=O)(=O)[O-])cc4F)c4ccc([nH]4)c(-c4c(F)cc(S(=O)(=O)[O-])cc4F)c4nc(c(-c5c(F)cc(S(=O)(=O)[O-])cc5F)c5ccc2[nH]5)C=C4)C=C3)cc1)[NH+]1CCCC1
REMARK SMILES IDX 12 1 11 2 10 3 8 4 9 5 7 6 1 7 2 8 3 9 4 10 6 11 5 12 82 13
REMARK SMILES IDX 83 14 86 15 84 17 85 18 13 19 14 20 15 21 16 22 17 23 81 24
REMARK SMILES IDX 18 25 80 26 19 27 20 28 21 29 74 30 22 31 79 32 73 33 75 34
REMARK SMILES IDX 23 35 78 36 72 37 71 38 24 40 58 41 37 42 57 43 38 44 41 45
REMARK SMILES IDX 56 46 76 47 39 48 40 49 55 51 77 52 42 53 25 54 26 55 35 56
REMARK SMILES IDX 27 57 28 58 34 59 36 60 29 61 30 62 31 63 32 64 33 65 59 66
REMARK SMILES IDX 60 67 69 68 61 69 62 70 68 71 70 72 63 73 64 74 65 75 66 76
REMARK SMILES IDX 67 77 43 78 44 79 53 80 45 81 46 82 52 83 54 84 47 85 48 86
REMARK SMILES IDX 49 87 50 88 51 89
REMARK H PARENT 82 16 75 39 41 50
REMARK Flexibility Score: inf
ROOT
ATOM      1  C   UNL A   1      38.819  23.363  26.491  1.00  0.00     0.275 C 
ENDROOT
BRANCH   1   2
ATOM      2  C   UNL A   1      37.714  22.967  25.508  1.00  0.00     0.274 C 
BRANCH   2   3
ATOM      3  O   UNL A   1      36.515  23.658  25.882  1.00  0.00    -0.457 OA
BRANCH   3   4
ATOM      4  C   UNL A   1      35.345  22.957  25.883  1.00  0.00     0.369 C 
ATOM      5  O   UNL A   1      35.245  21.823  26.339  1.00  0.00    -0.245 OA
BRANCH   4   6
ATOM      6  C   UNL A   1      34.132  23.818  25.323  1.00  0.00     0.207 C 
ATOM      7  C   UNL A   1      34.866  22.879  22.936  1.00  0.00     0.027 C 
ATOM      8  C   UNL A   1      34.610  24.090  23.838  1.00  0.00     0.117 C 
ATOM      9  S   UNL A   1      33.614  25.299  22.889  1.00  0.00    -0.152 SA
ATOM     10  C   UNL A   1      33.763  26.700  24.013  1.00  0.00     0.070 C 
ATOM     11  C   UNL A   1      34.152  25.187  26.078  1.00  0.00     0.083 C 
ATOM     12  C   UNL A   1      33.385  26.359  25.447  1.00  0.00     0.018 C 
BRANCH   6  13
ATOM     13  N   UNL A   1      32.846  23.061  25.536  1.00  0.00    -0.320 N 
ATOM     14  C   UNL A   1      31.736  23.162  24.590  1.00  0.00     0.263 C 
ATOM     15  C   UNL A   1      32.250  23.195  26.885  1.00  0.00     0.263 C 
ATOM     16  H   UNL A   1      33.273  22.150  25.366  1.00  0.00     0.349 HD
ATOM     17  C   UNL A   1      30.648  23.966  25.282  1.00  0.00     0.067 C 
ATOM     18  C   UNL A   1      30.787  23.577  26.733  1.00  0.00     0.067 C 
ENDBRANCH   6  13
ENDBRANCH   4   6
ENDBRANCH   3   4
ENDBRANCH   2   3
ENDBRANCH   1   2
BRANCH   1  19
ATOM     19  O   UNL A   1      39.185  24.743  26.289  1.00  0.00    -0.458 OA
BRANCH  19  20
ATOM     20  C   UNL A   1      40.483  25.037  26.550  1.00  0.00     0.338 C 
ATOM     21  O   UNL A   1      41.461  24.720  25.887  1.00  0.00    -0.246 OA
BRANCH  20  22
ATOM     22  C   UNL A   1      40.560  25.916  27.728  1.00  0.00     0.060 A 
ATOM     23  C   UNL A   1      39.533  25.843  28.671  1.00  0.00     0.016 A 
ATOM     24  C   UNL A   1      41.595  26.839  27.886  1.00  0.00     0.016 A 
ATOM     25  C   UNL A   1      39.540  26.674  29.789  1.00  0.00     0.010 A 
ATOM     26  C   UNL A   1      41.583  27.702  28.988  1.00  0.00     0.010 A 
ATOM     27  C   UNL A   1      40.548  27.631  29.935  1.00  0.00    -0.014 A 
BRANCH  27  28
ATOM     28  C   UNL A   1      40.406  28.672  30.979  1.00  0.00     0.031 A 
ATOM     29  C   UNL A   1      41.293  28.586  32.191  1.00  0.00     0.074 A 
ATOM     30  C   UNL A   1      39.532  29.685  30.842  1.00  0.00     0.049 A 
ATOM     31  N   UNL A   1      41.364  29.379  33.227  1.00  0.00    -0.248 NA
ATOM     32  C   UNL A   1      42.229  27.450  32.234  1.00  0.00     0.031 C 
ATOM     33  C   UNL A   1      38.654  29.896  29.692  1.00  0.00     0.029 A 
ATOM     34  N   UNL A   1      39.239  30.727  31.685  1.00  0.00    -0.354 N 
ATOM     35  C   UNL A   1      42.363  28.851  34.035  1.00  0.00     0.074 A 
ATOM     36  C   UNL A   1      42.850  27.653  33.385  1.00  0.00     0.031 C 
ATOM     37  C   UNL A   1      37.904  30.991  29.911  1.00  0.00     0.029 A 
ATOM     38  C   UNL A   1      38.240  31.549  31.221  1.00  0.00     0.049 A 
ATOM     39  H   UNL A   1      39.700  30.872  32.543  1.00  0.00     0.167 HD
ATOM     40  C   UNL A   1      42.835  29.324  35.212  1.00  0.00     0.037 A 
ATOM     41  C   UNL A   1      37.661  32.622  31.796  1.00  0.00     0.037 A 
ATOM     42  C   UNL A   1      42.317  30.489  35.876  1.00  0.00     0.049 A 
ATOM     43  C   UNL A   1      38.154  33.090  33.143  1.00  0.00     0.074 A 
ATOM     44  C   UNL A   1      42.698  31.032  37.090  1.00  0.00     0.029 A 
ATOM     45  N   UNL A   1      41.294  31.286  35.383  1.00  0.00    -0.354 N 
ATOM     46  N   UNL A   1      39.111  32.591  33.891  1.00  0.00    -0.248 NA
ATOM     47  C   UNL A   1      37.497  34.270  33.721  1.00  0.00     0.031 C 
ATOM     48  C   UNL A   1      41.879  32.138  37.348  1.00  0.00     0.029 A 
ATOM     49  C   UNL A   1      41.019  32.309  36.274  1.00  0.00     0.049 A 
ATOM     50  H   UNL A   1      40.830  31.145  34.526  1.00  0.00     0.167 HD
ATOM     51  C   UNL A   1      39.194  33.417  35.007  1.00  0.00     0.074 A 
ATOM     52  C   UNL A   1      38.191  34.449  34.835  1.00  0.00     0.031 C 
ATOM     53  C   UNL A   1      40.027  33.335  36.075  1.00  0.00     0.037 A 
BRANCH  40  54
ATOM     54  C   UNL A   1      43.943  28.547  35.864  1.00  0.00     0.058 A 
ATOM     55  C   UNL A   1      45.292  28.841  35.611  1.00  0.00     0.135 A 
ATOM     56  C   UNL A   1      43.655  27.491  36.743  1.00  0.00     0.135 A 
ATOM     57  F   UNL A   1      45.622  29.825  34.760  1.00  0.00    -0.206 F 
ATOM     58  C   UNL A   1      46.318  28.096  36.185  1.00  0.00     0.059 A 
ATOM     59  C   UNL A   1      44.665  26.748  37.345  1.00  0.00     0.059 A 
ATOM     60  F   UNL A   1      42.381  27.164  37.011  1.00  0.00    -0.206 F 
ATOM     61  C   UNL A   1      45.994  27.048  37.046  1.00  0.00     0.060 A 
BRANCH  61  62
ATOM     62  S   UNL A   1      47.333  26.079  37.773  1.00  0.00     0.124 S 
ATOM     63  O   UNL A   1      48.463  26.991  37.627  1.00  0.00    -0.237 OA
ATOM     64  O   UNL A   1      46.864  25.867  39.138  1.00  0.00    -0.237 OA
ATOM     65  O   UNL A   1      47.379  24.883  36.938  1.00  0.00    -0.744 OA
ENDBRANCH  61  62
ENDBRANCH  40  54
BRANCH  41  66
ATOM     66  C   UNL A   1      36.549  33.332  31.107  1.00  0.00     0.058 A 
ATOM     67  C   UNL A   1      35.226  33.233  31.565  1.00  0.00     0.135 A 
ATOM     68  C   UNL A   1      36.787  34.116  29.967  1.00  0.00     0.135 A 
ATOM     69  F   UNL A   1      34.946  32.486  32.643  1.00  0.00    -0.206 F 
ATOM     70  C   UNL A   1      34.177  33.868  30.907  1.00  0.00     0.059 A 
ATOM     71  C   UNL A   1      35.758  34.779  29.306  1.00  0.00     0.059 A 
ATOM     72  F   UNL A   1      38.035  34.251  29.492  1.00  0.00    -0.206 F 
ATOM     73  C   UNL A   1      34.453  34.640  29.777  1.00  0.00     0.060 A 
BRANCH  73  74
ATOM     74  S   UNL A   1      33.091  35.492  28.950  1.00  0.00     0.124 S 
ATOM     75  O   UNL A   1      33.803  36.498  28.171  1.00  0.00    -0.237 OA
ATOM     76  O   UNL A   1      32.472  34.413  28.186  1.00  0.00    -0.237 OA
ATOM     77  O   UNL A   1      32.292  36.001  30.061  1.00  0.00    -0.744 OA
ENDBRANCH  73  74
ENDBRANCH  41  66
BRANCH  53  78
ATOM     78  C   UNL A   1      39.924  34.415  37.116  1.00  0.00     0.058 A 
ATOM     79  C   UNL A   1      40.571  35.651  36.969  1.00  0.00     0.135 A 
ATOM     80  C   UNL A   1      39.126  34.222  38.256  1.00  0.00     0.135 A 
ATOM     81  F   UNL A   1      41.346  35.884  35.898  1.00  0.00    -0.206 F 
ATOM     82  C   UNL A   1      40.453  36.651  37.929  1.00  0.00     0.059 A 
ATOM     83  C   UNL A   1      38.974  35.217  39.216  1.00  0.00     0.059 A 
ATOM     84  F   UNL A   1      38.475  33.062  38.438  1.00  0.00    -0.206 F 
ATOM     85  C   UNL A   1      39.653  36.423  39.052  1.00  0.00     0.060 A 
BRANCH  85  86
ATOM     86  S   UNL A   1      39.487  37.733  40.283  1.00  0.00     0.124 S 
ATOM     87  O   UNL A   1      40.868  38.180  40.424  1.00  0.00    -0.237 OA
ATOM     88  O   UNL A   1      38.581  38.670  39.626  1.00  0.00    -0.237 OA
ATOM     89  O   UNL A   1      38.927  37.041  41.441  1.00  0.00    -0.744 OA
ENDBRANCH  85  86
ENDBRANCH  53  78
ENDBRANCH  27  28
ENDBRANCH  20  22
ENDBRANCH  19  20
ENDBRANCH   1  19
TORSDOF 15
ENDMDL
MODEL 3
REMARK VINA RESULT:     -10.4      3.725      9.793
REMARK SMILES C[C@H]1SCCC[C@@]1(C(=O)OCCOC(=O)c1ccc(-c2c3nc(c(-c4c(F)cc(S(=O)(=O)[O-])cc4F)c4ccc([nH]4)c(-c4c(F)cc(S(=O)(=O)[O-])cc4F)c4nc(c(-c5c(F)cc(S(=O)(=O)[O-])cc5F)c5ccc2[nH]5)C=C4)C=C3)cc1)[NH+]1CCCC1
REMARK SMILES IDX 12 1 11 2 10 3 8 4 9 5 7 6 1 7 2 8 3 9 4 10 6 11 5 12 82 13
REMARK SMILES IDX 83 14 86 15 84 17 85 18 13 19 14 20 15 21 16 22 17 23 81 24
REMARK SMILES IDX 18 25 80 26 19 27 20 28 21 29 74 30 22 31 79 32 73 33 75 34
REMARK SMILES IDX 23 35 78 36 72 37 71 38 24 40 58 41 37 42 57 43 38 44 41 45
REMARK SMILES IDX 56 46 76 47 39 48 40 49 55 51 77 52 42 53 25 54 26 55 35 56
REMARK SMILES IDX 27 57 28 58 34 59 36 60 29 61 30 62 31 63 32 64 33 65 59 66
REMARK SMILES IDX 60 67 69 68 61 69 62 70 68 71 70 72 63 73 64 74 65 75 66 76
REMARK SMILES IDX 67 77 43 78 44 79 53 80 45 81 46 82 52 83 54 84 47 85 48 86
REMARK SMILES IDX 49 87 50 88 51 89
REMARK H PARENT 82 16 75 39 41 50
REMARK Flexibility Score: inf
ROOT
ATOM      1  C   UNL A   1      32.325  30.010  26.786  1.00  0.00     0.275 C 
ENDROOT
BRANCH   1   2
ATOM      2  C   UNL A   1      31.763  28.587  26.846  1.00  0.00     0.274 C 
BRANCH   2   3
ATOM      3  O   UNL A   1      32.584  27.747  26.024  1.00  0.00    -0.457 OA
BRANCH   3   4
ATOM      4  C   UNL A   1      32.005  27.131  24.955  1.00  0.00     0.369 C 
ATOM      5  O   UNL A   1      31.393  27.740  24.083  1.00  0.00    -0.245 OA
BRANCH   4   6
ATOM      6  C   UNL A   1      32.304  25.570  24.928  1.00  0.00     0.207 C 
ATOM      7  C   UNL A   1      29.908  25.323  26.076  1.00  0.00     0.027 C 
ATOM      8  C   UNL A   1      31.417  25.068  26.140  1.00  0.00     0.117 C 
ATOM      9  S   UNL A   1      31.673  23.327  26.647  1.00  0.00    -0.152 SA
ATOM     10  C   UNL A   1      33.445  23.408  26.973  1.00  0.00     0.070 C 
ATOM     11  C   UNL A   1      33.802  25.382  25.336  1.00  0.00     0.083 C 
ATOM     12  C   UNL A   1      34.239  23.990  25.813  1.00  0.00     0.018 C 
BRANCH   6  13
ATOM     13  N   UNL A   1      32.009  25.032  23.552  1.00  0.00    -0.320 N 
ATOM     14  C   UNL A   1      31.333  23.750  23.362  1.00  0.00     0.263 C 
ATOM     15  C   UNL A   1      33.156  25.033  22.614  1.00  0.00     0.263 C 
ATOM     16  H   UNL A   1      31.312  25.747  23.345  1.00  0.00     0.349 HD
ATOM     17  C   UNL A   1      32.379  22.781  22.837  1.00  0.00     0.067 C 
ATOM     18  C   UNL A   1      33.279  23.650  21.996  1.00  0.00     0.067 C 
ENDBRANCH   6  13
ENDBRANCH   4   6
ENDBRANCH   3   4
ENDBRANCH   2   3
ENDBRANCH   1   2
BRANCH   1  19
ATOM     19  O   UNL A   1      33.765  29.968  26.755  1.00  0.00    -0.458 OA
BRANCH  19  20
ATOM     20  C   UNL A   1      34.383  30.831  27.600  1.00  0.00     0.338 C 
ATOM     21  O   UNL A   1      33.948  31.895  28.019  1.00  0.00    -0.246 OA
BRANCH  20  22
ATOM     22  C   UNL A   1      35.656  30.247  28.053  1.00  0.00     0.060 A 
ATOM     23  C   UNL A   1      35.708  29.699  29.336  1.00  0.00     0.016 A 
ATOM     24  C   UNL A   1      36.801  30.279  27.255  1.00  0.00     0.016 A 
ATOM     25  C   UNL A   1      36.896  29.161  29.828  1.00  0.00     0.010 A 
ATOM     26  C   UNL A   1      38.004  29.774  27.761  1.00  0.00     0.010 A 
ATOM     27  C   UNL A   1      38.059  29.227  29.054  1.00  0.00    -0.014 A 
BRANCH  27  28
ATOM     28  C   UNL A   1      39.359  28.891  29.679  1.00  0.00     0.031 A 
ATOM     29  C   UNL A   1      39.799  29.695  30.871  1.00  0.00     0.074 A 
ATOM     30  C   UNL A   1      40.116  27.881  29.218  1.00  0.00     0.049 A 
ATOM     31  N   UNL A   1      40.882  29.586  31.594  1.00  0.00    -0.248 NA
ATOM     32  C   UNL A   1      38.887  30.766  31.308  1.00  0.00     0.031 C 
ATOM     33  C   UNL A   1      39.770  27.006  28.100  1.00  0.00     0.029 A 
ATOM     34  N   UNL A   1      41.339  27.423  29.638  1.00  0.00    -0.354 N 
ATOM     35  C   UNL A   1      40.775  30.557  32.580  1.00  0.00     0.074 A 
ATOM     36  C   UNL A   1      39.536  31.268  32.348  1.00  0.00     0.031 C 
ATOM     37  C   UNL A   1      40.771  26.126  27.908  1.00  0.00     0.029 A 
ATOM     38  C   UNL A   1      41.831  26.386  28.882  1.00  0.00     0.049 A 
ATOM     39  H   UNL A   1      41.821  27.802  30.409  1.00  0.00     0.167 HD
ATOM     40  C   UNL A   1      41.631  30.832  33.592  1.00  0.00     0.037 A 
ATOM     41  C   UNL A   1      43.007  25.732  28.964  1.00  0.00     0.037 A 
ATOM     42  C   UNL A   1      42.882  30.153  33.792  1.00  0.00     0.049 A 
ATOM     43  C   UNL A   1      43.978  26.103  30.057  1.00  0.00     0.074 A 
ATOM     44  C   UNL A   1      43.841  30.378  34.765  1.00  0.00     0.029 A 
ATOM     45  N   UNL A   1      43.354  29.120  32.996  1.00  0.00    -0.354 N 
ATOM     46  N   UNL A   1      43.859  27.013  30.995  1.00  0.00    -0.248 NA
ATOM     47  C   UNL A   1      45.241  25.351  30.110  1.00  0.00     0.031 C 
ATOM     48  C   UNL A   1      44.911  29.505  34.532  1.00  0.00     0.029 A 
ATOM     49  C   UNL A   1      44.596  28.705  33.444  1.00  0.00     0.049 A 
ATOM     50  H   UNL A   1      42.876  28.738  32.225  1.00  0.00     0.167 HD
ATOM     51  C   UNL A   1      45.012  26.920  31.768  1.00  0.00     0.074 A 
ATOM     52  C   UNL A   1      45.814  25.862  31.190  1.00  0.00     0.031 C 
ATOM     53  C   UNL A   1      45.371  27.638  32.862  1.00  0.00     0.037 A 
BRANCH  40  54
ATOM     54  C   UNL A   1      41.247  31.941  34.530  1.00  0.00     0.058 A 
ATOM     55  C   UNL A   1      40.509  31.691  35.698  1.00  0.00     0.135 A 
ATOM     56  C   UNL A   1      41.610  33.268  34.253  1.00  0.00     0.135 A 
ATOM     57  F   UNL A   1      40.115  30.443  35.995  1.00  0.00    -0.206 F 
ATOM     58  C   UNL A   1      40.119  32.724  36.545  1.00  0.00     0.059 A 
ATOM     59  C   UNL A   1      41.250  34.313  35.099  1.00  0.00     0.059 A 
ATOM     60  F   UNL A   1      42.308  33.561  33.146  1.00  0.00    -0.206 F 
ATOM     61  C   UNL A   1      40.490  34.032  36.234  1.00  0.00     0.060 A 
BRANCH  61  62
ATOM     62  S   UNL A   1      39.967  35.365  37.334  1.00  0.00     0.124 S 
ATOM     63  O   UNL A   1      38.820  34.757  38.002  1.00  0.00    -0.237 OA
ATOM     64  O   UNL A   1      41.148  35.570  38.165  1.00  0.00    -0.237 OA
ATOM     65  O   UNL A   1      39.653  36.457  36.418  1.00  0.00    -0.744 OA
ENDBRANCH  61  62
ENDBRANCH  40  54
BRANCH  41  66
ATOM     66  C   UNL A   1      43.337  24.659  27.987  1.00  0.00     0.058 A 
ATOM     67  C   UNL A   1      42.956  23.327  28.211  1.00  0.00     0.135 A 
ATOM     68  C   UNL A   1      44.054  24.943  26.814  1.00  0.00     0.135 A 
ATOM     69  F   UNL A   1      42.280  23.002  29.324  1.00  0.00    -0.206 F 
ATOM     70  C   UNL A   1      43.289  22.313  27.319  1.00  0.00     0.059 A 
ATOM     71  C   UNL A   1      44.378  23.950  25.895  1.00  0.00     0.059 A 
ATOM     72  F   UNL A   1      44.436  26.202  26.548  1.00  0.00    -0.206 F 
ATOM     73  C   UNL A   1      44.001  22.635  26.161  1.00  0.00     0.060 A 
BRANCH  73  74
ATOM     74  S   UNL A   1      44.397  21.319  24.988  1.00  0.00     0.124 S 
ATOM     75  O   UNL A   1      44.244  22.007  23.712  1.00  0.00    -0.237 OA
ATOM     76  O   UNL A   1      45.763  20.970  25.366  1.00  0.00    -0.237 OA
ATOM     77  O   UNL A   1      43.394  20.298  25.280  1.00  0.00    -0.744 OA
ENDBRANCH  73  74
ENDBRANCH  41  66
BRANCH  53  78
ATOM     78  C   UNL A   1      46.666  27.273  33.533  1.00  0.00     0.058 A 
ATOM     79  C   UNL A   1      46.730  26.296  34.539  1.00  0.00     0.135 A 
ATOM     80  C   UNL A   1      47.867  27.879  33.128  1.00  0.00     0.135 A 
ATOM     81  F   UNL A   1      45.611  25.689  34.963  1.00  0.00    -0.206 F 
ATOM     82  C   UNL A   1      47.937  25.952  35.140  1.00  0.00     0.059 A 
ATOM     83  C   UNL A   1      49.087  27.532  33.697  1.00  0.00     0.059 A 
ATOM     84  F   UNL A   1      47.862  28.810  32.160  1.00  0.00    -0.206 F 
ATOM     85  C   UNL A   1      49.111  26.578  34.713  1.00  0.00     0.060 A 
BRANCH  85  86
ATOM     86  S   UNL A   1      50.676  26.109  35.482  1.00  0.00     0.124 S 
ATOM     87  O   UNL A   1      50.623  26.857  36.734  1.00  0.00    -0.237 OA
ATOM     88  O   UNL A   1      50.547  24.660  35.603  1.00  0.00    -0.237 OA
ATOM     89  O   UNL A   1      51.675  26.563  34.519  1.00  0.00    -0.744 OA
ENDBRANCH  85  86
ENDBRANCH  53  78
ENDBRANCH  27  28
ENDBRANCH  20  22
ENDBRANCH  19  20
ENDBRANCH   1  19
TORSDOF 15
ENDMDL
