MODEL 1
REMARK VINA RESULT:     -10.7      0.000      0.000
REMARK SMILES O=C(OCCOC(=O)c1ccncc1-c1ccc(F)cc1F)c1ccc(-c2c3nc(c(-c4c(F)cc(S(=O)(=O)[O-])cc4F)c4ccc([nH]4)c(-c4c(F)cc(S(=O)(=O)[O-])cc4F)c4nc(c(-c5c(F)cc(S(=O)(=O)[O-])cc5F)c5ccc2[nH]5)C=C4)C=C3)cc1
REMARK SMILES IDX 4 1 3 2 2 3 1 4 23 5 24 6 88 7 25 8 87 9 26 10 27 11 28 12
REMARK SMILES IDX 81 13 29 14 86 15 80 16 82 17 30 18 85 19 79 20 78 21 31 23
REMARK SMILES IDX 65 24 44 25 64 26 45 27 48 28 63 29 83 30 46 31 47 32 62 34
REMARK SMILES IDX 84 35 49 36 32 37 33 38 42 39 34 40 35 41 41 42 43 43 36 44
REMARK SMILES IDX 37 45 38 46 39 47 40 48 66 49 67 50 76 51 68 52 69 53 75 54
REMARK SMILES IDX 77 55 70 56 71 57 72 58 73 59 74 60 50 61 51 62 60 63 52 64
REMARK SMILES IDX 53 65 59 66 61 67 54 68 55 69 56 70 57 71 58 72 5 73 6 74
REMARK SMILES IDX 7 75 8 76 9 77 10 78 14 79 11 80 13 81 12 82 15 83 16 84
REMARK SMILES IDX 21 85 17 86 20 87 22 88 18 89 19 90
REMARK H PARENT 82 22 48 33
REMARK Flexibility Score: inf
ROOT
ATOM      1  C   UNL A   1      47.596  38.099  25.736  1.00  0.00     0.275 C 
ENDROOT
BRANCH   1   2
ATOM      2  O   UNL A   1      46.888  37.334  26.720  1.00  0.00    -0.458 OA
BRANCH   2   3
ATOM      3  C   UNL A   1      47.587  36.725  27.692  1.00  0.00     0.338 C 
ATOM      4  O   UNL A   1      48.472  37.248  28.340  1.00  0.00    -0.246 OA
BRANCH   3   5
ATOM      5  C   UNL A   1      47.134  35.308  27.796  1.00  0.00     0.060 A 
ATOM      6  C   UNL A   1      47.254  34.617  29.009  1.00  0.00     0.016 A 
ATOM      7  C   UNL A   1      46.471  34.706  26.723  1.00  0.00     0.016 A 
ATOM      8  C   UNL A   1      46.734  33.344  29.140  1.00  0.00     0.010 A 
ATOM      9  C   UNL A   1      45.852  33.473  26.884  1.00  0.00     0.010 A 
ATOM     10  C   UNL A   1      46.039  32.767  28.075  1.00  0.00    -0.014 A 
BRANCH  10  11
ATOM     11  C   UNL A   1      45.713  31.335  28.153  1.00  0.00     0.031 A 
ATOM     12  C   UNL A   1      44.308  30.970  28.529  1.00  0.00     0.074 A 
ATOM     13  C   UNL A   1      46.631  30.429  27.777  1.00  0.00     0.049 A 
ATOM     14  N   UNL A   1      43.725  29.805  28.500  1.00  0.00    -0.248 NA
ATOM     15  C   UNL A   1      43.430  32.064  28.987  1.00  0.00     0.031 C 
ATOM     16  C   UNL A   1      48.006  30.739  27.375  1.00  0.00     0.029 A 
ATOM     17  N   UNL A   1      46.547  29.072  27.644  1.00  0.00    -0.354 N 
ATOM     18  C   UNL A   1      42.415  30.036  28.903  1.00  0.00     0.074 A 
ATOM     19  C   UNL A   1      42.310  31.425  29.273  1.00  0.00     0.031 C 
ATOM     20  C   UNL A   1      48.639  29.603  27.044  1.00  0.00     0.029 A 
ATOM     21  C   UNL A   1      47.707  28.492  27.192  1.00  0.00     0.049 A 
ATOM     22  H   UNL A   1      45.732  28.560  27.852  1.00  0.00     0.167 HD
ATOM     23  C   UNL A   1      41.376  29.172  28.904  1.00  0.00     0.037 A 
ATOM     24  C   UNL A   1      47.965  27.204  26.902  1.00  0.00     0.037 A 
ATOM     25  C   UNL A   1      41.529  27.796  28.525  1.00  0.00     0.049 A 
ATOM     26  C   UNL A   1      46.814  26.240  26.975  1.00  0.00     0.074 A 
ATOM     27  C   UNL A   1      40.578  26.797  28.487  1.00  0.00     0.029 A 
ATOM     28  N   UNL A   1      42.734  27.231  28.121  1.00  0.00    -0.354 N 
ATOM     29  N   UNL A   1      45.566  26.478  27.317  1.00  0.00    -0.248 NA
ATOM     30  C   UNL A   1      47.083  24.853  26.590  1.00  0.00     0.031 C 
ATOM     31  C   UNL A   1      41.220  25.615  28.097  1.00  0.00     0.029 A 
ATOM     32  C   UNL A   1      42.558  25.889  27.843  1.00  0.00     0.049 A 
ATOM     33  H   UNL A   1      43.587  27.715  28.043  1.00  0.00     0.167 HD
ATOM     34  C   UNL A   1      44.890  25.276  27.159  1.00  0.00     0.074 A 
ATOM     35  C   UNL A   1      45.873  24.316  26.685  1.00  0.00     0.031 C 
ATOM     36  C   UNL A   1      43.582  24.985  27.375  1.00  0.00     0.037 A 
BRANCH  23  37
ATOM     37  C   UNL A   1      40.036  29.712  29.320  1.00  0.00     0.058 A 
ATOM     38  C   UNL A   1      39.771  30.023  30.662  1.00  0.00     0.135 A 
ATOM     39  C   UNL A   1      39.027  29.983  28.377  1.00  0.00     0.135 A 
ATOM     40  F   UNL A   1      40.700  29.799  31.604  1.00  0.00    -0.206 F 
ATOM     41  C   UNL A   1      38.564  30.597  31.055  1.00  0.00     0.059 A 
ATOM     42  C   UNL A   1      37.826  30.584  28.743  1.00  0.00     0.059 A 
ATOM     43  F   UNL A   1      39.235  29.736  27.073  1.00  0.00    -0.206 F 
ATOM     44  C   UNL A   1      37.606  30.893  30.086  1.00  0.00     0.060 A 
BRANCH  44  45
ATOM     45  S   UNL A   1      36.057  31.706  30.536  1.00  0.00     0.124 S 
ATOM     46  O   UNL A   1      36.477  33.100  30.639  1.00  0.00    -0.237 OA
ATOM     47  O   UNL A   1      35.198  31.384  29.401  1.00  0.00    -0.237 OA
ATOM     48  O   UNL A   1      35.692  31.068  31.797  1.00  0.00    -0.744 OA
ENDBRANCH  44  45
ENDBRANCH  23  37
BRANCH  24  49
ATOM     49  C   UNL A   1      49.324  26.806  26.447  1.00  0.00     0.058 A 
ATOM     50  C   UNL A   1      49.728  27.003  25.116  1.00  0.00     0.135 A 
ATOM     51  C   UNL A   1      50.217  26.148  27.304  1.00  0.00     0.135 A 
ATOM     52  F   UNL A   1      48.901  27.606  24.246  1.00  0.00    -0.206 F 
ATOM     53  C   UNL A   1      50.958  26.550  24.644  1.00  0.00     0.059 A 
ATOM     54  C   UNL A   1      51.460  25.701  26.861  1.00  0.00     0.059 A 
ATOM     55  F   UNL A   1      49.878  25.925  28.582  1.00  0.00    -0.206 F 
ATOM     56  C   UNL A   1      51.818  25.899  25.525  1.00  0.00     0.060 A 
BRANCH  56  57
ATOM     57  S   UNL A   1      53.403  25.248  24.952  1.00  0.00     0.124 S 
ATOM     58  O   UNL A   1      54.347  25.988  25.780  1.00  0.00    -0.237 OA
ATOM     59  O   UNL A   1      53.269  23.825  25.251  1.00  0.00    -0.237 OA
ATOM     60  O   UNL A   1      53.411  25.584  23.530  1.00  0.00    -0.744 OA
ENDBRANCH  56  57
ENDBRANCH  24  49
BRANCH  36  61
ATOM     61  C   UNL A   1      43.148  23.582  27.079  1.00  0.00     0.058 A 
ATOM     62  C   UNL A   1      43.012  22.651  28.121  1.00  0.00     0.135 A 
ATOM     63  C   UNL A   1      42.947  23.142  25.762  1.00  0.00     0.135 A 
ATOM     64  F   UNL A   1      43.210  23.027  29.394  1.00  0.00    -0.206 F 
ATOM     65  C   UNL A   1      42.701  21.323  27.867  1.00  0.00     0.059 A 
ATOM     66  C   UNL A   1      42.605  21.826  25.489  1.00  0.00     0.059 A 
ATOM     67  F   UNL A   1      43.064  24.001  24.737  1.00  0.00    -0.206 F 
ATOM     68  C   UNL A   1      42.489  20.923  26.549  1.00  0.00     0.060 A 
BRANCH  68  69
ATOM     69  S   UNL A   1      42.082  19.208  26.171  1.00  0.00     0.124 S 
ATOM     70  O   UNL A   1      40.643  19.290  25.952  1.00  0.00    -0.237 OA
ATOM     71  O   UNL A   1      42.893  18.951  24.985  1.00  0.00    -0.237 OA
ATOM     72  O   UNL A   1      42.494  18.489  27.374  1.00  0.00    -0.744 OA
ENDBRANCH  68  69
ENDBRANCH  36  61
ENDBRANCH  10  11
ENDBRANCH   3   5
ENDBRANCH   2   3
ENDBRANCH   1   2
BRANCH   1  73
ATOM     73  C   UNL A   1      47.124  39.502  25.286  1.00  0.00     0.275 C 
BRANCH  73  74
ATOM     74  O   UNL A   1      45.709  39.740  25.276  1.00  0.00    -0.458 OA
BRANCH  74  75
ATOM     75  C   UNL A   1      45.169  40.261  26.420  1.00  0.00     0.338 C 
ATOM     76  O   UNL A   1      45.779  40.649  27.400  1.00  0.00    -0.246 OA
BRANCH  75  77
ATOM     77  C   UNL A   1      43.690  40.249  26.318  1.00  0.00     0.071 A 
ATOM     78  C   UNL A   1      43.098  41.236  25.511  1.00  0.00     0.036 A 
ATOM     79  C   UNL A   1      42.891  39.269  26.937  1.00  0.00     0.017 A 
ATOM     80  C   UNL A   1      41.723  41.250  25.376  1.00  0.00     0.112 A 
ATOM     81  C   UNL A   1      41.512  39.427  26.755  1.00  0.00     0.120 A 
ATOM     82  N   UNL A   1      40.916  40.380  26.005  1.00  0.00    -0.264 NA
BRANCH  79  83
ATOM     83  C   UNL A   1      43.339  38.120  27.747  1.00  0.00     0.020 A 
ATOM     84  C   UNL A   1      43.833  38.268  29.049  1.00  0.00     0.015 A 
ATOM     85  C   UNL A   1      43.119  36.804  27.310  1.00  0.00     0.134 A 
ATOM     86  C   UNL A   1      44.045  37.178  29.896  1.00  0.00     0.040 A 
ATOM     87  C   UNL A   1      43.340  35.701  28.134  1.00  0.00     0.079 A 
ATOM     88  F   UNL A   1      42.632  36.584  26.080  1.00  0.00    -0.206 F 
ATOM     89  C   UNL A   1      43.788  35.901  29.430  1.00  0.00     0.126 A 
ATOM     90  F   UNL A   1      43.963  34.853  30.244  1.00  0.00    -0.207 F 
ENDBRANCH  79  83
ENDBRANCH  75  77
ENDBRANCH  74  75
ENDBRANCH  73  74
ENDBRANCH   1  73
TORSDOF 15
ENDMDL
MODEL 2
REMARK VINA RESULT:     -10.6      6.827     11.348
REMARK SMILES O=C(OCCOC(=O)c1ccncc1-c1ccc(F)cc1F)c1ccc(-c2c3nc(c(-c4c(F)cc(S(=O)(=O)[O-])cc4F)c4ccc([nH]4)c(-c4c(F)cc(S(=O)(=O)[O-])cc4F)c4nc(c(-c5c(F)cc(S(=O)(=O)[O-])cc5F)c5ccc2[nH]5)C=C4)C=C3)cc1
REMARK SMILES IDX 4 1 3 2 2 3 1 4 23 5 24 6 88 7 25 8 87 9 26 10 27 11 28 12
REMARK SMILES IDX 81 13 29 14 86 15 80 16 82 17 30 18 85 19 79 20 78 21 31 23
REMARK SMILES IDX 65 24 44 25 64 26 45 27 48 28 63 29 83 30 46 31 47 32 62 34
REMARK SMILES IDX 84 35 49 36 32 37 33 38 42 39 34 40 35 41 41 42 43 43 36 44
REMARK SMILES IDX 37 45 38 46 39 47 40 48 66 49 67 50 76 51 68 52 69 53 75 54
REMARK SMILES IDX 77 55 70 56 71 57 72 58 73 59 74 60 50 61 51 62 60 63 52 64
REMARK SMILES IDX 53 65 59 66 61 67 54 68 55 69 56 70 57 71 58 72 5 73 6 74
REMARK SMILES IDX 7 75 8 76 9 77 10 78 14 79 11 80 13 81 12 82 15 83 16 84
REMARK SMILES IDX 21 85 17 86 20 87 22 88 18 89 19 90
REMARK H PARENT 82 22 48 33
REMARK Flexibility Score: inf
ROOT
ATOM      1  C   UNL A   1      32.464  30.478  27.006  1.00  0.00     0.275 C 
ENDROOT
BRANCH   1   2
ATOM      2  O   UNL A   1      33.890  30.614  27.016  1.00  0.00    -0.458 OA
BRANCH   2   3
ATOM      3  C   UNL A   1      34.439  31.626  27.710  1.00  0.00     0.338 C 
ATOM      4  O   UNL A   1      33.969  32.743  27.793  1.00  0.00    -0.246 OA
BRANCH   3   5
ATOM      5  C   UNL A   1      35.727  31.162  28.301  1.00  0.00     0.060 A 
ATOM      6  C   UNL A   1      35.925  29.803  28.579  1.00  0.00     0.016 A 
ATOM      7  C   UNL A   1      36.788  32.059  28.458  1.00  0.00     0.016 A 
ATOM      8  C   UNL A   1      37.154  29.354  29.021  1.00  0.00     0.010 A 
ATOM      9  C   UNL A   1      38.053  31.596  28.795  1.00  0.00     0.010 A 
ATOM     10  C   UNL A   1      38.218  30.251  29.138  1.00  0.00    -0.014 A 
BRANCH  10  11
ATOM     11  C   UNL A   1      39.433  29.802  29.834  1.00  0.00     0.031 A 
ATOM     12  C   UNL A   1      39.646  30.298  31.234  1.00  0.00     0.074 A 
ATOM     13  C   UNL A   1      40.229  28.891  29.250  1.00  0.00     0.049 A 
ATOM     14  N   UNL A   1      40.530  29.922  32.114  1.00  0.00    -0.248 NA
ATOM     15  C   UNL A   1      38.732  31.350  31.719  1.00  0.00     0.031 C 
ATOM     16  C   UNL A   1      40.045  28.356  27.898  1.00  0.00     0.029 A 
ATOM     17  N   UNL A   1      41.329  28.232  29.719  1.00  0.00    -0.354 N 
ATOM     18  C   UNL A   1      40.255  30.666  33.255  1.00  0.00     0.074 A 
ATOM     19  C   UNL A   1      39.197  31.590  32.931  1.00  0.00     0.031 C 
ATOM     20  C   UNL A   1      41.005  27.454  27.644  1.00  0.00     0.029 A 
ATOM     21  C   UNL A   1      41.855  27.334  28.822  1.00  0.00     0.049 A 
ATOM     22  H   UNL A   1      41.709  28.387  30.614  1.00  0.00     0.167 HD
ATOM     23  C   UNL A   1      40.802  30.542  34.485  1.00  0.00     0.037 A 
ATOM     24  C   UNL A   1      42.891  26.488  28.964  1.00  0.00     0.037 A 
ATOM     25  C   UNL A   1      41.854  29.606  34.761  1.00  0.00     0.049 A 
ATOM     26  C   UNL A   1      43.535  26.412  30.320  1.00  0.00     0.074 A 
ATOM     27  C   UNL A   1      42.517  29.372  35.948  1.00  0.00     0.029 A 
ATOM     28  N   UNL A   1      42.397  28.746  33.812  1.00  0.00    -0.354 N 
ATOM     29  N   UNL A   1      43.240  27.092  31.406  1.00  0.00    -0.248 NA
ATOM     30  C   UNL A   1      44.617  25.439  30.488  1.00  0.00     0.031 C 
ATOM     31  C   UNL A   1      43.491  28.397  35.704  1.00  0.00     0.029 A 
ATOM     32  C   UNL A   1      43.400  27.986  34.380  1.00  0.00     0.049 A 
ATOM     33  H   UNL A   1      42.108  28.686  32.873  1.00  0.00     0.167 HD
ATOM     34  C   UNL A   1      44.078  26.608  32.400  1.00  0.00     0.074 A 
ATOM     35  C   UNL A   1      44.889  25.572  31.780  1.00  0.00     0.031 C 
ATOM     36  C   UNL A   1      44.173  26.970  33.705  1.00  0.00     0.037 A 
BRANCH  23  37
ATOM     37  C   UNL A   1      40.259  31.433  35.569  1.00  0.00     0.058 A 
ATOM     38  C   UNL A   1      39.015  31.169  36.160  1.00  0.00     0.135 A 
ATOM     39  C   UNL A   1      41.003  32.516  36.072  1.00  0.00     0.135 A 
ATOM     40  F   UNL A   1      38.267  30.140  35.732  1.00  0.00    -0.206 F 
ATOM     41  C   UNL A   1      38.531  31.934  37.220  1.00  0.00     0.059 A 
ATOM     42  C   UNL A   1      40.553  33.275  37.149  1.00  0.00     0.059 A 
ATOM     43  F   UNL A   1      42.215  32.797  35.567  1.00  0.00    -0.206 F 
ATOM     44  C   UNL A   1      39.317  32.973  37.720  1.00  0.00     0.060 A 
BRANCH  44  45
ATOM     45  S   UNL A   1      38.767  33.945  39.139  1.00  0.00     0.124 S 
ATOM     46  O   UNL A   1      37.403  33.458  39.317  1.00  0.00    -0.237 OA
ATOM     47  O   UNL A   1      39.720  33.551  40.172  1.00  0.00    -0.237 OA
ATOM     48  O   UNL A   1      38.884  35.323  38.674  1.00  0.00    -0.744 OA
ENDBRANCH  44  45
ENDBRANCH  23  37
BRANCH  24  49
ATOM     49  C   UNL A   1      43.296  25.618  27.827  1.00  0.00     0.058 A 
ATOM     50  C   UNL A   1      42.792  24.313  27.701  1.00  0.00     0.135 A 
ATOM     51  C   UNL A   1      44.254  26.037  26.892  1.00  0.00     0.135 A 
ATOM     52  F   UNL A   1      41.892  23.851  28.584  1.00  0.00    -0.206 F 
ATOM     53  C   UNL A   1      43.232  23.447  26.701  1.00  0.00     0.059 A 
ATOM     54  C   UNL A   1      44.696  25.196  25.873  1.00  0.00     0.059 A 
ATOM     55  F   UNL A   1      44.774  27.270  26.973  1.00  0.00    -0.206 F 
ATOM     56  C   UNL A   1      44.186  23.898  25.791  1.00  0.00     0.060 A 
BRANCH  56  57
ATOM     57  S   UNL A   1      44.825  22.800  24.507  1.00  0.00     0.124 S 
ATOM     58  O   UNL A   1      43.635  22.560  23.701  1.00  0.00    -0.237 OA
ATOM     59  O   UNL A   1      45.859  23.627  23.892  1.00  0.00    -0.237 OA
ATOM     60  O   UNL A   1      45.320  21.651  25.262  1.00  0.00    -0.744 OA
ENDBRANCH  56  57
ENDBRANCH  24  49
BRANCH  36  61
ATOM     61  C   UNL A   1      45.171  26.227  34.539  1.00  0.00     0.058 A 
ATOM     62  C   UNL A   1      46.500  26.673  34.614  1.00  0.00     0.135 A 
ATOM     63  C   UNL A   1      44.831  25.034  35.194  1.00  0.00     0.135 A 
ATOM     64  F   UNL A   1      46.871  27.802  33.989  1.00  0.00    -0.206 F 
ATOM     65  C   UNL A   1      47.466  25.955  35.304  1.00  0.00     0.059 A 
ATOM     66  C   UNL A   1      45.774  24.317  35.915  1.00  0.00     0.059 A 
ATOM     67  F   UNL A   1      43.571  24.574  35.151  1.00  0.00    -0.206 F 
ATOM     68  C   UNL A   1      47.090  24.784  35.960  1.00  0.00     0.060 A 
BRANCH  68  69
ATOM     69  S   UNL A   1      48.311  23.817  36.869  1.00  0.00     0.124 S 
ATOM     70  O   UNL A   1      48.742  24.771  37.884  1.00  0.00    -0.237 OA
ATOM     71  O   UNL A   1      47.518  22.691  37.350  1.00  0.00    -0.237 OA
ATOM     72  O   UNL A   1      49.307  23.488  35.854  1.00  0.00    -0.744 OA
ENDBRANCH  68  69
ENDBRANCH  36  61
ENDBRANCH  10  11
ENDBRANCH   3   5
ENDBRANCH   2   3
ENDBRANCH   1   2
BRANCH   1  73
ATOM     73  C   UNL A   1      31.767  29.097  27.031  1.00  0.00     0.275 C 
BRANCH  73  74
ATOM     74  O   UNL A   1      32.587  27.950  26.758  1.00  0.00    -0.458 OA
BRANCH  74  75
ATOM     75  C   UNL A   1      31.944  26.835  26.298  1.00  0.00     0.338 C 
ATOM     76  O   UNL A   1      31.114  26.175  26.897  1.00  0.00    -0.246 OA
BRANCH  75  77
ATOM     77  C   UNL A   1      32.441  26.502  24.941  1.00  0.00     0.071 A 
ATOM     78  C   UNL A   1      33.562  25.657  24.863  1.00  0.00     0.036 A 
ATOM     79  C   UNL A   1      31.804  26.943  23.766  1.00  0.00     0.017 A 
ATOM     80  C   UNL A   1      34.046  25.309  23.617  1.00  0.00     0.112 A 
ATOM     81  C   UNL A   1      32.424  26.554  22.573  1.00  0.00     0.120 A 
ATOM     82  N   UNL A   1      33.516  25.763  22.470  1.00  0.00    -0.264 NA
BRANCH  79  83
ATOM     83  C   UNL A   1      30.580  27.761  23.656  1.00  0.00     0.020 A 
ATOM     84  C   UNL A   1      30.621  29.148  23.470  1.00  0.00     0.015 A 
ATOM     85  C   UNL A   1      29.318  27.154  23.554  1.00  0.00     0.134 A 
ATOM     86  C   UNL A   1      29.484  29.890  23.142  1.00  0.00     0.040 A 
ATOM     87  C   UNL A   1      28.168  27.880  23.244  1.00  0.00     0.079 A 
ATOM     88  F   UNL A   1      29.203  25.826  23.705  1.00  0.00    -0.206 F 
ATOM     89  C   UNL A   1      28.266  29.245  23.025  1.00  0.00     0.126 A 
ATOM     90  F   UNL A   1      27.177  29.946  22.685  1.00  0.00    -0.207 F 
ENDBRANCH  79  83
ENDBRANCH  75  77
ENDBRANCH  74  75
ENDBRANCH  73  74
ENDBRANCH   1  73
TORSDOF 15
ENDMDL
MODEL 3
REMARK VINA RESULT:     -10.6      3.024      9.630
REMARK SMILES O=C(OCCOC(=O)c1ccncc1-c1ccc(F)cc1F)c1ccc(-c2c3nc(c(-c4c(F)cc(S(=O)(=O)[O-])cc4F)c4ccc([nH]4)c(-c4c(F)cc(S(=O)(=O)[O-])cc4F)c4nc(c(-c5c(F)cc(S(=O)(=O)[O-])cc5F)c5ccc2[nH]5)C=C4)C=C3)cc1
REMARK SMILES IDX 4 1 3 2 2 3 1 4 23 5 24 6 88 7 25 8 87 9 26 10 27 11 28 12
REMARK SMILES IDX 81 13 29 14 86 15 80 16 82 17 30 18 85 19 79 20 78 21 31 23
REMARK SMILES IDX 65 24 44 25 64 26 45 27 48 28 63 29 83 30 46 31 47 32 62 34
REMARK SMILES IDX 84 35 49 36 32 37 33 38 42 39 34 40 35 41 41 42 43 43 36 44
REMARK SMILES IDX 37 45 38 46 39 47 40 48 66 49 67 50 76 51 68 52 69 53 75 54
REMARK SMILES IDX 77 55 70 56 71 57 72 58 73 59 74 60 50 61 51 62 60 63 52 64
REMARK SMILES IDX 53 65 59 66 61 67 54 68 55 69 56 70 57 71 58 72 5 73 6 74
REMARK SMILES IDX 7 75 8 76 9 77 10 78 14 79 11 80 13 81 12 82 15 83 16 84
REMARK SMILES IDX 21 85 17 86 20 87 22 88 18 89 19 90
REMARK H PARENT 82 22 48 33
REMARK Flexibility Score: inf
ROOT
ATOM      1  C   UNL A   1      37.300  32.012  32.658  1.00  0.00     0.275 C 
ENDROOT
BRANCH   1   2
ATOM      2  O   UNL A   1      36.834  30.799  32.057  1.00  0.00    -0.458 OA
BRANCH   2   3
ATOM      3  C   UNL A   1      37.407  29.637  32.415  1.00  0.00     0.338 C 
ATOM      4  O   UNL A   1      37.012  28.918  33.312  1.00  0.00    -0.246 OA
BRANCH   3   5
ATOM      5  C   UNL A   1      38.618  29.418  31.574  1.00  0.00     0.060 A 
ATOM      6  C   UNL A   1      38.542  29.553  30.182  1.00  0.00     0.016 A 
ATOM      7  C   UNL A   1      39.860  29.205  32.178  1.00  0.00     0.016 A 
ATOM      8  C   UNL A   1      39.684  29.462  29.409  1.00  0.00     0.010 A 
ATOM      9  C   UNL A   1      41.022  29.222  31.418  1.00  0.00     0.010 A 
ATOM     10  C   UNL A   1      40.925  29.288  30.026  1.00  0.00    -0.014 A 
BRANCH  10  11
ATOM     11  C   UNL A   1      42.080  28.952  29.180  1.00  0.00     0.031 A 
ATOM     12  C   UNL A   1      43.138  30.002  29.012  1.00  0.00     0.074 A 
ATOM     13  C   UNL A   1      42.202  27.704  28.696  1.00  0.00     0.049 A 
ATOM     14  N   UNL A   1      44.319  29.901  28.470  1.00  0.00    -0.248 NA
ATOM     15  C   UNL A   1      42.836  31.348  29.537  1.00  0.00     0.031 C 
ATOM     16  C   UNL A   1      41.209  26.638  28.859  1.00  0.00     0.029 A 
ATOM     17  N   UNL A   1      43.214  27.110  27.998  1.00  0.00    -0.354 N 
ATOM     18  C   UNL A   1      44.902  31.153  28.620  1.00  0.00     0.074 A 
ATOM     19  C   UNL A   1      43.918  32.028  29.204  1.00  0.00     0.031 C 
ATOM     20  C   UNL A   1      41.661  25.519  28.271  1.00  0.00     0.029 A 
ATOM     21  C   UNL A   1      42.979  25.787  27.711  1.00  0.00     0.049 A 
ATOM     22  H   UNL A   1      44.032  27.585  27.726  1.00  0.00     0.167 HD
ATOM     23  C   UNL A   1      46.174  31.519  28.348  1.00  0.00     0.037 A 
ATOM     24  C   UNL A   1      43.769  24.892  27.091  1.00  0.00     0.037 A 
ATOM     25  C   UNL A   1      47.122  30.611  27.767  1.00  0.00     0.049 A 
ATOM     26  C   UNL A   1      45.159  25.336  26.731  1.00  0.00     0.074 A 
ATOM     27  C   UNL A   1      48.439  30.836  27.421  1.00  0.00     0.029 A 
ATOM     28  N   UNL A   1      46.832  29.290  27.442  1.00  0.00    -0.354 N 
ATOM     29  N   UNL A   1      45.717  26.513  26.915  1.00  0.00    -0.248 NA
ATOM     30  C   UNL A   1      46.039  24.337  26.120  1.00  0.00     0.031 C 
ATOM     31  C   UNL A   1      48.933  29.658  26.848  1.00  0.00     0.029 A 
ATOM     32  C   UNL A   1      47.942  28.685  26.884  1.00  0.00     0.049 A 
ATOM     33  H   UNL A   1      45.965  28.849  27.589  1.00  0.00     0.167 HD
ATOM     34  C   UNL A   1      47.026  26.389  26.472  1.00  0.00     0.074 A 
ATOM     35  C   UNL A   1      47.174  25.017  26.015  1.00  0.00     0.031 C 
ATOM     36  C   UNL A   1      48.022  27.311  26.447  1.00  0.00     0.037 A 
BRANCH  23  37
ATOM     37  C   UNL A   1      46.567  32.932  28.681  1.00  0.00     0.058 A 
ATOM     38  C   UNL A   1      46.416  33.962  27.739  1.00  0.00     0.135 A 
ATOM     39  C   UNL A   1      47.037  33.283  29.960  1.00  0.00     0.135 A 
ATOM     40  F   UNL A   1      45.959  33.690  26.507  1.00  0.00    -0.206 F 
ATOM     41  C   UNL A   1      46.700  35.289  28.055  1.00  0.00     0.059 A 
ATOM     42  C   UNL A   1      47.297  34.607  30.306  1.00  0.00     0.059 A 
ATOM     43  F   UNL A   1      47.172  32.346  30.912  1.00  0.00    -0.206 F 
ATOM     44  C   UNL A   1      47.120  35.604  29.347  1.00  0.00     0.060 A 
BRANCH  44  45
ATOM     45  S   UNL A   1      47.428  37.318  29.825  1.00  0.00     0.124 S 
ATOM     46  O   UNL A   1      47.822  37.911  28.551  1.00  0.00    -0.237 OA
ATOM     47  O   UNL A   1      46.128  37.733  30.343  1.00  0.00    -0.237 OA
ATOM     48  O   UNL A   1      48.491  37.208  30.820  1.00  0.00    -0.744 OA
ENDBRANCH  44  45
ENDBRANCH  23  37
BRANCH  24  49
ATOM     49  C   UNL A   1      43.281  23.505  26.869  1.00  0.00     0.058 A 
ATOM     50  C   UNL A   1      43.187  22.592  27.933  1.00  0.00     0.135 A 
ATOM     51  C   UNL A   1      42.978  23.034  25.583  1.00  0.00     0.135 A 
ATOM     52  F   UNL A   1      43.490  22.982  29.181  1.00  0.00    -0.206 F 
ATOM     53  C   UNL A   1      42.827  21.261  27.732  1.00  0.00     0.059 A 
ATOM     54  C   UNL A   1      42.598  21.713  25.359  1.00  0.00     0.059 A 
ATOM     55  F   UNL A   1      43.061  23.861  24.531  1.00  0.00    -0.206 F 
ATOM     56  C   UNL A   1      42.534  20.830  26.440  1.00  0.00     0.060 A 
BRANCH  56  57
ATOM     57  S   UNL A   1      42.110  19.103  26.119  1.00  0.00     0.124 S 
ATOM     58  O   UNL A   1      43.017  18.771  25.027  1.00  0.00    -0.237 OA
ATOM     59  O   UNL A   1      42.403  18.479  27.406  1.00  0.00    -0.237 OA
ATOM     60  O   UNL A   1      40.694  19.163  25.768  1.00  0.00    -0.744 OA
ENDBRANCH  56  57
ENDBRANCH  24  49
BRANCH  36  61
ATOM     61  C   UNL A   1      49.351  26.853  25.928  1.00  0.00     0.058 A 
ATOM     62  C   UNL A   1      50.293  26.290  26.803  1.00  0.00     0.135 A 
ATOM     63  C   UNL A   1      49.718  27.047  24.589  1.00  0.00     0.135 A 
ATOM     64  F   UNL A   1      49.988  26.101  28.097  1.00  0.00    -0.206 F 
ATOM     65  C   UNL A   1      51.564  25.941  26.369  1.00  0.00     0.059 A 
ATOM     66  C   UNL A   1      50.972  26.676  24.127  1.00  0.00     0.059 A 
ATOM     67  F   UNL A   1      48.845  27.579  23.718  1.00  0.00    -0.206 F 
ATOM     68  C   UNL A   1      51.890  26.129  25.027  1.00  0.00     0.060 A 
BRANCH  68  69
ATOM     69  S   UNL A   1      53.529  25.691  24.417  1.00  0.00     0.124 S 
ATOM     70  O   UNL A   1      54.387  26.474  25.299  1.00  0.00    -0.237 OA
ATOM     71  O   UNL A   1      53.559  24.246  24.621  1.00  0.00    -0.237 OA
ATOM     72  O   UNL A   1      53.500  26.122  23.023  1.00  0.00    -0.744 OA
ENDBRANCH  68  69
ENDBRANCH  36  61
ENDBRANCH  10  11
ENDBRANCH   3   5
ENDBRANCH   2   3
ENDBRANCH   1   2
BRANCH   1  73
ATOM     73  C   UNL A   1      36.352  32.982  33.404  1.00  0.00     0.275 C 
BRANCH  73  74
ATOM     74  O   UNL A   1      35.693  33.983  32.614  1.00  0.00    -0.458 OA
BRANCH  74  75
ATOM     75  C   UNL A   1      34.435  33.681  32.170  1.00  0.00     0.338 C 
ATOM     76  O   UNL A   1      33.783  32.691  32.451  1.00  0.00    -0.246 OA
BRANCH  75  77
ATOM     77  C   UNL A   1      33.974  34.737  31.237  1.00  0.00     0.071 A 
ATOM     78  C   UNL A   1      33.333  35.853  31.804  1.00  0.00     0.036 A 
ATOM     79  C   UNL A   1      34.208  34.685  29.851  1.00  0.00     0.017 A 
ATOM     80  C   UNL A   1      32.902  36.867  30.970  1.00  0.00     0.112 A 
ATOM     81  C   UNL A   1      33.680  35.755  29.119  1.00  0.00     0.120 A 
ATOM     82  N   UNL A   1      33.039  36.828  29.635  1.00  0.00    -0.264 NA
BRANCH  79  83
ATOM     83  C   UNL A   1      34.930  33.642  29.096  1.00  0.00     0.020 A 
ATOM     84  C   UNL A   1      36.289  33.376  29.298  1.00  0.00     0.015 A 
ATOM     85  C   UNL A   1      34.236  32.746  28.268  1.00  0.00     0.134 A 
ATOM     86  C   UNL A   1      36.919  32.253  28.757  1.00  0.00     0.040 A 
ATOM     87  C   UNL A   1      34.850  31.627  27.705  1.00  0.00     0.079 A 
ATOM     88  F   UNL A   1      32.926  32.926  28.041  1.00  0.00    -0.206 F 
ATOM     89  C   UNL A   1      36.188  31.382  27.969  1.00  0.00     0.126 A 
ATOM     90  F   UNL A   1      36.778  30.289  27.470  1.00  0.00    -0.207 F 
ENDBRANCH  79  83
ENDBRANCH  75  77
ENDBRANCH  74  75
ENDBRANCH  73  74
ENDBRANCH   1  73
TORSDOF 15
ENDMDL
