MODEL 1
REMARK VINA RESULT:     -10.1      0.000      0.000
REMARK SMILES CCCC[C@H](C(=O)OCCOC(=O)c1ccc(-c2c3nc(c(-c4c(F)cc(S(=O)(=O)[O-])cc4F)c4ccc([nH]4)c(-c4c(F)cc(S(=O)(=O)[O-])cc4F)c4nc(c(-c5c(F)cc(S(=O)(=O)[O-])cc5F)c5ccc2[nH]5)C=C4)C=C3)cc1)[C@](C)(O)c1ccc(F)cc1F
REMARK SMILES IDX 9 1 8 2 6 3 7 4 5 5 4 6 3 7 2 8 1 9 80 10 81 11 82 12 83 14
REMARK SMILES IDX 84 15 89 16 85 17 88 18 90 19 86 20 87 21 10 22 11 23 12 24
REMARK SMILES IDX 13 25 14 26 15 27 79 28 16 29 78 30 17 31 18 32 19 33 72 34
REMARK SMILES IDX 20 35 77 36 71 37 73 38 21 39 76 40 70 41 69 42 22 44 56 45
REMARK SMILES IDX 35 46 55 47 36 48 39 49 54 50 74 51 37 52 38 53 53 55 75 56
REMARK SMILES IDX 40 57 23 58 24 59 33 60 25 61 26 62 32 63 34 64 27 65 28 66
REMARK SMILES IDX 29 67 30 68 31 69 57 70 58 71 67 72 59 73 60 74 66 75 68 76
REMARK SMILES IDX 61 77 62 78 63 79 64 80 65 81 41 82 42 83 51 84 43 85 44 86
REMARK SMILES IDX 50 87 52 88 45 89 46 90 47 91 48 92 49 93
REMARK H PARENT 82 13 73 43 39 54
REMARK Flexibility Score: inf
ROOT
ATOM      1  C   UNL A   1      31.936  29.752  26.190  1.00  0.00     0.274 C 
ENDROOT
BRANCH   1   2
ATOM      2  O   UNL A   1      31.426  28.531  25.619  1.00  0.00    -0.462 OA
BRANCH   2   3
ATOM      3  C   UNL A   1      31.425  27.428  26.428  1.00  0.00     0.312 C 
ATOM      4  O   UNL A   1      30.998  27.462  27.570  1.00  0.00    -0.252 OA
BRANCH   3   5
ATOM      5  C   UNL A   1      31.930  26.191  25.665  1.00  0.00     0.135 C 
BRANCH   5   6
ATOM      6  C   UNL A   1      33.275  25.554  26.117  1.00  0.00     0.019 C 
BRANCH   6   7
ATOM      7  C   UNL A   1      34.487  25.513  25.177  1.00  0.00     0.001 C 
BRANCH   7   8
ATOM      8  C   UNL A   1      35.082  24.130  24.889  1.00  0.00    -0.003 C 
ATOM      9  C   UNL A   1      35.269  23.271  26.125  1.00  0.00     0.004 C 
ENDBRANCH   7   8
ENDBRANCH   6   7
ENDBRANCH   5   6
BRANCH   5  10
ATOM     10  C   UNL A   1      30.819  25.099  25.334  1.00  0.00     0.103 C 
ATOM     11  C   UNL A   1      29.801  25.705  24.320  1.00  0.00     0.048 C 
BRANCH  10  12
ATOM     12  O   UNL A   1      29.971  24.918  26.478  1.00  0.00    -0.384 OA
ATOM     13  H   UNL A   1      30.381  25.332  27.253  1.00  0.00     0.211 HD
ENDBRANCH  10  12
BRANCH  10  14
ATOM     14  C   UNL A   1      31.407  23.740  24.896  1.00  0.00     0.020 A 
ATOM     15  C   UNL A   1      31.385  22.600  25.729  1.00  0.00     0.013 A 
ATOM     16  C   UNL A   1      31.915  23.543  23.599  1.00  0.00     0.132 A 
ATOM     17  C   UNL A   1      31.796  21.343  25.268  1.00  0.00     0.040 A 
ATOM     18  C   UNL A   1      32.308  22.293  23.123  1.00  0.00     0.078 A 
ATOM     19  F   UNL A   1      32.062  24.570  22.758  1.00  0.00    -0.206 F 
ATOM     20  C   UNL A   1      32.235  21.198  23.962  1.00  0.00     0.126 A 
ATOM     21  F   UNL A   1      32.578  19.985  23.511  1.00  0.00    -0.207 F 
ENDBRANCH  10  14
ENDBRANCH   5  10
ENDBRANCH   3   5
ENDBRANCH   2   3
ENDBRANCH   1   2
BRANCH   1  22
ATOM     22  C   UNL A   1      33.465  29.771  26.173  1.00  0.00     0.275 C 
BRANCH  22  23
ATOM     23  O   UNL A   1      34.007  29.456  27.464  1.00  0.00    -0.458 OA
BRANCH  23  24
ATOM     24  C   UNL A   1      34.633  30.487  28.088  1.00  0.00     0.338 C 
ATOM     25  O   UNL A   1      34.132  31.516  28.496  1.00  0.00    -0.246 OA
BRANCH  24  26
ATOM     26  C   UNL A   1      36.022  30.090  28.369  1.00  0.00     0.060 A 
ATOM     27  C   UNL A   1      36.919  30.083  27.301  1.00  0.00     0.016 A 
ATOM     28  C   UNL A   1      36.446  29.735  29.648  1.00  0.00     0.016 A 
ATOM     29  C   UNL A   1      38.257  29.779  27.501  1.00  0.00     0.010 A 
ATOM     30  C   UNL A   1      37.787  29.397  29.849  1.00  0.00     0.010 A 
ATOM     31  C   UNL A   1      38.698  29.433  28.779  1.00  0.00    -0.014 A 
BRANCH  31  32
ATOM     32  C   UNL A   1      40.109  29.052  28.985  1.00  0.00     0.031 A 
ATOM     33  C   UNL A   1      41.086  30.099  29.419  1.00  0.00     0.074 A 
ATOM     34  C   UNL A   1      40.499  27.780  28.786  1.00  0.00     0.049 A 
ATOM     35  N   UNL A   1      42.387  30.034  29.494  1.00  0.00    -0.248 NA
ATOM     36  C   UNL A   1      40.518  31.395  29.827  1.00  0.00     0.031 C 
ATOM     37  C   UNL A   1      39.609  26.667  28.454  1.00  0.00     0.029 A 
ATOM     38  N   UNL A   1      41.749  27.218  28.809  1.00  0.00    -0.354 N 
ATOM     39  C   UNL A   1      42.800  31.286  29.931  1.00  0.00     0.074 A 
ATOM     40  C   UNL A   1      41.611  32.092  30.103  1.00  0.00     0.031 C 
ATOM     41  C   UNL A   1      40.348  25.560  28.270  1.00  0.00     0.029 A 
ATOM     42  C   UNL A   1      41.761  25.901  28.413  1.00  0.00     0.049 A 
ATOM     43  H   UNL A   1      42.559  27.708  29.083  1.00  0.00     0.167 HD
ATOM     44  C   UNL A   1      44.063  31.716  30.155  1.00  0.00     0.037 A 
ATOM     45  C   UNL A   1      42.800  25.087  28.140  1.00  0.00     0.037 A 
ATOM     46  C   UNL A   1      45.230  30.894  29.971  1.00  0.00     0.049 A 
ATOM     47  C   UNL A   1      44.200  25.624  28.286  1.00  0.00     0.074 A 
ATOM     48  C   UNL A   1      46.557  31.226  30.173  1.00  0.00     0.029 A 
ATOM     49  N   UNL A   1      45.210  29.579  29.527  1.00  0.00    -0.354 N 
ATOM     50  N   UNL A   1      44.590  26.809  28.695  1.00  0.00    -0.248 NA
ATOM     51  C   UNL A   1      45.302  24.723  27.923  1.00  0.00     0.031 C 
ATOM     52  C   UNL A   1      47.342  30.134  29.792  1.00  0.00     0.029 A 
ATOM     53  C   UNL A   1      46.503  29.098  29.410  1.00  0.00     0.049 A 
ATOM     54  H   UNL A   1      44.396  29.063  29.324  1.00  0.00     0.167 HD
ATOM     55  C   UNL A   1      45.981  26.789  28.653  1.00  0.00     0.074 A 
ATOM     56  C   UNL A   1      46.364  25.469  28.197  1.00  0.00     0.031 C 
ATOM     57  C   UNL A   1      46.862  27.776  28.958  1.00  0.00     0.037 A 
BRANCH  44  58
ATOM     58  C   UNL A   1      44.250  33.148  30.567  1.00  0.00     0.058 A 
ATOM     59  C   UNL A   1      44.358  33.530  31.913  1.00  0.00     0.135 A 
ATOM     60  C   UNL A   1      44.352  34.154  29.591  1.00  0.00     0.135 A 
ATOM     61  F   UNL A   1      44.243  32.613  32.888  1.00  0.00    -0.206 F 
ATOM     62  C   UNL A   1      44.542  34.859  32.279  1.00  0.00     0.059 A 
ATOM     63  C   UNL A   1      44.566  35.486  29.932  1.00  0.00     0.059 A 
ATOM     64  F   UNL A   1      44.248  33.845  28.289  1.00  0.00    -0.206 F 
ATOM     65  C   UNL A   1      44.648  35.830  31.280  1.00  0.00     0.060 A 
BRANCH  65  66
ATOM     66  S   UNL A   1      44.901  37.548  31.771  1.00  0.00     0.124 S 
ATOM     67  O   UNL A   1      45.704  37.391  32.980  1.00  0.00    -0.237 OA
ATOM     68  O   UNL A   1      45.599  38.102  30.616  1.00  0.00    -0.237 OA
ATOM     69  O   UNL A   1      43.545  38.047  31.981  1.00  0.00    -0.744 OA
ENDBRANCH  65  66
ENDBRANCH  44  58
BRANCH  45  70
ATOM     70  C   UNL A   1      42.557  23.705  27.643  1.00  0.00     0.058 A 
ATOM     71  C   UNL A   1      42.547  22.610  28.518  1.00  0.00     0.135 A 
ATOM     72  C   UNL A   1      42.337  23.452  26.278  1.00  0.00     0.135 A 
ATOM     73  F   UNL A   1      42.767  22.796  29.828  1.00  0.00    -0.206 F 
ATOM     74  C   UNL A   1      42.343  21.312  28.059  1.00  0.00     0.059 A 
ATOM     75  C   UNL A   1      42.100  22.167  25.799  1.00  0.00     0.059 A 
ATOM     76  F   UNL A   1      42.333  24.463  25.397  1.00  0.00    -0.206 F 
ATOM     77  C   UNL A   1      42.116  21.101  26.698  1.00  0.00     0.060 A 
BRANCH  77  78
ATOM     78  S   UNL A   1      41.814  19.416  26.122  1.00  0.00     0.124 S 
ATOM     79  O   UNL A   1      40.400  19.476  25.766  1.00  0.00    -0.237 OA
ATOM     80  O   UNL A   1      42.748  19.303  25.007  1.00  0.00    -0.237 OA
ATOM     81  O   UNL A   1      42.137  18.597  27.286  1.00  0.00    -0.744 OA
ENDBRANCH  77  78
ENDBRANCH  45  70
BRANCH  57  82
ATOM     82  C   UNL A   1      48.328  27.463  28.832  1.00  0.00     0.058 A 
ATOM     83  C   UNL A   1      49.068  27.850  27.704  1.00  0.00     0.135 A 
ATOM     84  C   UNL A   1      49.017  26.845  29.889  1.00  0.00     0.135 A 
ATOM     85  F   UNL A   1      48.457  28.435  26.663  1.00  0.00    -0.206 F 
ATOM     86  C   UNL A   1      50.438  27.627  27.624  1.00  0.00     0.059 A 
ATOM     87  C   UNL A   1      50.392  26.639  29.842  1.00  0.00     0.059 A 
ATOM     88  F   UNL A   1      48.358  26.463  30.994  1.00  0.00    -0.206 F 
ATOM     89  C   UNL A   1      51.094  27.029  28.703  1.00  0.00     0.060 A 
BRANCH  89  90
ATOM     90  S   UNL A   1      52.882  26.806  28.610  1.00  0.00     0.124 S 
ATOM     91  O   UNL A   1      52.997  25.757  27.603  1.00  0.00    -0.237 OA
ATOM     92  O   UNL A   1      53.341  28.131  28.203  1.00  0.00    -0.237 OA
ATOM     93  O   UNL A   1      53.248  26.413  29.968  1.00  0.00    -0.744 OA
ENDBRANCH  89  90
ENDBRANCH  57  82
ENDBRANCH  31  32
ENDBRANCH  24  26
ENDBRANCH  23  24
ENDBRANCH  22  23
ENDBRANCH   1  22
TORSDOF 20
ENDMDL
MODEL 2
REMARK VINA RESULT:      -9.9      3.809      9.603
REMARK SMILES CCCC[C@H](C(=O)OCCOC(=O)c1ccc(-c2c3nc(c(-c4c(F)cc(S(=O)(=O)[O-])cc4F)c4ccc([nH]4)c(-c4c(F)cc(S(=O)(=O)[O-])cc4F)c4nc(c(-c5c(F)cc(S(=O)(=O)[O-])cc5F)c5ccc2[nH]5)C=C4)C=C3)cc1)[C@](C)(O)c1ccc(F)cc1F
REMARK SMILES IDX 9 1 8 2 6 3 7 4 5 5 4 6 3 7 2 8 1 9 80 10 81 11 82 12 83 14
REMARK SMILES IDX 84 15 89 16 85 17 88 18 90 19 86 20 87 21 10 22 11 23 12 24
REMARK SMILES IDX 13 25 14 26 15 27 79 28 16 29 78 30 17 31 18 32 19 33 72 34
REMARK SMILES IDX 20 35 77 36 71 37 73 38 21 39 76 40 70 41 69 42 22 44 56 45
REMARK SMILES IDX 35 46 55 47 36 48 39 49 54 50 74 51 37 52 38 53 53 55 75 56
REMARK SMILES IDX 40 57 23 58 24 59 33 60 25 61 26 62 32 63 34 64 27 65 28 66
REMARK SMILES IDX 29 67 30 68 31 69 57 70 58 71 67 72 59 73 60 74 66 75 68 76
REMARK SMILES IDX 61 77 62 78 63 79 64 80 65 81 41 82 42 83 51 84 43 85 44 86
REMARK SMILES IDX 50 87 52 88 45 89 46 90 47 91 48 92 49 93
REMARK H PARENT 82 13 73 43 39 54
REMARK Flexibility Score: inf
ROOT
ATOM      1  C   UNL A   1      35.952  21.823  25.359  1.00  0.00     0.274 C 
ENDROOT
BRANCH   1   2
ATOM      2  O   UNL A   1      34.926  21.336  26.247  1.00  0.00    -0.462 OA
BRANCH   2   3
ATOM      3  C   UNL A   1      33.756  20.927  25.667  1.00  0.00     0.312 C 
ATOM      4  O   UNL A   1      33.401  19.760  25.677  1.00  0.00    -0.252 OA
BRANCH   3   5
ATOM      5  C   UNL A   1      32.967  22.130  25.123  1.00  0.00     0.135 C 
BRANCH   5   6
ATOM      6  C   UNL A   1      32.321  22.002  23.713  1.00  0.00     0.019 C 
BRANCH   6   7
ATOM      7  C   UNL A   1      32.940  22.698  22.493  1.00  0.00     0.001 C 
BRANCH   7   8
ATOM      8  C   UNL A   1      33.671  24.018  22.757  1.00  0.00    -0.003 C 
ATOM      9  C   UNL A   1      32.911  25.247  22.295  1.00  0.00     0.004 C 
ENDBRANCH   7   8
ENDBRANCH   6   7
ENDBRANCH   5   6
BRANCH   5  10
ATOM     10  C   UNL A   1      32.002  22.838  26.174  1.00  0.00     0.103 C 
ATOM     11  C   UNL A   1      32.549  22.586  27.612  1.00  0.00     0.048 C 
BRANCH  10  12
ATOM     12  O   UNL A   1      30.759  22.124  26.238  1.00  0.00    -0.384 OA
ATOM     13  H   UNL A   1      30.519  21.976  27.167  1.00  0.00     0.211 HD
ENDBRANCH  10  12
BRANCH  10  14
ATOM     14  C   UNL A   1      31.738  24.326  25.856  1.00  0.00     0.020 A 
ATOM     15  C   UNL A   1      30.464  24.807  25.481  1.00  0.00     0.013 A 
ATOM     16  C   UNL A   1      32.739  25.302  26.017  1.00  0.00     0.132 A 
ATOM     17  C   UNL A   1      30.208  26.176  25.331  1.00  0.00     0.040 A 
ATOM     18  C   UNL A   1      32.491  26.668  25.889  1.00  0.00     0.078 A 
ATOM     19  F   UNL A   1      33.999  24.951  26.285  1.00  0.00    -0.206 F 
ATOM     20  C   UNL A   1      31.220  27.095  25.556  1.00  0.00     0.126 A 
ATOM     21  F   UNL A   1      30.958  28.404  25.462  1.00  0.00    -0.207 F 
ENDBRANCH  10  14
ENDBRANCH   5  10
ENDBRANCH   3   5
ENDBRANCH   2   3
ENDBRANCH   1   2
BRANCH   1  22
ATOM     22  C   UNL A   1      36.519  23.155  25.853  1.00  0.00     0.275 C 
BRANCH  22  23
ATOM     23  O   UNL A   1      37.781  23.447  25.236  1.00  0.00    -0.458 OA
BRANCH  23  24
ATOM     24  C   UNL A   1      38.870  23.112  25.975  1.00  0.00     0.338 C 
ATOM     25  O   UNL A   1      39.491  22.068  25.943  1.00  0.00    -0.246 OA
BRANCH  24  26
ATOM     26  C   UNL A   1      39.314  24.302  26.719  1.00  0.00     0.060 A 
ATOM     27  C   UNL A   1      38.871  24.442  28.035  1.00  0.00     0.016 A 
ATOM     28  C   UNL A   1      40.150  25.261  26.151  1.00  0.00     0.016 A 
ATOM     29  C   UNL A   1      39.298  25.505  28.817  1.00  0.00     0.010 A 
ATOM     30  C   UNL A   1      40.558  26.350  26.925  1.00  0.00     0.010 A 
ATOM     31  C   UNL A   1      40.144  26.467  28.264  1.00  0.00    -0.014 A 
BRANCH  31  32
ATOM     32  C   UNL A   1      40.553  27.631  29.075  1.00  0.00     0.031 A 
ATOM     33  C   UNL A   1      41.827  27.556  29.856  1.00  0.00     0.074 A 
ATOM     34  C   UNL A   1      39.787  28.735  29.102  1.00  0.00     0.049 A 
ATOM     35  N   UNL A   1      42.290  28.377  30.759  1.00  0.00    -0.248 NA
ATOM     36  C   UNL A   1      42.698  26.401  29.580  1.00  0.00     0.031 C 
ATOM     37  C   UNL A   1      38.577  28.943  28.303  1.00  0.00     0.029 A 
ATOM     38  N   UNL A   1      39.899  29.880  29.847  1.00  0.00    -0.354 N 
ATOM     39  C   UNL A   1      43.494  27.828  31.181  1.00  0.00     0.074 A 
ATOM     40  C   UNL A   1      43.689  26.603  30.437  1.00  0.00     0.031 C 
ATOM     41  C   UNL A   1      38.040  30.130  28.630  1.00  0.00     0.029 A 
ATOM     42  C   UNL A   1      38.833  30.735  29.697  1.00  0.00     0.049 A 
ATOM     43  H   UNL A   1      40.668  30.071  30.432  1.00  0.00     0.167 HD
ATOM     44  C   UNL A   1      44.347  28.308  32.115  1.00  0.00     0.037 A 
ATOM     45  C   UNL A   1      38.509  31.846  30.387  1.00  0.00     0.037 A 
ATOM     46  C   UNL A   1      44.127  29.528  32.845  1.00  0.00     0.049 A 
ATOM     47  C   UNL A   1      39.416  32.298  31.502  1.00  0.00     0.074 A 
ATOM     48  C   UNL A   1      44.928  30.110  33.810  1.00  0.00     0.029 A 
ATOM     49  N   UNL A   1      43.015  30.347  32.700  1.00  0.00    -0.354 N 
ATOM     50  N   UNL A   1      40.551  31.776  31.904  1.00  0.00    -0.248 NA
ATOM     51  C   UNL A   1      38.996  33.480  32.267  1.00  0.00     0.031 C 
ATOM     52  C   UNL A   1      44.272  31.246  34.293  1.00  0.00     0.029 A 
ATOM     53  C   UNL A   1      43.090  31.409  33.587  1.00  0.00     0.049 A 
ATOM     54  H   UNL A   1      42.281  30.196  32.061  1.00  0.00     0.167 HD
ATOM     55  C   UNL A   1      40.988  32.575  32.957  1.00  0.00     0.074 A 
ATOM     56  C   UNL A   1      40.003  33.625  33.117  1.00  0.00     0.031 C 
ATOM     57  C   UNL A   1      42.099  32.448  33.726  1.00  0.00     0.037 A 
BRANCH  44  58
ATOM     58  C   UNL A   1      45.562  27.485  32.438  1.00  0.00     0.058 A 
ATOM     59  C   UNL A   1      45.547  26.488  33.425  1.00  0.00     0.135 A 
ATOM     60  C   UNL A   1      46.756  27.681  31.724  1.00  0.00     0.135 A 
ATOM     61  F   UNL A   1      44.440  26.274  34.154  1.00  0.00    -0.206 F 
ATOM     62  C   UNL A   1      46.676  25.726  33.706  1.00  0.00     0.059 A 
ATOM     63  C   UNL A   1      47.890  26.912  31.968  1.00  0.00     0.059 A 
ATOM     64  F   UNL A   1      46.828  28.629  30.775  1.00  0.00    -0.206 F 
ATOM     65  C   UNL A   1      47.843  25.945  32.970  1.00  0.00     0.060 A 
BRANCH  65  66
ATOM     66  S   UNL A   1      49.295  24.938  33.337  1.00  0.00     0.124 S 
ATOM     67  O   UNL A   1      48.685  23.744  33.915  1.00  0.00    -0.237 OA
ATOM     68  O   UNL A   1      49.896  24.766  32.019  1.00  0.00    -0.237 OA
ATOM     69  O   UNL A   1      50.057  25.765  34.268  1.00  0.00    -0.744 OA
ENDBRANCH  65  66
ENDBRANCH  44  58
BRANCH  45  70
ATOM     70  C   UNL A   1      37.242  32.569  30.088  1.00  0.00     0.058 A 
ATOM     71  C   UNL A   1      37.226  33.682  29.236  1.00  0.00     0.135 A 
ATOM     72  C   UNL A   1      36.022  32.164  30.656  1.00  0.00     0.135 A 
ATOM     73  F   UNL A   1      38.365  34.119  28.680  1.00  0.00    -0.206 F 
ATOM     74  C   UNL A   1      36.050  34.378  28.968  1.00  0.00     0.059 A 
ATOM     75  C   UNL A   1      34.829  32.825  30.380  1.00  0.00     0.059 A 
ATOM     76  F   UNL A   1      35.980  31.103  31.477  1.00  0.00    -0.206 F 
ATOM     77  C   UNL A   1      34.856  33.939  29.542  1.00  0.00     0.060 A 
BRANCH  77  78
ATOM     78  S   UNL A   1      33.331  34.828  29.155  1.00  0.00     0.124 S 
ATOM     79  O   UNL A   1      32.716  34.942  30.472  1.00  0.00    -0.237 OA
ATOM     80  O   UNL A   1      33.840  36.068  28.578  1.00  0.00    -0.237 OA
ATOM     81  O   UNL A   1      32.652  33.940  28.216  1.00  0.00    -0.744 OA
ENDBRANCH  77  78
ENDBRANCH  45  70
BRANCH  57  82
ATOM     82  C   UNL A   1      42.326  33.480  34.796  1.00  0.00     0.058 A 
ATOM     83  C   UNL A   1      42.900  34.727  34.506  1.00  0.00     0.135 A 
ATOM     84  C   UNL A   1      41.885  33.251  36.110  1.00  0.00     0.135 A 
ATOM     85  F   UNL A   1      43.346  34.994  33.269  1.00  0.00    -0.206 F 
ATOM     86  C   UNL A   1      43.038  35.707  35.482  1.00  0.00     0.059 A 
ATOM     87  C   UNL A   1      41.987  34.228  37.096  1.00  0.00     0.059 A 
ATOM     88  F   UNL A   1      41.321  32.078  36.439  1.00  0.00    -0.206 F 
ATOM     89  C   UNL A   1      42.569  35.452  36.773  1.00  0.00     0.060 A 
BRANCH  89  90
ATOM     90  S   UNL A   1      42.697  36.758  38.012  1.00  0.00     0.124 S 
ATOM     91  O   UNL A   1      43.523  37.742  37.320  1.00  0.00    -0.237 OA
ATOM     92  O   UNL A   1      41.301  37.132  38.215  1.00  0.00    -0.237 OA
ATOM     93  O   UNL A   1      43.333  36.092  39.145  1.00  0.00    -0.744 OA
ENDBRANCH  89  90
ENDBRANCH  57  82
ENDBRANCH  31  32
ENDBRANCH  24  26
ENDBRANCH  23  24
ENDBRANCH  22  23
ENDBRANCH   1  22
TORSDOF 20
ENDMDL
MODEL 3
REMARK VINA RESULT:      -9.9      1.150      2.374
REMARK SMILES CCCC[C@H](C(=O)OCCOC(=O)c1ccc(-c2c3nc(c(-c4c(F)cc(S(=O)(=O)[O-])cc4F)c4ccc([nH]4)c(-c4c(F)cc(S(=O)(=O)[O-])cc4F)c4nc(c(-c5c(F)cc(S(=O)(=O)[O-])cc5F)c5ccc2[nH]5)C=C4)C=C3)cc1)[C@](C)(O)c1ccc(F)cc1F
REMARK SMILES IDX 9 1 8 2 6 3 7 4 5 5 4 6 3 7 2 8 1 9 80 10 81 11 82 12 83 14
REMARK SMILES IDX 84 15 89 16 85 17 88 18 90 19 86 20 87 21 10 22 11 23 12 24
REMARK SMILES IDX 13 25 14 26 15 27 79 28 16 29 78 30 17 31 18 32 19 33 72 34
REMARK SMILES IDX 20 35 77 36 71 37 73 38 21 39 76 40 70 41 69 42 22 44 56 45
REMARK SMILES IDX 35 46 55 47 36 48 39 49 54 50 74 51 37 52 38 53 53 55 75 56
REMARK SMILES IDX 40 57 23 58 24 59 33 60 25 61 26 62 32 63 34 64 27 65 28 66
REMARK SMILES IDX 29 67 30 68 31 69 57 70 58 71 67 72 59 73 60 74 66 75 68 76
REMARK SMILES IDX 61 77 62 78 63 79 64 80 65 81 41 82 42 83 51 84 43 85 44 86
REMARK SMILES IDX 50 87 52 88 45 89 46 90 47 91 48 92 49 93
REMARK H PARENT 82 13 73 43 39 54
REMARK Flexibility Score: inf
ROOT
ATOM      1  C   UNL A   1      32.593  28.329  25.691  1.00  0.00     0.274 C 
ENDROOT
BRANCH   1   2
ATOM      2  O   UNL A   1      32.646  28.420  24.253  1.00  0.00    -0.462 OA
BRANCH   2   3
ATOM      3  C   UNL A   1      31.632  27.816  23.562  1.00  0.00     0.312 C 
ATOM      4  O   UNL A   1      31.001  28.398  22.695  1.00  0.00    -0.252 OA
BRANCH   3   5
ATOM      5  C   UNL A   1      31.499  26.338  23.969  1.00  0.00     0.135 C 
BRANCH   5   6
ATOM      6  C   UNL A   1      30.110  25.839  24.461  1.00  0.00     0.019 C 
BRANCH   6   7
ATOM      7  C   UNL A   1      29.924  25.289  25.882  1.00  0.00     0.001 C 
BRANCH   7   8
ATOM      8  C   UNL A   1      30.857  24.147  26.299  1.00  0.00    -0.003 C 
ATOM      9  C   UNL A   1      30.137  22.942  26.876  1.00  0.00     0.004 C 
ENDBRANCH   7   8
ENDBRANCH   6   7
ENDBRANCH   5   6
BRANCH   5  10
ATOM     10  C   UNL A   1      32.209  25.300  22.992  1.00  0.00     0.103 C 
ATOM     11  C   UNL A   1      32.455  25.988  21.615  1.00  0.00     0.048 C 
BRANCH  10  12
ATOM     12  O   UNL A   1      31.272  24.283  22.612  1.00  0.00    -0.384 OA
ATOM     13  H   UNL A   1      30.372  24.645  22.642  1.00  0.00     0.211 HD
ENDBRANCH  10  12
BRANCH  10  14
ATOM     14  C   UNL A   1      33.471  24.651  23.602  1.00  0.00     0.020 A 
ATOM     15  C   UNL A   1      34.080  25.137  24.780  1.00  0.00     0.013 A 
ATOM     16  C   UNL A   1      34.028  23.477  23.063  1.00  0.00     0.132 A 
ATOM     17  C   UNL A   1      35.138  24.457  25.397  1.00  0.00     0.040 A 
ATOM     18  C   UNL A   1      35.068  22.782  23.678  1.00  0.00     0.078 A 
ATOM     19  F   UNL A   1      33.586  22.980  21.905  1.00  0.00    -0.206 F 
ATOM     20  C   UNL A   1      35.609  23.275  24.850  1.00  0.00     0.126 A 
ATOM     21  F   UNL A   1      36.586  22.602  25.470  1.00  0.00    -0.207 F 
ENDBRANCH  10  14
ENDBRANCH   5  10
ENDBRANCH   3   5
ENDBRANCH   2   3
ENDBRANCH   1   2
BRANCH   1  22
ATOM     22  C   UNL A   1      33.965  28.596  26.310  1.00  0.00     0.275 C 
BRANCH  22  23
ATOM     23  O   UNL A   1      33.851  29.002  27.681  1.00  0.00    -0.458 OA
BRANCH  23  24
ATOM     24  C   UNL A   1      34.519  30.142  27.997  1.00  0.00     0.338 C 
ATOM     25  O   UNL A   1      34.048  31.249  28.172  1.00  0.00    -0.246 OA
BRANCH  24  26
ATOM     26  C   UNL A   1      35.921  29.799  28.282  1.00  0.00     0.060 A 
ATOM     27  C   UNL A   1      36.847  29.963  27.250  1.00  0.00     0.016 A 
ATOM     28  C   UNL A   1      36.331  29.331  29.528  1.00  0.00     0.016 A 
ATOM     29  C   UNL A   1      38.195  29.718  27.463  1.00  0.00     0.010 A 
ATOM     30  C   UNL A   1      37.684  29.053  29.738  1.00  0.00     0.010 A 
ATOM     31  C   UNL A   1      38.621  29.260  28.710  1.00  0.00    -0.014 A 
BRANCH  31  32
ATOM     32  C   UNL A   1      40.047  28.942  28.923  1.00  0.00     0.031 A 
ATOM     33  C   UNL A   1      40.972  30.031  29.366  1.00  0.00     0.074 A 
ATOM     34  C   UNL A   1      40.495  27.691  28.721  1.00  0.00     0.049 A 
ATOM     35  N   UNL A   1      42.275  30.025  29.447  1.00  0.00    -0.248 NA
ATOM     36  C   UNL A   1      40.344  31.299  29.775  1.00  0.00     0.031 C 
ATOM     37  C   UNL A   1      39.657  26.539  28.381  1.00  0.00     0.029 A 
ATOM     38  N   UNL A   1      41.769  27.185  28.749  1.00  0.00    -0.354 N 
ATOM     39  C   UNL A   1      42.629  31.292  29.890  1.00  0.00     0.074 A 
ATOM     40  C   UNL A   1      41.403  32.043  30.059  1.00  0.00     0.031 C 
ATOM     41  C   UNL A   1      40.447  25.467  28.198  1.00  0.00     0.029 A 
ATOM     42  C   UNL A   1      41.843  25.871  28.349  1.00  0.00     0.049 A 
ATOM     43  H   UNL A   1      42.554  27.710  29.030  1.00  0.00     0.167 HD
ATOM     44  C   UNL A   1      43.869  31.778  30.123  1.00  0.00     0.037 A 
ATOM     45  C   UNL A   1      42.918  25.106  28.079  1.00  0.00     0.037 A 
ATOM     46  C   UNL A   1      45.074  31.011  29.943  1.00  0.00     0.049 A 
ATOM     47  C   UNL A   1      44.292  25.705  28.235  1.00  0.00     0.074 A 
ATOM     48  C   UNL A   1      46.383  31.402  30.153  1.00  0.00     0.029 A 
ATOM     49  N   UNL A   1      45.116  29.697  29.494  1.00  0.00    -0.354 N 
ATOM     50  N   UNL A   1      44.626  26.906  28.649  1.00  0.00    -0.248 NA
ATOM     51  C   UNL A   1      45.436  24.857  27.874  1.00  0.00     0.031 C 
ATOM     52  C   UNL A   1      47.218  30.348  29.773  1.00  0.00     0.029 A 
ATOM     53  C   UNL A   1      46.430  29.276  29.382  1.00  0.00     0.049 A 
ATOM     54  H   UNL A   1      44.326  29.146  29.285  1.00  0.00     0.167 HD
ATOM     55  C   UNL A   1      46.017  26.949  28.614  1.00  0.00     0.074 A 
ATOM     56  C   UNL A   1      46.461  25.649  28.156  1.00  0.00     0.031 C 
ATOM     57  C   UNL A   1      46.851  27.973  28.928  1.00  0.00     0.037 A 
BRANCH  44  58
ATOM     58  C   UNL A   1      43.989  33.216  30.541  1.00  0.00     0.058 A 
ATOM     59  C   UNL A   1      44.072  34.260  29.607  1.00  0.00     0.135 A 
ATOM     60  C   UNL A   1      43.990  33.556  31.904  1.00  0.00     0.135 A 
ATOM     61  F   UNL A   1      44.100  33.990  28.291  1.00  0.00    -0.206 F 
ATOM     62  C   UNL A   1      44.171  35.588  30.008  1.00  0.00     0.059 A 
ATOM     63  C   UNL A   1      44.059  34.879  32.328  1.00  0.00     0.059 A 
ATOM     64  F   UNL A   1      43.921  32.596  32.840  1.00  0.00    -0.206 F 
ATOM     65  C   UNL A   1      44.161  35.887  31.372  1.00  0.00     0.060 A 
BRANCH  65  66
ATOM     66  S   UNL A   1      44.276  37.617  31.875  1.00  0.00     0.124 S 
ATOM     67  O   UNL A   1      43.406  37.639  33.048  1.00  0.00    -0.237 OA
ATOM     68  O   UNL A   1      45.702  37.769  32.143  1.00  0.00    -0.237 OA
ATOM     69  O   UNL A   1      43.777  38.345  30.713  1.00  0.00    -0.744 OA
ENDBRANCH  65  66
ENDBRANCH  44  58
BRANCH  45  70
ATOM     70  C   UNL A   1      42.741  23.717  27.576  1.00  0.00     0.058 A 
ATOM     71  C   UNL A   1      42.691  23.443  26.202  1.00  0.00     0.135 A 
ATOM     72  C   UNL A   1      42.611  22.633  28.462  1.00  0.00     0.135 A 
ATOM     73  F   UNL A   1      42.795  24.443  25.314  1.00  0.00    -0.206 F 
ATOM     74  C   UNL A   1      42.504  22.150  25.722  1.00  0.00     0.059 A 
ATOM     75  C   UNL A   1      42.454  21.328  28.007  1.00  0.00     0.059 A 
ATOM     76  F   UNL A   1      42.655  22.838  29.787  1.00  0.00    -0.206 F 
ATOM     77  C   UNL A   1      42.390  21.098  26.633  1.00  0.00     0.060 A 
BRANCH  77  78
ATOM     78  S   UNL A   1      42.186  19.420  25.997  1.00  0.00     0.124 S 
ATOM     79  O   UNL A   1      40.749  19.371  25.751  1.00  0.00    -0.237 OA
ATOM     80  O   UNL A   1      43.036  19.438  24.811  1.00  0.00    -0.237 OA
ATOM     81  O   UNL A   1      42.668  18.582  27.092  1.00  0.00    -0.744 OA
ENDBRANCH  77  78
ENDBRANCH  45  70
BRANCH  57  82
ATOM     82  C   UNL A   1      48.329  27.727  28.809  1.00  0.00     0.058 A 
ATOM     83  C   UNL A   1      49.048  27.064  29.816  1.00  0.00     0.135 A 
ATOM     84  C   UNL A   1      49.018  28.083  27.637  1.00  0.00     0.135 A 
ATOM     85  F   UNL A   1      48.441  26.711  30.959  1.00  0.00    -0.206 F 
ATOM     86  C   UNL A   1      50.400  26.770  29.669  1.00  0.00     0.059 A 
ATOM     87  C   UNL A   1      50.362  27.773  27.457  1.00  0.00     0.059 A 
ATOM     88  F   UNL A   1      48.375  28.711  26.640  1.00  0.00    -0.206 F 
ATOM     89  C   UNL A   1      51.046  27.120  28.481  1.00  0.00     0.060 A 
BRANCH  89  90
ATOM     90  S   UNL A   1      52.783  26.674  28.280  1.00  0.00     0.124 S 
ATOM     91  O   UNL A   1      53.144  26.274  29.636  1.00  0.00    -0.237 OA
ATOM     92  O   UNL A   1      52.716  25.597  27.297  1.00  0.00    -0.237 OA
ATOM     93  O   UNL A   1      53.400  27.910  27.806  1.00  0.00    -0.744 OA
ENDBRANCH  89  90
ENDBRANCH  57  82
ENDBRANCH  31  32
ENDBRANCH  24  26
ENDBRANCH  23  24
ENDBRANCH  22  23
ENDBRANCH   1  22
TORSDOF 20
ENDMDL
