MODEL 1
REMARK VINA RESULT:     -12.4      0.000      0.000
REMARK SMILES CC1=C(C(=O)OCCOC(=O)c2ccc(-c3c4nc(c(-c5c(F)cc(S(=O)(=O)[O-])cc5F)c5ccc([nH]5)c(-c5c(F)cc(S(=O)(=O)[O-])cc5F)c5nc(c(-c6c(F)cc(S(=O)(=O)[O-])cc6F)c6ccc3[nH]6)C=C5)C=C4)cc2)[C@H](c2ccc(Cl)cc2)n2ncnc2N1
REMARK SMILES IDX 8 1 7 2 6 3 4 4 5 5 3 6 1 7 2 8 91 9 78 10 90 11 86 13 89 14
REMARK SMILES IDX 87 15 88 16 79 17 80 18 85 19 81 20 84 21 82 22 83 23 9 24
REMARK SMILES IDX 10 25 11 26 12 27 13 28 77 29 14 30 76 31 15 32 16 33 17 34
REMARK SMILES IDX 70 35 18 36 75 37 69 38 71 39 19 40 74 41 68 42 67 43 20 45
REMARK SMILES IDX 54 46 33 47 53 48 34 49 37 50 52 51 72 52 35 53 36 54 51 56
REMARK SMILES IDX 73 57 38 58 21 59 22 60 31 61 23 62 24 63 30 64 32 65 25 66
REMARK SMILES IDX 26 67 27 68 28 69 29 70 55 71 56 72 65 73 57 74 58 75 64 76
REMARK SMILES IDX 66 77 59 78 60 79 61 80 62 81 63 82 39 83 40 84 49 85 41 86
REMARK SMILES IDX 42 87 48 88 50 89 43 90 44 91 45 92 46 93 47 94
REMARK H PARENT 91 12 71 44 37 55
REMARK Flexibility Score: inf
ROOT
ATOM      1  C   UNL A   1      37.995  21.656  25.530  1.00  0.00     0.275 C 
ENDROOT
BRANCH   1   2
ATOM      2  C   UNL A   1      36.470  21.662  25.567  1.00  0.00     0.275 C 
BRANCH   2   3
ATOM      3  O   UNL A   1      35.957  22.974  25.878  1.00  0.00    -0.459 OA
BRANCH   3   4
ATOM      4  C   UNL A   1      35.371  23.660  24.866  1.00  0.00     0.338 C 
ATOM      5  O   UNL A   1      35.935  23.879  23.802  1.00  0.00    -0.246 OA
BRANCH   4   6
ATOM      6  C   UNL A   1      33.930  23.981  25.116  1.00  0.00     0.085 C 
ATOM      7  C   UNL A   1      34.116  26.469  24.553  1.00  0.00     0.065 C 
ATOM      8  C   UNL A   1      33.383  25.224  24.994  1.00  0.00     0.028 C 
ATOM      9  N   UNL A   1      32.059  25.444  25.358  1.00  0.00    -0.328 N 
ATOM     10  C   UNL A   1      33.102  22.817  25.722  1.00  0.00     0.181 C 
ATOM     11  C   UNL A   1      31.314  24.551  26.025  1.00  0.00     0.226 A 
ATOM     12  H   UNL A   1      31.645  26.302  25.111  1.00  0.00     0.169 HD
ATOM     13  N   UNL A   1      31.831  23.314  26.287  1.00  0.00    -0.219 N 
ATOM     14  N   UNL A   1      30.106  24.641  26.520  1.00  0.00    -0.200 NA
ATOM     15  N   UNL A   1      30.971  22.576  27.026  1.00  0.00    -0.157 NA
ATOM     16  C   UNL A   1      29.945  23.430  27.139  1.00  0.00     0.248 A 
BRANCH  10  17
ATOM     17  C   UNL A   1      32.833  21.632  24.774  1.00  0.00    -0.018 A 
ATOM     18  C   UNL A   1      32.381  21.799  23.453  1.00  0.00     0.008 A 
ATOM     19  C   UNL A   1      33.013  20.314  25.236  1.00  0.00     0.008 A 
ATOM     20  C   UNL A   1      32.153  20.694  22.624  1.00  0.00     0.021 A 
ATOM     21  C   UNL A   1      32.845  19.212  24.393  1.00  0.00     0.021 A 
ATOM     22  C   UNL A   1      32.415  19.408  23.088  1.00  0.00     0.041 A 
ATOM     23  Cl  UNL A   1      32.205  18.058  22.043  1.00  0.00    -0.084 Cl
ENDBRANCH  10  17
ENDBRANCH   4   6
ENDBRANCH   3   4
ENDBRANCH   2   3
ENDBRANCH   1   2
BRANCH   1  24
ATOM     24  O   UNL A   1      38.522  22.789  26.220  1.00  0.00    -0.458 OA
BRANCH  24  25
ATOM     25  C   UNL A   1      39.735  22.602  26.788  1.00  0.00     0.338 C 
ATOM     26  O   UNL A   1      40.142  21.594  27.338  1.00  0.00    -0.246 OA
BRANCH  25  27
ATOM     27  C   UNL A   1      40.474  23.868  26.797  1.00  0.00     0.060 A 
ATOM     28  C   UNL A   1      41.653  23.895  27.553  1.00  0.00     0.016 A 
ATOM     29  C   UNL A   1      39.828  25.034  26.373  1.00  0.00     0.016 A 
ATOM     30  C   UNL A   1      42.052  25.092  28.098  1.00  0.00     0.010 A 
ATOM     31  C   UNL A   1      40.209  26.223  26.939  1.00  0.00     0.010 A 
ATOM     32  C   UNL A   1      41.250  26.209  27.869  1.00  0.00    -0.014 A 
BRANCH  32  33
ATOM     33  C   UNL A   1      41.436  27.364  28.718  1.00  0.00     0.031 A 
ATOM     34  C   UNL A   1      42.652  28.154  28.434  1.00  0.00     0.074 A 
ATOM     35  C   UNL A   1      40.440  27.721  29.552  1.00  0.00     0.049 A 
ATOM     36  N   UNL A   1      43.624  28.446  29.232  1.00  0.00    -0.248 NA
ATOM     37  C   UNL A   1      42.889  28.543  27.034  1.00  0.00     0.031 C 
ATOM     38  C   UNL A   1      39.091  27.146  29.646  1.00  0.00     0.029 A 
ATOM     39  N   UNL A   1      40.368  28.796  30.373  1.00  0.00    -0.354 N 
ATOM     40  C   UNL A   1      44.506  29.219  28.483  1.00  0.00     0.074 A 
ATOM     41  C   UNL A   1      44.104  29.082  27.109  1.00  0.00     0.031 C 
ATOM     42  C   UNL A   1      38.279  28.027  30.270  1.00  0.00     0.029 A 
ATOM     43  C   UNL A   1      39.070  29.163  30.701  1.00  0.00     0.049 A 
ATOM     44  H   UNL A   1      41.163  29.273  30.707  1.00  0.00     0.167 HD
ATOM     45  C   UNL A   1      45.378  30.090  29.057  1.00  0.00     0.037 A 
ATOM     46  C   UNL A   1      38.706  30.405  31.108  1.00  0.00     0.037 A 
ATOM     47  C   UNL A   1      45.522  29.842  30.466  1.00  0.00     0.049 A 
ATOM     48  C   UNL A   1      39.948  31.069  31.616  1.00  0.00     0.074 A 
ATOM     49  C   UNL A   1      45.975  28.766  31.206  1.00  0.00     0.029 A 
ATOM     50  N   UNL A   1      44.811  30.631  31.340  1.00  0.00    -0.354 N 
ATOM     51  N   UNL A   1      40.618  30.653  32.663  1.00  0.00    -0.248 NA
ATOM     52  C   UNL A   1      40.718  31.876  30.676  1.00  0.00     0.031 C 
ATOM     53  C   UNL A   1      45.120  28.714  32.342  1.00  0.00     0.029 A 
ATOM     54  C   UNL A   1      44.231  29.788  32.258  1.00  0.00     0.049 A 
ATOM     55  H   UNL A   1      44.731  31.611  31.314  1.00  0.00     0.167 HD
ATOM     56  C   UNL A   1      41.960  30.801  32.323  1.00  0.00     0.074 A 
ATOM     57  C   UNL A   1      41.955  31.622  31.114  1.00  0.00     0.031 C 
ATOM     58  C   UNL A   1      42.937  30.017  32.871  1.00  0.00     0.037 A 
BRANCH  45  59
ATOM     59  C   UNL A   1      45.860  31.355  28.400  1.00  0.00     0.058 A 
ATOM     60  C   UNL A   1      44.955  32.409  28.173  1.00  0.00     0.135 A 
ATOM     61  C   UNL A   1      47.112  31.474  27.754  1.00  0.00     0.135 A 
ATOM     62  F   UNL A   1      43.733  32.395  28.732  1.00  0.00    -0.206 F 
ATOM     63  C   UNL A   1      45.244  33.467  27.311  1.00  0.00     0.059 A 
ATOM     64  C   UNL A   1      47.446  32.550  26.943  1.00  0.00     0.059 A 
ATOM     65  F   UNL A   1      48.032  30.502  27.793  1.00  0.00    -0.206 F 
ATOM     66  C   UNL A   1      46.487  33.515  26.685  1.00  0.00     0.060 A 
BRANCH  66  67
ATOM     67  S   UNL A   1      46.815  34.790  25.459  1.00  0.00     0.124 S 
ATOM     68  O   UNL A   1      48.185  34.475  25.074  1.00  0.00    -0.237 OA
ATOM     69  O   UNL A   1      45.789  34.522  24.456  1.00  0.00    -0.237 OA
ATOM     70  O   UNL A   1      46.640  36.031  26.209  1.00  0.00    -0.744 OA
ENDBRANCH  66  67
ENDBRANCH  45  59
BRANCH  46  71
ATOM     71  C   UNL A   1      37.496  31.135  30.628  1.00  0.00     0.058 A 
ATOM     72  C   UNL A   1      36.631  31.799  31.513  1.00  0.00     0.135 A 
ATOM     73  C   UNL A   1      37.270  31.377  29.253  1.00  0.00     0.135 A 
ATOM     74  F   UNL A   1      36.795  31.666  32.838  1.00  0.00    -0.206 F 
ATOM     75  C   UNL A   1      35.610  32.650  31.063  1.00  0.00     0.059 A 
ATOM     76  C   UNL A   1      36.249  32.197  28.781  1.00  0.00     0.059 A 
ATOM     77  F   UNL A   1      38.089  30.887  28.311  1.00  0.00    -0.206 F 
ATOM     78  C   UNL A   1      35.431  32.848  29.692  1.00  0.00     0.060 A 
BRANCH  78  79
ATOM     79  S   UNL A   1      34.202  34.034  29.100  1.00  0.00     0.124 S 
ATOM     80  O   UNL A   1      33.483  34.361  30.328  1.00  0.00    -0.237 OA
ATOM     81  O   UNL A   1      35.039  35.093  28.549  1.00  0.00    -0.237 OA
ATOM     82  O   UNL A   1      33.438  33.270  28.117  1.00  0.00    -0.744 OA
ENDBRANCH  78  79
ENDBRANCH  46  71
BRANCH  58  83
ATOM     83  C   UNL A   1      42.590  29.106  34.024  1.00  0.00     0.058 A 
ATOM     84  C   UNL A   1      41.908  27.886  33.871  1.00  0.00     0.135 A 
ATOM     85  C   UNL A   1      43.169  29.358  35.277  1.00  0.00     0.135 A 
ATOM     86  F   UNL A   1      41.425  27.515  32.678  1.00  0.00    -0.206 F 
ATOM     87  C   UNL A   1      41.785  26.971  34.917  1.00  0.00     0.059 A 
ATOM     88  C   UNL A   1      43.087  28.444  36.327  1.00  0.00     0.059 A 
ATOM     89  F   UNL A   1      43.894  30.472  35.470  1.00  0.00    -0.206 F 
ATOM     90  C   UNL A   1      42.387  27.254  36.141  1.00  0.00     0.060 A 
BRANCH  90  91
ATOM     91  S   UNL A   1      42.328  26.014  37.454  1.00  0.00     0.124 S 
ATOM     92  O   UNL A   1      42.843  24.828  36.777  1.00  0.00    -0.237 OA
ATOM     93  O   UNL A   1      43.199  26.590  38.475  1.00  0.00    -0.237 OA
ATOM     94  O   UNL A   1      40.913  25.964  37.812  1.00  0.00    -0.744 OA
ENDBRANCH  90  91
ENDBRANCH  58  83
ENDBRANCH  32  33
ENDBRANCH  25  27
ENDBRANCH  24  25
ENDBRANCH   1  24
TORSDOF 15
ENDMDL
MODEL 2
REMARK VINA RESULT:     -12.3      1.783      2.899
REMARK SMILES CC1=C(C(=O)OCCOC(=O)c2ccc(-c3c4nc(c(-c5c(F)cc(S(=O)(=O)[O-])cc5F)c5ccc([nH]5)c(-c5c(F)cc(S(=O)(=O)[O-])cc5F)c5nc(c(-c6c(F)cc(S(=O)(=O)[O-])cc6F)c6ccc3[nH]6)C=C5)C=C4)cc2)[C@H](c2ccc(Cl)cc2)n2ncnc2N1
REMARK SMILES IDX 8 1 7 2 6 3 4 4 5 5 3 6 1 7 2 8 91 9 78 10 90 11 86 13 89 14
REMARK SMILES IDX 87 15 88 16 79 17 80 18 85 19 81 20 84 21 82 22 83 23 9 24
REMARK SMILES IDX 10 25 11 26 12 27 13 28 77 29 14 30 76 31 15 32 16 33 17 34
REMARK SMILES IDX 70 35 18 36 75 37 69 38 71 39 19 40 74 41 68 42 67 43 20 45
REMARK SMILES IDX 54 46 33 47 53 48 34 49 37 50 52 51 72 52 35 53 36 54 51 56
REMARK SMILES IDX 73 57 38 58 21 59 22 60 31 61 23 62 24 63 30 64 32 65 25 66
REMARK SMILES IDX 26 67 27 68 28 69 29 70 55 71 56 72 65 73 57 74 58 75 64 76
REMARK SMILES IDX 66 77 59 78 60 79 61 80 62 81 63 82 39 83 40 84 49 85 41 86
REMARK SMILES IDX 42 87 48 88 50 89 43 90 44 91 45 92 46 93 47 94
REMARK H PARENT 91 12 71 44 37 55
REMARK Flexibility Score: inf
ROOT
ATOM      1  C   UNL A   1      37.967  21.630  25.431  1.00  0.00     0.275 C 
ENDROOT
BRANCH   1   2
ATOM      2  C   UNL A   1      36.476  21.771  25.142  1.00  0.00     0.275 C 
BRANCH   2   3
ATOM      3  O   UNL A   1      36.033  23.132  25.322  1.00  0.00    -0.459 OA
BRANCH   3   4
ATOM      4  C   UNL A   1      34.718  23.318  25.595  1.00  0.00     0.338 C 
ATOM      5  O   UNL A   1      34.273  23.317  26.735  1.00  0.00    -0.246 OA
BRANCH   4   6
ATOM      6  C   UNL A   1      33.902  23.678  24.393  1.00  0.00     0.085 C 
ATOM      7  C   UNL A   1      33.066  21.307  23.925  1.00  0.00     0.065 C 
ATOM      8  C   UNL A   1      33.188  22.787  23.647  1.00  0.00     0.028 C 
ATOM      9  N   UNL A   1      32.553  23.200  22.481  1.00  0.00    -0.328 N 
ATOM     10  C   UNL A   1      34.067  25.145  23.912  1.00  0.00     0.181 C 
ATOM     11  C   UNL A   1      32.757  24.395  21.908  1.00  0.00     0.226 A 
ATOM     12  H   UNL A   1      31.917  22.582  22.054  1.00  0.00     0.169 HD
ATOM     13  N   UNL A   1      33.553  25.310  22.537  1.00  0.00    -0.219 N 
ATOM     14  N   UNL A   1      32.321  24.888  20.778  1.00  0.00    -0.200 NA
ATOM     15  N   UNL A   1      33.701  26.423  21.783  1.00  0.00    -0.157 NA
ATOM     16  C   UNL A   1      32.935  26.112  20.729  1.00  0.00     0.248 A 
BRANCH  10  17
ATOM     17  C   UNL A   1      33.458  26.217  24.837  1.00  0.00    -0.018 A 
ATOM     18  C   UNL A   1      34.188  26.844  25.863  1.00  0.00     0.008 A 
ATOM     19  C   UNL A   1      32.106  26.583  24.687  1.00  0.00     0.008 A 
ATOM     20  C   UNL A   1      33.596  27.817  26.678  1.00  0.00     0.021 A 
ATOM     21  C   UNL A   1      31.531  27.596  25.458  1.00  0.00     0.021 A 
ATOM     22  C   UNL A   1      32.280  28.210  26.452  1.00  0.00     0.041 A 
ATOM     23  Cl  UNL A   1      31.580  29.457  27.407  1.00  0.00    -0.084 Cl
ENDBRANCH  10  17
ENDBRANCH   4   6
ENDBRANCH   3   4
ENDBRANCH   2   3
ENDBRANCH   1   2
BRANCH   1  24
ATOM     24  O   UNL A   1      38.454  22.766  26.145  1.00  0.00    -0.458 OA
BRANCH  24  25
ATOM     25  C   UNL A   1      39.656  22.598  26.740  1.00  0.00     0.338 C 
ATOM     26  O   UNL A   1      40.063  21.600  27.308  1.00  0.00    -0.246 OA
BRANCH  25  27
ATOM     27  C   UNL A   1      40.381  23.872  26.752  1.00  0.00     0.060 A 
ATOM     28  C   UNL A   1      41.563  23.909  27.503  1.00  0.00     0.016 A 
ATOM     29  C   UNL A   1      39.720  25.033  26.337  1.00  0.00     0.016 A 
ATOM     30  C   UNL A   1      41.951  25.108  28.052  1.00  0.00     0.010 A 
ATOM     31  C   UNL A   1      40.090  26.223  26.908  1.00  0.00     0.010 A 
ATOM     32  C   UNL A   1      41.135  26.216  27.833  1.00  0.00    -0.014 A 
BRANCH  32  33
ATOM     33  C   UNL A   1      41.312  27.369  28.687  1.00  0.00     0.031 A 
ATOM     34  C   UNL A   1      42.533  28.159  28.419  1.00  0.00     0.074 A 
ATOM     35  C   UNL A   1      40.306  27.725  29.510  1.00  0.00     0.049 A 
ATOM     36  N   UNL A   1      43.495  28.448  29.230  1.00  0.00    -0.248 NA
ATOM     37  C   UNL A   1      42.786  28.551  27.023  1.00  0.00     0.031 C 
ATOM     38  C   UNL A   1      38.956  27.151  29.586  1.00  0.00     0.029 A 
ATOM     39  N   UNL A   1      40.226  28.798  30.333  1.00  0.00    -0.354 N 
ATOM     40  C   UNL A   1      44.387  29.221  28.493  1.00  0.00     0.074 A 
ATOM     41  C   UNL A   1      44.001  29.089  27.114  1.00  0.00     0.031 C 
ATOM     42  C   UNL A   1      38.137  28.031  30.203  1.00  0.00     0.029 A 
ATOM     43  C   UNL A   1      38.924  29.166  30.646  1.00  0.00     0.049 A 
ATOM     44  H   UNL A   1      41.017  29.274  30.678  1.00  0.00     0.167 HD
ATOM     45  C   UNL A   1      45.252  30.090  29.080  1.00  0.00     0.037 A 
ATOM     46  C   UNL A   1      38.557  30.407  31.052  1.00  0.00     0.037 A 
ATOM     47  C   UNL A   1      45.379  29.839  30.490  1.00  0.00     0.049 A 
ATOM     48  C   UNL A   1      39.793  31.068  31.576  1.00  0.00     0.074 A 
ATOM     49  C   UNL A   1      45.822  28.760  31.232  1.00  0.00     0.029 A 
ATOM     50  N   UNL A   1      44.658  30.626  31.358  1.00  0.00    -0.354 N 
ATOM     51  N   UNL A   1      40.450  30.649  32.630  1.00  0.00    -0.248 NA
ATOM     52  C   UNL A   1      40.575  31.877  30.648  1.00  0.00     0.031 C 
ATOM     53  C   UNL A   1      44.953  28.706  32.358  1.00  0.00     0.029 A 
ATOM     54  C   UNL A   1      44.067  29.781  32.266  1.00  0.00     0.049 A 
ATOM     55  H   UNL A   1      44.580  31.606  31.333  1.00  0.00     0.167 HD
ATOM     56  C   UNL A   1      41.796  30.797  32.307  1.00  0.00     0.074 A 
ATOM     57  C   UNL A   1      41.807  31.621  31.100  1.00  0.00     0.031 C 
ATOM     58  C   UNL A   1      42.766  30.010  32.864  1.00  0.00     0.037 A 
BRANCH  45  59
ATOM     59  C   UNL A   1      45.744  31.357  28.432  1.00  0.00     0.058 A 
ATOM     60  C   UNL A   1      44.824  32.371  28.103  1.00  0.00     0.135 A 
ATOM     61  C   UNL A   1      47.040  31.507  27.890  1.00  0.00     0.135 A 
ATOM     62  F   UNL A   1      43.561  32.324  28.558  1.00  0.00    -0.206 F 
ATOM     63  C   UNL A   1      45.148  33.418  27.240  1.00  0.00     0.059 A 
ATOM     64  C   UNL A   1      47.404  32.574  27.082  1.00  0.00     0.059 A 
ATOM     65  F   UNL A   1      47.988  30.571  28.032  1.00  0.00    -0.206 F 
ATOM     66  C   UNL A   1      46.437  33.497  26.719  1.00  0.00     0.060 A 
BRANCH  66  67
ATOM     67  S   UNL A   1      46.822  34.755  25.491  1.00  0.00     0.124 S 
ATOM     68  O   UNL A   1      45.783  34.514  24.496  1.00  0.00    -0.237 OA
ATOM     69  O   UNL A   1      46.698  35.986  26.263  1.00  0.00    -0.237 OA
ATOM     70  O   UNL A   1      48.182  34.416  25.077  1.00  0.00    -0.744 OA
ENDBRANCH  66  67
ENDBRANCH  45  59
BRANCH  46  71
ATOM     71  C   UNL A   1      37.353  31.139  30.559  1.00  0.00     0.058 A 
ATOM     72  C   UNL A   1      36.473  31.793  31.436  1.00  0.00     0.135 A 
ATOM     73  C   UNL A   1      37.149  31.393  29.183  1.00  0.00     0.135 A 
ATOM     74  F   UNL A   1      36.616  31.649  32.762  1.00  0.00    -0.206 F 
ATOM     75  C   UNL A   1      35.458  32.648  30.977  1.00  0.00     0.059 A 
ATOM     76  C   UNL A   1      36.134  32.216  28.702  1.00  0.00     0.059 A 
ATOM     77  F   UNL A   1      37.984  30.914  28.250  1.00  0.00    -0.206 F 
ATOM     78  C   UNL A   1      35.301  32.857  29.606  1.00  0.00     0.060 A 
BRANCH  78  79
ATOM     79  S   UNL A   1      34.079  34.047  29.005  1.00  0.00     0.124 S 
ATOM     80  O   UNL A   1      33.383  34.411  30.235  1.00  0.00    -0.237 OA
ATOM     81  O   UNL A   1      34.922  35.081  28.418  1.00  0.00    -0.237 OA
ATOM     82  O   UNL A   1      33.290  33.272  28.050  1.00  0.00    -0.744 OA
ENDBRANCH  78  79
ENDBRANCH  46  71
BRANCH  58  83
ATOM     83  C   UNL A   1      42.404  29.097  34.011  1.00  0.00     0.058 A 
ATOM     84  C   UNL A   1      41.719  27.880  33.847  1.00  0.00     0.135 A 
ATOM     85  C   UNL A   1      42.972  29.341  35.270  1.00  0.00     0.135 A 
ATOM     86  F   UNL A   1      41.246  27.515  32.648  1.00  0.00    -0.206 F 
ATOM     87  C   UNL A   1      41.582  26.961  34.888  1.00  0.00     0.059 A 
ATOM     88  C   UNL A   1      42.876  28.424  36.316  1.00  0.00     0.059 A 
ATOM     89  F   UNL A   1      43.699  30.452  35.475  1.00  0.00    -0.206 F 
ATOM     90  C   UNL A   1      42.173  27.238  36.119  1.00  0.00     0.060 A 
BRANCH  90  91
ATOM     91  S   UNL A   1      42.097  25.994  37.427  1.00  0.00     0.124 S 
ATOM     92  O   UNL A   1      42.542  24.791  36.731  1.00  0.00    -0.237 OA
ATOM     93  O   UNL A   1      43.019  26.525  38.427  1.00  0.00    -0.237 OA
ATOM     94  O   UNL A   1      40.691  26.002  37.824  1.00  0.00    -0.744 OA
ENDBRANCH  90  91
ENDBRANCH  58  83
ENDBRANCH  32  33
ENDBRANCH  25  27
ENDBRANCH  24  25
ENDBRANCH   1  24
TORSDOF 15
ENDMDL
MODEL 3
REMARK VINA RESULT:     -11.9      3.185      9.074
REMARK SMILES CC1=C(C(=O)OCCOC(=O)c2ccc(-c3c4nc(c(-c5c(F)cc(S(=O)(=O)[O-])cc5F)c5ccc([nH]5)c(-c5c(F)cc(S(=O)(=O)[O-])cc5F)c5nc(c(-c6c(F)cc(S(=O)(=O)[O-])cc6F)c6ccc3[nH]6)C=C5)C=C4)cc2)[C@H](c2ccc(Cl)cc2)n2ncnc2N1
REMARK SMILES IDX 8 1 7 2 6 3 4 4 5 5 3 6 1 7 2 8 91 9 78 10 90 11 86 13 89 14
REMARK SMILES IDX 87 15 88 16 79 17 80 18 85 19 81 20 84 21 82 22 83 23 9 24
REMARK SMILES IDX 10 25 11 26 12 27 13 28 77 29 14 30 76 31 15 32 16 33 17 34
REMARK SMILES IDX 70 35 18 36 75 37 69 38 71 39 19 40 74 41 68 42 67 43 20 45
REMARK SMILES IDX 54 46 33 47 53 48 34 49 37 50 52 51 72 52 35 53 36 54 51 56
REMARK SMILES IDX 73 57 38 58 21 59 22 60 31 61 23 62 24 63 30 64 32 65 25 66
REMARK SMILES IDX 26 67 27 68 28 69 29 70 55 71 56 72 65 73 57 74 58 75 64 76
REMARK SMILES IDX 66 77 59 78 60 79 61 80 62 81 63 82 39 83 40 84 49 85 41 86
REMARK SMILES IDX 42 87 48 88 50 89 43 90 44 91 45 92 46 93 47 94
REMARK H PARENT 91 12 71 44 37 55
REMARK Flexibility Score: inf
ROOT
ATOM      1  C   UNL A   1      33.322  30.486  26.649  1.00  0.00     0.275 C 
ENDROOT
BRANCH   1   2
ATOM      2  C   UNL A   1      32.385  29.438  27.240  1.00  0.00     0.275 C 
BRANCH   2   3
ATOM      3  O   UNL A   1      32.782  28.104  26.859  1.00  0.00    -0.459 OA
BRANCH   3   4
ATOM      4  C   UNL A   1      31.809  27.162  26.817  1.00  0.00     0.338 C 
ATOM      5  O   UNL A   1      30.913  27.099  27.649  1.00  0.00    -0.246 OA
BRANCH   4   6
ATOM      6  C   UNL A   1      31.848  26.316  25.583  1.00  0.00     0.085 C 
ATOM      7  C   UNL A   1      31.871  24.070  26.806  1.00  0.00     0.065 C 
ATOM      8  C   UNL A   1      31.893  24.952  25.580  1.00  0.00     0.028 C 
ATOM      9  N   UNL A   1      32.041  24.259  24.384  1.00  0.00    -0.328 N 
ATOM     10  C   UNL A   1      32.028  27.106  24.259  1.00  0.00     0.181 C 
ATOM     11  C   UNL A   1      32.353  24.847  23.219  1.00  0.00     0.226 A 
ATOM     12  H   UNL A   1      31.909  23.284  24.392  1.00  0.00     0.169 HD
ATOM     13  N   UNL A   1      32.439  26.209  23.161  1.00  0.00    -0.219 N 
ATOM     14  N   UNL A   1      32.621  24.334  22.046  1.00  0.00    -0.200 NA
ATOM     15  N   UNL A   1      32.830  26.617  21.932  1.00  0.00    -0.157 NA
ATOM     16  C   UNL A   1      32.928  25.441  21.299  1.00  0.00     0.248 A 
BRANCH  10  17
ATOM     17  C   UNL A   1      30.817  27.956  23.825  1.00  0.00    -0.018 A 
ATOM     18  C   UNL A   1      29.566  27.396  23.509  1.00  0.00     0.008 A 
ATOM     19  C   UNL A   1      30.951  29.353  23.706  1.00  0.00     0.008 A 
ATOM     20  C   UNL A   1      28.491  28.205  23.123  1.00  0.00     0.021 A 
ATOM     21  C   UNL A   1      29.864  30.168  23.380  1.00  0.00     0.021 A 
ATOM     22  C   UNL A   1      28.636  29.589  23.090  1.00  0.00     0.041 A 
ATOM     23  Cl  UNL A   1      27.293  30.585  22.688  1.00  0.00    -0.084 Cl
ENDBRANCH  10  17
ENDBRANCH   4   6
ENDBRANCH   3   4
ENDBRANCH   2   3
ENDBRANCH   1   2
BRANCH   1  24
ATOM     24  O   UNL A   1      34.622  30.387  27.227  1.00  0.00    -0.458 OA
BRANCH  24  25
ATOM     25  C   UNL A   1      35.040  31.486  27.894  1.00  0.00     0.338 C 
ATOM     26  O   UNL A   1      34.781  32.648  27.633  1.00  0.00    -0.246 OA
BRANCH  25  27
ATOM     27  C   UNL A   1      36.011  31.099  28.921  1.00  0.00     0.060 A 
ATOM     28  C   UNL A   1      36.966  32.062  29.271  1.00  0.00     0.016 A 
ATOM     29  C   UNL A   1      36.163  29.744  29.235  1.00  0.00     0.016 A 
ATOM     30  C   UNL A   1      38.194  31.634  29.716  1.00  0.00     0.010 A 
ATOM     31  C   UNL A   1      37.396  29.315  29.651  1.00  0.00     0.010 A 
ATOM     32  C   UNL A   1      38.415  30.260  29.785  1.00  0.00    -0.014 A 
BRANCH  32  33
ATOM     33  C   UNL A   1      39.781  29.797  29.884  1.00  0.00     0.031 A 
ATOM     34  C   UNL A   1      40.328  29.767  31.257  1.00  0.00     0.074 A 
ATOM     35  C   UNL A   1      40.371  29.280  28.788  1.00  0.00     0.049 A 
ATOM     36  N   UNL A   1      41.374  30.368  31.717  1.00  0.00    -0.248 NA
ATOM     37  C   UNL A   1      39.518  29.099  32.289  1.00  0.00     0.031 C 
ATOM     38  C   UNL A   1      39.761  29.007  27.479  1.00  0.00     0.029 A 
ATOM     39  N   UNL A   1      41.601  28.726  28.671  1.00  0.00    -0.354 N 
ATOM     40  C   UNL A   1      41.460  30.000  33.056  1.00  0.00     0.074 A 
ATOM     41  C   UNL A   1      40.203  29.387  33.393  1.00  0.00     0.031 C 
ATOM     42  C   UNL A   1      40.532  28.122  26.811  1.00  0.00     0.029 A 
ATOM     43  C   UNL A   1      41.721  27.854  27.597  1.00  0.00     0.049 A 
ATOM     44  H   UNL A   1      42.342  28.923  29.289  1.00  0.00     0.167 HD
ATOM     45  C   UNL A   1      42.632  30.028  33.745  1.00  0.00     0.037 A 
ATOM     46  C   UNL A   1      42.646  26.865  27.515  1.00  0.00     0.037 A 
ATOM     47  C   UNL A   1      43.630  30.802  33.057  1.00  0.00     0.049 A 
ATOM     48  C   UNL A   1      43.746  27.229  28.461  1.00  0.00     0.074 A 
ATOM     49  C   UNL A   1      43.719  32.128  32.679  1.00  0.00     0.029 A 
ATOM     50  N   UNL A   1      44.571  30.131  32.310  1.00  0.00    -0.354 N 
ATOM     51  N   UNL A   1      44.506  28.288  28.319  1.00  0.00    -0.248 NA
ATOM     52  C   UNL A   1      43.673  26.705  29.821  1.00  0.00     0.031 C 
ATOM     53  C   UNL A   1      44.350  32.107  31.404  1.00  0.00     0.029 A 
ATOM     54  C   UNL A   1      44.657  30.779  31.101  1.00  0.00     0.049 A 
ATOM     55  H   UNL A   1      45.084  29.339  32.588  1.00  0.00     0.167 HD
ATOM     56  C   UNL A   1      44.680  28.791  29.606  1.00  0.00     0.074 A 
ATOM     57  C   UNL A   1      44.199  27.734  30.493  1.00  0.00     0.031 C 
ATOM     58  C   UNL A   1      44.923  30.116  29.840  1.00  0.00     0.037 A 
BRANCH  45  59
ATOM     59  C   UNL A   1      42.963  29.103  34.884  1.00  0.00     0.058 A 
ATOM     60  C   UNL A   1      43.301  29.640  36.141  1.00  0.00     0.135 A 
ATOM     61  C   UNL A   1      43.210  27.720  34.723  1.00  0.00     0.135 A 
ATOM     62  F   UNL A   1      43.114  30.945  36.400  1.00  0.00    -0.206 F 
ATOM     63  C   UNL A   1      43.907  28.876  37.139  1.00  0.00     0.059 A 
ATOM     64  C   UNL A   1      43.753  26.927  35.724  1.00  0.00     0.059 A 
ATOM     65  F   UNL A   1      43.036  27.094  33.552  1.00  0.00    -0.206 F 
ATOM     66  C   UNL A   1      44.147  27.524  36.910  1.00  0.00     0.060 A 
BRANCH  66  67
ATOM     67  S   UNL A   1      45.062  26.566  38.128  1.00  0.00     0.124 S 
ATOM     68  O   UNL A   1      44.859  27.363  39.332  1.00  0.00    -0.237 OA
ATOM     69  O   UNL A   1      44.373  25.280  38.086  1.00  0.00    -0.237 OA
ATOM     70  O   UNL A   1      46.423  26.560  37.598  1.00  0.00    -0.744 OA
ENDBRANCH  66  67
ENDBRANCH  45  59
BRANCH  46  71
ATOM     71  C   UNL A   1      42.363  25.477  27.045  1.00  0.00     0.058 A 
ATOM     72  C   UNL A   1      43.150  24.852  26.064  1.00  0.00     0.135 A 
ATOM     73  C   UNL A   1      41.429  24.644  27.703  1.00  0.00     0.135 A 
ATOM     74  F   UNL A   1      44.096  25.550  25.416  1.00  0.00    -0.206 F 
ATOM     75  C   UNL A   1      43.022  23.488  25.759  1.00  0.00     0.059 A 
ATOM     76  C   UNL A   1      41.265  23.295  27.401  1.00  0.00     0.059 A 
ATOM     77  F   UNL A   1      40.691  25.092  28.728  1.00  0.00    -0.206 F 
ATOM     78  C   UNL A   1      42.078  22.716  26.439  1.00  0.00     0.060 A 
BRANCH  78  79
ATOM     79  S   UNL A   1      41.983  20.934  26.144  1.00  0.00     0.124 S 
ATOM     80  O   UNL A   1      43.025  20.739  25.141  1.00  0.00    -0.237 OA
ATOM     81  O   UNL A   1      42.261  20.390  27.468  1.00  0.00    -0.237 OA
ATOM     82  O   UNL A   1      40.616  20.741  25.667  1.00  0.00    -0.744 OA
ENDBRANCH  78  79
ENDBRANCH  46  71
BRANCH  58  83
ATOM     83  C   UNL A   1      45.216  31.028  28.672  1.00  0.00     0.058 A 
ATOM     84  C   UNL A   1      44.217  31.667  27.916  1.00  0.00     0.135 A 
ATOM     85  C   UNL A   1      46.537  31.452  28.465  1.00  0.00     0.135 A 
ATOM     86  F   UNL A   1      42.921  31.405  28.132  1.00  0.00    -0.206 F 
ATOM     87  C   UNL A   1      44.516  32.660  26.983  1.00  0.00     0.059 A 
ATOM     88  C   UNL A   1      46.857  32.465  27.562  1.00  0.00     0.059 A 
ATOM     89  F   UNL A   1      47.532  30.932  29.204  1.00  0.00    -0.206 F 
ATOM     90  C   UNL A   1      45.840  33.060  26.819  1.00  0.00     0.060 A 
BRANCH  90  91
ATOM     91  S   UNL A   1      46.209  34.428  25.698  1.00  0.00     0.124 S 
ATOM     92  O   UNL A   1      45.269  34.193  24.608  1.00  0.00    -0.237 OA
ATOM     93  O   UNL A   1      45.938  35.600  26.527  1.00  0.00    -0.237 OA
ATOM     94  O   UNL A   1      47.616  34.226  25.364  1.00  0.00    -0.744 OA
ENDBRANCH  90  91
ENDBRANCH  58  83
ENDBRANCH  32  33
ENDBRANCH  25  27
ENDBRANCH  24  25
ENDBRANCH   1  24
TORSDOF 15
ENDMDL
