MODEL 1
REMARK VINA RESULT:     -11.0      0.000      0.000
REMARK SMILES C#Cc1ccc2c(c1)C=C(C(=O)OCCOC(=O)c1ccc(-c3c4nc(c(-c5c(F)cc(S(=O)(=O)[O-])cc5F)c5ccc([nH]5)c(-c5c(F)cc(S(=O)(=O)[O-])cc5F)c5nc(c(-c6c(F)cc(S(=O)(=O)[O-])cc6F)c6ccc3[nH]6)C=C5)C=C4)cc1)[C@@H](C(F)(F)F)O2
REMARK SMILES IDX 15 1 14 2 13 3 11 4 12 5 10 6 3 7 4 8 8 9 5 10 7 11 6 12
REMARK SMILES IDX 9 13 90 14 85 15 2 16 1 17 86 18 87 19 88 20 89 21 16 22
REMARK SMILES IDX 17 23 18 24 19 25 20 26 84 27 21 28 83 29 22 30 23 31 24 32
REMARK SMILES IDX 77 33 25 34 82 35 76 36 78 37 26 38 81 39 75 40 74 41 27 43
REMARK SMILES IDX 61 44 40 45 60 46 41 47 44 48 59 49 79 50 42 51 43 52 58 54
REMARK SMILES IDX 80 55 45 56 28 57 29 58 38 59 30 60 31 61 37 62 39 63 32 64
REMARK SMILES IDX 33 65 34 66 35 67 36 68 62 69 63 70 72 71 64 72 65 73 71 74
REMARK SMILES IDX 73 75 66 76 67 77 68 78 69 79 70 80 46 81 47 82 56 83 48 84
REMARK SMILES IDX 49 85 55 86 57 87 50 88 51 89 52 90 53 91 54 92
REMARK H PARENT 78 42 44 53
REMARK Flexibility Score: inf
ROOT
ATOM      1  C   UNL A   1      36.986  23.126  24.369  1.00  0.00     0.275 C 
ENDROOT
BRANCH   1   2
ATOM      2  C   UNL A   1      35.923  22.120  24.820  1.00  0.00     0.275 C 
BRANCH   2   3
ATOM      3  O   UNL A   1      34.815  22.771  25.484  1.00  0.00    -0.459 OA
BRANCH   3   4
ATOM      4  C   UNL A   1      33.742  23.041  24.702  1.00  0.00     0.338 C 
ATOM      5  O   UNL A   1      33.360  22.382  23.749  1.00  0.00    -0.246 OA
BRANCH   4   6
ATOM      6  C   UNL A   1      33.049  24.266  25.156  1.00  0.00     0.087 C 
ATOM      7  C   UNL A   1      33.368  28.717  26.972  1.00  0.00     0.025 A 
ATOM      8  C   UNL A   1      32.002  28.698  27.262  1.00  0.00     0.021 A 
ATOM      9  C   UNL A   1      33.946  27.626  26.328  1.00  0.00     0.029 A 
ATOM     10  C   UNL A   1      31.219  27.592  26.902  1.00  0.00     0.048 A 
ATOM     11  C   UNL A   1      33.163  26.512  25.996  1.00  0.00     0.018 A 
ATOM     12  C   UNL A   1      31.801  26.492  26.272  1.00  0.00     0.128 A 
ATOM     13  C   UNL A   1      33.787  25.351  25.407  1.00  0.00     0.027 C 
ATOM     14  O   UNL A   1      30.984  25.442  25.952  1.00  0.00    -0.475 OA
ATOM     15  C   UNL A   1      31.585  24.198  25.475  1.00  0.00     0.316 C 
BRANCH   7  16
ATOM     16  C   UNL A   1      34.191  29.825  27.346  1.00  0.00    -0.070 C 
ATOM     17  C   UNL A   1      34.838  30.788  27.666  1.00  0.00     0.010 C 
ENDBRANCH   7  16
BRANCH  15  18
ATOM     18  C   UNL A   1      31.303  23.088  26.500  1.00  0.00     0.430 C 
ATOM     19  F   UNL A   1      30.174  23.343  27.204  1.00  0.00    -0.167 F 
ATOM     20  F   UNL A   1      31.115  21.887  25.900  1.00  0.00    -0.167 F 
ATOM     21  F   UNL A   1      32.311  22.943  27.390  1.00  0.00    -0.167 F 
ENDBRANCH  15  18
ENDBRANCH   4   6
ENDBRANCH   3   4
ENDBRANCH   2   3
ENDBRANCH   1   2
BRANCH   1  22
ATOM     22  O   UNL A   1      37.478  23.896  25.478  1.00  0.00    -0.458 OA
BRANCH  22  23
ATOM     23  C   UNL A   1      38.573  23.381  26.079  1.00  0.00     0.338 C 
ATOM     24  O   UNL A   1      39.041  22.264  25.938  1.00  0.00    -0.246 OA
BRANCH  23  25
ATOM     25  C   UNL A   1      39.249  24.430  26.849  1.00  0.00     0.060 A 
ATOM     26  C   UNL A   1      40.027  25.407  26.249  1.00  0.00     0.016 A 
ATOM     27  C   UNL A   1      38.944  24.520  28.199  1.00  0.00     0.016 A 
ATOM     28  C   UNL A   1      40.500  26.464  27.036  1.00  0.00     0.010 A 
ATOM     29  C   UNL A   1      39.233  25.666  28.920  1.00  0.00     0.010 A 
ATOM     30  C   UNL A   1      40.074  26.631  28.372  1.00  0.00    -0.014 A 
BRANCH  30  31
ATOM     31  C   UNL A   1      40.527  27.778  29.209  1.00  0.00     0.031 A 
ATOM     32  C   UNL A   1      39.645  28.994  29.405  1.00  0.00     0.074 A 
ATOM     33  C   UNL A   1      41.747  27.733  29.785  1.00  0.00     0.049 A 
ATOM     34  N   UNL A   1      39.859  30.055  30.142  1.00  0.00    -0.248 NA
ATOM     35  C   UNL A   1      38.379  29.055  28.650  1.00  0.00     0.031 C 
ATOM     36  C   UNL A   1      42.734  26.667  29.589  1.00  0.00     0.029 A 
ATOM     37  N   UNL A   1      42.356  28.585  30.670  1.00  0.00    -0.354 N 
ATOM     38  C   UNL A   1      38.768  30.894  29.932  1.00  0.00     0.074 A 
ATOM     39  C   UNL A   1      37.947  30.275  28.921  1.00  0.00     0.031 C 
ATOM     40  C   UNL A   1      43.777  26.876  30.405  1.00  0.00     0.029 A 
ATOM     41  C   UNL A   1      43.564  28.120  31.137  1.00  0.00     0.049 A 
ATOM     42  H   UNL A   1      41.967  29.445  30.947  1.00  0.00     0.167 HD
ATOM     43  C   UNL A   1      38.442  32.047  30.563  1.00  0.00     0.037 A 
ATOM     44  C   UNL A   1      44.401  28.628  32.062  1.00  0.00     0.037 A 
ATOM     45  C   UNL A   1      39.244  32.636  31.600  1.00  0.00     0.049 A 
ATOM     46  C   UNL A   1      44.022  29.906  32.757  1.00  0.00     0.074 A 
ATOM     47  C   UNL A   1      38.982  33.767  32.351  1.00  0.00     0.029 A 
ATOM     48  N   UNL A   1      40.465  32.138  32.033  1.00  0.00    -0.354 N 
ATOM     49  N   UNL A   1      42.941  30.635  32.606  1.00  0.00    -0.248 NA
ATOM     50  C   UNL A   1      44.970  30.432  33.747  1.00  0.00     0.031 C 
ATOM     51  C   UNL A   1      40.071  33.987  33.197  1.00  0.00     0.029 A 
ATOM     52  C   UNL A   1      40.983  32.957  33.021  1.00  0.00     0.049 A 
ATOM     53  H   UNL A   1      40.897  31.324  31.689  1.00  0.00     0.167 HD
ATOM     54  C   UNL A   1      43.071  31.697  33.494  1.00  0.00     0.074 A 
ATOM     55  C   UNL A   1      44.325  31.501  34.194  1.00  0.00     0.031 C 
ATOM     56  C   UNL A   1      42.234  32.743  33.705  1.00  0.00     0.037 A 
BRANCH  43  57
ATOM     57  C   UNL A   1      37.151  32.726  30.178  1.00  0.00     0.058 A 
ATOM     58  C   UNL A   1      35.948  32.462  30.856  1.00  0.00     0.135 A 
ATOM     59  C   UNL A   1      37.122  33.687  29.154  1.00  0.00     0.135 A 
ATOM     60  F   UNL A   1      35.910  31.543  31.833  1.00  0.00    -0.206 F 
ATOM     61  C   UNL A   1      34.762  33.103  30.516  1.00  0.00     0.059 A 
ATOM     62  C   UNL A   1      35.952  34.368  28.821  1.00  0.00     0.059 A 
ATOM     63  F   UNL A   1      38.238  33.982  28.471  1.00  0.00    -0.206 F 
ATOM     64  C   UNL A   1      34.775  34.059  29.500  1.00  0.00     0.060 A 
BRANCH  64  65
ATOM     65  S   UNL A   1      33.227  34.892  29.090  1.00  0.00     0.124 S 
ATOM     66  O   UNL A   1      32.553  34.913  30.384  1.00  0.00    -0.237 OA
ATOM     67  O   UNL A   1      33.694  36.184  28.598  1.00  0.00    -0.237 OA
ATOM     68  O   UNL A   1      32.625  34.022  28.085  1.00  0.00    -0.744 OA
ENDBRANCH  64  65
ENDBRANCH  43  57
BRANCH  44  69
ATOM     69  C   UNL A   1      45.646  27.891  32.414  1.00  0.00     0.058 A 
ATOM     70  C   UNL A   1      45.660  26.951  33.456  1.00  0.00     0.135 A 
ATOM     71  C   UNL A   1      46.832  28.071  31.683  1.00  0.00     0.135 A 
ATOM     72  F   UNL A   1      44.555  26.745  34.187  1.00  0.00    -0.206 F 
ATOM     73  C   UNL A   1      46.803  26.220  33.763  1.00  0.00     0.059 A 
ATOM     74  C   UNL A   1      47.978  27.329  31.952  1.00  0.00     0.059 A 
ATOM     75  F   UNL A   1      46.868  28.944  30.665  1.00  0.00    -0.206 F 
ATOM     76  C   UNL A   1      47.955  26.409  32.998  1.00  0.00     0.060 A 
BRANCH  76  77
ATOM     77  S   UNL A   1      49.410  25.406  33.368  1.00  0.00     0.124 S 
ATOM     78  O   UNL A   1      50.245  26.355  34.095  1.00  0.00    -0.237 OA
ATOM     79  O   UNL A   1      48.837  24.322  34.161  1.00  0.00    -0.237 OA
ATOM     80  O   UNL A   1      49.898  25.018  32.049  1.00  0.00    -0.744 OA
ENDBRANCH  76  77
ENDBRANCH  44  69
BRANCH  56  81
ATOM     81  C   UNL A   1      42.635  33.758  34.739  1.00  0.00     0.058 A 
ATOM     82  C   UNL A   1      43.383  34.895  34.399  1.00  0.00     0.135 A 
ATOM     83  C   UNL A   1      42.193  33.635  36.067  1.00  0.00     0.135 A 
ATOM     84  F   UNL A   1      43.832  35.059  33.144  1.00  0.00    -0.206 F 
ATOM     85  C   UNL A   1      43.698  35.865  35.344  1.00  0.00     0.059 A 
ATOM     86  C   UNL A   1      42.466  34.610  37.020  1.00  0.00     0.059 A 
ATOM     87  F   UNL A   1      41.462  32.573  36.442  1.00  0.00    -0.206 F 
ATOM     88  C   UNL A   1      43.228  35.716  36.650  1.00  0.00     0.060 A 
BRANCH  88  89
ATOM     89  S   UNL A   1      43.612  37.007  37.852  1.00  0.00     0.124 S 
ATOM     90  O   UNL A   1      44.063  38.091  36.984  1.00  0.00    -0.237 OA
ATOM     91  O   UNL A   1      42.325  37.213  38.506  1.00  0.00    -0.237 OA
ATOM     92  O   UNL A   1      44.645  36.401  38.685  1.00  0.00    -0.744 OA
ENDBRANCH  88  89
ENDBRANCH  56  81
ENDBRANCH  30  31
ENDBRANCH  23  25
ENDBRANCH  22  23
ENDBRANCH   1  22
TORSDOF 16
ENDMDL
MODEL 2
REMARK VINA RESULT:     -10.9      3.590      9.288
REMARK SMILES C#Cc1ccc2c(c1)C=C(C(=O)OCCOC(=O)c1ccc(-c3c4nc(c(-c5c(F)cc(S(=O)(=O)[O-])cc5F)c5ccc([nH]5)c(-c5c(F)cc(S(=O)(=O)[O-])cc5F)c5nc(c(-c6c(F)cc(S(=O)(=O)[O-])cc6F)c6ccc3[nH]6)C=C5)C=C4)cc1)[C@@H](C(F)(F)F)O2
REMARK SMILES IDX 15 1 14 2 13 3 11 4 12 5 10 6 3 7 4 8 8 9 5 10 7 11 6 12
REMARK SMILES IDX 9 13 90 14 85 15 2 16 1 17 86 18 87 19 88 20 89 21 16 22
REMARK SMILES IDX 17 23 18 24 19 25 20 26 84 27 21 28 83 29 22 30 23 31 24 32
REMARK SMILES IDX 77 33 25 34 82 35 76 36 78 37 26 38 81 39 75 40 74 41 27 43
REMARK SMILES IDX 61 44 40 45 60 46 41 47 44 48 59 49 79 50 42 51 43 52 58 54
REMARK SMILES IDX 80 55 45 56 28 57 29 58 38 59 30 60 31 61 37 62 39 63 32 64
REMARK SMILES IDX 33 65 34 66 35 67 36 68 62 69 63 70 72 71 64 72 65 73 71 74
REMARK SMILES IDX 73 75 66 76 67 77 68 78 69 79 70 80 46 81 47 82 56 83 48 84
REMARK SMILES IDX 49 85 55 86 57 87 50 88 51 89 52 90 53 91 54 92
REMARK H PARENT 78 42 44 53
REMARK Flexibility Score: inf
ROOT
ATOM      1  C   UNL A   1      32.783  28.340  27.412  1.00  0.00     0.275 C 
ENDROOT
BRANCH   1   2
ATOM      2  C   UNL A   1      31.896  28.572  26.186  1.00  0.00     0.275 C 
BRANCH   2   3
ATOM      3  O   UNL A   1      32.394  27.870  25.023  1.00  0.00    -0.459 OA
BRANCH   3   4
ATOM      4  C   UNL A   1      31.731  26.734  24.697  1.00  0.00     0.338 C 
ATOM      5  O   UNL A   1      30.521  26.577  24.711  1.00  0.00    -0.246 OA
BRANCH   4   6
ATOM      6  C   UNL A   1      32.672  25.667  24.295  1.00  0.00     0.087 C 
ATOM      7  C   UNL A   1      36.844  23.383  25.063  1.00  0.00     0.025 A 
ATOM      8  C   UNL A   1      36.751  22.787  23.804  1.00  0.00     0.021 A 
ATOM      9  C   UNL A   1      35.815  24.210  25.506  1.00  0.00     0.029 A 
ATOM     10  C   UNL A   1      35.628  23.016  22.996  1.00  0.00     0.048 A 
ATOM     11  C   UNL A   1      34.709  24.456  24.682  1.00  0.00     0.018 A 
ATOM     12  C   UNL A   1      34.605  23.857  23.432  1.00  0.00     0.128 A 
ATOM     13  C   UNL A   1      33.689  25.383  25.113  1.00  0.00     0.027 C 
ATOM     14  O   UNL A   1      33.540  24.043  22.594  1.00  0.00    -0.475 OA
ATOM     15  C   UNL A   1      32.549  25.066  22.927  1.00  0.00     0.316 C 
BRANCH   7  16
ATOM     16  C   UNL A   1      37.988  23.180  25.898  1.00  0.00    -0.070 C 
ATOM     17  C   UNL A   1      38.981  23.033  26.561  1.00  0.00     0.010 C 
ENDBRANCH   7  16
BRANCH  15  18
ATOM     18  C   UNL A   1      32.588  26.161  21.848  1.00  0.00     0.430 C 
ATOM     19  F   UNL A   1      33.456  27.148  22.177  1.00  0.00    -0.167 F 
ATOM     20  F   UNL A   1      33.003  25.673  20.653  1.00  0.00    -0.167 F 
ATOM     21  F   UNL A   1      31.379  26.733  21.654  1.00  0.00    -0.167 F 
ENDBRANCH  15  18
ENDBRANCH   4   6
ENDBRANCH   3   4
ENDBRANCH   2   3
ENDBRANCH   1   2
BRANCH   1  22
ATOM     22  O   UNL A   1      34.143  28.728  27.153  1.00  0.00    -0.458 OA
BRANCH  22  23
ATOM     23  C   UNL A   1      34.505  29.910  27.698  1.00  0.00     0.338 C 
ATOM     24  O   UNL A   1      33.793  30.876  27.915  1.00  0.00    -0.246 OA
BRANCH  23  25
ATOM     25  C   UNL A   1      35.896  29.834  28.155  1.00  0.00     0.060 A 
ATOM     26  C   UNL A   1      36.239  29.365  29.414  1.00  0.00     0.016 A 
ATOM     27  C   UNL A   1      36.885  30.087  27.216  1.00  0.00     0.016 A 
ATOM     28  C   UNL A   1      37.594  29.171  29.709  1.00  0.00     0.010 A 
ATOM     29  C   UNL A   1      38.194  29.695  27.439  1.00  0.00     0.010 A 
ATOM     30  C   UNL A   1      38.587  29.292  28.712  1.00  0.00    -0.014 A 
BRANCH  30  31
ATOM     31  C   UNL A   1      40.028  29.040  28.996  1.00  0.00     0.031 A 
ATOM     32  C   UNL A   1      40.665  27.708  28.657  1.00  0.00     0.074 A 
ATOM     33  C   UNL A   1      40.765  30.008  29.578  1.00  0.00     0.049 A 
ATOM     34  N   UNL A   1      41.915  27.337  28.786  1.00  0.00    -0.248 NA
ATOM     35  C   UNL A   1      39.790  26.636  28.145  1.00  0.00     0.031 C 
ATOM     36  C   UNL A   1      40.247  31.295  30.050  1.00  0.00     0.029 A 
ATOM     37  N   UNL A   1      42.108  30.078  29.848  1.00  0.00    -0.354 N 
ATOM     38  C   UNL A   1      41.964  26.006  28.380  1.00  0.00     0.074 A 
ATOM     39  C   UNL A   1      40.609  25.598  28.103  1.00  0.00     0.031 C 
ATOM     40  C   UNL A   1      41.269  32.061  30.455  1.00  0.00     0.029 A 
ATOM     41  C   UNL A   1      42.508  31.302  30.331  1.00  0.00     0.049 A 
ATOM     42  H   UNL A   1      42.727  29.325  29.708  1.00  0.00     0.167 HD
ATOM     43  C   UNL A   1      43.042  25.208  28.195  1.00  0.00     0.037 A 
ATOM     44  C   UNL A   1      43.736  31.769  30.629  1.00  0.00     0.037 A 
ATOM     45  C   UNL A   1      44.394  25.635  28.432  1.00  0.00     0.049 A 
ATOM     46  C   UNL A   1      44.923  30.872  30.412  1.00  0.00     0.074 A 
ATOM     47  C   UNL A   1      45.566  24.934  28.220  1.00  0.00     0.029 A 
ATOM     48  N   UNL A   1      44.752  26.879  28.932  1.00  0.00    -0.354 N 
ATOM     49  N   UNL A   1      44.954  29.646  29.942  1.00  0.00    -0.248 NA
ATOM     50  C   UNL A   1      46.241  31.415  30.763  1.00  0.00     0.031 C 
ATOM     51  C   UNL A   1      46.630  25.731  28.648  1.00  0.00     0.029 A 
ATOM     52  C   UNL A   1      46.128  26.954  29.065  1.00  0.00     0.049 A 
ATOM     53  H   UNL A   1      44.122  27.600  29.159  1.00  0.00     0.167 HD
ATOM     54  C   UNL A   1      46.294  29.279  29.925  1.00  0.00     0.074 A 
ATOM     55  C   UNL A   1      47.044  30.421  30.410  1.00  0.00     0.031 C 
ATOM     56  C   UNL A   1      46.853  28.101  29.550  1.00  0.00     0.037 A 
BRANCH  43  57
ATOM     57  C   UNL A   1      42.809  23.810  27.679  1.00  0.00     0.058 A 
ATOM     58  C   UNL A   1      42.570  22.733  28.551  1.00  0.00     0.135 A 
ATOM     59  C   UNL A   1      42.773  23.548  26.299  1.00  0.00     0.135 A 
ATOM     60  F   UNL A   1      42.606  22.918  29.880  1.00  0.00    -0.206 F 
ATOM     61  C   UNL A   1      42.334  21.447  28.077  1.00  0.00     0.059 A 
ATOM     62  C   UNL A   1      42.502  22.275  25.802  1.00  0.00     0.059 A 
ATOM     63  F   UNL A   1      42.994  24.535  25.418  1.00  0.00    -0.206 F 
ATOM     64  C   UNL A   1      42.296  21.229  26.699  1.00  0.00     0.060 A 
BRANCH  64  65
ATOM     65  S   UNL A   1      41.967  19.556  26.107  1.00  0.00     0.124 S 
ATOM     66  O   UNL A   1      42.398  18.751  27.246  1.00  0.00    -0.237 OA
ATOM     67  O   UNL A   1      40.529  19.592  25.863  1.00  0.00    -0.237 OA
ATOM     68  O   UNL A   1      42.800  19.446  24.913  1.00  0.00    -0.744 OA
ENDBRANCH  64  65
ENDBRANCH  43  57
BRANCH  44  69
ATOM     69  C   UNL A   1      43.897  33.169  31.108  1.00  0.00     0.058 A 
ATOM     70  C   UNL A   1      43.950  33.462  32.479  1.00  0.00     0.135 A 
ATOM     71  C   UNL A   1      44.055  34.236  30.209  1.00  0.00     0.135 A 
ATOM     72  F   UNL A   1      43.802  32.479  33.381  1.00  0.00    -0.206 F 
ATOM     73  C   UNL A   1      44.150  34.759  32.942  1.00  0.00     0.059 A 
ATOM     74  C   UNL A   1      44.286  35.536  30.647  1.00  0.00     0.059 A 
ATOM     75  F   UNL A   1      44.030  34.009  28.886  1.00  0.00    -0.206 F 
ATOM     76  C   UNL A   1      44.327  35.788  32.017  1.00  0.00     0.060 A 
BRANCH  76  77
ATOM     77  S   UNL A   1      44.648  37.455  32.632  1.00  0.00     0.124 S 
ATOM     78  O   UNL A   1      44.911  38.181  31.394  1.00  0.00    -0.237 OA
ATOM     79  O   UNL A   1      43.394  37.775  33.306  1.00  0.00    -0.237 OA
ATOM     80  O   UNL A   1      45.797  37.274  33.513  1.00  0.00    -0.744 OA
ENDBRANCH  76  77
ENDBRANCH  44  69
BRANCH  56  81
ATOM     81  C   UNL A   1      48.349  27.981  29.639  1.00  0.00     0.058 A 
ATOM     82  C   UNL A   1      49.179  28.343  28.568  1.00  0.00     0.135 A 
ATOM     83  C   UNL A   1      48.962  27.581  30.839  1.00  0.00     0.135 A 
ATOM     84  F   UNL A   1      48.645  28.729  27.398  1.00  0.00    -0.206 F 
ATOM     85  C   UNL A   1      50.565  28.293  28.675  1.00  0.00     0.059 A 
ATOM     86  C   UNL A   1      50.345  27.558  30.980  1.00  0.00     0.059 A 
ATOM     87  F   UNL A   1      48.214  27.237  31.900  1.00  0.00    -0.206 F 
ATOM     88  C   UNL A   1      51.137  27.906  29.888  1.00  0.00     0.060 A 
BRANCH  88  89
ATOM     89  S   UNL A   1      52.937  27.888  30.019  1.00  0.00     0.124 S 
ATOM     90  O   UNL A   1      53.333  28.295  28.674  1.00  0.00    -0.237 OA
ATOM     91  O   UNL A   1      53.180  28.865  31.075  1.00  0.00    -0.237 OA
ATOM     92  O   UNL A   1      53.240  26.504  30.369  1.00  0.00    -0.744 OA
ENDBRANCH  88  89
ENDBRANCH  56  81
ENDBRANCH  30  31
ENDBRANCH  23  25
ENDBRANCH  22  23
ENDBRANCH   1  22
TORSDOF 16
ENDMDL
MODEL 3
REMARK VINA RESULT:     -10.8      5.364     10.140
REMARK SMILES C#Cc1ccc2c(c1)C=C(C(=O)OCCOC(=O)c1ccc(-c3c4nc(c(-c5c(F)cc(S(=O)(=O)[O-])cc5F)c5ccc([nH]5)c(-c5c(F)cc(S(=O)(=O)[O-])cc5F)c5nc(c(-c6c(F)cc(S(=O)(=O)[O-])cc6F)c6ccc3[nH]6)C=C5)C=C4)cc1)[C@@H](C(F)(F)F)O2
REMARK SMILES IDX 15 1 14 2 13 3 11 4 12 5 10 6 3 7 4 8 8 9 5 10 7 11 6 12
REMARK SMILES IDX 9 13 90 14 85 15 2 16 1 17 86 18 87 19 88 20 89 21 16 22
REMARK SMILES IDX 17 23 18 24 19 25 20 26 84 27 21 28 83 29 22 30 23 31 24 32
REMARK SMILES IDX 77 33 25 34 82 35 76 36 78 37 26 38 81 39 75 40 74 41 27 43
REMARK SMILES IDX 61 44 40 45 60 46 41 47 44 48 59 49 79 50 42 51 43 52 58 54
REMARK SMILES IDX 80 55 45 56 28 57 29 58 38 59 30 60 31 61 37 62 39 63 32 64
REMARK SMILES IDX 33 65 34 66 35 67 36 68 62 69 63 70 72 71 64 72 65 73 71 74
REMARK SMILES IDX 73 75 66 76 67 77 68 78 69 79 70 80 46 81 47 82 56 83 48 84
REMARK SMILES IDX 49 85 55 86 57 87 50 88 51 89 52 90 53 91 54 92
REMARK H PARENT 78 42 44 53
REMARK Flexibility Score: inf
ROOT
ATOM      1  C   UNL A   1      34.890  30.968  28.518  1.00  0.00     0.275 C 
ENDROOT
BRANCH   1   2
ATOM      2  C   UNL A   1      34.017  30.523  27.342  1.00  0.00     0.275 C 
BRANCH   2   3
ATOM      3  O   UNL A   1      33.902  29.083  27.272  1.00  0.00    -0.459 OA
BRANCH   3   4
ATOM      4  C   UNL A   1      32.647  28.605  27.095  1.00  0.00     0.338 C 
ATOM      5  O   UNL A   1      31.648  28.958  27.701  1.00  0.00    -0.246 OA
BRANCH   4   6
ATOM      6  C   UNL A   1      32.616  27.574  26.036  1.00  0.00     0.087 C 
ATOM      7  C   UNL A   1      34.839  23.925  23.808  1.00  0.00     0.025 A 
ATOM      8  C   UNL A   1      33.926  24.011  22.755  1.00  0.00     0.021 A 
ATOM      9  C   UNL A   1      34.696  24.769  24.907  1.00  0.00     0.029 A 
ATOM     10  C   UNL A   1      32.871  24.934  22.807  1.00  0.00     0.048 A 
ATOM     11  C   UNL A   1      33.656  25.707  24.941  1.00  0.00     0.018 A 
ATOM     12  C   UNL A   1      32.738  25.789  23.900  1.00  0.00     0.128 A 
ATOM     13  C   UNL A   1      33.568  26.635  26.043  1.00  0.00     0.027 C 
ATOM     14  O   UNL A   1      31.691  26.670  23.889  1.00  0.00    -0.475 OA
ATOM     15  C   UNL A   1      31.632  27.712  24.913  1.00  0.00     0.316 C 
BRANCH   7  16
ATOM     16  C   UNL A   1      35.933  23.006  23.768  1.00  0.00    -0.070 C 
ATOM     17  C   UNL A   1      36.869  22.250  23.786  1.00  0.00     0.010 C 
ENDBRANCH   7  16
BRANCH  15  18
ATOM     18  C   UNL A   1      31.775  29.083  24.233  1.00  0.00     0.430 C 
ATOM     19  F   UNL A   1      31.245  29.072  22.986  1.00  0.00    -0.167 F 
ATOM     20  F   UNL A   1      31.118  30.053  24.916  1.00  0.00    -0.167 F 
ATOM     21  F   UNL A   1      33.065  29.469  24.121  1.00  0.00    -0.167 F 
ENDBRANCH  15  18
ENDBRANCH   4   6
ENDBRANCH   3   4
ENDBRANCH   2   3
ENDBRANCH   1   2
BRANCH   1  22
ATOM     22  O   UNL A   1      35.744  29.902  28.965  1.00  0.00    -0.458 OA
BRANCH  22  23
ATOM     23  C   UNL A   1      36.515  30.207  30.031  1.00  0.00     0.338 C 
ATOM     24  O   UNL A   1      36.146  30.472  31.163  1.00  0.00    -0.246 OA
BRANCH  23  25
ATOM     25  C   UNL A   1      37.928  30.031  29.682  1.00  0.00     0.060 A 
ATOM     26  C   UNL A   1      38.878  29.633  30.610  1.00  0.00     0.016 A 
ATOM     27  C   UNL A   1      38.262  30.107  28.338  1.00  0.00     0.016 A 
ATOM     28  C   UNL A   1      40.169  29.329  30.159  1.00  0.00     0.010 A 
ATOM     29  C   UNL A   1      39.467  29.606  27.874  1.00  0.00     0.010 A 
ATOM     30  C   UNL A   1      40.469  29.270  28.780  1.00  0.00    -0.014 A 
BRANCH  30  31
ATOM     31  C   UNL A   1      41.823  28.899  28.281  1.00  0.00     0.031 A 
ATOM     32  C   UNL A   1      42.944  29.918  28.244  1.00  0.00     0.074 A 
ATOM     33  C   UNL A   1      42.043  27.643  27.842  1.00  0.00     0.049 A 
ATOM     34  N   UNL A   1      44.195  29.752  27.891  1.00  0.00    -0.248 NA
ATOM     35  C   UNL A   1      42.622  31.311  28.607  1.00  0.00     0.031 C 
ATOM     36  C   UNL A   1      41.021  26.598  27.728  1.00  0.00     0.029 A 
ATOM     37  N   UNL A   1      43.195  27.018  27.439  1.00  0.00    -0.354 N 
ATOM     38  C   UNL A   1      44.790  31.008  27.987  1.00  0.00     0.074 A 
ATOM     39  C   UNL A   1      43.747  31.945  28.325  1.00  0.00     0.031 C 
ATOM     40  C   UNL A   1      41.607  25.443  27.382  1.00  0.00     0.029 A 
ATOM     41  C   UNL A   1      43.035  25.674  27.191  1.00  0.00     0.049 A 
ATOM     42  H   UNL A   1      44.056  27.486  27.337  1.00  0.00     0.167 HD
ATOM     43  C   UNL A   1      46.095  31.346  27.866  1.00  0.00     0.037 A 
ATOM     44  C   UNL A   1      43.936  24.729  26.861  1.00  0.00     0.037 A 
ATOM     45  C   UNL A   1      47.135  30.399  27.571  1.00  0.00     0.049 A 
ATOM     46  C   UNL A   1      45.382  25.122  26.735  1.00  0.00     0.074 A 
ATOM     47  C   UNL A   1      48.497  30.618  27.485  1.00  0.00     0.029 A 
ATOM     48  N   UNL A   1      46.926  29.051  27.316  1.00  0.00    -0.354 N 
ATOM     49  N   UNL A   1      45.935  26.298  26.919  1.00  0.00    -0.248 NA
ATOM     50  C   UNL A   1      46.328  24.063  26.359  1.00  0.00     0.031 C 
ATOM     51  C   UNL A   1      49.107  29.415  27.119  1.00  0.00     0.029 A 
ATOM     52  C   UNL A   1      48.132  28.431  27.042  1.00  0.00     0.049 A 
ATOM     53  H   UNL A   1      46.050  28.603  27.328  1.00  0.00     0.167 HD
ATOM     54  C   UNL A   1      47.295  26.118  26.698  1.00  0.00     0.074 A 
ATOM     55  C   UNL A   1      47.483  24.714  26.390  1.00  0.00     0.031 C 
ATOM     56  C   UNL A   1      48.297  27.032  26.738  1.00  0.00     0.037 A 
BRANCH  43  57
ATOM     57  C   UNL A   1      46.477  32.789  28.087  1.00  0.00     0.058 A 
ATOM     58  C   UNL A   1      46.942  33.246  29.332  1.00  0.00     0.135 A 
ATOM     59  C   UNL A   1      46.427  33.716  27.032  1.00  0.00     0.135 A 
ATOM     60  F   UNL A   1      46.998  32.410  30.381  1.00  0.00    -0.206 F 
ATOM     61  C   UNL A   1      47.314  34.571  29.532  1.00  0.00     0.059 A 
ATOM     62  C   UNL A   1      46.829  35.039  27.200  1.00  0.00     0.059 A 
ATOM     63  F   UNL A   1      45.992  33.339  25.820  1.00  0.00    -0.206 F 
ATOM     64  C   UNL A   1      47.260  35.459  28.458  1.00  0.00     0.060 A 
BRANCH  64  65
ATOM     65  S   UNL A   1      47.768  37.169  28.735  1.00  0.00     0.124 S 
ATOM     66  O   UNL A   1      48.272  37.544  27.418  1.00  0.00    -0.237 OA
ATOM     67  O   UNL A   1      46.516  37.801  29.138  1.00  0.00    -0.237 OA
ATOM     68  O   UNL A   1      48.778  37.060  29.783  1.00  0.00    -0.744 OA
ENDBRANCH  64  65
ENDBRANCH  43  57
BRANCH  44  69
ATOM     69  C   UNL A   1      43.494  23.319  26.684  1.00  0.00     0.058 A 
ATOM     70  C   UNL A   1      43.473  22.722  25.414  1.00  0.00     0.135 A 
ATOM     71  C   UNL A   1      43.137  22.522  27.783  1.00  0.00     0.135 A 
ATOM     72  F   UNL A   1      43.802  23.441  24.330  1.00  0.00    -0.206 F 
ATOM     73  C   UNL A   1      43.109  21.391  25.239  1.00  0.00     0.059 A 
ATOM     74  C   UNL A   1      42.800  21.180  27.637  1.00  0.00     0.059 A 
ATOM     75  F   UNL A   1      43.158  23.037  29.022  1.00  0.00    -0.206 F 
ATOM     76  C   UNL A   1      42.785  20.625  26.359  1.00  0.00     0.060 A 
BRANCH  76  77
ATOM     77  S   UNL A   1      42.378  18.881  26.123  1.00  0.00     0.124 S 
ATOM     78  O   UNL A   1      40.988  18.959  25.688  1.00  0.00    -0.237 OA
ATOM     79  O   UNL A   1      43.344  18.481  25.105  1.00  0.00    -0.237 OA
ATOM     80  O   UNL A   1      42.594  18.302  27.445  1.00  0.00    -0.744 OA
ENDBRANCH  76  77
ENDBRANCH  44  69
BRANCH  56  81
ATOM     81  C   UNL A   1      49.691  26.549  26.450  1.00  0.00     0.058 A 
ATOM     82  C   UNL A   1      50.488  25.971  27.448  1.00  0.00     0.135 A 
ATOM     83  C   UNL A   1      50.203  26.590  25.141  1.00  0.00     0.135 A 
ATOM     84  F   UNL A   1      50.047  25.910  28.715  1.00  0.00    -0.206 F 
ATOM     85  C   UNL A   1      51.752  25.466  27.165  1.00  0.00     0.059 A 
ATOM     86  C   UNL A   1      51.450  26.060  24.829  1.00  0.00     0.059 A 
ATOM     87  F   UNL A   1      49.476  27.121  24.146  1.00  0.00    -0.206 F 
ATOM     88  C   UNL A   1      52.221  25.509  25.851  1.00  0.00     0.060 A 
BRANCH  88  89
ATOM     89  S   UNL A   1      53.847  24.812  25.497  1.00  0.00     0.124 S 
ATOM     90  O   UNL A   1      54.529  24.995  26.775  1.00  0.00    -0.237 OA
ATOM     91  O   UNL A   1      53.522  23.434  25.144  1.00  0.00    -0.237 OA
ATOM     92  O   UNL A   1      54.341  25.636  24.400  1.00  0.00    -0.744 OA
ENDBRANCH  88  89
ENDBRANCH  56  81
ENDBRANCH  30  31
ENDBRANCH  23  25
ENDBRANCH  22  23
ENDBRANCH   1  22
TORSDOF 16
ENDMDL
