MODEL 1
REMARK VINA RESULT:     -13.1      0.000      0.000
REMARK SMILES O=C(OCCOC(=O)[C@@H](Cc1ccccc1)N1C(=O)/C(=C/c2ccc3ncccc3c2)SC1=S)c1ccc(-c2c3nc(c(-c4c(F)cc(S(=O)(=O)[O-])cc4F)c4ccc([nH]4)c(-c4c(F)cc(S(=O)(=O)[O-])cc4F)c4nc(c(-c5c(F)cc(S(=O)(=O)[O-])cc5F)c5ccc2[nH]5)C=C4)C=C3)cc1
REMARK SMILES IDX 4 1 3 2 2 3 1 4 35 5 36 6 100 7 37 8 99 9 38 10 39 11 40 12
REMARK SMILES IDX 93 13 41 14 98 15 92 16 94 17 42 18 97 19 91 20 90 21 43 23
REMARK SMILES IDX 77 24 56 25 76 26 57 27 60 28 75 29 95 30 58 31 59 32 74 34
REMARK SMILES IDX 96 35 61 36 44 37 45 38 54 39 46 40 47 41 53 42 55 43 48 44
REMARK SMILES IDX 49 45 50 46 51 47 52 48 78 49 79 50 88 51 80 52 81 53 87 54
REMARK SMILES IDX 89 55 82 56 83 57 84 58 85 59 86 60 62 61 63 62 72 63 64 64
REMARK SMILES IDX 65 65 71 66 73 67 66 68 67 69 68 70 69 71 70 72 5 73 6 74
REMARK SMILES IDX 7 75 8 76 9 77 10 78 11 79 12 80 16 81 13 82 15 83 14 84
REMARK SMILES IDX 17 85 18 86 33 87 19 88 20 89 32 90 34 91 21 92 22 93 23 94
REMARK SMILES IDX 31 95 24 96 30 97 25 98 29 99 26 100 28 101 27 102
REMARK H PARENT 94 22 60 33
REMARK Flexibility Score: inf
ROOT
ATOM      1  C   UNL A   1      37.472  20.558  25.032  1.00  0.00     0.275 C 
ENDROOT
BRANCH   1   2
ATOM      2  O   UNL A   1      38.159  21.721  25.563  1.00  0.00    -0.458 OA
BRANCH   2   3
ATOM      3  C   UNL A   1      39.374  21.857  26.158  1.00  0.00     0.338 C 
ATOM      4  O   UNL A   1      40.076  20.862  26.316  1.00  0.00    -0.246 OA
BRANCH   3   5
ATOM      5  C   UNL A   1      39.795  23.112  26.855  1.00  0.00     0.060 A 
ATOM      6  C   UNL A   1      40.768  23.179  27.845  1.00  0.00     0.016 A 
ATOM      7  C   UNL A   1      39.118  24.308  26.533  1.00  0.00     0.016 A 
ATOM      8  C   UNL A   1      41.158  24.439  28.370  1.00  0.00     0.010 A 
ATOM      9  C   UNL A   1      39.509  25.567  27.065  1.00  0.00     0.010 A 
ATOM     10  C   UNL A   1      40.589  25.674  27.950  1.00  0.00    -0.014 A 
BRANCH  10  11
ATOM     11  C   UNL A   1      41.077  27.012  28.507  1.00  0.00     0.031 A 
ATOM     12  C   UNL A   1      42.561  27.251  28.544  1.00  0.00     0.074 A 
ATOM     13  C   UNL A   1      40.339  28.122  28.802  1.00  0.00     0.049 A 
ATOM     14  N   UNL A   1      43.192  28.391  28.653  1.00  0.00    -0.248 NA
ATOM     15  C   UNL A   1      43.427  26.093  28.296  1.00  0.00     0.031 C 
ATOM     16  C   UNL A   1      38.933  28.325  28.512  1.00  0.00     0.029 A 
ATOM     17  N   UNL A   1      40.696  29.365  29.330  1.00  0.00    -0.354 N 
ATOM     18  C   UNL A   1      44.514  28.111  28.377  1.00  0.00     0.074 A 
ATOM     19  C   UNL A   1      44.594  26.688  28.103  1.00  0.00     0.031 C 
ATOM     20  C   UNL A   1      38.554  29.562  28.846  1.00  0.00     0.029 A 
ATOM     21  C   UNL A   1      39.637  30.241  29.494  1.00  0.00     0.049 A 
ATOM     22  H   UNL A   1      41.623  29.598  29.565  1.00  0.00     0.167 HD
ATOM     23  C   UNL A   1      45.574  28.950  28.368  1.00  0.00     0.037 A 
ATOM     24  C   UNL A   1      39.471  31.460  30.050  1.00  0.00     0.037 A 
ATOM     25  C   UNL A   1      45.579  30.312  28.826  1.00  0.00     0.049 A 
ATOM     26  C   UNL A   1      40.684  32.243  30.400  1.00  0.00     0.074 A 
ATOM     27  C   UNL A   1      46.677  31.136  29.008  1.00  0.00     0.029 A 
ATOM     28  N   UNL A   1      44.472  31.025  29.258  1.00  0.00    -0.354 N 
ATOM     29  N   UNL A   1      41.920  31.959  30.090  1.00  0.00    -0.248 NA
ATOM     30  C   UNL A   1      40.503  33.529  31.089  1.00  0.00     0.031 C 
ATOM     31  C   UNL A   1      46.251  32.305  29.644  1.00  0.00     0.029 A 
ATOM     32  C   UNL A   1      44.876  32.245  29.790  1.00  0.00     0.049 A 
ATOM     33  H   UNL A   1      43.539  30.716  29.198  1.00  0.00     0.167 HD
ATOM     34  C   UNL A   1      42.661  33.050  30.499  1.00  0.00     0.074 A 
ATOM     35  C   UNL A   1      41.740  34.009  31.069  1.00  0.00     0.031 C 
ATOM     36  C   UNL A   1      43.996  33.220  30.381  1.00  0.00     0.037 A 
BRANCH  23  37
ATOM     37  C   UNL A   1      46.867  28.306  28.000  1.00  0.00     0.058 A 
ATOM     38  C   UNL A   1      47.257  28.140  26.662  1.00  0.00     0.135 A 
ATOM     39  C   UNL A   1      47.649  27.728  29.009  1.00  0.00     0.135 A 
ATOM     40  F   UNL A   1      46.507  28.643  25.668  1.00  0.00    -0.206 F 
ATOM     41  C   UNL A   1      48.368  27.373  26.336  1.00  0.00     0.059 A 
ATOM     42  C   UNL A   1      48.768  26.970  28.705  1.00  0.00     0.059 A 
ATOM     43  F   UNL A   1      47.283  27.841  30.295  1.00  0.00    -0.206 F 
ATOM     44  C   UNL A   1      49.102  26.777  27.365  1.00  0.00     0.060 A 
BRANCH  44  45
ATOM     45  S   UNL A   1      50.468  25.686  26.929  1.00  0.00     0.124 S 
ATOM     46  O   UNL A   1      50.484  25.816  25.476  1.00  0.00    -0.237 OA
ATOM     47  O   UNL A   1      51.591  26.297  27.633  1.00  0.00    -0.237 OA
ATOM     48  O   UNL A   1      50.040  24.388  27.439  1.00  0.00    -0.744 OA
ENDBRANCH  44  45
ENDBRANCH  23  37
BRANCH  24  49
ATOM     49  C   UNL A   1      38.113  32.015  30.375  1.00  0.00     0.058 A 
ATOM     50  C   UNL A   1      37.514  33.051  29.638  1.00  0.00     0.135 A 
ATOM     51  C   UNL A   1      37.460  31.607  31.551  1.00  0.00     0.135 A 
ATOM     52  F   UNL A   1      38.085  33.475  28.501  1.00  0.00    -0.206 F 
ATOM     53  C   UNL A   1      36.363  33.706  30.088  1.00  0.00     0.059 A 
ATOM     54  C   UNL A   1      36.303  32.231  32.010  1.00  0.00     0.059 A 
ATOM     55  F   UNL A   1      37.966  30.607  32.289  1.00  0.00    -0.206 F 
ATOM     56  C   UNL A   1      35.781  33.306  31.292  1.00  0.00     0.060 A 
BRANCH  56  57
ATOM     57  S   UNL A   1      34.350  34.184  31.970  1.00  0.00     0.124 S 
ATOM     58  O   UNL A   1      33.625  34.536  30.755  1.00  0.00    -0.237 OA
ATOM     59  O   UNL A   1      33.708  33.185  32.815  1.00  0.00    -0.237 OA
ATOM     60  O   UNL A   1      34.966  35.304  32.678  1.00  0.00    -0.744 OA
ENDBRANCH  56  57
ENDBRANCH  24  49
BRANCH  36  61
ATOM     61  C   UNL A   1      44.570  34.498  30.906  1.00  0.00     0.058 A 
ATOM     62  C   UNL A   1      44.677  35.638  30.095  1.00  0.00     0.135 A 
ATOM     63  C   UNL A   1      44.969  34.603  32.246  1.00  0.00     0.135 A 
ATOM     64  F   UNL A   1      44.331  35.581  28.798  1.00  0.00    -0.206 F 
ATOM     65  C   UNL A   1      45.157  36.841  30.595  1.00  0.00     0.059 A 
ATOM     66  C   UNL A   1      45.425  35.804  32.776  1.00  0.00     0.059 A 
ATOM     67  F   UNL A   1      44.899  33.538  33.061  1.00  0.00    -0.206 F 
ATOM     68  C   UNL A   1      45.514  36.918  31.941  1.00  0.00     0.060 A 
BRANCH  68  69
ATOM     69  S   UNL A   1      46.035  38.515  32.603  1.00  0.00     0.124 S 
ATOM     70  O   UNL A   1      45.332  38.549  33.880  1.00  0.00    -0.237 OA
ATOM     71  O   UNL A   1      47.484  38.360  32.678  1.00  0.00    -0.237 OA
ATOM     72  O   UNL A   1      45.565  39.465  31.599  1.00  0.00    -0.744 OA
ENDBRANCH  68  69
ENDBRANCH  36  61
ENDBRANCH  10  11
ENDBRANCH   3   5
ENDBRANCH   2   3
ENDBRANCH   1   2
BRANCH   1  73
ATOM     73  C   UNL A   1      35.952  20.774  25.012  1.00  0.00     0.274 C 
BRANCH  73  74
ATOM     74  O   UNL A   1      35.560  21.434  26.210  1.00  0.00    -0.461 OA
BRANCH  74  75
ATOM     75  C   UNL A   1      34.243  21.432  26.546  1.00  0.00     0.329 C 
ATOM     76  O   UNL A   1      33.792  21.273  27.670  1.00  0.00    -0.250 OA
BRANCH  75  77
ATOM     77  C   UNL A   1      33.417  21.715  25.295  1.00  0.00     0.206 C 
BRANCH  77  78
ATOM     78  C   UNL A   1      32.343  20.619  25.079  1.00  0.00     0.073 C 
BRANCH  78  79
ATOM     79  C   UNL A   1      32.488  19.157  24.728  1.00  0.00    -0.045 A 
ATOM     80  C   UNL A   1      32.893  18.171  25.617  1.00  0.00     0.004 A 
ATOM     81  C   UNL A   1      32.467  18.813  23.359  1.00  0.00     0.004 A 
ATOM     82  C   UNL A   1      33.353  16.935  25.139  1.00  0.00     0.000 A 
ATOM     83  C   UNL A   1      32.958  17.605  22.872  1.00  0.00     0.000 A 
ATOM     84  C   UNL A   1      33.425  16.667  23.771  1.00  0.00     0.000 A 
ENDBRANCH  78  79
ENDBRANCH  77  78
BRANCH  77  85
ATOM     85  N   UNL A   1      33.025  23.068  24.914  1.00  0.00    -0.278 N 
ATOM     86  C   UNL A   1      32.102  23.708  25.745  1.00  0.00     0.267 C 
ATOM     87  C   UNL A   1      33.609  23.844  23.940  1.00  0.00     0.149 C 
ATOM     88  O   UNL A   1      31.350  23.176  26.522  1.00  0.00    -0.268 OA
ATOM     89  C   UNL A   1      32.256  25.176  25.585  1.00  0.00     0.081 C 
ATOM     90  S   UNL A   1      33.143  25.517  24.156  1.00  0.00    -0.054 SA
ATOM     91  S   UNL A   1      34.586  23.389  22.670  1.00  0.00    -0.052 S 
ATOM     92  C   UNL A   1      31.880  26.045  26.531  1.00  0.00     0.029 C 
BRANCH  92  93
ATOM     93  C   UNL A   1      32.272  27.450  26.459  1.00  0.00    -0.024 A 
ATOM     94  C   UNL A   1      31.366  28.461  26.119  1.00  0.00     0.010 A 
ATOM     95  C   UNL A   1      33.534  27.783  26.926  1.00  0.00     0.018 A 
ATOM     96  C   UNL A   1      31.714  29.802  26.320  1.00  0.00     0.029 A 
ATOM     97  C   UNL A   1      33.852  29.118  27.165  1.00  0.00     0.001 A 
ATOM     98  C   UNL A   1      32.934  30.154  26.883  1.00  0.00     0.070 A 
ATOM     99  C   UNL A   1      35.087  29.443  27.719  1.00  0.00     0.012 A 
ATOM    100  N   UNL A   1      33.201  31.440  27.170  1.00  0.00    -0.256 NA
ATOM    101  C   UNL A   1      35.384  30.768  27.980  1.00  0.00     0.021 A 
ATOM    102  C   UNL A   1      34.423  31.717  27.678  1.00  0.00     0.112 A 
ENDBRANCH  92  93
ENDBRANCH  77  85
ENDBRANCH  75  77
ENDBRANCH  74  75
ENDBRANCH  73  74
ENDBRANCH   1  73
TORSDOF 18
ENDMDL
MODEL 2
REMARK VINA RESULT:     -12.5      4.405      8.447
REMARK SMILES O=C(OCCOC(=O)[C@@H](Cc1ccccc1)N1C(=O)/C(=C/c2ccc3ncccc3c2)SC1=S)c1ccc(-c2c3nc(c(-c4c(F)cc(S(=O)(=O)[O-])cc4F)c4ccc([nH]4)c(-c4c(F)cc(S(=O)(=O)[O-])cc4F)c4nc(c(-c5c(F)cc(S(=O)(=O)[O-])cc5F)c5ccc2[nH]5)C=C4)C=C3)cc1
REMARK SMILES IDX 4 1 3 2 2 3 1 4 35 5 36 6 100 7 37 8 99 9 38 10 39 11 40 12
REMARK SMILES IDX 93 13 41 14 98 15 92 16 94 17 42 18 97 19 91 20 90 21 43 23
REMARK SMILES IDX 77 24 56 25 76 26 57 27 60 28 75 29 95 30 58 31 59 32 74 34
REMARK SMILES IDX 96 35 61 36 44 37 45 38 54 39 46 40 47 41 53 42 55 43 48 44
REMARK SMILES IDX 49 45 50 46 51 47 52 48 78 49 79 50 88 51 80 52 81 53 87 54
REMARK SMILES IDX 89 55 82 56 83 57 84 58 85 59 86 60 62 61 63 62 72 63 64 64
REMARK SMILES IDX 65 65 71 66 73 67 66 68 67 69 68 70 69 71 70 72 5 73 6 74
REMARK SMILES IDX 7 75 8 76 9 77 10 78 11 79 12 80 16 81 13 82 15 83 14 84
REMARK SMILES IDX 17 85 18 86 33 87 19 88 20 89 32 90 34 91 21 92 22 93 23 94
REMARK SMILES IDX 31 95 24 96 30 97 25 98 29 99 26 100 28 101 27 102
REMARK H PARENT 94 22 60 33
REMARK Flexibility Score: inf
ROOT
ATOM      1  C   UNL A   1      37.842  22.594  25.911  1.00  0.00     0.275 C 
ENDROOT
BRANCH   1   2
ATOM      2  O   UNL A   1      38.554  23.849  26.078  1.00  0.00    -0.458 OA
BRANCH   2   3
ATOM      3  C   UNL A   1      39.709  24.151  26.729  1.00  0.00     0.338 C 
ATOM      4  O   UNL A   1      40.643  23.354  26.690  1.00  0.00    -0.246 OA
BRANCH   3   5
ATOM      5  C   UNL A   1      39.815  25.286  27.698  1.00  0.00     0.060 A 
ATOM      6  C   UNL A   1      38.833  25.635  28.619  1.00  0.00     0.016 A 
ATOM      7  C   UNL A   1      40.964  26.103  27.639  1.00  0.00     0.016 A 
ATOM      8  C   UNL A   1      39.080  26.670  29.558  1.00  0.00     0.010 A 
ATOM      9  C   UNL A   1      41.205  27.142  28.578  1.00  0.00     0.010 A 
ATOM     10  C   UNL A   1      40.295  27.409  29.609  1.00  0.00    -0.014 A 
BRANCH  10  11
ATOM     11  C   UNL A   1      40.537  28.482  30.672  1.00  0.00     0.031 A 
ATOM     12  C   UNL A   1      39.686  29.721  30.616  1.00  0.00     0.074 A 
ATOM     13  C   UNL A   1      41.296  28.393  31.803  1.00  0.00     0.049 A 
ATOM     14  N   UNL A   1      39.472  30.596  31.564  1.00  0.00    -0.248 NA
ATOM     15  C   UNL A   1      38.884  29.922  29.405  1.00  0.00     0.031 C 
ATOM     16  C   UNL A   1      41.930  27.198  32.325  1.00  0.00     0.029 A 
ATOM     17  N   UNL A   1      41.587  29.321  32.806  1.00  0.00    -0.354 N 
ATOM     18  C   UNL A   1      38.435  31.384  31.114  1.00  0.00     0.074 A 
ATOM     19  C   UNL A   1      38.068  30.887  29.800  1.00  0.00     0.031 C 
ATOM     20  C   UNL A   1      42.512  27.444  33.502  1.00  0.00     0.029 A 
ATOM     21  C   UNL A   1      42.419  28.843  33.803  1.00  0.00     0.049 A 
ATOM     22  H   UNL A   1      41.230  30.238  32.803  1.00  0.00     0.167 HD
ATOM     23  C   UNL A   1      37.846  32.439  31.721  1.00  0.00     0.037 A 
ATOM     24  C   UNL A   1      43.047  29.375  34.873  1.00  0.00     0.037 A 
ATOM     25  C   UNL A   1      38.303  33.089  32.918  1.00  0.00     0.049 A 
ATOM     26  C   UNL A   1      42.647  30.735  35.317  1.00  0.00     0.074 A 
ATOM     27  C   UNL A   1      37.842  34.277  33.461  1.00  0.00     0.029 A 
ATOM     28  N   UNL A   1      39.366  32.678  33.707  1.00  0.00    -0.354 N 
ATOM     29  N   UNL A   1      41.634  31.437  34.885  1.00  0.00    -0.248 NA
ATOM     30  C   UNL A   1      43.394  31.350  36.424  1.00  0.00     0.031 C 
ATOM     31  C   UNL A   1      38.687  34.638  34.514  1.00  0.00     0.029 A 
ATOM     32  C   UNL A   1      39.629  33.639  34.678  1.00  0.00     0.049 A 
ATOM     33  H   UNL A   1      39.859  31.833  33.598  1.00  0.00     0.167 HD
ATOM     34  C   UNL A   1      41.588  32.552  35.698  1.00  0.00     0.074 A 
ATOM     35  C   UNL A   1      42.665  32.433  36.657  1.00  0.00     0.031 C 
ATOM     36  C   UNL A   1      40.700  33.568  35.639  1.00  0.00     0.037 A 
BRANCH  23  37
ATOM     37  C   UNL A   1      36.727  33.050  30.948  1.00  0.00     0.058 A 
ATOM     38  C   UNL A   1      36.959  33.942  29.890  1.00  0.00     0.135 A 
ATOM     39  C   UNL A   1      35.410  32.838  31.377  1.00  0.00     0.135 A 
ATOM     40  F   UNL A   1      38.212  34.203  29.482  1.00  0.00    -0.206 F 
ATOM     41  C   UNL A   1      35.911  34.644  29.310  1.00  0.00     0.059 A 
ATOM     42  C   UNL A   1      34.350  33.518  30.803  1.00  0.00     0.059 A 
ATOM     43  F   UNL A   1      35.160  32.016  32.408  1.00  0.00    -0.206 F 
ATOM     44  C   UNL A   1      34.614  34.438  29.789  1.00  0.00     0.060 A 
BRANCH  44  45
ATOM     45  S   UNL A   1      33.277  35.440  29.115  1.00  0.00     0.124 S 
ATOM     46  O   UNL A   1      34.024  36.453  28.376  1.00  0.00    -0.237 OA
ATOM     47  O   UNL A   1      32.543  34.475  28.304  1.00  0.00    -0.237 OA
ATOM     48  O   UNL A   1      32.580  35.918  30.304  1.00  0.00    -0.744 OA
ENDBRANCH  44  45
ENDBRANCH  23  37
BRANCH  24  49
ATOM     49  C   UNL A   1      44.165  28.664  35.582  1.00  0.00     0.058 A 
ATOM     50  C   UNL A   1      43.956  27.817  36.684  1.00  0.00     0.135 A 
ATOM     51  C   UNL A   1      45.498  28.962  35.249  1.00  0.00     0.135 A 
ATOM     52  F   UNL A   1      42.706  27.489  37.042  1.00  0.00    -0.206 F 
ATOM     53  C   UNL A   1      45.016  27.350  37.467  1.00  0.00     0.059 A 
ATOM     54  C   UNL A   1      46.571  28.495  36.003  1.00  0.00     0.059 A 
ATOM     55  F   UNL A   1      45.768  29.746  34.194  1.00  0.00    -0.206 F 
ATOM     56  C   UNL A   1      46.320  27.720  37.134  1.00  0.00     0.060 A 
BRANCH  56  57
ATOM     57  S   UNL A   1      47.720  27.227  38.171  1.00  0.00     0.124 S 
ATOM     58  O   UNL A   1      47.041  26.801  39.389  1.00  0.00    -0.237 OA
ATOM     59  O   UNL A   1      48.354  26.163  37.403  1.00  0.00    -0.237 OA
ATOM     60  O   UNL A   1      48.488  28.465  38.284  1.00  0.00    -0.744 OA
ENDBRANCH  56  57
ENDBRANCH  24  49
BRANCH  36  61
ATOM     61  C   UNL A   1      40.859  34.673  36.636  1.00  0.00     0.058 A 
ATOM     62  C   UNL A   1      40.138  34.681  37.839  1.00  0.00     0.135 A 
ATOM     63  C   UNL A   1      41.780  35.707  36.412  1.00  0.00     0.135 A 
ATOM     64  F   UNL A   1      39.227  33.726  38.088  1.00  0.00    -0.206 F 
ATOM     65  C   UNL A   1      40.326  35.675  38.790  1.00  0.00     0.059 A 
ATOM     66  C   UNL A   1      42.006  36.696  37.362  1.00  0.00     0.059 A 
ATOM     67  F   UNL A   1      42.486  35.752  35.271  1.00  0.00    -0.206 F 
ATOM     68  C   UNL A   1      41.274  36.670  38.549  1.00  0.00     0.060 A 
BRANCH  68  69
ATOM     69  S   UNL A   1      41.584  37.893  39.839  1.00  0.00     0.124 S 
ATOM     70  O   UNL A   1      42.683  38.659  39.262  1.00  0.00    -0.237 OA
ATOM     71  O   UNL A   1      40.302  38.586  39.922  1.00  0.00    -0.237 OA
ATOM     72  O   UNL A   1      41.924  37.079  41.002  1.00  0.00    -0.744 OA
ENDBRANCH  68  69
ENDBRANCH  36  61
ENDBRANCH  10  11
ENDBRANCH   3   5
ENDBRANCH   2   3
ENDBRANCH   1   2
BRANCH   1  73
ATOM     73  C   UNL A   1      36.332  22.828  25.775  1.00  0.00     0.274 C 
BRANCH  73  74
ATOM     74  O   UNL A   1      35.688  21.583  25.526  1.00  0.00    -0.461 OA
BRANCH  74  75
ATOM     75  C   UNL A   1      34.449  21.383  26.045  1.00  0.00     0.329 C 
ATOM     76  O   UNL A   1      34.200  21.054  27.195  1.00  0.00    -0.250 OA
BRANCH  75  77
ATOM     77  C   UNL A   1      33.411  21.689  24.970  1.00  0.00     0.206 C 
BRANCH  77  78
ATOM     78  C   UNL A   1      32.367  20.548  24.865  1.00  0.00     0.073 C 
BRANCH  78  79
ATOM     79  C   UNL A   1      32.553  19.061  24.675  1.00  0.00    -0.045 A 
ATOM     80  C   UNL A   1      32.733  18.153  25.709  1.00  0.00     0.004 A 
ATOM     81  C   UNL A   1      32.824  18.601  23.368  1.00  0.00     0.004 A 
ATOM     82  C   UNL A   1      33.259  16.878  25.447  1.00  0.00     0.000 A 
ATOM     83  C   UNL A   1      33.383  17.356  23.101  1.00  0.00     0.000 A 
ATOM     84  C   UNL A   1      33.622  16.495  24.154  1.00  0.00     0.000 A 
ENDBRANCH  78  79
ENDBRANCH  77  78
BRANCH  77  85
ATOM     85  N   UNL A   1      32.899  23.037  24.748  1.00  0.00    -0.278 N 
ATOM     86  C   UNL A   1      32.177  23.611  25.798  1.00  0.00     0.267 C 
ATOM     87  C   UNL A   1      33.212  23.867  23.698  1.00  0.00     0.149 C 
ATOM     88  O   UNL A   1      31.646  23.023  26.706  1.00  0.00    -0.268 OA
ATOM     89  C   UNL A   1      32.242  25.088  25.669  1.00  0.00     0.081 C 
ATOM     90  S   UNL A   1      32.758  25.513  24.087  1.00  0.00    -0.054 SA
ATOM     91  S   UNL A   1      33.877  23.495  22.217  1.00  0.00    -0.052 S 
ATOM     92  C   UNL A   1      32.072  25.909  26.712  1.00  0.00     0.029 C 
BRANCH  92  93
ATOM     93  C   UNL A   1      32.392  27.331  26.609  1.00  0.00    -0.024 A 
ATOM     94  C   UNL A   1      31.405  28.308  26.442  1.00  0.00     0.010 A 
ATOM     95  C   UNL A   1      33.699  27.710  26.875  1.00  0.00     0.018 A 
ATOM     96  C   UNL A   1      31.727  29.659  26.614  1.00  0.00     0.029 A 
ATOM     97  C   UNL A   1      33.999  29.053  27.089  1.00  0.00     0.001 A 
ATOM     98  C   UNL A   1      33.007  30.053  26.981  1.00  0.00     0.070 A 
ATOM     99  C   UNL A   1      35.293  29.421  27.445  1.00  0.00     0.012 A 
ATOM    100  N   UNL A   1      33.266  31.345  27.250  1.00  0.00    -0.256 NA
ATOM    101  C   UNL A   1      35.576  30.753  27.684  1.00  0.00     0.021 A 
ATOM    102  C   UNL A   1      34.543  31.666  27.562  1.00  0.00     0.112 A 
ENDBRANCH  92  93
ENDBRANCH  77  85
ENDBRANCH  75  77
ENDBRANCH  74  75
ENDBRANCH  73  74
ENDBRANCH   1  73
TORSDOF 18
ENDMDL
MODEL 3
REMARK VINA RESULT:     -12.4      3.901      9.971
REMARK SMILES O=C(OCCOC(=O)[C@@H](Cc1ccccc1)N1C(=O)/C(=C/c2ccc3ncccc3c2)SC1=S)c1ccc(-c2c3nc(c(-c4c(F)cc(S(=O)(=O)[O-])cc4F)c4ccc([nH]4)c(-c4c(F)cc(S(=O)(=O)[O-])cc4F)c4nc(c(-c5c(F)cc(S(=O)(=O)[O-])cc5F)c5ccc2[nH]5)C=C4)C=C3)cc1
REMARK SMILES IDX 4 1 3 2 2 3 1 4 35 5 36 6 100 7 37 8 99 9 38 10 39 11 40 12
REMARK SMILES IDX 93 13 41 14 98 15 92 16 94 17 42 18 97 19 91 20 90 21 43 23
REMARK SMILES IDX 77 24 56 25 76 26 57 27 60 28 75 29 95 30 58 31 59 32 74 34
REMARK SMILES IDX 96 35 61 36 44 37 45 38 54 39 46 40 47 41 53 42 55 43 48 44
REMARK SMILES IDX 49 45 50 46 51 47 52 48 78 49 79 50 88 51 80 52 81 53 87 54
REMARK SMILES IDX 89 55 82 56 83 57 84 58 85 59 86 60 62 61 63 62 72 63 64 64
REMARK SMILES IDX 65 65 71 66 73 67 66 68 67 69 68 70 69 71 70 72 5 73 6 74
REMARK SMILES IDX 7 75 8 76 9 77 10 78 11 79 12 80 16 81 13 82 15 83 14 84
REMARK SMILES IDX 17 85 18 86 33 87 19 88 20 89 32 90 34 91 21 92 22 93 23 94
REMARK SMILES IDX 31 95 24 96 30 97 25 98 29 99 26 100 28 101 27 102
REMARK H PARENT 94 22 60 33
REMARK Flexibility Score: inf
ROOT
ATOM      1  C   UNL A   1      43.171  18.655  25.834  1.00  0.00     0.275 C 
ENDROOT
BRANCH   1   2
ATOM      2  O   UNL A   1      43.829  18.853  24.554  1.00  0.00    -0.458 OA
BRANCH   2   3
ATOM      3  C   UNL A   1      44.948  19.546  24.213  1.00  0.00     0.338 C 
ATOM      4  O   UNL A   1      45.900  18.941  23.727  1.00  0.00    -0.246 OA
BRANCH   3   5
ATOM      5  C   UNL A   1      45.175  20.965  24.628  1.00  0.00     0.060 A 
ATOM      6  C   UNL A   1      45.438  21.376  25.930  1.00  0.00     0.016 A 
ATOM      7  C   UNL A   1      45.056  21.971  23.645  1.00  0.00     0.016 A 
ATOM      8  C   UNL A   1      45.735  22.739  26.195  1.00  0.00     0.010 A 
ATOM      9  C   UNL A   1      45.350  23.335  23.916  1.00  0.00     0.010 A 
ATOM     10  C   UNL A   1      45.765  23.745  25.189  1.00  0.00    -0.014 A 
BRANCH  10  11
ATOM     11  C   UNL A   1      46.141  25.192  25.513  1.00  0.00     0.031 A 
ATOM     12  C   UNL A   1      45.029  26.130  25.896  1.00  0.00     0.074 A 
ATOM     13  C   UNL A   1      47.387  25.719  25.698  1.00  0.00     0.049 A 
ATOM     14  N   UNL A   1      45.120  27.277  26.518  1.00  0.00    -0.248 NA
ATOM     15  C   UNL A   1      43.657  25.662  25.673  1.00  0.00     0.031 C 
ATOM     16  C   UNL A   1      48.633  24.982  25.770  1.00  0.00     0.029 A 
ATOM     17  N   UNL A   1      47.817  27.019  25.970  1.00  0.00    -0.354 N 
ATOM     18  C   UNL A   1      43.829  27.616  26.861  1.00  0.00     0.074 A 
ATOM     19  C   UNL A   1      42.970  26.554  26.369  1.00  0.00     0.031 C 
ATOM     20  C   UNL A   1      49.651  25.798  26.058  1.00  0.00     0.029 A 
ATOM     21  C   UNL A   1      49.190  27.155  26.081  1.00  0.00     0.049 A 
ATOM     22  H   UNL A   1      47.196  27.775  26.077  1.00  0.00     0.167 HD
ATOM     23  C   UNL A   1      43.385  28.715  27.510  1.00  0.00     0.037 A 
ATOM     24  C   UNL A   1      50.050  28.187  26.215  1.00  0.00     0.037 A 
ATOM     25  C   UNL A   1      44.164  29.878  27.834  1.00  0.00     0.049 A 
ATOM     26  C   UNL A   1      49.496  29.521  26.566  1.00  0.00     0.074 A 
ATOM     27  C   UNL A   1      43.706  31.090  28.324  1.00  0.00     0.029 A 
ATOM     28  N   UNL A   1      45.527  30.024  27.627  1.00  0.00    -0.354 N 
ATOM     29  N   UNL A   1      48.269  29.794  26.918  1.00  0.00    -0.248 NA
ATOM     30  C   UNL A   1      50.421  30.661  26.623  1.00  0.00     0.031 C 
ATOM     31  C   UNL A   1      44.768  31.999  28.315  1.00  0.00     0.029 A 
ATOM     32  C   UNL A   1      45.906  31.335  27.894  1.00  0.00     0.049 A 
ATOM     33  H   UNL A   1      46.135  29.307  27.335  1.00  0.00     0.167 HD
ATOM     34  C   UNL A   1      48.282  31.124  27.287  1.00  0.00     0.074 A 
ATOM     35  C   UNL A   1      49.638  31.604  27.129  1.00  0.00     0.031 C 
ATOM     36  C   UNL A   1      47.239  31.857  27.734  1.00  0.00     0.037 A 
BRANCH  23  37
ATOM     37  C   UNL A   1      41.911  28.746  27.736  1.00  0.00     0.058 A 
ATOM     38  C   UNL A   1      41.013  29.079  26.710  1.00  0.00     0.135 A 
ATOM     39  C   UNL A   1      41.420  28.575  29.037  1.00  0.00     0.135 A 
ATOM     40  F   UNL A   1      41.455  29.295  25.461  1.00  0.00    -0.206 F 
ATOM     41  C   UNL A   1      39.668  29.287  26.985  1.00  0.00     0.059 A 
ATOM     42  C   UNL A   1      40.080  28.765  29.328  1.00  0.00     0.059 A 
ATOM     43  F   UNL A   1      42.260  28.289  30.043  1.00  0.00    -0.206 F 
ATOM     44  C   UNL A   1      39.218  29.147  28.301  1.00  0.00     0.060 A 
BRANCH  44  45
ATOM     45  S   UNL A   1      37.498  29.536  28.670  1.00  0.00     0.124 S 
ATOM     46  O   UNL A   1      36.819  28.942  27.523  1.00  0.00    -0.237 OA
ATOM     47  O   UNL A   1      37.294  28.863  29.948  1.00  0.00    -0.237 OA
ATOM     48  O   UNL A   1      37.485  30.995  28.722  1.00  0.00    -0.744 OA
ENDBRANCH  44  45
ENDBRANCH  23  37
BRANCH  24  49
ATOM     49  C   UNL A   1      51.524  28.041  25.967  1.00  0.00     0.058 A 
ATOM     50  C   UNL A   1      52.088  28.048  24.680  1.00  0.00     0.135 A 
ATOM     51  C   UNL A   1      52.380  27.729  27.038  1.00  0.00     0.135 A 
ATOM     52  F   UNL A   1      51.322  28.349  23.620  1.00  0.00    -0.206 F 
ATOM     53  C   UNL A   1      53.420  27.685  24.455  1.00  0.00     0.059 A 
ATOM     54  C   UNL A   1      53.715  27.382  26.842  1.00  0.00     0.059 A 
ATOM     55  F   UNL A   1      51.912  27.729  28.295  1.00  0.00    -0.206 F 
ATOM     56  C   UNL A   1      54.217  27.325  25.542  1.00  0.00     0.060 A 
BRANCH  56  57
ATOM     57  S   UNL A   1      55.917  26.751  25.299  1.00  0.00     0.124 S 
ATOM     58  O   UNL A   1      55.940  25.555  26.134  1.00  0.00    -0.237 OA
ATOM     59  O   UNL A   1      55.993  26.512  23.863  1.00  0.00    -0.237 OA
ATOM     60  O   UNL A   1      56.709  27.874  25.793  1.00  0.00    -0.744 OA
ENDBRANCH  56  57
ENDBRANCH  24  49
BRANCH  36  61
ATOM     61  C   UNL A   1      47.506  33.291  28.070  1.00  0.00     0.058 A 
ATOM     62  C   UNL A   1      47.352  34.307  27.115  1.00  0.00     0.135 A 
ATOM     63  C   UNL A   1      47.867  33.661  29.374  1.00  0.00     0.135 A 
ATOM     64  F   UNL A   1      47.031  34.000  25.847  1.00  0.00    -0.206 F 
ATOM     65  C   UNL A   1      47.545  35.643  27.440  1.00  0.00     0.059 A 
ATOM     66  C   UNL A   1      48.036  34.994  29.729  1.00  0.00     0.059 A 
ATOM     67  F   UNL A   1      48.039  32.726  30.322  1.00  0.00    -0.206 F 
ATOM     68  C   UNL A   1      47.871  35.978  28.754  1.00  0.00     0.060 A 
BRANCH  68  69
ATOM     69  S   UNL A   1      48.013  37.724  29.187  1.00  0.00     0.124 S 
ATOM     70  O   UNL A   1      46.900  38.304  28.443  1.00  0.00    -0.237 OA
ATOM     71  O   UNL A   1      47.861  37.696  30.639  1.00  0.00    -0.237 OA
ATOM     72  O   UNL A   1      49.345  38.083  28.711  1.00  0.00    -0.744 OA
ENDBRANCH  68  69
ENDBRANCH  36  61
ENDBRANCH  10  11
ENDBRANCH   3   5
ENDBRANCH   2   3
ENDBRANCH   1   2
BRANCH   1  73
ATOM     73  C   UNL A   1      41.918  19.532  25.954  1.00  0.00     0.274 C 
BRANCH  73  74
ATOM     74  O   UNL A   1      42.264  20.752  26.602  1.00  0.00    -0.461 OA
BRANCH  74  75
ATOM     75  C   UNL A   1      41.711  21.905  26.143  1.00  0.00     0.329 C 
ATOM     76  O   UNL A   1      42.076  22.531  25.160  1.00  0.00    -0.250 OA
BRANCH  75  77
ATOM     77  C   UNL A   1      40.520  22.265  27.026  1.00  0.00     0.206 C 
BRANCH  77  78
ATOM     78  C   UNL A   1      40.983  22.982  28.318  1.00  0.00     0.073 C 
BRANCH  78  79
ATOM     79  C   UNL A   1      42.352  23.463  28.738  1.00  0.00    -0.045 A 
ATOM     80  C   UNL A   1      43.397  22.630  29.113  1.00  0.00     0.004 A 
ATOM     81  C   UNL A   1      42.500  24.839  29.020  1.00  0.00     0.004 A 
ATOM     82  C   UNL A   1      44.489  23.145  29.830  1.00  0.00     0.000 A 
ATOM     83  C   UNL A   1      43.557  25.353  29.764  1.00  0.00     0.000 A 
ATOM     84  C   UNL A   1      44.550  24.492  30.191  1.00  0.00     0.000 A 
ENDBRANCH  78  79
ENDBRANCH  77  78
BRANCH  77  85
ATOM     85  N   UNL A   1      39.252  22.723  26.468  1.00  0.00    -0.278 N 
ATOM     86  C   UNL A   1      38.439  21.749  25.882  1.00  0.00     0.267 C 
ATOM     87  C   UNL A   1      38.692  23.969  26.626  1.00  0.00     0.149 C 
ATOM     88  O   UNL A   1      38.792  20.667  25.486  1.00  0.00    -0.268 OA
ATOM     89  C   UNL A   1      37.033  22.225  25.907  1.00  0.00     0.081 C 
ATOM     90  S   UNL A   1      36.995  23.916  26.202  1.00  0.00    -0.054 SA
ATOM     91  S   UNL A   1      39.408  25.398  27.095  1.00  0.00    -0.052 S 
ATOM     92  C   UNL A   1      35.990  21.387  25.864  1.00  0.00     0.029 C 
BRANCH  92  93
ATOM     93  C   UNL A   1      34.636  21.858  26.145  1.00  0.00    -0.024 A 
ATOM     94  C   UNL A   1      34.101  21.862  27.438  1.00  0.00     0.010 A 
ATOM     95  C   UNL A   1      33.954  22.487  25.114  1.00  0.00     0.018 A 
ATOM     96  C   UNL A   1      32.916  22.561  27.697  1.00  0.00     0.029 A 
ATOM     97  C   UNL A   1      32.801  23.216  25.393  1.00  0.00     0.001 A 
ATOM     98  C   UNL A   1      32.271  23.282  26.701  1.00  0.00     0.070 A 
ATOM     99  C   UNL A   1      32.168  23.921  24.373  1.00  0.00     0.012 A 
ATOM    100  N   UNL A   1      31.198  24.036  26.998  1.00  0.00    -0.256 NA
ATOM    101  C   UNL A   1      31.040  24.665  24.663  1.00  0.00     0.021 A 
ATOM    102  C   UNL A   1      30.594  24.679  25.972  1.00  0.00     0.112 A 
ENDBRANCH  92  93
ENDBRANCH  77  85
ENDBRANCH  75  77
ENDBRANCH  74  75
ENDBRANCH  73  74
ENDBRANCH   1  73
TORSDOF 18
ENDMDL
