MODEL 1
REMARK VINA RESULT:     -11.0      0.000      0.000
REMARK SMILES COc1ccc(-n2c(SCC(=O)OCCOC(=O)c3ccc(-c4c5nc(c(-c6c(F)cc(S(=O)(=O)[O-])cc6F)c6ccc([nH]6)c(-c6c(F)cc(S(=O)(=O)[O-])cc6F)c6nc(c(-c7c(F)cc(S(=O)(=O)[O-])cc7F)c7ccc4[nH]7)C=C6)C=C5)cc3)nc3sc4c(c3c2=O)CC[N@H+](C)C4)cc1
REMARK SMILES IDX 14 1 13 2 11 3 12 4 10 5 9 6 8 7 7 8 91 9 85 10 90 11 92 12
REMARK SMILES IDX 86 13 89 14 87 15 88 16 93 17 97 18 94 19 95 20 96 21 6 23
REMARK SMILES IDX 3 24 4 25 99 26 5 27 98 28 2 29 1 30 15 31 16 32 17 33 18 34
REMARK SMILES IDX 19 35 20 36 84 37 21 38 83 39 22 40 23 41 24 42 77 43 25 44
REMARK SMILES IDX 82 45 76 46 78 47 26 48 81 49 75 50 74 51 27 53 61 54 40 55
REMARK SMILES IDX 60 56 41 57 44 58 59 59 79 60 42 61 43 62 58 64 80 65 45 66
REMARK SMILES IDX 28 67 29 68 38 69 30 70 31 71 37 72 39 73 32 74 33 75 34 76
REMARK SMILES IDX 35 77 36 78 62 79 63 80 72 81 64 82 65 83 71 84 73 85 66 86
REMARK SMILES IDX 67 87 68 88 69 89 70 90 46 91 47 92 56 93 48 94 49 95 55 96
REMARK SMILES IDX 57 97 50 98 51 99 52 100 53 101 54 102
REMARK H PARENT 95 22 78 52 44 63
REMARK Flexibility Score: inf
ROOT
ATOM      1  C   UNL A   1      33.084  30.228  26.381  1.00  0.00     0.274 C 
ENDROOT
BRANCH   1   2
ATOM      2  O   UNL A   1      33.952  29.081  26.131  1.00  0.00    -0.461 OA
BRANCH   2   3
ATOM      3  C   UNL A   1      33.452  28.103  25.327  1.00  0.00     0.316 C 
ATOM      4  O   UNL A   1      33.042  28.310  24.185  1.00  0.00    -0.251 OA
BRANCH   3   5
ATOM      5  C   UNL A   1      33.696  26.680  25.814  1.00  0.00     0.200 C 
BRANCH   5   6
ATOM      6  S   UNL A   1      34.712  25.511  24.957  1.00  0.00    -0.076 SA
BRANCH   6   7
ATOM      7  C   UNL A   1      34.085  23.949  24.472  1.00  0.00     0.177 A 
ATOM      8  N   UNL A   1      32.855  23.651  23.855  1.00  0.00    -0.255 N 
ATOM      9  C   UNL A   1      32.692  22.352  23.351  1.00  0.00     0.267 A 
ATOM     10  N   UNL A   1      34.898  23.015  24.918  1.00  0.00    -0.212 NA
ATOM     11  C   UNL A   1      33.497  21.338  23.932  1.00  0.00     0.081 A 
ATOM     12  O   UNL A   1      31.969  22.037  22.417  1.00  0.00    -0.268 OA
ATOM     13  C   UNL A   1      34.523  21.722  24.735  1.00  0.00     0.132 A 
ATOM     14  C   UNL A   1      33.388  19.945  23.731  1.00  0.00    -0.008 A 
ATOM     15  S   UNL A   1      35.242  20.336  25.457  1.00  0.00    -0.114 S 
ATOM     16  C   UNL A   1      34.206  19.262  24.601  1.00  0.00     0.065 A 
ATOM     17  C   UNL A   1      32.453  19.250  22.789  1.00  0.00     0.099 C 
ATOM     18  C   UNL A   1      34.191  17.754  24.734  1.00  0.00     0.310 C 
ATOM     19  C   UNL A   1      32.757  17.747  22.729  1.00  0.00     0.267 C 
ATOM     20  N   UNL A   1      33.009  17.141  24.046  1.00  0.00    -0.333 N 
ATOM     21  C   UNL A   1      31.812  17.241  24.883  1.00  0.00     0.333 C 
ATOM     22  H   UNL A   1      33.231  16.156  23.896  1.00  0.00     0.348 HD
BRANCH   8  23
ATOM     23  C   UNL A   1      31.715  24.476  23.565  1.00  0.00     0.052 A 
ATOM     24  C   UNL A   1      29.529  27.524  23.506  1.00  0.00     0.119 A 
ATOM     25  C   UNL A   1      30.627  27.243  22.116  1.00  0.00     0.048 A 
ATOM     26  C   UNL A   1      29.514  26.347  24.784  1.00  0.00     0.048 A 
ATOM     27  C   UNL A   1      31.825  25.602  22.158  1.00  0.00     0.030 A 
ATOM     28  C   UNL A   1      30.543  24.893  24.782  1.00  0.00     0.030 A 
BRANCH  24  29
ATOM     29  O   UNL A   1      28.819  28.687  23.554  1.00  0.00    -0.497 OA
ATOM     30  C   UNL A   1      27.483  28.547  23.074  1.00  0.00     0.278 C 
ENDBRANCH  24  29
ENDBRANCH   8  23
ENDBRANCH   6   7
ENDBRANCH   5   6
ENDBRANCH   3   5
ENDBRANCH   2   3
ENDBRANCH   1   2
BRANCH   1  31
ATOM     31  C   UNL A   1      33.600  31.001  27.610  1.00  0.00     0.275 C 
BRANCH  31  32
ATOM     32  O   UNL A   1      33.783  32.389  27.236  1.00  0.00    -0.458 OA
BRANCH  32  33
ATOM     33  C   UNL A   1      34.585  33.136  28.052  1.00  0.00     0.338 C 
ATOM     34  O   UNL A   1      34.679  34.342  27.844  1.00  0.00    -0.246 OA
BRANCH  33  35
ATOM     35  C   UNL A   1      35.299  32.431  29.357  1.00  0.00     0.060 A 
ATOM     36  C   UNL A   1      35.103  32.154  31.371  1.00  0.00     0.016 A 
ATOM     37  C   UNL A   1      36.903  31.969  28.655  1.00  0.00     0.016 A 
ATOM     38  C   UNL A   1      36.513  31.527  32.314  1.00  0.00     0.010 A 
ATOM     39  C   UNL A   1      38.177  31.393  29.711  1.00  0.00     0.010 A 
ATOM     40  C   UNL A   1      38.012  31.183  31.471  1.00  0.00    -0.014 A 
BRANCH  40  41
ATOM     41  C   UNL A   1      39.194  30.605  32.217  1.00  0.00     0.031 A 
ATOM     42  C   UNL A   1      39.546  29.246  31.679  1.00  0.00     0.074 A 
ATOM     43  C   UNL A   1      40.299  31.276  32.650  1.00  0.00     0.049 A 
ATOM     44  N   UNL A   1      40.340  29.102  30.658  1.00  0.00    -0.248 NA
ATOM     45  C   UNL A   1      38.763  28.048  31.983  1.00  0.00     0.031 C 
ATOM     46  C   UNL A   1      40.840  32.472  31.988  1.00  0.00     0.029 A 
ATOM     47  N   UNL A   1      41.327  30.890  33.516  1.00  0.00    -0.354 N 
ATOM     48  C   UNL A   1      40.080  27.861  30.099  1.00  0.00     0.074 A 
ATOM     49  C   UNL A   1      39.135  27.222  30.990  1.00  0.00     0.031 C 
ATOM     50  C   UNL A   1      42.139  32.610  32.332  1.00  0.00     0.029 A 
ATOM     51  C   UNL A   1      42.508  31.610  33.339  1.00  0.00     0.049 A 
ATOM     52  H   UNL A   1      41.226  30.175  34.187  1.00  0.00     0.167 HD
ATOM     53  C   UNL A   1      40.597  27.470  28.898  1.00  0.00     0.037 A 
ATOM     54  C   UNL A   1      43.793  31.234  33.612  1.00  0.00     0.037 A 
ATOM     55  C   UNL A   1      41.458  28.395  28.178  1.00  0.00     0.049 A 
ATOM     56  C   UNL A   1      44.211  30.536  32.355  1.00  0.00     0.074 A 
ATOM     57  C   UNL A   1      41.829  28.654  26.871  1.00  0.00     0.029 A 
ATOM     58  N   UNL A   1      42.154  29.318  28.913  1.00  0.00    -0.354 N 
ATOM     59  N   UNL A   1      44.744  31.073  31.297  1.00  0.00    -0.248 NA
ATOM     60  C   UNL A   1      43.824  29.118  32.211  1.00  0.00     0.031 C 
ATOM     61  C   UNL A   1      42.934  29.576  26.907  1.00  0.00     0.029 A 
ATOM     62  C   UNL A   1      43.239  29.813  28.236  1.00  0.00     0.049 A 
ATOM     63  H   UNL A   1      41.905  29.594  29.823  1.00  0.00     0.167 HD
ATOM     64  C   UNL A   1      44.470  30.156  30.295  1.00  0.00     0.074 A 
ATOM     65  C   UNL A   1      44.086  28.913  30.927  1.00  0.00     0.031 C 
ATOM     66  C   UNL A   1      44.208  30.535  29.018  1.00  0.00     0.037 A 
BRANCH  53  67
ATOM     67  C   UNL A   1      40.496  26.063  28.423  1.00  0.00     0.058 A 
ATOM     68  C   UNL A   1      41.612  25.234  28.630  1.00  0.00     0.135 A 
ATOM     69  C   UNL A   1      39.430  25.543  27.678  1.00  0.00     0.135 A 
ATOM     70  F   UNL A   1      42.653  25.682  29.351  1.00  0.00    -0.206 F 
ATOM     71  C   UNL A   1      41.692  23.955  28.094  1.00  0.00     0.059 A 
ATOM     72  C   UNL A   1      39.484  24.254  27.133  1.00  0.00     0.059 A 
ATOM     73  F   UNL A   1      38.336  26.287  27.451  1.00  0.00    -0.206 F 
ATOM     74  C   UNL A   1      40.628  23.475  27.332  1.00  0.00     0.060 A 
BRANCH  74  75
ATOM     75  S   UNL A   1      40.786  21.828  26.604  1.00  0.00     0.124 S 
ATOM     76  O   UNL A   1      41.267  21.040  27.734  1.00  0.00    -0.237 OA
ATOM     77  O   UNL A   1      39.418  21.552  26.174  1.00  0.00    -0.237 OA
ATOM     78  O   UNL A   1      41.749  22.024  25.523  1.00  0.00    -0.744 OA
ENDBRANCH  74  75
ENDBRANCH  53  67
BRANCH  54  79
ATOM     79  C   UNL A   1      44.264  30.691  34.923  1.00  0.00     0.058 A 
ATOM     80  C   UNL A   1      45.407  31.234  35.530  1.00  0.00     0.135 A 
ATOM     81  C   UNL A   1      43.693  29.579  35.578  1.00  0.00     0.135 A 
ATOM     82  F   UNL A   1      46.137  32.161  34.890  1.00  0.00    -0.206 F 
ATOM     83  C   UNL A   1      45.833  30.836  36.797  1.00  0.00     0.059 A 
ATOM     84  C   UNL A   1      44.070  29.189  36.860  1.00  0.00     0.059 A 
ATOM     85  F   UNL A   1      42.738  28.840  34.997  1.00  0.00    -0.206 F 
ATOM     86  C   UNL A   1      45.112  29.860  37.482  1.00  0.00     0.060 A 
BRANCH  86  87
ATOM     87  S   UNL A   1      45.468  29.578  39.228  1.00  0.00     0.124 S 
ATOM     88  O   UNL A   1      46.888  29.904  39.308  1.00  0.00    -0.237 OA
ATOM     89  O   UNL A   1      44.560  30.524  39.870  1.00  0.00    -0.237 OA
ATOM     90  O   UNL A   1      45.131  28.171  39.420  1.00  0.00    -0.744 OA
ENDBRANCH  86  87
ENDBRANCH  54  79
BRANCH  66  91
ATOM     91  C   UNL A   1      44.787  31.834  28.632  1.00  0.00     0.058 A 
ATOM     92  C   UNL A   1      44.008  32.993  28.696  1.00  0.00     0.135 A 
ATOM     93  C   UNL A   1      46.092  31.936  28.142  1.00  0.00     0.135 A 
ATOM     94  F   UNL A   1      42.723  32.925  29.079  1.00  0.00    -0.206 F 
ATOM     95  C   UNL A   1      44.545  34.241  28.403  1.00  0.00     0.059 A 
ATOM     96  C   UNL A   1      46.649  33.172  27.834  1.00  0.00     0.059 A 
ATOM     97  F   UNL A   1      46.867  30.843  28.042  1.00  0.00    -0.206 F 
ATOM     98  C   UNL A   1      45.883  34.323  28.019  1.00  0.00     0.060 A 
BRANCH  98  99
ATOM     99  S   UNL A   1      46.703  35.931  27.967  1.00  0.00     0.124 S 
ATOM    100  O   UNL A   1      48.111  35.557  27.935  1.00  0.00    -0.237 OA
ATOM    101  O   UNL A   1      46.178  36.530  26.743  1.00  0.00    -0.237 OA
ATOM    102  O   UNL A   1      46.244  36.561  29.203  1.00  0.00    -0.744 OA
ENDBRANCH  98  99
ENDBRANCH  66  91
ENDBRANCH  40  41
ENDBRANCH  33  35
ENDBRANCH  32  33
ENDBRANCH  31  32
ENDBRANCH   1  31
TORSDOF 18
ENDMDL
MODEL 2
REMARK VINA RESULT:     -10.6      8.184     15.296
REMARK SMILES COc1ccc(-n2c(SCC(=O)OCCOC(=O)c3ccc(-c4c5nc(c(-c6c(F)cc(S(=O)(=O)[O-])cc6F)c6ccc([nH]6)c(-c6c(F)cc(S(=O)(=O)[O-])cc6F)c6nc(c(-c7c(F)cc(S(=O)(=O)[O-])cc7F)c7ccc4[nH]7)C=C6)C=C5)cc3)nc3sc4c(c3c2=O)CC[N@H+](C)C4)cc1
REMARK SMILES IDX 14 1 13 2 11 3 12 4 10 5 9 6 8 7 7 8 91 9 85 10 90 11 92 12
REMARK SMILES IDX 86 13 89 14 87 15 88 16 93 17 97 18 94 19 95 20 96 21 6 23
REMARK SMILES IDX 3 24 4 25 99 26 5 27 98 28 2 29 1 30 15 31 16 32 17 33 18 34
REMARK SMILES IDX 19 35 20 36 84 37 21 38 83 39 22 40 23 41 24 42 77 43 25 44
REMARK SMILES IDX 82 45 76 46 78 47 26 48 81 49 75 50 74 51 27 53 61 54 40 55
REMARK SMILES IDX 60 56 41 57 44 58 59 59 79 60 42 61 43 62 58 64 80 65 45 66
REMARK SMILES IDX 28 67 29 68 38 69 30 70 31 71 37 72 39 73 32 74 33 75 34 76
REMARK SMILES IDX 35 77 36 78 62 79 63 80 72 81 64 82 65 83 71 84 73 85 66 86
REMARK SMILES IDX 67 87 68 88 69 89 70 90 46 91 47 92 56 93 48 94 49 95 55 96
REMARK SMILES IDX 57 97 50 98 51 99 52 100 53 101 54 102
REMARK H PARENT 95 22 78 52 44 63
REMARK Flexibility Score: inf
ROOT
ATOM      1  C   UNL A   1      48.340  22.738  38.897  1.00  0.00     0.274 C 
ENDROOT
BRANCH   1   2
ATOM      2  O   UNL A   1      47.378  22.227  39.868  1.00  0.00    -0.461 OA
BRANCH   2   3
ATOM      3  C   UNL A   1      46.948  20.948  39.684  1.00  0.00     0.316 C 
ATOM      4  O   UNL A   1      45.917  20.662  39.074  1.00  0.00    -0.251 OA
BRANCH   3   5
ATOM      5  C   UNL A   1      47.966  19.868  40.028  1.00  0.00     0.200 C 
BRANCH   5   6
ATOM      6  S   UNL A   1      47.938  18.938  41.534  1.00  0.00    -0.076 SA
BRANCH   6   7
ATOM      7  C   UNL A   1      46.549  17.963  41.971  1.00  0.00     0.177 A 
ATOM      8  N   UNL A   1      46.190  17.467  43.238  1.00  0.00    -0.255 N 
ATOM      9  C   UNL A   1      44.906  16.916  43.368  1.00  0.00     0.267 A 
ATOM     10  N   UNL A   1      45.922  17.611  40.869  1.00  0.00    -0.212 NA
ATOM     11  C   UNL A   1      44.299  16.432  42.181  1.00  0.00     0.081 A 
ATOM     12  O   UNL A   1      44.249  16.880  44.398  1.00  0.00    -0.268 OA
ATOM     13  C   UNL A   1      44.874  16.756  40.994  1.00  0.00     0.132 A 
ATOM     14  C   UNL A   1      43.109  15.679  42.080  1.00  0.00    -0.008 A 
ATOM     15  S   UNL A   1      44.074  15.924  39.718  1.00  0.00    -0.114 S 
ATOM     16  C   UNL A   1      42.928  15.224  40.794  1.00  0.00     0.065 A 
ATOM     17  C   UNL A   1      42.190  15.307  43.203  1.00  0.00     0.099 C 
ATOM     18  C   UNL A   1      41.828  14.259  40.408  1.00  0.00     0.310 C 
ATOM     19  C   UNL A   1      40.917  14.637  42.667  1.00  0.00     0.267 C 
ATOM     20  N   UNL A   1      41.171  13.647  41.608  1.00  0.00    -0.333 N 
ATOM     21  C   UNL A   1      41.975  12.542  42.133  1.00  0.00     0.333 C 
ATOM     22  H   UNL A   1      40.268  13.286  41.300  1.00  0.00     0.348 HD
BRANCH   8  23
ATOM     23  C   UNL A   1      46.887  17.482  44.495  1.00  0.00     0.052 A 
ATOM     24  C   UNL A   1      49.747  17.779  46.903  1.00  0.00     0.119 A 
ATOM     25  C   UNL A   1      48.766  19.243  46.571  1.00  0.00     0.048 A 
ATOM     26  C   UNL A   1      49.293  16.297  46.120  1.00  0.00     0.048 A 
ATOM     27  C   UNL A   1      47.228  19.086  45.251  1.00  0.00     0.030 A 
ATOM     28  C   UNL A   1      47.915  16.171  44.997  1.00  0.00     0.030 A 
BRANCH  24  29
ATOM     29  O   UNL A   1      50.860  17.901  47.682  1.00  0.00    -0.497 OA
ATOM     30  C   UNL A   1      52.012  17.280  47.112  1.00  0.00     0.278 C 
ENDBRANCH  24  29
ENDBRANCH   8  23
ENDBRANCH   6   7
ENDBRANCH   5   6
ENDBRANCH   3   5
ENDBRANCH   2   3
ENDBRANCH   1   2
BRANCH   1  31
ATOM     31  C   UNL A   1      47.661  23.808  38.021  1.00  0.00     0.275 C 
BRANCH  31  32
ATOM     32  O   UNL A   1      46.898  23.138  36.987  1.00  0.00    -0.458 OA
BRANCH  32  33
ATOM     33  C   UNL A   1      45.634  23.607  36.766  1.00  0.00     0.338 C 
ATOM     34  O   UNL A   1      44.860  23.688  37.716  1.00  0.00    -0.246 OA
BRANCH  33  35
ATOM     35  C   UNL A   1      45.223  24.166  35.273  1.00  0.00     0.060 A 
ATOM     36  C   UNL A   1      44.255  23.652  33.551  1.00  0.00     0.016 A 
ATOM     37  C   UNL A   1      46.223  25.673  35.191  1.00  0.00     0.016 A 
ATOM     38  C   UNL A   1      44.483  24.674  32.076  1.00  0.00     0.010 A 
ATOM     39  C   UNL A   1      46.356  26.543  33.675  1.00  0.00     0.010 A 
ATOM     40  C   UNL A   1      45.536  26.074  32.167  1.00  0.00    -0.014 A 
BRANCH  40  41
ATOM     41  C   UNL A   1      45.706  26.982  30.970  1.00  0.00     0.031 A 
ATOM     42  C   UNL A   1      45.633  26.194  29.692  1.00  0.00     0.074 A 
ATOM     43  C   UNL A   1      45.200  28.239  30.816  1.00  0.00     0.049 A 
ATOM     44  N   UNL A   1      44.494  25.935  29.116  1.00  0.00    -0.248 NA
ATOM     45  C   UNL A   1      46.732  25.355  29.216  1.00  0.00     0.031 C 
ATOM     46  C   UNL A   1      43.955  28.701  31.446  1.00  0.00     0.029 A 
ATOM     47  N   UNL A   1      45.469  29.226  29.862  1.00  0.00    -0.354 N 
ATOM     48  C   UNL A   1      44.680  24.826  28.305  1.00  0.00     0.074 A 
ATOM     49  C   UNL A   1      46.098  24.538  28.358  1.00  0.00     0.031 C 
ATOM     50  C   UNL A   1      43.483  29.761  30.753  1.00  0.00     0.029 A 
ATOM     51  C   UNL A   1      44.440  30.156  29.714  1.00  0.00     0.049 A 
ATOM     52  H   UNL A   1      46.306  29.261  29.343  1.00  0.00     0.167 HD
ATOM     53  C   UNL A   1      43.645  24.167  27.708  1.00  0.00     0.037 A 
ATOM     54  C   UNL A   1      44.118  30.916  28.625  1.00  0.00     0.037 A 
ATOM     55  C   UNL A   1      42.293  24.653  27.930  1.00  0.00     0.049 A 
ATOM     56  C   UNL A   1      43.210  30.016  27.846  1.00  0.00     0.074 A 
ATOM     57  C   UNL A   1      41.004  24.149  27.938  1.00  0.00     0.029 A 
ATOM     58  N   UNL A   1      42.134  25.982  28.217  1.00  0.00    -0.354 N 
ATOM     59  N   UNL A   1      41.920  29.902  27.969  1.00  0.00    -0.248 NA
ATOM     60  C   UNL A   1      43.846  29.016  26.963  1.00  0.00     0.031 C 
ATOM     61  C   UNL A   1      40.100  25.268  27.990  1.00  0.00     0.029 A 
ATOM     62  C   UNL A   1      40.861  26.424  27.961  1.00  0.00     0.049 A 
ATOM     63  H   UNL A   1      42.852  26.556  28.567  1.00  0.00     0.167 HD
ATOM     64  C   UNL A   1      41.652  28.652  27.433  1.00  0.00     0.074 A 
ATOM     65  C   UNL A   1      42.810  28.242  26.670  1.00  0.00     0.031 C 
ATOM     66  C   UNL A   1      40.672  27.851  27.922  1.00  0.00     0.037 A 
BRANCH  53  67
ATOM     67  C   UNL A   1      43.875  23.128  26.668  1.00  0.00     0.058 A 
ATOM     68  C   UNL A   1      43.532  21.805  26.996  1.00  0.00     0.135 A 
ATOM     69  C   UNL A   1      44.519  23.346  25.444  1.00  0.00     0.135 A 
ATOM     70  F   UNL A   1      42.899  21.546  28.153  1.00  0.00    -0.206 F 
ATOM     71  C   UNL A   1      43.844  20.733  26.169  1.00  0.00     0.059 A 
ATOM     72  C   UNL A   1      44.838  22.283  24.590  1.00  0.00     0.059 A 
ATOM     73  F   UNL A   1      44.867  24.589  25.074  1.00  0.00    -0.206 F 
ATOM     74  C   UNL A   1      44.511  20.979  24.971  1.00  0.00     0.060 A 
BRANCH  74  75
ATOM     75  S   UNL A   1      44.950  19.558  23.942  1.00  0.00     0.124 S 
ATOM     76  O   UNL A   1      46.394  19.474  24.140  1.00  0.00    -0.237 OA
ATOM     77  O   UNL A   1      44.164  18.488  24.549  1.00  0.00    -0.237 OA
ATOM     78  O   UNL A   1      44.524  19.960  22.605  1.00  0.00    -0.744 OA
ENDBRANCH  74  75
ENDBRANCH  53  67
BRANCH  54  79
ATOM     79  C   UNL A   1      45.078  31.786  27.877  1.00  0.00     0.058 A 
ATOM     80  C   UNL A   1      44.702  33.092  27.525  1.00  0.00     0.135 A 
ATOM     81  C   UNL A   1      46.335  31.360  27.397  1.00  0.00     0.135 A 
ATOM     82  F   UNL A   1      43.453  33.523  27.762  1.00  0.00    -0.206 F 
ATOM     83  C   UNL A   1      45.590  33.980  26.918  1.00  0.00     0.059 A 
ATOM     84  C   UNL A   1      47.255  32.235  26.828  1.00  0.00     0.059 A 
ATOM     85  F   UNL A   1      46.715  30.078  27.477  1.00  0.00    -0.206 F 
ATOM     86  C   UNL A   1      46.888  33.560  26.638  1.00  0.00     0.060 A 
BRANCH  86  87
ATOM     87  S   UNL A   1      48.117  34.788  26.154  1.00  0.00     0.124 S 
ATOM     88  O   UNL A   1      48.227  34.562  24.717  1.00  0.00    -0.237 OA
ATOM     89  O   UNL A   1      47.464  36.031  26.554  1.00  0.00    -0.237 OA
ATOM     90  O   UNL A   1      49.290  34.425  26.942  1.00  0.00    -0.744 OA
ENDBRANCH  86  87
ENDBRANCH  54  79
BRANCH  66  91
ATOM     91  C   UNL A   1      39.578  28.563  28.604  1.00  0.00     0.058 A 
ATOM     92  C   UNL A   1      39.411  28.429  29.986  1.00  0.00     0.135 A 
ATOM     93  C   UNL A   1      38.654  29.334  27.894  1.00  0.00     0.135 A 
ATOM     94  F   UNL A   1      40.226  27.628  30.692  1.00  0.00    -0.206 F 
ATOM     95  C   UNL A   1      38.431  29.141  30.667  1.00  0.00     0.059 A 
ATOM     96  C   UNL A   1      37.659  30.049  28.552  1.00  0.00     0.059 A 
ATOM     97  F   UNL A   1      38.764  29.471  26.563  1.00  0.00    -0.206 F 
ATOM     98  C   UNL A   1      37.590  29.987  29.944  1.00  0.00     0.060 A 
BRANCH  98  99
ATOM     99  S   UNL A   1      36.549  31.175  30.818  1.00  0.00     0.124 S 
ATOM    100  O   UNL A   1      37.506  32.211  31.183  1.00  0.00    -0.237 OA
ATOM    101  O   UNL A   1      35.561  31.552  29.810  1.00  0.00    -0.237 OA
ATOM    102  O   UNL A   1      36.021  30.382  31.925  1.00  0.00    -0.744 OA
ENDBRANCH  98  99
ENDBRANCH  66  91
ENDBRANCH  40  41
ENDBRANCH  33  35
ENDBRANCH  32  33
ENDBRANCH  31  32
ENDBRANCH   1  31
TORSDOF 18
ENDMDL
MODEL 3
REMARK VINA RESULT:     -10.5      2.389      8.740
REMARK SMILES COc1ccc(-n2c(SCC(=O)OCCOC(=O)c3ccc(-c4c5nc(c(-c6c(F)cc(S(=O)(=O)[O-])cc6F)c6ccc([nH]6)c(-c6c(F)cc(S(=O)(=O)[O-])cc6F)c6nc(c(-c7c(F)cc(S(=O)(=O)[O-])cc7F)c7ccc4[nH]7)C=C6)C=C5)cc3)nc3sc4c(c3c2=O)CC[N@H+](C)C4)cc1
REMARK SMILES IDX 14 1 13 2 11 3 12 4 10 5 9 6 8 7 7 8 91 9 85 10 90 11 92 12
REMARK SMILES IDX 86 13 89 14 87 15 88 16 93 17 97 18 94 19 95 20 96 21 6 23
REMARK SMILES IDX 3 24 4 25 99 26 5 27 98 28 2 29 1 30 15 31 16 32 17 33 18 34
REMARK SMILES IDX 19 35 20 36 84 37 21 38 83 39 22 40 23 41 24 42 77 43 25 44
REMARK SMILES IDX 82 45 76 46 78 47 26 48 81 49 75 50 74 51 27 53 61 54 40 55
REMARK SMILES IDX 60 56 41 57 44 58 59 59 79 60 42 61 43 62 58 64 80 65 45 66
REMARK SMILES IDX 28 67 29 68 38 69 30 70 31 71 37 72 39 73 32 74 33 75 34 76
REMARK SMILES IDX 35 77 36 78 62 79 63 80 72 81 64 82 65 83 71 84 73 85 66 86
REMARK SMILES IDX 67 87 68 88 69 89 70 90 46 91 47 92 56 93 48 94 49 95 55 96
REMARK SMILES IDX 57 97 50 98 51 99 52 100 53 101 54 102
REMARK H PARENT 95 22 78 52 44 63
REMARK Flexibility Score: inf
ROOT
ATOM      1  C   UNL A   1      39.715  19.653  25.757  1.00  0.00     0.274 C 
ENDROOT
BRANCH   1   2
ATOM      2  O   UNL A   1      38.811  20.798  25.707  1.00  0.00    -0.461 OA
BRANCH   2   3
ATOM      3  C   UNL A   1      37.658  20.632  25.001  1.00  0.00     0.316 C 
ATOM      4  O   UNL A   1      37.171  19.529  24.749  1.00  0.00    -0.251 OA
BRANCH   3   5
ATOM      5  C   UNL A   1      36.845  21.902  24.785  1.00  0.00     0.200 C 
BRANCH   5   6
ATOM      6  S   UNL A   1      35.776  22.602  26.011  1.00  0.00    -0.076 SA
BRANCH   6   7
ATOM      7  C   UNL A   1      34.382  23.562  25.557  1.00  0.00     0.177 A 
ATOM      8  N   UNL A   1      33.118  23.121  25.124  1.00  0.00    -0.255 N 
ATOM      9  C   UNL A   1      32.098  24.080  25.051  1.00  0.00     0.267 A 
ATOM     10  N   UNL A   1      34.738  24.829  25.532  1.00  0.00    -0.212 NA
ATOM     11  C   UNL A   1      32.504  25.432  24.903  1.00  0.00     0.081 A 
ATOM     12  O   UNL A   1      30.902  23.858  25.170  1.00  0.00    -0.268 OA
ATOM     13  C   UNL A   1      33.817  25.726  25.092  1.00  0.00     0.132 A 
ATOM     14  C   UNL A   1      31.680  26.543  24.626  1.00  0.00    -0.008 A 
ATOM     15  S   UNL A   1      34.103  27.375  24.695  1.00  0.00    -0.114 S 
ATOM     16  C   UNL A   1      32.439  27.660  24.363  1.00  0.00     0.065 A 
ATOM     17  C   UNL A   1      30.185  26.540  24.517  1.00  0.00     0.099 C 
ATOM     18  C   UNL A   1      31.846  28.966  23.878  1.00  0.00     0.310 C 
ATOM     19  C   UNL A   1      29.646  27.971  24.379  1.00  0.00     0.267 C 
ATOM     20  N   UNL A   1      30.419  28.807  23.447  1.00  0.00    -0.333 N 
ATOM     21  C   UNL A   1      30.343  28.255  22.093  1.00  0.00     0.333 C 
ATOM     22  H   UNL A   1      30.003  29.740  23.451  1.00  0.00     0.348 HD
BRANCH   8  23
ATOM     23  C   UNL A   1      32.632  21.809  24.797  1.00  0.00     0.052 A 
ATOM     24  C   UNL A   1      32.691  18.260  23.582  1.00  0.00     0.119 A 
ATOM     25  C   UNL A   1      32.931  18.558  25.334  1.00  0.00     0.048 A 
ATOM     26  C   UNL A   1      32.406  19.630  22.553  1.00  0.00     0.048 A 
ATOM     27  C   UNL A   1      32.918  20.483  25.989  1.00  0.00     0.030 A 
ATOM     28  C   UNL A   1      32.358  21.307  23.154  1.00  0.00     0.030 A 
BRANCH  24  29
ATOM     29  O   UNL A   1      32.830  16.988  23.110  1.00  0.00    -0.497 OA
ATOM     30  C   UNL A   1      34.192  16.600  22.942  1.00  0.00     0.278 C 
ENDBRANCH  24  29
ENDBRANCH   8  23
ENDBRANCH   6   7
ENDBRANCH   5   6
ENDBRANCH   3   5
ENDBRANCH   2   3
ENDBRANCH   1   2
BRANCH   1  31
ATOM     31  C   UNL A   1      41.026  20.068  26.453  1.00  0.00     0.275 C 
BRANCH  31  32
ATOM     32  O   UNL A   1      41.728  20.997  25.591  1.00  0.00    -0.458 OA
BRANCH  32  33
ATOM     33  C   UNL A   1      42.995  21.340  25.973  1.00  0.00     0.338 C 
ATOM     34  O   UNL A   1      43.941  20.711  25.508  1.00  0.00    -0.246 OA
BRANCH  33  35
ATOM     35  C   UNL A   1      43.226  22.652  26.939  1.00  0.00     0.060 A 
ATOM     36  C   UNL A   1      42.632  23.508  28.695  1.00  0.00     0.016 A 
ATOM     37  C   UNL A   1      44.197  23.713  25.838  1.00  0.00     0.016 A 
ATOM     38  C   UNL A   1      43.057  25.237  29.018  1.00  0.00     0.010 A 
ATOM     39  C   UNL A   1      44.507  25.377  26.291  1.00  0.00     0.010 A 
ATOM     40  C   UNL A   1      43.960  26.130  27.809  1.00  0.00    -0.014 A 
BRANCH  40  41
ATOM     41  C   UNL A   1      44.381  27.558  28.069  1.00  0.00     0.031 A 
ATOM     42  C   UNL A   1      43.194  28.479  28.010  1.00  0.00     0.074 A 
ATOM     43  C   UNL A   1      45.308  27.989  28.971  1.00  0.00     0.049 A 
ATOM     44  N   UNL A   1      42.445  28.692  29.053  1.00  0.00    -0.248 NA
ATOM     45  C   UNL A   1      42.571  28.887  26.751  1.00  0.00     0.031 C 
ATOM     46  C   UNL A   1      45.612  27.290  30.228  1.00  0.00     0.029 A 
ATOM     47  N   UNL A   1      45.914  29.240  29.140  1.00  0.00    -0.354 N 
ATOM     48  C   UNL A   1      41.212  29.133  28.598  1.00  0.00     0.074 A 
ATOM     49  C   UNL A   1      41.359  29.292  27.166  1.00  0.00     0.031 C 
ATOM     50  C   UNL A   1      46.176  28.165  31.089  1.00  0.00     0.029 A 
ATOM     51  C   UNL A   1      46.409  29.452  30.426  1.00  0.00     0.049 A 
ATOM     52  H   UNL A   1      45.983  29.906  28.418  1.00  0.00     0.167 HD
ATOM     53  C   UNL A   1      40.127  29.263  29.416  1.00  0.00     0.037 A 
ATOM     54  C   UNL A   1      46.603  30.632  31.087  1.00  0.00     0.037 A 
ATOM     55  C   UNL A   1      40.274  28.926  30.822  1.00  0.00     0.049 A 
ATOM     56  C   UNL A   1      45.272  30.880  31.725  1.00  0.00     0.074 A 
ATOM     57  C   UNL A   1      39.478  28.490  31.867  1.00  0.00     0.029 A 
ATOM     58  N   UNL A   1      41.520  29.044  31.378  1.00  0.00    -0.354 N 
ATOM     59  N   UNL A   1      44.865  30.459  32.887  1.00  0.00    -0.248 NA
ATOM     60  C   UNL A   1      44.232  31.516  30.891  1.00  0.00     0.031 C 
ATOM     61  C   UNL A   1      40.249  28.603  33.078  1.00  0.00     0.029 A 
ATOM     62  C   UNL A   1      41.475  29.152  32.744  1.00  0.00     0.049 A 
ATOM     63  H   UNL A   1      42.354  29.050  30.856  1.00  0.00     0.167 HD
ATOM     64  C   UNL A   1      43.484  30.506  32.784  1.00  0.00     0.074 A 
ATOM     65  C   UNL A   1      43.155  31.327  31.641  1.00  0.00     0.031 C 
ATOM     66  C   UNL A   1      42.682  29.596  33.393  1.00  0.00     0.037 A 
BRANCH  53  67
ATOM     67  C   UNL A   1      38.885  29.948  28.966  1.00  0.00     0.058 A 
ATOM     68  C   UNL A   1      38.743  31.305  29.301  1.00  0.00     0.135 A 
ATOM     69  C   UNL A   1      37.799  29.315  28.348  1.00  0.00     0.135 A 
ATOM     70  F   UNL A   1      39.762  31.961  29.882  1.00  0.00    -0.206 F 
ATOM     71  C   UNL A   1      37.565  32.004  29.072  1.00  0.00     0.059 A 
ATOM     72  C   UNL A   1      36.604  30.000  28.099  1.00  0.00     0.059 A 
ATOM     73  F   UNL A   1      37.878  28.021  27.999  1.00  0.00    -0.206 F 
ATOM     74  C   UNL A   1      36.491  31.340  28.482  1.00  0.00     0.060 A 
BRANCH  74  75
ATOM     75  S   UNL A   1      34.954  32.263  28.246  1.00  0.00     0.124 S 
ATOM     76  O   UNL A   1      34.473  32.407  29.616  1.00  0.00    -0.237 OA
ATOM     77  O   UNL A   1      35.428  33.487  27.607  1.00  0.00    -0.237 OA
ATOM     78  O   UNL A   1      34.157  31.385  27.393  1.00  0.00    -0.744 OA
ENDBRANCH  74  75
ENDBRANCH  53  67
BRANCH  54  79
ATOM     79  C   UNL A   1      47.367  31.799  30.548  1.00  0.00     0.058 A 
ATOM     80  C   UNL A   1      48.317  32.442  31.356  1.00  0.00     0.135 A 
ATOM     81  C   UNL A   1      47.140  32.387  29.285  1.00  0.00     0.135 A 
ATOM     82  F   UNL A   1      48.464  32.083  32.642  1.00  0.00    -0.206 F 
ATOM     83  C   UNL A   1      49.128  33.468  30.874  1.00  0.00     0.059 A 
ATOM     84  C   UNL A   1      47.962  33.381  28.762  1.00  0.00     0.059 A 
ATOM     85  F   UNL A   1      46.117  32.004  28.510  1.00  0.00    -0.206 F 
ATOM     86  C   UNL A   1      48.988  33.881  29.550  1.00  0.00     0.060 A 
BRANCH  86  87
ATOM     87  S   UNL A   1      50.237  34.972  28.840  1.00  0.00     0.124 S 
ATOM     88  O   UNL A   1      49.586  36.275  28.918  1.00  0.00    -0.237 OA
ATOM     89  O   UNL A   1      51.359  34.766  29.752  1.00  0.00    -0.237 OA
ATOM     90  O   UNL A   1      50.428  34.439  27.495  1.00  0.00    -0.744 OA
ENDBRANCH  86  87
ENDBRANCH  54  79
BRANCH  66  91
ATOM     91  C   UNL A   1      43.268  28.959  34.584  1.00  0.00     0.058 A 
ATOM     92  C   UNL A   1      43.838  27.686  34.486  1.00  0.00     0.135 A 
ATOM     93  C   UNL A   1      43.220  29.571  35.839  1.00  0.00     0.135 A 
ATOM     94  F   UNL A   1      43.827  27.027  33.316  1.00  0.00    -0.206 F 
ATOM     95  C   UNL A   1      44.459  27.088  35.577  1.00  0.00     0.059 A 
ATOM     96  C   UNL A   1      43.826  28.989  36.947  1.00  0.00     0.059 A 
ATOM     97  F   UNL A   1      42.661  30.784  35.982  1.00  0.00    -0.206 F 
ATOM     98  C   UNL A   1      44.488  27.771  36.792  1.00  0.00     0.060 A 
BRANCH  98  99
ATOM     99  S   UNL A   1      45.569  27.193  38.118  1.00  0.00     0.124 S 
ATOM    100  O   UNL A   1      44.826  27.581  39.310  1.00  0.00    -0.237 OA
ATOM    101  O   UNL A   1      45.661  25.757  37.867  1.00  0.00    -0.237 OA
ATOM    102  O   UNL A   1      46.802  27.938  37.870  1.00  0.00    -0.744 OA
ENDBRANCH  98  99
ENDBRANCH  66  91
ENDBRANCH  40  41
ENDBRANCH  33  35
ENDBRANCH  32  33
ENDBRANCH  31  32
ENDBRANCH   1  31
TORSDOF 18
ENDMDL
