MODEL 1
REMARK VINA RESULT:      -9.7      0.000      0.000
REMARK SMILES CCCC1CN(c2ccc(C(=O)NCC(=O)OCCOC(=O)c3ccc(-c4c5nc(c(-c6c(F)cc(S(=O)(=O)[O-])cc6F)c6ccc([nH]6)c(-c6c(F)cc(S(=O)(=O)[O-])cc6F)c6nc(c(-c7c(F)cc(S(=O)(=O)[O-])cc7F)c7ccc4[nH]7)C=C6)C=C5)cc3)cc2)C1
REMARK SMILES IDX 18 1 17 2 15 3 16 4 14 5 13 6 11 7 12 8 10 10 7 11 8 12
REMARK SMILES IDX 90 13 9 14 89 15 6 16 4 17 5 18 91 19 3 20 2 21 1 22 19 23
REMARK SMILES IDX 20 24 21 25 22 26 23 27 24 28 88 29 25 30 87 31 26 32 27 33
REMARK SMILES IDX 28 34 81 35 29 36 86 37 80 38 82 39 30 40 85 41 79 42 78 43
REMARK SMILES IDX 31 45 65 46 44 47 64 48 45 49 48 50 63 51 83 52 46 53 47 54
REMARK SMILES IDX 62 56 84 57 49 58 32 59 33 60 42 61 34 62 35 63 41 64 43 65
REMARK SMILES IDX 36 66 37 67 38 68 39 69 40 70 66 71 67 72 76 73 68 74 69 75
REMARK SMILES IDX 75 76 77 77 70 78 71 79 72 80 73 81 74 82 50 83 51 84 60 85
REMARK SMILES IDX 52 86 53 87 59 88 61 89 54 90 55 91 56 92 57 93 58 94
REMARK H PARENT 13 9 82 44 48 55
REMARK Flexibility Score: inf
ROOT
ATOM      1  C   UNL A   1      33.808  33.961  27.930  1.00  0.00     0.274 C 
ENDROOT
BRANCH   1   2
ATOM      2  O   UNL A   1      32.697  34.509  28.661  1.00  0.00    -0.461 OA
BRANCH   2   3
ATOM      3  C   UNL A   1      32.995  35.423  29.624  1.00  0.00     0.325 C 
ATOM      4  O   UNL A   1      32.314  36.408  29.886  1.00  0.00    -0.250 OA
BRANCH   3   5
ATOM      5  C   UNL A   1      34.218  35.017  30.451  1.00  0.00     0.239 C 
BRANCH   5   6
ATOM      6  N   UNL A   1      34.249  35.596  31.780  1.00  0.00    -0.341 N 
ATOM      7  C   UNL A   1      34.993  35.264  32.877  1.00  0.00     0.251 C 
ATOM      8  O   UNL A   1      34.892  35.949  33.894  1.00  0.00    -0.269 OA
ATOM      9  H   UNL A   1      33.633  36.352  31.915  1.00  0.00     0.164 HD
BRANCH   7  10
ATOM     10  C   UNL A   1      35.950  34.125  32.867  1.00  0.00     0.039 A 
ATOM     11  C   UNL A   1      37.889  32.082  32.902  1.00  0.00     0.037 A 
ATOM     12  C   UNL A   1      38.274  33.424  32.851  1.00  0.00     0.027 A 
ATOM     13  C   UNL A   1      36.529  31.770  32.955  1.00  0.00     0.027 A 
ATOM     14  C   UNL A   1      37.314  34.438  32.826  1.00  0.00     0.016 A 
ATOM     15  C   UNL A   1      35.567  32.784  32.967  1.00  0.00     0.016 A 
BRANCH  11  16
ATOM     16  N   UNL A   1      38.883  31.087  32.933  1.00  0.00    -0.371 N 
ATOM     17  C   UNL A   1      39.994  29.810  34.159  1.00  0.00     0.028 C 
ATOM     18  C   UNL A   1      40.138  31.235  33.612  1.00  0.00     0.122 C 
ATOM     19  C   UNL A   1      38.688  29.733  33.363  1.00  0.00     0.122 C 
BRANCH  17  20
ATOM     20  C   UNL A   1      41.146  28.880  33.791  1.00  0.00     0.007 C 
BRANCH  20  21
ATOM     21  C   UNL A   1      41.886  28.350  35.020  1.00  0.00    -0.003 C 
ATOM     22  C   UNL A   1      42.053  26.838  35.027  1.00  0.00     0.004 C 
ENDBRANCH  20  21
ENDBRANCH  17  20
ENDBRANCH  11  16
ENDBRANCH   7  10
ENDBRANCH   5   6
ENDBRANCH   3   5
ENDBRANCH   2   3
ENDBRANCH   1   2
BRANCH   1  23
ATOM     23  C   UNL A   1      33.578  32.475  27.635  1.00  0.00     0.275 C 
BRANCH  23  24
ATOM     24  O   UNL A   1      34.228  31.631  28.606  1.00  0.00    -0.458 OA
BRANCH  24  25
ATOM     25  C   UNL A   1      34.384  30.340  28.243  1.00  0.00     0.338 C 
ATOM     26  O   UNL A   1      33.537  29.595  27.763  1.00  0.00    -0.246 OA
BRANCH  25  27
ATOM     27  C   UNL A   1      35.796  29.960  28.362  1.00  0.00     0.060 A 
ATOM     28  C   UNL A   1      36.281  29.603  29.621  1.00  0.00     0.016 A 
ATOM     29  C   UNL A   1      36.656  30.043  27.269  1.00  0.00     0.016 A 
ATOM     30  C   UNL A   1      37.633  29.360  29.807  1.00  0.00     0.010 A 
ATOM     31  C   UNL A   1      38.012  29.749  27.446  1.00  0.00     0.010 A 
ATOM     32  C   UNL A   1      38.510  29.414  28.719  1.00  0.00    -0.014 A 
BRANCH  32  33
ATOM     33  C   UNL A   1      39.940  29.097  28.931  1.00  0.00     0.031 A 
ATOM     34  C   UNL A   1      40.873  30.134  29.479  1.00  0.00     0.074 A 
ATOM     35  C   UNL A   1      40.385  27.857  28.649  1.00  0.00     0.049 A 
ATOM     36  N   UNL A   1      42.169  30.075  29.636  1.00  0.00    -0.248 NA
ATOM     37  C   UNL A   1      40.272  31.408  29.902  1.00  0.00     0.031 C 
ATOM     38  C   UNL A   1      39.554  26.758  28.147  1.00  0.00     0.029 A 
ATOM     39  N   UNL A   1      41.637  27.311  28.745  1.00  0.00    -0.354 N 
ATOM     40  C   UNL A   1      42.547  31.314  30.134  1.00  0.00     0.074 A 
ATOM     41  C   UNL A   1      41.341  32.106  30.256  1.00  0.00     0.031 C 
ATOM     42  C   UNL A   1      40.318  25.667  27.991  1.00  0.00     0.029 A 
ATOM     43  C   UNL A   1      41.699  26.007  28.316  1.00  0.00     0.049 A 
ATOM     44  H   UNL A   1      42.418  27.805  29.086  1.00  0.00     0.167 HD
ATOM     45  C   UNL A   1      43.791  31.749  30.449  1.00  0.00     0.037 A 
ATOM     46  C   UNL A   1      42.755  25.187  28.161  1.00  0.00     0.037 A 
ATOM     47  C   UNL A   1      44.976  30.936  30.353  1.00  0.00     0.049 A 
ATOM     48  C   UNL A   1      44.126  25.698  28.492  1.00  0.00     0.074 A 
ATOM     49  C   UNL A   1      46.277  31.265  30.691  1.00  0.00     0.029 A 
ATOM     50  N   UNL A   1      45.003  29.631  29.881  1.00  0.00    -0.354 N 
ATOM     51  N   UNL A   1      44.473  26.878  28.948  1.00  0.00    -0.248 NA
ATOM     52  C   UNL A   1      45.248  24.779  28.268  1.00  0.00     0.031 C 
ATOM     53  C   UNL A   1      47.096  30.171  30.388  1.00  0.00     0.029 A 
ATOM     54  C   UNL A   1      46.302  29.148  29.892  1.00  0.00     0.049 A 
ATOM     55  H   UNL A   1      44.215  29.122  29.583  1.00  0.00     0.167 HD
ATOM     56  C   UNL A   1      45.856  26.851  29.056  1.00  0.00     0.074 A 
ATOM     57  C   UNL A   1      46.279  25.526  28.643  1.00  0.00     0.031 C 
ATOM     58  C   UNL A   1      46.700  27.835  29.453  1.00  0.00     0.037 A 
BRANCH  45  59
ATOM     59  C   UNL A   1      43.931  33.180  30.881  1.00  0.00     0.058 A 
ATOM     60  C   UNL A   1      43.690  33.587  32.201  1.00  0.00     0.135 A 
ATOM     61  C   UNL A   1      44.314  34.160  29.951  1.00  0.00     0.135 A 
ATOM     62  F   UNL A   1      43.303  32.693  33.125  1.00  0.00    -0.206 F 
ATOM     63  C   UNL A   1      43.791  34.923  32.579  1.00  0.00     0.059 A 
ATOM     64  C   UNL A   1      44.441  35.499  30.311  1.00  0.00     0.059 A 
ATOM     65  F   UNL A   1      44.554  33.823  28.675  1.00  0.00    -0.206 F 
ATOM     66  C   UNL A   1      44.160  35.873  31.623  1.00  0.00     0.060 A 
BRANCH  66  67
ATOM     67  S   UNL A   1      44.265  37.608  32.115  1.00  0.00     0.124 S 
ATOM     68  O   UNL A   1      43.716  38.276  30.939  1.00  0.00    -0.237 OA
ATOM     69  O   UNL A   1      43.432  37.648  33.314  1.00  0.00    -0.237 OA
ATOM     70  O   UNL A   1      45.693  37.809  32.343  1.00  0.00    -0.744 OA
ENDBRANCH  66  67
ENDBRANCH  45  59
BRANCH  46  71
ATOM     71  C   UNL A   1      42.539  23.823  27.617  1.00  0.00     0.058 A 
ATOM     72  C   UNL A   1      42.584  23.577  26.238  1.00  0.00     0.135 A 
ATOM     73  C   UNL A   1      42.364  22.726  28.476  1.00  0.00     0.135 A 
ATOM     74  F   UNL A   1      42.740  24.596  25.380  1.00  0.00    -0.206 F 
ATOM     75  C   UNL A   1      42.479  22.286  25.728  1.00  0.00     0.059 A 
ATOM     76  C   UNL A   1      42.278  21.425  27.991  1.00  0.00     0.059 A 
ATOM     77  F   UNL A   1      42.329  22.911  29.804  1.00  0.00    -0.206 F 
ATOM     78  C   UNL A   1      42.337  21.216  26.614  1.00  0.00     0.060 A 
BRANCH  78  79
ATOM     79  S   UNL A   1      42.314  19.534  25.954  1.00  0.00     0.124 S 
ATOM     80  O   UNL A   1      40.903  19.368  25.626  1.00  0.00    -0.237 OA
ATOM     81  O   UNL A   1      43.226  19.632  24.819  1.00  0.00    -0.237 OA
ATOM     82  O   UNL A   1      42.804  18.732  27.072  1.00  0.00    -0.744 OA
ENDBRANCH  78  79
ENDBRANCH  46  71
BRANCH  58  83
ATOM     83  C   UNL A   1      48.166  27.516  29.438  1.00  0.00     0.058 A 
ATOM     84  C   UNL A   1      48.973  27.866  28.345  1.00  0.00     0.135 A 
ATOM     85  C   UNL A   1      48.776  26.891  30.535  1.00  0.00     0.135 A 
ATOM     86  F   UNL A   1      48.432  28.456  27.267  1.00  0.00    -0.206 F 
ATOM     87  C   UNL A   1      50.335  27.590  28.332  1.00  0.00     0.059 A 
ATOM     88  C   UNL A   1      50.141  26.622  30.552  1.00  0.00     0.059 A 
ATOM     89  F   UNL A   1      48.046  26.543  31.607  1.00  0.00    -0.206 F 
ATOM     90  C   UNL A   1      50.911  26.967  29.441  1.00  0.00     0.060 A 
BRANCH  90  91
ATOM     91  S   UNL A   1      52.686  26.639  29.430  1.00  0.00     0.124 S 
ATOM     92  O   UNL A   1      52.837  25.891  28.185  1.00  0.00    -0.237 OA
ATOM     93  O   UNL A   1      53.256  27.982  29.436  1.00  0.00    -0.237 OA
ATOM     94  O   UNL A   1      52.895  25.871  30.653  1.00  0.00    -0.744 OA
ENDBRANCH  90  91
ENDBRANCH  58  83
ENDBRANCH  32  33
ENDBRANCH  25  27
ENDBRANCH  24  25
ENDBRANCH  23  24
ENDBRANCH   1  23
TORSDOF 19
ENDMDL
MODEL 2
REMARK VINA RESULT:      -9.5      4.291      6.748
REMARK SMILES CCCC1CN(c2ccc(C(=O)NCC(=O)OCCOC(=O)c3ccc(-c4c5nc(c(-c6c(F)cc(S(=O)(=O)[O-])cc6F)c6ccc([nH]6)c(-c6c(F)cc(S(=O)(=O)[O-])cc6F)c6nc(c(-c7c(F)cc(S(=O)(=O)[O-])cc7F)c7ccc4[nH]7)C=C6)C=C5)cc3)cc2)C1
REMARK SMILES IDX 18 1 17 2 15 3 16 4 14 5 13 6 11 7 12 8 10 10 7 11 8 12
REMARK SMILES IDX 90 13 9 14 89 15 6 16 4 17 5 18 91 19 3 20 2 21 1 22 19 23
REMARK SMILES IDX 20 24 21 25 22 26 23 27 24 28 88 29 25 30 87 31 26 32 27 33
REMARK SMILES IDX 28 34 81 35 29 36 86 37 80 38 82 39 30 40 85 41 79 42 78 43
REMARK SMILES IDX 31 45 65 46 44 47 64 48 45 49 48 50 63 51 83 52 46 53 47 54
REMARK SMILES IDX 62 56 84 57 49 58 32 59 33 60 42 61 34 62 35 63 41 64 43 65
REMARK SMILES IDX 36 66 37 67 38 68 39 69 40 70 66 71 67 72 76 73 68 74 69 75
REMARK SMILES IDX 75 76 77 77 70 78 71 79 72 80 73 81 74 82 50 83 51 84 60 85
REMARK SMILES IDX 52 86 53 87 59 88 61 89 54 90 55 91 56 92 57 93 58 94
REMARK H PARENT 13 9 82 44 48 55
REMARK Flexibility Score: inf
ROOT
ATOM      1  C   UNL A   1      33.433  30.014  26.863  1.00  0.00     0.274 C 
ENDROOT
BRANCH   1   2
ATOM      2  O   UNL A   1      32.206  30.745  27.030  1.00  0.00    -0.461 OA
BRANCH   2   3
ATOM      3  C   UNL A   1      31.420  30.874  25.926  1.00  0.00     0.325 C 
ATOM      4  O   UNL A   1      30.770  31.874  25.646  1.00  0.00    -0.250 OA
BRANCH   3   5
ATOM      5  C   UNL A   1      31.539  29.671  24.986  1.00  0.00     0.239 C 
BRANCH   5   6
ATOM      6  N   UNL A   1      30.827  29.831  23.732  1.00  0.00    -0.341 N 
ATOM      7  C   UNL A   1      30.463  28.908  22.793  1.00  0.00     0.251 C 
ATOM      8  O   UNL A   1      29.799  29.275  21.825  1.00  0.00    -0.269 OA
ATOM      9  H   UNL A   1      30.563  30.756  23.523  1.00  0.00     0.164 HD
BRANCH   7  10
ATOM     10  C   UNL A   1      30.809  27.467  22.927  1.00  0.00     0.039 A 
ATOM     11  C   UNL A   1      31.296  24.710  23.233  1.00  0.00     0.037 A 
ATOM     12  C   UNL A   1      30.216  25.315  23.880  1.00  0.00     0.027 A 
ATOM     13  C   UNL A   1      32.118  25.489  22.417  1.00  0.00     0.027 A 
ATOM     14  C   UNL A   1      29.977  26.684  23.735  1.00  0.00     0.016 A 
ATOM     15  C   UNL A   1      31.861  26.851  22.241  1.00  0.00     0.016 A 
BRANCH  11  16
ATOM     16  N   UNL A   1      31.503  23.328  23.396  1.00  0.00    -0.371 N 
ATOM     17  C   UNL A   1      32.800  21.862  24.130  1.00  0.00     0.028 C 
ATOM     18  C   UNL A   1      32.599  22.612  22.809  1.00  0.00     0.122 C 
ATOM     19  C   UNL A   1      31.592  22.645  24.654  1.00  0.00     0.122 C 
BRANCH  17  20
ATOM     20  C   UNL A   1      32.709  20.345  24.009  1.00  0.00     0.007 C 
BRANCH  20  21
ATOM     21  C   UNL A   1      33.877  19.631  24.691  1.00  0.00    -0.003 C 
ATOM     22  C   UNL A   1      33.768  18.114  24.659  1.00  0.00     0.004 C 
ENDBRANCH  20  21
ENDBRANCH  17  20
ENDBRANCH  11  16
ENDBRANCH   7  10
ENDBRANCH   5   6
ENDBRANCH   3   5
ENDBRANCH   2   3
ENDBRANCH   1   2
BRANCH   1  23
ATOM     23  C   UNL A   1      34.571  30.688  27.636  1.00  0.00     0.275 C 
BRANCH  23  24
ATOM     24  O   UNL A   1      35.429  29.721  28.275  1.00  0.00    -0.458 OA
BRANCH  24  25
ATOM     25  C   UNL A   1      36.266  30.215  29.211  1.00  0.00     0.338 C 
ATOM     26  O   UNL A   1      35.964  30.836  30.225  1.00  0.00    -0.246 OA
BRANCH  25  27
ATOM     27  C   UNL A   1      37.636  29.772  28.935  1.00  0.00     0.060 A 
ATOM     28  C   UNL A   1      38.487  29.538  30.017  1.00  0.00     0.016 A 
ATOM     29  C   UNL A   1      38.111  29.678  27.627  1.00  0.00     0.016 A 
ATOM     30  C   UNL A   1      39.825  29.243  29.804  1.00  0.00     0.010 A 
ATOM     31  C   UNL A   1      39.449  29.330  27.413  1.00  0.00     0.010 A 
ATOM     32  C   UNL A   1      40.316  29.120  28.501  1.00  0.00    -0.014 A 
BRANCH  32  33
ATOM     33  C   UNL A   1      41.735  28.750  28.298  1.00  0.00     0.031 A 
ATOM     34  C   UNL A   1      42.808  29.793  28.376  1.00  0.00     0.074 A 
ATOM     35  C   UNL A   1      42.049  27.460  28.070  1.00  0.00     0.049 A 
ATOM     36  N   UNL A   1      44.086  29.679  28.127  1.00  0.00    -0.248 NA
ATOM     37  C   UNL A   1      42.391  31.144  28.782  1.00  0.00     0.031 C 
ATOM     38  C   UNL A   1      41.086  26.356  28.011  1.00  0.00     0.029 A 
ATOM     39  N   UNL A   1      43.259  26.858  27.845  1.00  0.00    -0.354 N 
ATOM     40  C   UNL A   1      44.621  30.948  28.303  1.00  0.00     0.074 A 
ATOM     41  C   UNL A   1      43.528  31.818  28.683  1.00  0.00     0.031 C 
ATOM     42  C   UNL A   1      41.745  25.211  27.780  1.00  0.00     0.029 A 
ATOM     43  C   UNL A   1      43.163  25.509  27.607  1.00  0.00     0.049 A 
ATOM     44  H   UNL A   1      44.115  27.346  27.852  1.00  0.00     0.167 HD
ATOM     45  C   UNL A   1      45.907  31.346  28.150  1.00  0.00     0.037 A 
ATOM     46  C   UNL A   1      44.103  24.616  27.246  1.00  0.00     0.037 A 
ATOM     47  C   UNL A   1      46.988  30.460  27.804  1.00  0.00     0.049 A 
ATOM     48  C   UNL A   1      45.515  25.085  27.058  1.00  0.00     0.074 A 
ATOM     49  C   UNL A   1      48.333  30.754  27.669  1.00  0.00     0.029 A 
ATOM     50  N   UNL A   1      46.845  29.106  27.536  1.00  0.00    -0.354 N 
ATOM     51  N   UNL A   1      46.006  26.291  27.212  1.00  0.00    -0.248 NA
ATOM     52  C   UNL A   1      46.495  24.081  26.627  1.00  0.00     0.031 C 
ATOM     53  C   UNL A   1      48.999  29.583  27.283  1.00  0.00     0.029 A 
ATOM     54  C   UNL A   1      48.073  28.554  27.209  1.00  0.00     0.049 A 
ATOM     55  H   UNL A   1      45.995  28.610  27.573  1.00  0.00     0.167 HD
ATOM     56  C   UNL A   1      47.352  26.197  26.886  1.00  0.00     0.074 A 
ATOM     57  C   UNL A   1      47.603  24.808  26.553  1.00  0.00     0.031 C 
ATOM     58  C   UNL A   1      48.292  27.173  26.857  1.00  0.00     0.037 A 
BRANCH  45  59
ATOM     59  C   UNL A   1      46.197  32.810  28.310  1.00  0.00     0.058 A 
ATOM     60  C   UNL A   1      46.558  33.368  29.546  1.00  0.00     0.135 A 
ATOM     61  C   UNL A   1      46.111  33.669  27.203  1.00  0.00     0.135 A 
ATOM     62  F   UNL A   1      46.636  32.594  30.640  1.00  0.00    -0.206 F 
ATOM     63  C   UNL A   1      46.791  34.733  29.686  1.00  0.00     0.059 A 
ATOM     64  C   UNL A   1      46.360  35.034  27.315  1.00  0.00     0.059 A 
ATOM     65  F   UNL A   1      45.767  33.187  25.999  1.00  0.00    -0.206 F 
ATOM     66  C   UNL A   1      46.682  35.559  28.565  1.00  0.00     0.060 A 
BRANCH  66  67
ATOM     67  S   UNL A   1      46.962  37.333  28.760  1.00  0.00     0.124 S 
ATOM     68  O   UNL A   1      47.408  37.704  27.421  1.00  0.00    -0.237 OA
ATOM     69  O   UNL A   1      45.641  37.821  29.147  1.00  0.00    -0.237 OA
ATOM     70  O   UNL A   1      47.981  37.402  29.804  1.00  0.00    -0.744 OA
ENDBRANCH  66  67
ENDBRANCH  45  59
BRANCH  46  71
ATOM     71  C   UNL A   1      43.706  23.208  26.995  1.00  0.00     0.058 A 
ATOM     72  C   UNL A   1      43.373  22.349  28.050  1.00  0.00     0.135 A 
ATOM     73  C   UNL A   1      43.574  22.721  25.684  1.00  0.00     0.135 A 
ATOM     74  F   UNL A   1      43.491  22.768  29.319  1.00  0.00    -0.206 F 
ATOM     75  C   UNL A   1      42.907  21.059  27.816  1.00  0.00     0.059 A 
ATOM     76  C   UNL A   1      43.091  21.443  25.424  1.00  0.00     0.059 A 
ATOM     77  F   UNL A   1      43.869  23.512  24.641  1.00  0.00    -0.206 F 
ATOM     78  C   UNL A   1      42.759  20.619  26.499  1.00  0.00     0.060 A 
BRANCH  78  79
ATOM     79  S   UNL A   1      42.048  18.986  26.198  1.00  0.00     0.124 S 
ATOM     80  O   UNL A   1      42.962  18.448  25.197  1.00  0.00    -0.237 OA
ATOM     81  O   UNL A   1      42.115  18.369  27.519  1.00  0.00    -0.237 OA
ATOM     82  O   UNL A   1      40.700  19.291  25.727  1.00  0.00    -0.744 OA
ENDBRANCH  78  79
ENDBRANCH  46  71
BRANCH  58  83
ATOM     83  C   UNL A   1      49.673  26.771  26.430  1.00  0.00     0.058 A 
ATOM     84  C   UNL A   1      50.562  26.163  27.329  1.00  0.00     0.135 A 
ATOM     85  C   UNL A   1      50.099  26.960  25.107  1.00  0.00     0.135 A 
ATOM     86  F   UNL A   1      50.203  25.971  28.608  1.00  0.00    -0.206 F 
ATOM     87  C   UNL A   1      51.836  25.771  26.935  1.00  0.00     0.059 A 
ATOM     88  C   UNL A   1      51.362  26.558  24.686  1.00  0.00     0.059 A 
ATOM     89  F   UNL A   1      49.281  27.532  24.209  1.00  0.00    -0.206 F 
ATOM     90  C   UNL A   1      52.228  25.974  25.611  1.00  0.00     0.060 A 
BRANCH  90  91
ATOM     91  S   UNL A   1      53.873  25.435  25.098  1.00  0.00     0.124 S 
ATOM     92  O   UNL A   1      54.728  26.307  25.899  1.00  0.00    -0.237 OA
ATOM     93  O   UNL A   1      53.876  24.025  25.475  1.00  0.00    -0.237 OA
ATOM     94  O   UNL A   1      53.881  25.694  23.662  1.00  0.00    -0.744 OA
ENDBRANCH  90  91
ENDBRANCH  58  83
ENDBRANCH  32  33
ENDBRANCH  25  27
ENDBRANCH  24  25
ENDBRANCH  23  24
ENDBRANCH   1  23
TORSDOF 19
ENDMDL
MODEL 3
REMARK VINA RESULT:      -9.2      5.110     11.919
REMARK SMILES CCCC1CN(c2ccc(C(=O)NCC(=O)OCCOC(=O)c3ccc(-c4c5nc(c(-c6c(F)cc(S(=O)(=O)[O-])cc6F)c6ccc([nH]6)c(-c6c(F)cc(S(=O)(=O)[O-])cc6F)c6nc(c(-c7c(F)cc(S(=O)(=O)[O-])cc7F)c7ccc4[nH]7)C=C6)C=C5)cc3)cc2)C1
REMARK SMILES IDX 18 1 17 2 15 3 16 4 14 5 13 6 11 7 12 8 10 10 7 11 8 12
REMARK SMILES IDX 90 13 9 14 89 15 6 16 4 17 5 18 91 19 3 20 2 21 1 22 19 23
REMARK SMILES IDX 20 24 21 25 22 26 23 27 24 28 88 29 25 30 87 31 26 32 27 33
REMARK SMILES IDX 28 34 81 35 29 36 86 37 80 38 82 39 30 40 85 41 79 42 78 43
REMARK SMILES IDX 31 45 65 46 44 47 64 48 45 49 48 50 63 51 83 52 46 53 47 54
REMARK SMILES IDX 62 56 84 57 49 58 32 59 33 60 42 61 34 62 35 63 41 64 43 65
REMARK SMILES IDX 36 66 37 67 38 68 39 69 40 70 66 71 67 72 76 73 68 74 69 75
REMARK SMILES IDX 75 76 77 77 70 78 71 79 72 80 73 81 74 82 50 83 51 84 60 85
REMARK SMILES IDX 52 86 53 87 59 88 61 89 54 90 55 91 56 92 57 93 58 94
REMARK H PARENT 13 9 82 44 48 55
REMARK Flexibility Score: inf
ROOT
ATOM      1  C   UNL A   1      42.539  22.106  26.161  1.00  0.00     0.274 C 
ENDROOT
BRANCH   1   2
ATOM      2  O   UNL A   1      41.251  21.836  25.581  1.00  0.00    -0.461 OA
BRANCH   2   3
ATOM      3  C   UNL A   1      40.239  21.558  26.448  1.00  0.00     0.325 C 
ATOM      4  O   UNL A   1      40.394  21.118  27.581  1.00  0.00    -0.250 OA
BRANCH   3   5
ATOM      5  C   UNL A   1      38.874  21.985  25.902  1.00  0.00     0.239 C 
BRANCH   5   6
ATOM      6  N   UNL A   1      38.046  20.880  25.458  1.00  0.00    -0.341 N 
ATOM      7  C   UNL A   1      36.712  20.831  25.166  1.00  0.00     0.251 C 
ATOM      8  O   UNL A   1      36.235  19.780  24.740  1.00  0.00    -0.269 OA
ATOM      9  H   UNL A   1      38.522  20.026  25.348  1.00  0.00     0.164 HD
BRANCH   7  10
ATOM     10  C   UNL A   1      35.828  22.018  25.308  1.00  0.00     0.039 A 
ATOM     11  C   UNL A   1      34.164  24.247  25.756  1.00  0.00     0.037 A 
ATOM     12  C   UNL A   1      34.332  23.278  26.747  1.00  0.00     0.027 A 
ATOM     13  C   UNL A   1      34.848  24.104  24.547  1.00  0.00     0.027 A 
ATOM     14  C   UNL A   1      35.152  22.169  26.524  1.00  0.00     0.016 A 
ATOM     15  C   UNL A   1      35.697  23.014  24.334  1.00  0.00     0.016 A 
BRANCH  11  16
ATOM     16  N   UNL A   1      33.337  25.354  26.016  1.00  0.00    -0.371 N 
ATOM     17  C   UNL A   1      32.572  27.143  25.249  1.00  0.00     0.028 C 
ATOM     18  C   UNL A   1      33.807  26.710  26.047  1.00  0.00     0.122 C 
ATOM     19  C   UNL A   1      32.133  25.676  25.307  1.00  0.00     0.122 C 
BRANCH  17  20
ATOM     20  C   UNL A   1      31.720  28.202  25.940  1.00  0.00     0.007 C 
BRANCH  20  21
ATOM     21  C   UNL A   1      31.544  29.460  25.087  1.00  0.00    -0.003 C 
ATOM     22  C   UNL A   1      30.629  29.261  23.888  1.00  0.00     0.004 C 
ENDBRANCH  20  21
ENDBRANCH  17  20
ENDBRANCH  11  16
ENDBRANCH   7  10
ENDBRANCH   5   6
ENDBRANCH   3   5
ENDBRANCH   2   3
ENDBRANCH   1   2
BRANCH   1  23
ATOM     23  C   UNL A   1      42.824  23.612  26.162  1.00  0.00     0.275 C 
BRANCH  23  24
ATOM     24  O   UNL A   1      41.653  24.376  26.514  1.00  0.00    -0.458 OA
BRANCH  24  25
ATOM     25  C   UNL A   1      41.692  25.684  26.186  1.00  0.00     0.338 C 
ATOM     26  O   UNL A   1      41.719  26.167  25.058  1.00  0.00    -0.246 OA
BRANCH  25  27
ATOM     27  C   UNL A   1      41.544  26.504  27.393  1.00  0.00     0.060 A 
ATOM     28  C   UNL A   1      40.607  26.109  28.349  1.00  0.00     0.016 A 
ATOM     29  C   UNL A   1      42.249  27.697  27.542  1.00  0.00     0.016 A 
ATOM     30  C   UNL A   1      40.340  26.918  29.443  1.00  0.00     0.010 A 
ATOM     31  C   UNL A   1      42.016  28.488  28.672  1.00  0.00     0.010 A 
ATOM     32  C   UNL A   1      41.053  28.107  29.624  1.00  0.00    -0.014 A 
BRANCH  32  33
ATOM     33  C   UNL A   1      40.790  28.927  30.829  1.00  0.00     0.031 A 
ATOM     34  C   UNL A   1      39.675  29.928  30.835  1.00  0.00     0.074 A 
ATOM     35  C   UNL A   1      41.550  28.742  31.925  1.00  0.00     0.049 A 
ATOM     36  N   UNL A   1      39.360  30.803  31.753  1.00  0.00    -0.248 NA
ATOM     37  C   UNL A   1      38.801  29.954  29.652  1.00  0.00     0.031 C 
ATOM     38  C   UNL A   1      42.638  27.767  32.041  1.00  0.00     0.029 A 
ATOM     39  N   UNL A   1      41.526  29.360  33.148  1.00  0.00    -0.354 N 
ATOM     40  C   UNL A   1      38.281  31.513  31.245  1.00  0.00     0.074 A 
ATOM     41  C   UNL A   1      37.992  30.965  29.936  1.00  0.00     0.031 C 
ATOM     42  C   UNL A   1      43.168  27.845  33.271  1.00  0.00     0.029 A 
ATOM     43  C   UNL A   1      42.504  28.917  34.004  1.00  0.00     0.049 A 
ATOM     44  H   UNL A   1      40.871  30.056  33.388  1.00  0.00     0.167 HD
ATOM     45  C   UNL A   1      37.602  32.535  31.819  1.00  0.00     0.037 A 
ATOM     46  C   UNL A   1      42.858  29.353  35.227  1.00  0.00     0.037 A 
ATOM     47  C   UNL A   1      37.880  33.047  33.136  1.00  0.00     0.049 A 
ATOM     48  C   UNL A   1      42.109  30.504  35.833  1.00  0.00     0.074 A 
ATOM     49  C   UNL A   1      37.224  34.048  33.829  1.00  0.00     0.029 A 
ATOM     50  N   UNL A   1      38.903  32.595  33.959  1.00  0.00    -0.354 N 
ATOM     51  N   UNL A   1      41.100  31.177  35.335  1.00  0.00    -0.248 NA
ATOM     52  C   UNL A   1      42.559  30.967  37.151  1.00  0.00     0.031 C 
ATOM     53  C   UNL A   1      37.872  34.228  35.057  1.00  0.00     0.029 A 
ATOM     54  C   UNL A   1      38.913  33.316  35.143  1.00  0.00     0.049 A 
ATOM     55  H   UNL A   1      39.528  31.869  33.736  1.00  0.00     0.167 HD
ATOM     56  C   UNL A   1      40.797  32.154  36.273  1.00  0.00     0.074 A 
ATOM     57  C   UNL A   1      41.715  31.965  37.381  1.00  0.00     0.031 C 
ATOM     58  C   UNL A   1      39.852  33.125  36.220  1.00  0.00     0.037 A 
BRANCH  45  59
ATOM     59  C   UNL A   1      36.528  33.194  31.002  1.00  0.00     0.058 A 
ATOM     60  C   UNL A   1      36.826  34.044  29.927  1.00  0.00     0.135 A 
ATOM     61  C   UNL A   1      35.176  32.968  31.305  1.00  0.00     0.135 A 
ATOM     62  F   UNL A   1      38.103  34.309  29.607  1.00  0.00    -0.206 F 
ATOM     63  C   UNL A   1      35.820  34.674  29.200  1.00  0.00     0.059 A 
ATOM     64  C   UNL A   1      34.153  33.571  30.579  1.00  0.00     0.059 A 
ATOM     65  F   UNL A   1      34.838  32.165  32.326  1.00  0.00    -0.206 F 
ATOM     66  C   UNL A   1      34.486  34.437  29.539  1.00  0.00     0.060 A 
BRANCH  66  67
ATOM     67  S   UNL A   1      33.187  35.277  28.607  1.00  0.00     0.124 S 
ATOM     68  O   UNL A   1      32.529  34.152  27.950  1.00  0.00    -0.237 OA
ATOM     69  O   UNL A   1      32.417  35.935  29.659  1.00  0.00    -0.237 OA
ATOM     70  O   UNL A   1      33.929  36.173  27.725  1.00  0.00    -0.744 OA
ENDBRANCH  66  67
ENDBRANCH  45  59
BRANCH  46  71
ATOM     71  C   UNL A   1      44.010  28.720  35.916  1.00  0.00     0.058 A 
ATOM     72  C   UNL A   1      43.829  27.628  36.775  1.00  0.00     0.135 A 
ATOM     73  C   UNL A   1      45.323  29.147  35.663  1.00  0.00     0.135 A 
ATOM     74  F   UNL A   1      42.592  27.191  37.053  1.00  0.00    -0.206 F 
ATOM     75  C   UNL A   1      44.913  26.969  37.348  1.00  0.00     0.059 A 
ATOM     76  C   UNL A   1      46.423  28.491  36.207  1.00  0.00     0.059 A 
ATOM     77  F   UNL A   1      45.546  30.180  34.836  1.00  0.00    -0.206 F 
ATOM     78  C   UNL A   1      46.206  27.401  37.049  1.00  0.00     0.060 A 
BRANCH  78  79
ATOM     79  S   UNL A   1      47.611  26.474  37.705  1.00  0.00     0.124 S 
ATOM     80  O   UNL A   1      47.497  26.741  39.133  1.00  0.00    -0.237 OA
ATOM     81  O   UNL A   1      47.307  25.110  37.284  1.00  0.00    -0.237 OA
ATOM     82  O   UNL A   1      48.755  27.085  37.034  1.00  0.00    -0.744 OA
ENDBRANCH  78  79
ENDBRANCH  46  71
BRANCH  58  83
ATOM     83  C   UNL A   1      39.781  34.066  37.386  1.00  0.00     0.058 A 
ATOM     84  C   UNL A   1      38.962  33.791  38.491  1.00  0.00     0.135 A 
ATOM     85  C   UNL A   1      40.562  35.231  37.416  1.00  0.00     0.135 A 
ATOM     86  F   UNL A   1      38.189  32.694  38.502  1.00  0.00    -0.206 F 
ATOM     87  C   UNL A   1      38.906  34.650  39.583  1.00  0.00     0.059 A 
ATOM     88  C   UNL A   1      40.536  36.095  38.506  1.00  0.00     0.059 A 
ATOM     89  F   UNL A   1      41.366  35.533  36.384  1.00  0.00    -0.206 F 
ATOM     90  C   UNL A   1      39.696  35.801  39.581  1.00  0.00     0.060 A 
BRANCH  90  91
ATOM     91  S   UNL A   1      39.640  36.896  41.014  1.00  0.00     0.124 S 
ATOM     92  O   UNL A   1      38.956  38.063  40.465  1.00  0.00    -0.237 OA
ATOM     93  O   UNL A   1      38.879  36.113  41.982  1.00  0.00    -0.237 OA
ATOM     94  O   UNL A   1      41.048  37.092  41.345  1.00  0.00    -0.744 OA
ENDBRANCH  90  91
ENDBRANCH  58  83
ENDBRANCH  32  33
ENDBRANCH  25  27
ENDBRANCH  24  25
ENDBRANCH  23  24
ENDBRANCH   1  23
TORSDOF 19
ENDMDL
