MODEL 1
REMARK VINA RESULT:     -11.6      0.000      0.000
REMARK SMILES O=C(N[C@@H](Cc1ccc(O)cc1)C(=O)N[C@@H](CO)C(=O)OCCOC(=O)c1ccc(-c2c3nc(c(-c4c(F)cc(S(=O)(=O)[O-])cc4F)c4ccc([nH]4)c(-c4c(F)cc(S(=O)(=O)[O-])cc4F)c4nc(c(-c5c(F)cc(S(=O)(=O)[O-])cc5F)c5ccc2[nH]5)C=C4)C=C3)cc1)c1ccc(F)cc1
REMARK SMILES IDX 22 1 21 2 19 3 20 4 16 5 15 6 13 7 14 8 4 10 3 11 1 12 2 13
REMARK SMILES IDX 93 15 94 16 99 17 95 18 98 19 96 20 97 21 5 22 6 23 7 24
REMARK SMILES IDX 12 25 8 26 11 27 9 28 10 29 17 31 18 32 23 34 24 35 25 36
REMARK SMILES IDX 26 37 27 38 28 39 92 40 29 41 91 42 30 43 31 44 32 45 85 46
REMARK SMILES IDX 33 47 90 48 84 49 86 50 34 51 89 52 83 53 82 54 35 56 69 57
REMARK SMILES IDX 48 58 68 59 49 60 52 61 67 62 87 63 50 64 51 65 66 67 88 68
REMARK SMILES IDX 53 69 36 70 37 71 46 72 38 73 39 74 45 75 47 76 40 77 41 78
REMARK SMILES IDX 42 79 43 80 44 81 70 82 71 83 80 84 72 85 73 86 79 87 81 88
REMARK SMILES IDX 74 89 75 90 76 91 77 92 78 93 54 94 55 95 64 96 56 97 57 98
REMARK SMILES IDX 63 99 65 100 58 101 59 102 60 103 61 104 62 105
REMARK H PARENT 15 9 3 14 10 30 18 33 86 55 52 66
REMARK Flexibility Score: inf
ROOT
ATOM      1  C   UNL A   1      31.881  29.581  25.930  1.00  0.00     0.274 C 
ENDROOT
BRANCH   1   2
ATOM      2  O   UNL A   1      31.406  28.402  25.232  1.00  0.00    -0.460 OA
BRANCH   2   3
ATOM      3  C   UNL A   1      30.998  27.350  26.016  1.00  0.00     0.331 C 
ATOM      4  O   UNL A   1      31.060  27.357  27.243  1.00  0.00    -0.250 OA
BRANCH   3   5
ATOM      5  C   UNL A   1      30.330  26.213  25.190  1.00  0.00     0.218 C 
BRANCH   5   6
ATOM      6  N   UNL A   1      29.909  25.099  26.043  1.00  0.00    -0.339 N 
ATOM      7  C   UNL A   1      30.408  23.869  26.306  1.00  0.00     0.243 C 
ATOM      8  O   UNL A   1      29.918  23.303  27.295  1.00  0.00    -0.273 OA
ATOM      9  H   UNL A   1      29.078  25.288  26.534  1.00  0.00     0.164 HD
BRANCH   7  10
ATOM     10  C   UNL A   1      31.507  23.137  25.494  1.00  0.00     0.176 C 
BRANCH  10  11
ATOM     11  N   UNL A   1      31.836  21.809  26.012  1.00  0.00    -0.340 N 
ATOM     12  O   UNL A   1      33.110  19.961  26.195  1.00  0.00    -0.269 OA
ATOM     13  C   UNL A   1      33.051  21.165  25.965  1.00  0.00     0.251 C 
ATOM     14  H   UNL A   1      31.101  21.318  26.446  1.00  0.00     0.164 HD
BRANCH  13  15
ATOM     15  C   UNL A   1      34.290  21.908  25.626  1.00  0.00     0.040 A 
ATOM     16  C   UNL A   1      34.915  21.732  24.384  1.00  0.00     0.017 A 
ATOM     17  C   UNL A   1      34.802  22.833  26.546  1.00  0.00     0.017 A 
ATOM     18  C   UNL A   1      36.079  22.444  24.085  1.00  0.00     0.040 A 
ATOM     19  C   UNL A   1      35.962  23.550  26.237  1.00  0.00     0.040 A 
ATOM     20  C   UNL A   1      36.591  23.345  25.013  1.00  0.00     0.123 A 
ATOM     21  F   UNL A   1      37.698  24.037  24.714  1.00  0.00    -0.207 F 
ENDBRANCH  13  15
ENDBRANCH  10  11
BRANCH  10  22
ATOM     22  C   UNL A   1      31.422  23.176  23.960  1.00  0.00     0.070 C 
BRANCH  22  23
ATOM     23  C   UNL A   1      32.087  24.340  23.275  1.00  0.00    -0.045 A 
ATOM     24  C   UNL A   1      33.192  24.929  23.883  1.00  0.00     0.007 A 
ATOM     25  C   UNL A   1      31.649  24.859  22.054  1.00  0.00     0.007 A 
ATOM     26  C   UNL A   1      33.848  26.025  23.318  1.00  0.00     0.046 A 
ATOM     27  C   UNL A   1      32.303  25.956  21.479  1.00  0.00     0.046 A 
ATOM     28  C   UNL A   1      33.392  26.535  22.118  1.00  0.00     0.115 A 
BRANCH  28  29
ATOM     29  O   UNL A   1      33.996  27.610  21.542  1.00  0.00    -0.508 OA
ATOM     30  H   UNL A   1      34.547  28.168  22.054  1.00  0.00     0.293 HD
ENDBRANCH  28  29
ENDBRANCH  22  23
ENDBRANCH  10  22
ENDBRANCH   7  10
ENDBRANCH   5   6
BRANCH   5  31
ATOM     31  C   UNL A   1      29.177  26.779  24.356  1.00  0.00     0.193 C 
BRANCH  31  32
ATOM     32  O   UNL A   1      27.975  26.036  24.544  1.00  0.00    -0.394 OA
ATOM     33  H   UNL A   1      27.989  25.250  23.976  1.00  0.00     0.210 HD
ENDBRANCH  31  32
ENDBRANCH   5  31
ENDBRANCH   3   5
ENDBRANCH   2   3
ENDBRANCH   1   2
BRANCH   1  34
ATOM     34  C   UNL A   1      33.422  29.629  25.950  1.00  0.00     0.275 C 
BRANCH  34  35
ATOM     35  O   UNL A   1      33.923  29.344  27.275  1.00  0.00    -0.458 OA
BRANCH  35  36
ATOM     36  C   UNL A   1      34.444  30.400  27.968  1.00  0.00     0.338 C 
ATOM     37  O   UNL A   1      33.803  31.353  28.384  1.00  0.00    -0.246 OA
BRANCH  36  38
ATOM     38  C   UNL A   1      35.893  30.170  28.266  1.00  0.00     0.060 A 
ATOM     39  C   UNL A   1      36.860  30.364  27.289  1.00  0.00     0.016 A 
ATOM     40  C   UNL A   1      36.312  29.661  29.495  1.00  0.00     0.016 A 
ATOM     41  C   UNL A   1      38.154  29.851  27.438  1.00  0.00     0.010 A 
ATOM     42  C   UNL A   1      37.668  29.319  29.702  1.00  0.00     0.010 A 
ATOM     43  C   UNL A   1      38.620  29.362  28.660  1.00  0.00    -0.014 A 
BRANCH  43  44
ATOM     44  C   UNL A   1      40.048  28.910  28.870  1.00  0.00     0.031 A 
ATOM     45  C   UNL A   1      41.089  29.904  29.345  1.00  0.00     0.074 A 
ATOM     46  C   UNL A   1      40.488  27.647  28.646  1.00  0.00     0.049 A 
ATOM     47  N   UNL A   1      42.379  29.931  29.123  1.00  0.00    -0.248 NA
ATOM     48  C   UNL A   1      40.603  31.022  30.169  1.00  0.00     0.031 C 
ATOM     49  C   UNL A   1      39.672  26.471  28.335  1.00  0.00     0.029 A 
ATOM     50  N   UNL A   1      41.776  27.142  28.634  1.00  0.00    -0.354 N 
ATOM     51  C   UNL A   1      42.838  31.126  29.671  1.00  0.00     0.074 A 
ATOM     52  C   UNL A   1      41.693  31.771  30.281  1.00  0.00     0.031 C 
ATOM     53  C   UNL A   1      40.458  25.394  28.213  1.00  0.00     0.029 A 
ATOM     54  C   UNL A   1      41.847  25.819  28.253  1.00  0.00     0.049 A 
ATOM     55  H   UNL A   1      42.567  27.677  28.876  1.00  0.00     0.167 HD
ATOM     56  C   UNL A   1      44.092  31.644  29.637  1.00  0.00     0.037 A 
ATOM     57  C   UNL A   1      42.879  25.045  27.860  1.00  0.00     0.037 A 
ATOM     58  C   UNL A   1      45.243  30.944  29.124  1.00  0.00     0.049 A 
ATOM     59  C   UNL A   1      44.252  25.641  27.741  1.00  0.00     0.074 A 
ATOM     60  C   UNL A   1      46.548  31.391  29.004  1.00  0.00     0.029 A 
ATOM     61  N   UNL A   1      45.236  29.627  28.690  1.00  0.00    -0.354 N 
ATOM     62  N   UNL A   1      44.648  26.854  28.035  1.00  0.00    -0.248 NA
ATOM     63  C   UNL A   1      45.306  24.778  27.190  1.00  0.00     0.031 C 
ATOM     64  C   UNL A   1      47.326  30.351  28.480  1.00  0.00     0.029 A 
ATOM     65  C   UNL A   1      46.511  29.244  28.309  1.00  0.00     0.049 A 
ATOM     66  H   UNL A   1      44.440  29.049  28.657  1.00  0.00     0.167 HD
ATOM     67  C   UNL A   1      46.001  26.896  27.719  1.00  0.00     0.074 A 
ATOM     68  C   UNL A   1      46.358  25.586  27.216  1.00  0.00     0.031 C 
ATOM     69  C   UNL A   1      46.866  27.934  27.830  1.00  0.00     0.037 A 
BRANCH  56  70
ATOM     70  C   UNL A   1      44.277  33.067  30.095  1.00  0.00     0.058 A 
ATOM     71  C   UNL A   1      44.039  34.170  29.264  1.00  0.00     0.135 A 
ATOM     72  C   UNL A   1      44.678  33.321  31.419  1.00  0.00     0.135 A 
ATOM     73  F   UNL A   1      43.667  33.987  27.987  1.00  0.00    -0.206 F 
ATOM     74  C   UNL A   1      44.225  35.475  29.718  1.00  0.00     0.059 A 
ATOM     75  C   UNL A   1      44.844  34.615  31.901  1.00  0.00     0.059 A 
ATOM     76  F   UNL A   1      44.912  32.301  32.261  1.00  0.00    -0.206 F 
ATOM     77  C   UNL A   1      44.636  35.686  31.036  1.00  0.00     0.060 A 
BRANCH  77  78
ATOM     78  S   UNL A   1      44.897  37.378  31.611  1.00  0.00     0.124 S 
ATOM     79  O   UNL A   1      46.191  37.260  32.277  1.00  0.00    -0.237 OA
ATOM     80  O   UNL A   1      44.891  38.139  30.367  1.00  0.00    -0.237 OA
ATOM     81  O   UNL A   1      43.759  37.617  32.493  1.00  0.00    -0.744 OA
ENDBRANCH  77  78
ENDBRANCH  56  70
BRANCH  57  82
ATOM     82  C   UNL A   1      42.625  23.641  27.426  1.00  0.00     0.058 A 
ATOM     83  C   UNL A   1      42.509  23.314  26.068  1.00  0.00     0.135 A 
ATOM     84  C   UNL A   1      42.525  22.596  28.360  1.00  0.00     0.135 A 
ATOM     85  F   UNL A   1      42.572  24.278  25.137  1.00  0.00    -0.206 F 
ATOM     86  C   UNL A   1      42.316  22.000  25.649  1.00  0.00     0.059 A 
ATOM     87  C   UNL A   1      42.364  21.273  27.966  1.00  0.00     0.059 A 
ATOM     88  F   UNL A   1      42.630  22.855  29.673  1.00  0.00    -0.206 F 
ATOM     89  C   UNL A   1      42.255  20.985  26.607  1.00  0.00     0.060 A 
BRANCH  89  90
ATOM     90  S   UNL A   1      42.094  19.272  26.056  1.00  0.00     0.124 S 
ATOM     91  O   UNL A   1      40.664  19.184  25.787  1.00  0.00    -0.237 OA
ATOM     92  O   UNL A   1      42.968  19.238  24.887  1.00  0.00    -0.237 OA
ATOM     93  O   UNL A   1      42.570  18.507  27.205  1.00  0.00    -0.744 OA
ENDBRANCH  89  90
ENDBRANCH  57  82
BRANCH  69  94
ATOM     94  C   UNL A   1      48.299  27.683  27.462  1.00  0.00     0.058 A 
ATOM     95  C   UNL A   1      49.240  27.258  28.410  1.00  0.00     0.135 A 
ATOM     96  C   UNL A   1      48.718  27.818  26.130  1.00  0.00     0.135 A 
ATOM     97  F   UNL A   1      48.890  27.126  29.699  1.00  0.00    -0.206 F 
ATOM     98  C   UNL A   1      50.556  26.981  28.050  1.00  0.00     0.059 A 
ATOM     99  C   UNL A   1      50.024  27.530  25.744  1.00  0.00     0.059 A 
ATOM    100  F   UNL A   1      47.853  28.221  25.187  1.00  0.00    -0.206 F 
ATOM    101  C   UNL A   1      50.937  27.117  26.713  1.00  0.00     0.060 A 
BRANCH 101 102
ATOM    102  S   UNL A   1      52.632  26.704  26.248  1.00  0.00     0.124 S 
ATOM    103  O   UNL A   1      53.320  27.967  26.492  1.00  0.00    -0.237 OA
ATOM    104  O   UNL A   1      52.955  25.618  27.167  1.00  0.00    -0.237 OA
ATOM    105  O   UNL A   1      52.513  26.315  24.846  1.00  0.00    -0.744 OA
ENDBRANCH 101 102
ENDBRANCH  69  94
ENDBRANCH  43  44
ENDBRANCH  36  38
ENDBRANCH  35  36
ENDBRANCH  34  35
ENDBRANCH   1  34
TORSDOF 23
ENDMDL
MODEL 2
REMARK VINA RESULT:     -11.4      1.405      2.639
REMARK SMILES O=C(N[C@@H](Cc1ccc(O)cc1)C(=O)N[C@@H](CO)C(=O)OCCOC(=O)c1ccc(-c2c3nc(c(-c4c(F)cc(S(=O)(=O)[O-])cc4F)c4ccc([nH]4)c(-c4c(F)cc(S(=O)(=O)[O-])cc4F)c4nc(c(-c5c(F)cc(S(=O)(=O)[O-])cc5F)c5ccc2[nH]5)C=C4)C=C3)cc1)c1ccc(F)cc1
REMARK SMILES IDX 22 1 21 2 19 3 20 4 16 5 15 6 13 7 14 8 4 10 3 11 1 12 2 13
REMARK SMILES IDX 93 15 94 16 99 17 95 18 98 19 96 20 97 21 5 22 6 23 7 24
REMARK SMILES IDX 12 25 8 26 11 27 9 28 10 29 17 31 18 32 23 34 24 35 25 36
REMARK SMILES IDX 26 37 27 38 28 39 92 40 29 41 91 42 30 43 31 44 32 45 85 46
REMARK SMILES IDX 33 47 90 48 84 49 86 50 34 51 89 52 83 53 82 54 35 56 69 57
REMARK SMILES IDX 48 58 68 59 49 60 52 61 67 62 87 63 50 64 51 65 66 67 88 68
REMARK SMILES IDX 53 69 36 70 37 71 46 72 38 73 39 74 45 75 47 76 40 77 41 78
REMARK SMILES IDX 42 79 43 80 44 81 70 82 71 83 80 84 72 85 73 86 79 87 81 88
REMARK SMILES IDX 74 89 75 90 76 91 77 92 78 93 54 94 55 95 64 96 56 97 57 98
REMARK SMILES IDX 63 99 65 100 58 101 59 102 60 103 61 104 62 105
REMARK H PARENT 15 9 3 14 10 30 18 33 86 55 52 66
REMARK Flexibility Score: inf
ROOT
ATOM      1  C   UNL A   1      32.810  28.576  25.337  1.00  0.00     0.274 C 
ENDROOT
BRANCH   1   2
ATOM      2  O   UNL A   1      33.080  27.371  24.577  1.00  0.00    -0.460 OA
BRANCH   2   3
ATOM      3  C   UNL A   1      32.159  26.357  24.692  1.00  0.00     0.331 C 
ATOM      4  O   UNL A   1      32.010  25.691  25.712  1.00  0.00    -0.250 OA
BRANCH   3   5
ATOM      5  C   UNL A   1      31.243  26.239  23.439  1.00  0.00     0.218 C 
BRANCH   5   6
ATOM      6  N   UNL A   1      32.025  26.167  22.202  1.00  0.00    -0.339 N 
ATOM      7  C   UNL A   1      32.759  25.202  21.602  1.00  0.00     0.243 C 
ATOM      8  O   UNL A   1      33.057  25.426  20.419  1.00  0.00    -0.273 OA
ATOM      9  H   UNL A   1      32.012  27.010  21.694  1.00  0.00     0.164 HD
BRANCH   7  10
ATOM     10  C   UNL A   1      33.240  23.882  22.256  1.00  0.00     0.176 C 
BRANCH  10  11
ATOM     11  N   UNL A   1      32.361  22.741  21.997  1.00  0.00    -0.340 N 
ATOM     12  O   UNL A   1      31.642  20.626  22.285  1.00  0.00    -0.269 OA
ATOM     13  C   UNL A   1      32.204  21.608  22.760  1.00  0.00     0.251 C 
ATOM     14  H   UNL A   1      31.817  22.790  21.177  1.00  0.00     0.164 HD
BRANCH  13  15
ATOM     15  C   UNL A   1      32.722  21.554  24.150  1.00  0.00     0.040 A 
ATOM     16  C   UNL A   1      32.124  22.308  25.169  1.00  0.00     0.017 A 
ATOM     17  C   UNL A   1      33.788  20.693  24.446  1.00  0.00     0.017 A 
ATOM     18  C   UNL A   1      32.626  22.239  26.471  1.00  0.00     0.040 A 
ATOM     19  C   UNL A   1      34.280  20.622  25.753  1.00  0.00     0.040 A 
ATOM     20  C   UNL A   1      33.698  21.398  26.750  1.00  0.00     0.123 A 
ATOM     21  F   UNL A   1      34.164  21.324  28.003  1.00  0.00    -0.207 F 
ENDBRANCH  13  15
ENDBRANCH  10  11
BRANCH  10  22
ATOM     22  C   UNL A   1      34.731  23.523  22.154  1.00  0.00     0.070 C 
BRANCH  22  23
ATOM     23  C   UNL A   1      35.519  23.539  23.437  1.00  0.00    -0.045 A 
ATOM     24  C   UNL A   1      36.660  22.746  23.529  1.00  0.00     0.007 A 
ATOM     25  C   UNL A   1      35.162  24.315  24.543  1.00  0.00     0.007 A 
ATOM     26  C   UNL A   1      37.430  22.694  24.693  1.00  0.00     0.046 A 
ATOM     27  C   UNL A   1      35.931  24.271  25.713  1.00  0.00     0.046 A 
ATOM     28  C   UNL A   1      37.054  23.456  25.782  1.00  0.00     0.115 A 
BRANCH  28  29
ATOM     29  O   UNL A   1      37.771  23.422  26.939  1.00  0.00    -0.508 OA
ATOM     30  H   UNL A   1      38.691  23.602  26.925  1.00  0.00     0.293 HD
ENDBRANCH  28  29
ENDBRANCH  22  23
ENDBRANCH  10  22
ENDBRANCH   7  10
ENDBRANCH   5   6
BRANCH   5  31
ATOM     31  C   UNL A   1      30.290  25.050  23.597  1.00  0.00     0.193 C 
BRANCH  31  32
ATOM     32  O   UNL A   1      29.582  25.101  24.834  1.00  0.00    -0.394 OA
ATOM     33  H   UNL A   1      29.566  24.217  25.233  1.00  0.00     0.210 HD
ENDBRANCH  31  32
ENDBRANCH   5  31
ENDBRANCH   3   5
ENDBRANCH   2   3
ENDBRANCH   1   2
BRANCH   1  34
ATOM     34  C   UNL A   1      34.098  29.118  25.990  1.00  0.00     0.275 C 
BRANCH  34  35
ATOM     35  O   UNL A   1      33.899  29.326  27.406  1.00  0.00    -0.458 OA
BRANCH  35  36
ATOM     36  C   UNL A   1      34.473  30.444  27.942  1.00  0.00     0.338 C 
ATOM     37  O   UNL A   1      33.885  31.487  28.188  1.00  0.00    -0.246 OA
BRANCH  36  38
ATOM     38  C   UNL A   1      35.899  30.178  28.314  1.00  0.00     0.060 A 
ATOM     39  C   UNL A   1      36.937  30.593  27.492  1.00  0.00     0.016 A 
ATOM     40  C   UNL A   1      36.230  29.423  29.439  1.00  0.00     0.016 A 
ATOM     41  C   UNL A   1      38.231  30.080  27.644  1.00  0.00     0.010 A 
ATOM     42  C   UNL A   1      37.574  29.065  29.689  1.00  0.00     0.010 A 
ATOM     43  C   UNL A   1      38.608  29.346  28.770  1.00  0.00    -0.014 A 
BRANCH  43  44
ATOM     44  C   UNL A   1      40.028  28.882  29.007  1.00  0.00     0.031 A 
ATOM     45  C   UNL A   1      41.064  29.861  29.522  1.00  0.00     0.074 A 
ATOM     46  C   UNL A   1      40.466  27.620  28.773  1.00  0.00     0.049 A 
ATOM     47  N   UNL A   1      42.359  29.884  29.331  1.00  0.00    -0.248 NA
ATOM     48  C   UNL A   1      40.565  30.969  30.353  1.00  0.00     0.031 C 
ATOM     49  C   UNL A   1      39.650  26.454  28.423  1.00  0.00     0.029 A 
ATOM     50  N   UNL A   1      41.751  27.106  28.783  1.00  0.00    -0.354 N 
ATOM     51  C   UNL A   1      42.812  31.067  29.909  1.00  0.00     0.074 A 
ATOM     52  C   UNL A   1      41.657  31.709  30.503  1.00  0.00     0.031 C 
ATOM     53  C   UNL A   1      40.432  25.374  28.303  1.00  0.00     0.029 A 
ATOM     54  C   UNL A   1      41.823  25.790  28.382  1.00  0.00     0.049 A 
ATOM     55  H   UNL A   1      42.539  27.633  29.052  1.00  0.00     0.167 HD
ATOM     56  C   UNL A   1      44.069  31.577  29.913  1.00  0.00     0.037 A 
ATOM     57  C   UNL A   1      42.859  25.015  28.001  1.00  0.00     0.037 A 
ATOM     58  C   UNL A   1      45.228  30.877  29.417  1.00  0.00     0.049 A 
ATOM     59  C   UNL A   1      44.238  25.604  27.925  1.00  0.00     0.074 A 
ATOM     60  C   UNL A   1      46.539  31.318  29.335  1.00  0.00     0.029 A 
ATOM     61  N   UNL A   1      45.223  29.568  28.961  1.00  0.00    -0.354 N 
ATOM     62  N   UNL A   1      44.634  26.810  28.248  1.00  0.00    -0.248 NA
ATOM     63  C   UNL A   1      45.300  24.743  27.385  1.00  0.00     0.031 C 
ATOM     64  C   UNL A   1      47.322  30.282  28.813  1.00  0.00     0.029 A 
ATOM     65  C   UNL A   1      46.505  29.183  28.605  1.00  0.00     0.049 A 
ATOM     66  H   UNL A   1      44.425  28.996  28.900  1.00  0.00     0.167 HD
ATOM     67  C   UNL A   1      45.994  26.849  27.964  1.00  0.00     0.074 A 
ATOM     68  C   UNL A   1      46.355  25.545  27.449  1.00  0.00     0.031 C 
ATOM     69  C   UNL A   1      46.863  27.878  28.113  1.00  0.00     0.037 A 
BRANCH  56  70
ATOM     70  C   UNL A   1      44.252  32.991  30.398  1.00  0.00     0.058 A 
ATOM     71  C   UNL A   1      44.596  33.303  31.720  1.00  0.00     0.135 A 
ATOM     72  C   UNL A   1      44.105  34.057  29.493  1.00  0.00     0.135 A 
ATOM     73  F   UNL A   1      44.738  32.327  32.630  1.00  0.00    -0.206 F 
ATOM     74  C   UNL A   1      44.754  34.624  32.138  1.00  0.00     0.059 A 
ATOM     75  C   UNL A   1      44.282  35.381  29.880  1.00  0.00     0.059 A 
ATOM     76  F   UNL A   1      43.783  33.815  28.211  1.00  0.00    -0.206 F 
ATOM     77  C   UNL A   1      44.587  35.656  31.211  1.00  0.00     0.060 A 
BRANCH  77  78
ATOM     78  S   UNL A   1      44.770  37.366  31.763  1.00  0.00     0.124 S 
ATOM     79  O   UNL A   1      46.141  37.657  31.353  1.00  0.00    -0.237 OA
ATOM     80  O   UNL A   1      43.724  38.054  31.014  1.00  0.00    -0.237 OA
ATOM     81  O   UNL A   1      44.552  37.283  33.204  1.00  0.00    -0.744 OA
ENDBRANCH  77  78
ENDBRANCH  56  70
BRANCH  57  82
ATOM     82  C   UNL A   1      42.607  23.620  27.539  1.00  0.00     0.058 A 
ATOM     83  C   UNL A   1      42.425  23.331  26.180  1.00  0.00     0.135 A 
ATOM     84  C   UNL A   1      42.575  22.547  28.445  1.00  0.00     0.135 A 
ATOM     85  F   UNL A   1      42.421  24.323  25.277  1.00  0.00    -0.206 F 
ATOM     86  C   UNL A   1      42.232  22.027  25.732  1.00  0.00     0.059 A 
ATOM     87  C   UNL A   1      42.417  21.232  28.020  1.00  0.00     0.059 A 
ATOM     88  F   UNL A   1      42.746  22.769  29.758  1.00  0.00    -0.206 F 
ATOM     89  C   UNL A   1      42.240  20.983  26.660  1.00  0.00     0.060 A 
BRANCH  89  90
ATOM     90  S   UNL A   1      42.080  19.284  26.066  1.00  0.00     0.124 S 
ATOM     91  O   UNL A   1      40.659  19.216  25.752  1.00  0.00    -0.237 OA
ATOM     92  O   UNL A   1      42.990  19.267  24.925  1.00  0.00    -0.237 OA
ATOM     93  O   UNL A   1      42.513  18.489  27.212  1.00  0.00    -0.744 OA
ENDBRANCH  89  90
ENDBRANCH  57  82
BRANCH  69  94
ATOM     94  C   UNL A   1      48.303  27.624  27.775  1.00  0.00     0.058 A 
ATOM     95  C   UNL A   1      48.812  27.863  26.491  1.00  0.00     0.135 A 
ATOM     96  C   UNL A   1      49.194  27.188  28.768  1.00  0.00     0.135 A 
ATOM     97  F   UNL A   1      47.997  28.269  25.505  1.00  0.00    -0.206 F 
ATOM     98  C   UNL A   1      50.159  27.671  26.199  1.00  0.00     0.059 A 
ATOM     99  C   UNL A   1      50.548  27.007  28.503  1.00  0.00     0.059 A 
ATOM    100  F   UNL A   1      48.753  26.947  30.012  1.00  0.00    -0.206 F 
ATOM    101  C   UNL A   1      51.020  27.246  27.214  1.00  0.00     0.060 A 
BRANCH 101 102
ATOM    102  S   UNL A   1      52.776  27.051  26.837  1.00  0.00     0.124 S 
ATOM    103  O   UNL A   1      52.748  25.969  25.859  1.00  0.00    -0.237 OA
ATOM    104  O   UNL A   1      53.134  28.367  26.318  1.00  0.00    -0.237 OA
ATOM    105  O   UNL A   1      53.363  26.714  28.130  1.00  0.00    -0.744 OA
ENDBRANCH 101 102
ENDBRANCH  69  94
ENDBRANCH  43  44
ENDBRANCH  36  38
ENDBRANCH  35  36
ENDBRANCH  34  35
ENDBRANCH   1  34
TORSDOF 23
ENDMDL
MODEL 3
REMARK VINA RESULT:     -11.4      4.517     10.028
REMARK SMILES O=C(N[C@@H](Cc1ccc(O)cc1)C(=O)N[C@@H](CO)C(=O)OCCOC(=O)c1ccc(-c2c3nc(c(-c4c(F)cc(S(=O)(=O)[O-])cc4F)c4ccc([nH]4)c(-c4c(F)cc(S(=O)(=O)[O-])cc4F)c4nc(c(-c5c(F)cc(S(=O)(=O)[O-])cc5F)c5ccc2[nH]5)C=C4)C=C3)cc1)c1ccc(F)cc1
REMARK SMILES IDX 22 1 21 2 19 3 20 4 16 5 15 6 13 7 14 8 4 10 3 11 1 12 2 13
REMARK SMILES IDX 93 15 94 16 99 17 95 18 98 19 96 20 97 21 5 22 6 23 7 24
REMARK SMILES IDX 12 25 8 26 11 27 9 28 10 29 17 31 18 32 23 34 24 35 25 36
REMARK SMILES IDX 26 37 27 38 28 39 92 40 29 41 91 42 30 43 31 44 32 45 85 46
REMARK SMILES IDX 33 47 90 48 84 49 86 50 34 51 89 52 83 53 82 54 35 56 69 57
REMARK SMILES IDX 48 58 68 59 49 60 52 61 67 62 87 63 50 64 51 65 66 67 88 68
REMARK SMILES IDX 53 69 36 70 37 71 46 72 38 73 39 74 45 75 47 76 40 77 41 78
REMARK SMILES IDX 42 79 43 80 44 81 70 82 71 83 80 84 72 85 73 86 79 87 81 88
REMARK SMILES IDX 74 89 75 90 76 91 77 92 78 93 54 94 55 95 64 96 56 97 57 98
REMARK SMILES IDX 63 99 65 100 58 101 59 102 60 103 61 104 62 105
REMARK H PARENT 15 9 3 14 10 30 18 33 86 55 52 66
REMARK Flexibility Score: inf
ROOT
ATOM      1  C   UNL A   1      35.178  23.211  25.475  1.00  0.00     0.274 C 
ENDROOT
BRANCH   1   2
ATOM      2  O   UNL A   1      34.181  22.802  24.505  1.00  0.00    -0.460 OA
BRANCH   2   3
ATOM      3  C   UNL A   1      34.154  23.504  23.324  1.00  0.00     0.331 C 
ATOM      4  O   UNL A   1      34.827  23.203  22.342  1.00  0.00    -0.250 OA
BRANCH   3   5
ATOM      5  C   UNL A   1      33.085  24.635  23.327  1.00  0.00     0.218 C 
BRANCH   5   6
ATOM      6  N   UNL A   1      33.448  25.727  22.420  1.00  0.00    -0.339 N 
ATOM      7  C   UNL A   1      33.382  27.076  22.491  1.00  0.00     0.243 C 
ATOM      8  O   UNL A   1      34.038  27.681  21.629  1.00  0.00    -0.273 OA
ATOM      9  H   UNL A   1      33.825  25.406  21.569  1.00  0.00     0.164 HD
BRANCH   7  10
ATOM     10  C   UNL A   1      32.578  27.897  23.531  1.00  0.00     0.176 C 
BRANCH  10  11
ATOM     11  N   UNL A   1      33.309  28.152  24.772  1.00  0.00    -0.340 N 
ATOM     12  O   UNL A   1      33.572  28.156  27.010  1.00  0.00    -0.269 OA
ATOM     13  C   UNL A   1      33.045  27.648  26.025  1.00  0.00     0.251 C 
ATOM     14  H   UNL A   1      34.083  28.758  24.703  1.00  0.00     0.164 HD
BRANCH  13  15
ATOM     15  C   UNL A   1      32.118  26.503  26.200  1.00  0.00     0.040 A 
ATOM     16  C   UNL A   1      30.746  26.644  25.949  1.00  0.00     0.017 A 
ATOM     17  C   UNL A   1      32.640  25.255  26.569  1.00  0.00     0.017 A 
ATOM     18  C   UNL A   1      29.893  25.551  26.117  1.00  0.00     0.040 A 
ATOM     19  C   UNL A   1      31.781  24.163  26.727  1.00  0.00     0.040 A 
ATOM     20  C   UNL A   1      30.417  24.323  26.504  1.00  0.00     0.123 A 
ATOM     21  F   UNL A   1      29.596  23.275  26.648  1.00  0.00    -0.207 F 
ENDBRANCH  13  15
ENDBRANCH  10  11
BRANCH  10  22
ATOM     22  C   UNL A   1      31.792  29.122  23.038  1.00  0.00     0.070 C 
BRANCH  22  23
ATOM     23  C   UNL A   1      30.290  29.022  23.077  1.00  0.00    -0.045 A 
ATOM     24  C   UNL A   1      29.707  27.758  23.112  1.00  0.00     0.007 A 
ATOM     25  C   UNL A   1      29.451  30.139  23.082  1.00  0.00     0.007 A 
ATOM     26  C   UNL A   1      28.321  27.587  23.128  1.00  0.00     0.046 A 
ATOM     27  C   UNL A   1      28.060  29.975  23.102  1.00  0.00     0.046 A 
ATOM     28  C   UNL A   1      27.505  28.701  23.118  1.00  0.00     0.115 A 
BRANCH  28  29
ATOM     29  O   UNL A   1      26.150  28.575  23.119  1.00  0.00    -0.508 OA
ATOM     30  H   UNL A   1      25.659  28.785  22.349  1.00  0.00     0.293 HD
ENDBRANCH  28  29
ENDBRANCH  22  23
ENDBRANCH  10  22
ENDBRANCH   7  10
ENDBRANCH   5   6
BRANCH   5  31
ATOM     31  C   UNL A   1      31.704  24.051  23.014  1.00  0.00     0.193 C 
BRANCH  31  32
ATOM     32  O   UNL A   1      31.777  22.664  22.693  1.00  0.00    -0.394 OA
ATOM     33  H   UNL A   1      32.224  22.189  23.411  1.00  0.00     0.210 HD
ENDBRANCH  31  32
ENDBRANCH   5  31
ENDBRANCH   3   5
ENDBRANCH   2   3
ENDBRANCH   1   2
BRANCH   1  34
ATOM     34  C   UNL A   1      36.477  22.395  25.312  1.00  0.00     0.275 C 
BRANCH  34  35
ATOM     35  O   UNL A   1      37.623  23.272  25.244  1.00  0.00    -0.458 OA
BRANCH  35  36
ATOM     36  C   UNL A   1      38.740  22.866  25.916  1.00  0.00     0.338 C 
ATOM     37  O   UNL A   1      39.299  21.789  25.766  1.00  0.00    -0.246 OA
BRANCH  36  38
ATOM     38  C   UNL A   1      39.271  23.973  26.774  1.00  0.00     0.060 A 
ATOM     39  C   UNL A   1      38.766  24.190  28.049  1.00  0.00     0.016 A 
ATOM     40  C   UNL A   1      40.213  24.881  26.290  1.00  0.00     0.016 A 
ATOM     41  C   UNL A   1      39.004  25.392  28.727  1.00  0.00     0.010 A 
ATOM     42  C   UNL A   1      40.591  26.000  27.067  1.00  0.00     0.010 A 
ATOM     43  C   UNL A   1      39.960  26.311  28.291  1.00  0.00    -0.014 A 
BRANCH  43  44
ATOM     44  C   UNL A   1      40.312  27.558  29.072  1.00  0.00     0.031 A 
ATOM     45  C   UNL A   1      41.581  27.595  29.899  1.00  0.00     0.074 A 
ATOM     46  C   UNL A   1      39.547  28.678  29.102  1.00  0.00     0.049 A 
ATOM     47  N   UNL A   1      41.847  28.267  30.990  1.00  0.00    -0.248 NA
ATOM     48  C   UNL A   1      42.693  26.749  29.435  1.00  0.00     0.031 C 
ATOM     49  C   UNL A   1      38.366  28.961  28.285  1.00  0.00     0.029 A 
ATOM     50  N   UNL A   1      39.658  29.809  29.891  1.00  0.00    -0.354 N 
ATOM     51  C   UNL A   1      43.102  27.834  31.412  1.00  0.00     0.074 A 
ATOM     52  C   UNL A   1      43.565  26.878  30.427  1.00  0.00     0.031 C 
ATOM     53  C   UNL A   1      37.898  30.182  28.574  1.00  0.00     0.029 A 
ATOM     54  C   UNL A   1      38.623  30.704  29.721  1.00  0.00     0.049 A 
ATOM     55  H   UNL A   1      40.405  29.961  30.514  1.00  0.00     0.167 HD
ATOM     56  C   UNL A   1      43.783  28.183  32.532  1.00  0.00     0.037 A 
ATOM     57  C   UNL A   1      38.209  31.759  30.451  1.00  0.00     0.037 A 
ATOM     58  C   UNL A   1      43.362  29.216  33.446  1.00  0.00     0.049 A 
ATOM     59  C   UNL A   1      38.911  32.094  31.735  1.00  0.00     0.074 A 
ATOM     60  C   UNL A   1      43.954  29.620  34.631  1.00  0.00     0.029 A 
ATOM     61  N   UNL A   1      42.266  30.042  33.252  1.00  0.00    -0.354 N 
ATOM     62  N   UNL A   1      39.968  31.528  32.265  1.00  0.00    -0.248 NA
ATOM     63  C   UNL A   1      38.336  33.177  32.546  1.00  0.00     0.031 C 
ATOM     64  C   UNL A   1      43.205  30.678  35.162  1.00  0.00     0.029 A 
ATOM     65  C   UNL A   1      42.169  30.957  34.287  1.00  0.00     0.049 A 
ATOM     66  H   UNL A   1      41.647  29.987  32.488  1.00  0.00     0.167 HD
ATOM     67  C   UNL A   1      40.191  32.196  33.464  1.00  0.00     0.074 A 
ATOM     68  C   UNL A   1      39.166  33.211  33.580  1.00  0.00     0.031 C 
ATOM     69  C   UNL A   1      41.160  31.979  34.387  1.00  0.00     0.037 A 
BRANCH  56  70
ATOM     70  C   UNL A   1      45.015  27.391  32.882  1.00  0.00     0.058 A 
ATOM     71  C   UNL A   1      46.310  27.814  32.551  1.00  0.00     0.135 A 
ATOM     72  C   UNL A   1      44.884  26.187  33.596  1.00  0.00     0.135 A 
ATOM     73  F   UNL A   1      46.494  28.949  31.858  1.00  0.00    -0.206 F 
ATOM     74  C   UNL A   1      47.430  27.054  32.885  1.00  0.00     0.059 A 
ATOM     75  C   UNL A   1      45.988  25.426  33.963  1.00  0.00     0.059 A 
ATOM     76  F   UNL A   1      43.667  25.738  33.945  1.00  0.00    -0.206 F 
ATOM     77  C   UNL A   1      47.257  25.857  33.585  1.00  0.00     0.060 A 
BRANCH  77  78
ATOM     78  S   UNL A   1      48.711  24.866  33.995  1.00  0.00     0.124 S 
ATOM     79  O   UNL A   1      48.096  23.602  34.391  1.00  0.00    -0.237 OA
ATOM     80  O   UNL A   1      49.445  24.846  32.735  1.00  0.00    -0.237 OA
ATOM     81  O   UNL A   1      49.343  25.620  35.073  1.00  0.00    -0.744 OA
ENDBRANCH  77  78
ENDBRANCH  56  70
BRANCH  57  82
ATOM     82  C   UNL A   1      36.984  32.504  30.045  1.00  0.00     0.058 A 
ATOM     83  C   UNL A   1      35.721  32.140  30.531  1.00  0.00     0.135 A 
ATOM     84  C   UNL A   1      37.057  33.614  29.185  1.00  0.00     0.135 A 
ATOM     85  F   UNL A   1      35.594  31.073  31.335  1.00  0.00    -0.206 F 
ATOM     86  C   UNL A   1      34.576  32.855  30.193  1.00  0.00     0.059 A 
ATOM     87  C   UNL A   1      35.933  34.364  28.858  1.00  0.00     0.059 A 
ATOM     88  F   UNL A   1      38.242  34.005  28.691  1.00  0.00    -0.206 F 
ATOM     89  C   UNL A   1      34.694  33.972  29.363  1.00  0.00     0.060 A 
BRANCH  89  90
ATOM     90  S   UNL A   1      33.220  34.951  28.998  1.00  0.00     0.124 S 
ATOM     91  O   UNL A   1      32.585  35.023  30.308  1.00  0.00    -0.237 OA
ATOM     92  O   UNL A   1      33.791  36.196  28.493  1.00  0.00    -0.237 OA
ATOM     93  O   UNL A   1      32.523  34.143  28.001  1.00  0.00    -0.744 OA
ENDBRANCH  89  90
ENDBRANCH  57  82
BRANCH  69  94
ATOM     94  C   UNL A   1      41.200  32.894  35.576  1.00  0.00     0.058 A 
ATOM     95  C   UNL A   1      42.011  34.037  35.600  1.00  0.00     0.135 A 
ATOM     96  C   UNL A   1      40.373  32.647  36.683  1.00  0.00     0.135 A 
ATOM     97  F   UNL A   1      42.828  34.308  34.571  1.00  0.00    -0.206 F 
ATOM     98  C   UNL A   1      42.005  34.906  36.687  1.00  0.00     0.059 A 
ATOM     99  C   UNL A   1      40.338  33.512  37.773  1.00  0.00     0.059 A 
ATOM    100  F   UNL A   1      39.578  31.566  36.706  1.00  0.00    -0.206 F 
ATOM    101  C   UNL A   1      41.162  34.636  37.768  1.00  0.00     0.060 A 
BRANCH 101 102
ATOM    102  S   UNL A   1      41.124  35.798  39.150  1.00  0.00     0.124 S 
ATOM    103  O   UNL A   1      42.521  35.800  39.570  1.00  0.00    -0.237 OA
ATOM    104  O   UNL A   1      40.650  37.024  38.517  1.00  0.00    -0.237 OA
ATOM    105  O   UNL A   1      40.188  35.181  40.085  1.00  0.00    -0.744 OA
ENDBRANCH 101 102
ENDBRANCH  69  94
ENDBRANCH  43  44
ENDBRANCH  36  38
ENDBRANCH  35  36
ENDBRANCH  34  35
ENDBRANCH   1  34
TORSDOF 23
ENDMDL
