MODEL 1
REMARK VINA RESULT:      -9.8      0.000      0.000
REMARK SMILES COc1cc(/C=C2/C(=O)N(c3ccccc3)C(=O)N=C2OCCOC(=O)c2ccc(-c3c4nc(c(-c5c(F)cc(S(=O)(=O)[O-])cc5F)c5ccc([nH]5)c(-c5c(F)cc(S(=O)(=O)[O-])cc5F)c5nc(c(-c6c(F)cc(S(=O)(=O)[O-])cc6F)c6ccc3[nH]6)C=C5)C=C4)cc2)ccc1OCC(=O)[O-]
REMARK SMILES IDX 22 1 21 2 20 3 6 4 7 5 8 6 9 7 10 8 19 9 17 10 18 11 5 12
REMARK SMILES IDX 3 13 4 14 95 15 94 16 93 17 2 18 1 19 96 20 97 21 98 22
REMARK SMILES IDX 99 23 100 24 11 25 12 26 16 27 13 28 15 29 14 30 23 31 24 32
REMARK SMILES IDX 25 33 26 34 27 35 28 36 92 37 29 38 91 39 30 40 31 41 32 42
REMARK SMILES IDX 85 43 33 44 90 45 84 46 86 47 34 48 89 49 83 50 82 51 35 53
REMARK SMILES IDX 69 54 48 55 68 56 49 57 52 58 67 59 87 60 50 61 51 62 66 64
REMARK SMILES IDX 88 65 53 66 36 67 37 68 46 69 38 70 39 71 45 72 47 73 40 74
REMARK SMILES IDX 41 75 42 76 43 77 44 78 70 79 71 80 80 81 72 82 73 83 79 84
REMARK SMILES IDX 81 85 74 86 75 87 76 88 77 89 78 90 54 91 55 92 64 93 56 94
REMARK SMILES IDX 57 95 63 96 65 97 58 98 59 99 60 100 61 101 62 102
REMARK H PARENT 86 52 52 63
REMARK Flexibility Score: inf
ROOT
ATOM      1  C   UNL A   1      45.078  26.271  25.779  1.00  0.00     0.273 C 
ENDROOT
BRANCH   1   2
ATOM      2  O   UNL A   1      44.820  26.165  27.198  1.00  0.00    -0.473 OA
BRANCH   2   3
ATOM      3  C   UNL A   1      45.795  25.891  28.081  1.00  0.00     0.231 C 
ATOM      4  C   UNL A   1      44.468  24.075  29.304  1.00  0.00     0.027 C 
ATOM      5  C   UNL A   1      45.315  25.125  29.235  1.00  0.00     0.103 C 
ATOM      6  C   UNL A   1      45.988  25.549  30.512  1.00  0.00     0.272 C 
ATOM      7  O   UNL A   1      45.492  25.248  31.597  1.00  0.00    -0.268 OA
ATOM      8  N   UNL A   1      47.210  26.204  30.327  1.00  0.00    -0.226 N 
ATOM      9  N   UNL A   1      46.964  26.398  27.985  1.00  0.00    -0.156 NA
ATOM     10  C   UNL A   1      47.813  26.213  29.055  1.00  0.00     0.358 C 
ATOM     11  O   UNL A   1      49.008  26.104  28.849  1.00  0.00    -0.245 OA
BRANCH   4  12
ATOM     12  C   UNL A   1      43.804  23.207  28.297  1.00  0.00    -0.021 A 
ATOM     13  C   UNL A   1      43.688  21.890  26.217  1.00  0.00     0.161 A 
ATOM     14  C   UNL A   1      44.344  22.789  27.078  1.00  0.00     0.058 A 
ATOM     15  C   UNL A   1      42.393  21.468  26.533  1.00  0.00     0.161 A 
ATOM     16  C   UNL A   1      41.816  21.909  27.729  1.00  0.00     0.051 A 
ATOM     17  C   UNL A   1      42.512  22.757  28.598  1.00  0.00     0.012 A 
BRANCH  13  18
ATOM     18  O   UNL A   1      44.281  21.371  25.099  1.00  0.00    -0.493 OA
ATOM     19  C   UNL A   1      45.651  21.650  24.850  1.00  0.00     0.278 C 
ENDBRANCH  13  18
BRANCH  15  20
ATOM     20  O   UNL A   1      41.558  20.669  25.798  1.00  0.00    -0.484 OA
BRANCH  20  21
ATOM     21  C   UNL A   1      41.419  19.297  26.130  1.00  0.00     0.282 C 
BRANCH  21  22
ATOM     22  C   UNL A   1      42.662  18.466  26.452  1.00  0.00     0.079 C 
ATOM     23  O   UNL A   1      43.022  18.124  27.571  1.00  0.00    -0.546 OA
ATOM     24  O   UNL A   1      43.364  18.072  25.370  1.00  0.00    -0.546 OA
ENDBRANCH  21  22
ENDBRANCH  20  21
ENDBRANCH  15  20
ENDBRANCH   4  12
BRANCH   8  25
ATOM     25  C   UNL A   1      47.872  26.836  31.450  1.00  0.00     0.054 A 
ATOM     26  C   UNL A   1      47.706  28.220  31.671  1.00  0.00     0.027 A 
ATOM     27  C   UNL A   1      48.825  26.175  32.241  1.00  0.00     0.027 A 
ATOM     28  C   UNL A   1      48.522  28.920  32.569  1.00  0.00     0.002 A 
ATOM     29  C   UNL A   1      49.619  26.870  33.163  1.00  0.00     0.002 A 
ATOM     30  C   UNL A   1      49.489  28.246  33.306  1.00  0.00     0.000 A 
ENDBRANCH   8  25
ENDBRANCH   2   3
ENDBRANCH   1   2
BRANCH   1  31
ATOM     31  C   UNL A   1      44.004  25.463  25.037  1.00  0.00     0.274 C 
BRANCH  31  32
ATOM     32  O   UNL A   1      42.755  26.180  25.076  1.00  0.00    -0.458 OA
BRANCH  32  33
ATOM     33  C   UNL A   1      41.725  25.494  25.622  1.00  0.00     0.338 C 
ATOM     34  O   UNL A   1      41.401  24.341  25.394  1.00  0.00    -0.246 OA
BRANCH  33  35
ATOM     35  C   UNL A   1      41.294  26.241  26.813  1.00  0.00     0.060 A 
ATOM     36  C   UNL A   1      41.720  27.563  26.873  1.00  0.00     0.016 A 
ATOM     37  C   UNL A   1      40.484  25.715  27.819  1.00  0.00     0.016 A 
ATOM     38  C   UNL A   1      41.351  28.371  27.933  1.00  0.00     0.010 A 
ATOM     39  C   UNL A   1      40.130  26.531  28.906  1.00  0.00     0.010 A 
ATOM     40  C   UNL A   1      40.576  27.864  28.976  1.00  0.00    -0.014 A 
BRANCH  40  41
ATOM     41  C   UNL A   1      40.395  28.722  30.175  1.00  0.00     0.031 A 
ATOM     42  C   UNL A   1      41.368  28.592  31.315  1.00  0.00     0.074 A 
ATOM     43  C   UNL A   1      39.488  29.720  30.186  1.00  0.00     0.049 A 
ATOM     44  N   UNL A   1      41.357  29.177  32.483  1.00  0.00    -0.248 NA
ATOM     45  C   UNL A   1      42.515  27.691  31.105  1.00  0.00     0.031 C 
ATOM     46  C   UNL A   1      38.584  30.054  29.083  1.00  0.00     0.029 A 
ATOM     47  N   UNL A   1      39.202  30.661  31.144  1.00  0.00    -0.354 N 
ATOM     48  C   UNL A   1      42.450  28.667  33.171  1.00  0.00     0.074 A 
ATOM     49  C   UNL A   1      43.126  27.750  32.280  1.00  0.00     0.031 C 
ATOM     50  C   UNL A   1      37.872  31.145  29.414  1.00  0.00     0.029 A 
ATOM     51  C   UNL A   1      38.208  31.539  30.779  1.00  0.00     0.049 A 
ATOM     52  H   UNL A   1      39.665  30.704  32.011  1.00  0.00     0.167 HD
ATOM     53  C   UNL A   1      42.842  28.931  34.439  1.00  0.00     0.037 A 
ATOM     54  C   UNL A   1      37.609  32.523  31.480  1.00  0.00     0.037 A 
ATOM     55  C   UNL A   1      42.203  29.890  35.299  1.00  0.00     0.049 A 
ATOM     56  C   UNL A   1      38.027  32.758  32.908  1.00  0.00     0.074 A 
ATOM     57  C   UNL A   1      42.506  30.204  36.612  1.00  0.00     0.029 A 
ATOM     58  N   UNL A   1      41.146  30.703  34.925  1.00  0.00    -0.354 N 
ATOM     59  N   UNL A   1      38.996  32.193  33.589  1.00  0.00    -0.248 NA
ATOM     60  C   UNL A   1      37.250  33.743  33.677  1.00  0.00     0.031 C 
ATOM     61  C   UNL A   1      41.606  31.185  37.044  1.00  0.00     0.029 A 
ATOM     62  C   UNL A   1      40.771  31.508  35.986  1.00  0.00     0.049 A 
ATOM     63  H   UNL A   1      40.722  30.707  34.036  1.00  0.00     0.167 HD
ATOM     64  C   UNL A   1      38.944  32.752  34.861  1.00  0.00     0.074 A 
ATOM     65  C   UNL A   1      37.870  33.723  34.849  1.00  0.00     0.031 C 
ATOM     66  C   UNL A   1      39.705  32.476  35.948  1.00  0.00     0.037 A 
BRANCH  53  67
ATOM     67  C   UNL A   1      43.968  28.115  35.002  1.00  0.00     0.058 A 
ATOM     68  C   UNL A   1      43.753  26.930  35.718  1.00  0.00     0.135 A 
ATOM     69  C   UNL A   1      45.294  28.518  34.775  1.00  0.00     0.135 A 
ATOM     70  F   UNL A   1      42.504  26.519  35.987  1.00  0.00    -0.206 F 
ATOM     71  C   UNL A   1      44.819  26.171  36.194  1.00  0.00     0.059 A 
ATOM     72  C   UNL A   1      46.373  27.766  35.225  1.00  0.00     0.059 A 
ATOM     73  F   UNL A   1      45.549  29.653  34.105  1.00  0.00    -0.206 F 
ATOM     74  C   UNL A   1      46.125  26.596  35.940  1.00  0.00     0.060 A 
BRANCH  74  75
ATOM     75  S   UNL A   1      47.499  25.591  36.539  1.00  0.00     0.124 S 
ATOM     76  O   UNL A   1      46.856  24.823  37.600  1.00  0.00    -0.237 OA
ATOM     77  O   UNL A   1      47.876  24.834  35.348  1.00  0.00    -0.237 OA
ATOM     78  O   UNL A   1      48.475  26.581  36.983  1.00  0.00    -0.744 OA
ENDBRANCH  74  75
ENDBRANCH  53  67
BRANCH  54  79
ATOM     79  C   UNL A   1      36.492  33.309  30.883  1.00  0.00     0.058 A 
ATOM     80  C   UNL A   1      35.161  33.097  31.273  1.00  0.00     0.135 A 
ATOM     81  C   UNL A   1      36.732  34.253  29.872  1.00  0.00     0.135 A 
ATOM     82  F   UNL A   1      34.876  32.194  32.224  1.00  0.00    -0.206 F 
ATOM     83  C   UNL A   1      34.106  33.774  30.665  1.00  0.00     0.059 A 
ATOM     84  C   UNL A   1      35.699  34.964  29.273  1.00  0.00     0.059 A 
ATOM     85  F   UNL A   1      37.986  34.497  29.462  1.00  0.00    -0.206 F 
ATOM     86  C   UNL A   1      34.386  34.703  29.662  1.00  0.00     0.060 A 
BRANCH  86  87
ATOM     87  S   UNL A   1      33.023  35.591  28.878  1.00  0.00     0.124 S 
ATOM     88  O   UNL A   1      32.467  34.561  28.007  1.00  0.00    -0.237 OA
ATOM     89  O   UNL A   1      32.198  35.973  30.021  1.00  0.00    -0.237 OA
ATOM     90  O   UNL A   1      33.694  36.697  28.202  1.00  0.00    -0.744 OA
ENDBRANCH  86  87
ENDBRANCH  54  79
BRANCH  66  91
ATOM     91  C   UNL A   1      39.416  33.243  37.207  1.00  0.00     0.058 A 
ATOM     92  C   UNL A   1      38.453  32.801  38.127  1.00  0.00     0.135 A 
ATOM     93  C   UNL A   1      40.145  34.401  37.521  1.00  0.00     0.135 A 
ATOM     94  F   UNL A   1      37.727  31.702  37.870  1.00  0.00    -0.206 F 
ATOM     95  C   UNL A   1      38.207  33.495  39.307  1.00  0.00     0.059 A 
ATOM     96  C   UNL A   1      39.930  35.097  38.706  1.00  0.00     0.059 A 
ATOM     97  F   UNL A   1      41.085  34.857  36.678  1.00  0.00    -0.206 F 
ATOM     98  C   UNL A   1      38.950  34.643  39.587  1.00  0.00     0.060 A 
BRANCH  98  99
ATOM     99  S   UNL A   1      38.645  35.517  41.137  1.00  0.00     0.124 S 
ATOM    100  O   UNL A   1      39.830  35.164  41.911  1.00  0.00    -0.237 OA
ATOM    101  O   UNL A   1      38.562  36.908  40.704  1.00  0.00    -0.237 OA
ATOM    102  O   UNL A   1      37.390  34.939  41.609  1.00  0.00    -0.744 OA
ENDBRANCH  98  99
ENDBRANCH  66  91
ENDBRANCH  40  41
ENDBRANCH  33  35
ENDBRANCH  32  33
ENDBRANCH  31  32
ENDBRANCH   1  31
TORSDOF 19
ENDMDL
MODEL 2
REMARK VINA RESULT:      -9.2      2.012      8.381
REMARK SMILES COc1cc(/C=C2/C(=O)N(c3ccccc3)C(=O)N=C2OCCOC(=O)c2ccc(-c3c4nc(c(-c5c(F)cc(S(=O)(=O)[O-])cc5F)c5ccc([nH]5)c(-c5c(F)cc(S(=O)(=O)[O-])cc5F)c5nc(c(-c6c(F)cc(S(=O)(=O)[O-])cc6F)c6ccc3[nH]6)C=C5)C=C4)cc2)ccc1OCC(=O)[O-]
REMARK SMILES IDX 22 1 21 2 20 3 6 4 7 5 8 6 9 7 10 8 19 9 17 10 18 11 5 12
REMARK SMILES IDX 3 13 4 14 95 15 94 16 93 17 2 18 1 19 96 20 97 21 98 22
REMARK SMILES IDX 99 23 100 24 11 25 12 26 16 27 13 28 15 29 14 30 23 31 24 32
REMARK SMILES IDX 25 33 26 34 27 35 28 36 92 37 29 38 91 39 30 40 31 41 32 42
REMARK SMILES IDX 85 43 33 44 90 45 84 46 86 47 34 48 89 49 83 50 82 51 35 53
REMARK SMILES IDX 69 54 48 55 68 56 49 57 52 58 67 59 87 60 50 61 51 62 66 64
REMARK SMILES IDX 88 65 53 66 36 67 37 68 46 69 38 70 39 71 45 72 47 73 40 74
REMARK SMILES IDX 41 75 42 76 43 77 44 78 70 79 71 80 80 81 72 82 73 83 79 84
REMARK SMILES IDX 81 85 74 86 75 87 76 88 77 89 78 90 54 91 55 92 64 93 56 94
REMARK SMILES IDX 57 95 63 96 65 97 58 98 59 99 60 100 61 101 62 102
REMARK H PARENT 86 52 52 63
REMARK Flexibility Score: inf
ROOT
ATOM      1  C   UNL A   1      44.149  26.838  25.028  1.00  0.00     0.273 C 
ENDROOT
BRANCH   1   2
ATOM      2  O   UNL A   1      45.246  26.344  25.831  1.00  0.00    -0.473 OA
BRANCH   2   3
ATOM      3  C   UNL A   1      46.471  26.143  25.317  1.00  0.00     0.231 C 
ATOM      4  C   UNL A   1      46.832  23.903  26.503  1.00  0.00     0.027 C 
ATOM      5  C   UNL A   1      47.222  25.109  26.033  1.00  0.00     0.103 C 
ATOM      6  C   UNL A   1      48.684  25.447  26.141  1.00  0.00     0.272 C 
ATOM      7  O   UNL A   1      49.390  24.866  26.966  1.00  0.00    -0.268 OA
ATOM      8  N   UNL A   1      49.132  26.373  25.193  1.00  0.00    -0.226 N 
ATOM      9  N   UNL A   1      46.964  26.901  24.414  1.00  0.00    -0.156 NA
ATOM     10  C   UNL A   1      48.298  26.727  24.115  1.00  0.00     0.358 C 
ATOM     11  O   UNL A   1      48.678  26.916  22.974  1.00  0.00    -0.245 OA
BRANCH   4  12
ATOM     12  C   UNL A   1      45.591  23.095  26.386  1.00  0.00    -0.021 A 
ATOM     13  C   UNL A   1      43.407  22.240  27.142  1.00  0.00     0.161 A 
ATOM     14  C   UNL A   1      44.600  22.951  27.362  1.00  0.00     0.058 A 
ATOM     15  C   UNL A   1      43.235  21.554  25.935  1.00  0.00     0.161 A 
ATOM     16  C   UNL A   1      44.234  21.650  24.961  1.00  0.00     0.051 A 
ATOM     17  C   UNL A   1      45.387  22.412  25.180  1.00  0.00     0.012 A 
BRANCH  13  18
ATOM     18  O   UNL A   1      42.379  22.225  28.044  1.00  0.00    -0.493 OA
ATOM     19  C   UNL A   1      42.058  23.417  28.748  1.00  0.00     0.278 C 
ENDBRANCH  13  18
BRANCH  15  20
ATOM     20  O   UNL A   1      42.195  20.747  25.559  1.00  0.00    -0.484 OA
BRANCH  20  21
ATOM     21  C   UNL A   1      41.886  19.591  26.322  1.00  0.00     0.282 C 
BRANCH  21  22
ATOM     22  C   UNL A   1      42.864  18.415  26.346  1.00  0.00     0.079 C 
ATOM     23  O   UNL A   1      43.255  17.833  27.349  1.00  0.00    -0.546 OA
ATOM     24  O   UNL A   1      43.271  18.004  25.128  1.00  0.00    -0.546 OA
ENDBRANCH  21  22
ENDBRANCH  20  21
ENDBRANCH  15  20
ENDBRANCH   4  12
BRANCH   8  25
ATOM     25  C   UNL A   1      50.462  26.935  25.298  1.00  0.00     0.054 A 
ATOM     26  C   UNL A   1      50.627  28.263  25.744  1.00  0.00     0.027 A 
ATOM     27  C   UNL A   1      51.604  26.282  24.808  1.00  0.00     0.027 A 
ATOM     28  C   UNL A   1      51.851  28.932  25.613  1.00  0.00     0.002 A 
ATOM     29  C   UNL A   1      52.837  26.940  24.708  1.00  0.00     0.002 A 
ATOM     30  C   UNL A   1      52.954  28.274  25.081  1.00  0.00     0.000 A 
ENDBRANCH   8  25
ENDBRANCH   2   3
ENDBRANCH   1   2
BRANCH   1  31
ATOM     31  C   UNL A   1      43.010  25.810  25.094  1.00  0.00     0.274 C 
BRANCH  31  32
ATOM     32  O   UNL A   1      41.746  26.498  25.106  1.00  0.00    -0.458 OA
BRANCH  32  33
ATOM     33  C   UNL A   1      40.858  26.036  26.016  1.00  0.00     0.338 C 
ATOM     34  O   UNL A   1      40.301  24.951  26.022  1.00  0.00    -0.246 OA
BRANCH  33  35
ATOM     35  C   UNL A   1      40.963  26.904  27.198  1.00  0.00     0.060 A 
ATOM     36  C   UNL A   1      40.321  26.437  28.340  1.00  0.00     0.016 A 
ATOM     37  C   UNL A   1      41.676  28.101  27.231  1.00  0.00     0.016 A 
ATOM     38  C   UNL A   1      40.378  27.156  29.520  1.00  0.00     0.010 A 
ATOM     39  C   UNL A   1      41.712  28.842  28.424  1.00  0.00     0.010 A 
ATOM     40  C   UNL A   1      41.048  28.378  29.575  1.00  0.00    -0.014 A 
BRANCH  40  41
ATOM     41  C   UNL A   1      40.890  29.191  30.808  1.00  0.00     0.031 A 
ATOM     42  C   UNL A   1      39.749  30.167  30.894  1.00  0.00     0.074 A 
ATOM     43  C   UNL A   1      41.642  28.949  31.902  1.00  0.00     0.049 A 
ATOM     44  N   UNL A   1      39.467  31.029  31.834  1.00  0.00    -0.248 NA
ATOM     45  C   UNL A   1      38.787  30.160  29.778  1.00  0.00     0.031 C 
ATOM     46  C   UNL A   1      42.683  27.923  32.003  1.00  0.00     0.029 A 
ATOM     47  N   UNL A   1      41.620  29.522  33.150  1.00  0.00    -0.354 N 
ATOM     48  C   UNL A   1      38.341  31.713  31.394  1.00  0.00     0.074 A 
ATOM     49  C   UNL A   1      37.968  31.144  30.118  1.00  0.00     0.031 C 
ATOM     50  C   UNL A   1      43.172  27.917  33.255  1.00  0.00     0.029 A 
ATOM     51  C   UNL A   1      42.541  28.988  34.021  1.00  0.00     0.049 A 
ATOM     52  H   UNL A   1      41.003  30.247  33.398  1.00  0.00     0.167 HD
ATOM     53  C   UNL A   1      37.690  32.735  31.996  1.00  0.00     0.037 A 
ATOM     54  C   UNL A   1      42.867  29.348  35.279  1.00  0.00     0.037 A 
ATOM     55  C   UNL A   1      38.029  33.256  33.293  1.00  0.00     0.049 A 
ATOM     56  C   UNL A   1      42.165  30.526  35.904  1.00  0.00     0.074 A 
ATOM     57  C   UNL A   1      37.450  34.312  33.973  1.00  0.00     0.029 A 
ATOM     58  N   UNL A   1      39.022  32.746  34.112  1.00  0.00    -0.354 N 
ATOM     59  N   UNL A   1      41.169  31.239  35.433  1.00  0.00    -0.248 NA
ATOM     60  C   UNL A   1      42.651  30.970  37.219  1.00  0.00     0.031 C 
ATOM     61  C   UNL A   1      38.118  34.464  35.194  1.00  0.00     0.029 A 
ATOM     62  C   UNL A   1      39.086  33.476  35.287  1.00  0.00     0.049 A 
ATOM     63  H   UNL A   1      39.598  31.979  33.893  1.00  0.00     0.167 HD
ATOM     64  C   UNL A   1      40.911  32.212  36.392  1.00  0.00     0.074 A 
ATOM     65  C   UNL A   1      41.833  31.979  37.484  1.00  0.00     0.031 C 
ATOM     66  C   UNL A   1      40.005  33.220  36.366  1.00  0.00     0.037 A 
BRANCH  53  67
ATOM     67  C   UNL A   1      36.596  33.412  31.225  1.00  0.00     0.058 A 
ATOM     68  C   UNL A   1      36.851  34.234  30.119  1.00  0.00     0.135 A 
ATOM     69  C   UNL A   1      35.257  33.189  31.586  1.00  0.00     0.135 A 
ATOM     70  F   UNL A   1      38.115  34.501  29.753  1.00  0.00    -0.206 F 
ATOM     71  C   UNL A   1      35.814  34.817  29.397  1.00  0.00     0.059 A 
ATOM     72  C   UNL A   1      34.205  33.746  30.869  1.00  0.00     0.059 A 
ATOM     73  F   UNL A   1      34.963  32.420  32.646  1.00  0.00    -0.206 F 
ATOM     74  C   UNL A   1      34.493  34.564  29.778  1.00  0.00     0.060 A 
BRANCH  74  75
ATOM     75  S   UNL A   1      33.155  35.303  28.819  1.00  0.00     0.124 S 
ATOM     76  O   UNL A   1      32.561  34.126  28.193  1.00  0.00    -0.237 OA
ATOM     77  O   UNL A   1      32.349  35.948  29.852  1.00  0.00    -0.237 OA
ATOM     78  O   UNL A   1      33.850  36.213  27.913  1.00  0.00    -0.744 OA
ENDBRANCH  74  75
ENDBRANCH  53  67
BRANCH  54  79
ATOM     79  C   UNL A   1      43.963  28.650  36.008  1.00  0.00     0.058 A 
ATOM     80  C   UNL A   1      43.699  27.566  36.858  1.00  0.00     0.135 A 
ATOM     81  C   UNL A   1      45.293  29.090  35.907  1.00  0.00     0.135 A 
ATOM     82  F   UNL A   1      42.443  27.116  37.002  1.00  0.00    -0.206 F 
ATOM     83  C   UNL A   1      44.709  26.957  37.600  1.00  0.00     0.059 A 
ATOM     84  C   UNL A   1      46.322  28.479  36.613  1.00  0.00     0.059 A 
ATOM     85  F   UNL A   1      45.602  30.122  35.108  1.00  0.00    -0.206 F 
ATOM     86  C   UNL A   1      46.018  27.426  37.474  1.00  0.00     0.060 A 
BRANCH  86  87
ATOM     87  S   UNL A   1      47.333  26.634  38.426  1.00  0.00     0.124 S 
ATOM     88  O   UNL A   1      47.615  27.651  39.434  1.00  0.00    -0.237 OA
ATOM     89  O   UNL A   1      46.682  25.420  38.910  1.00  0.00    -0.237 OA
ATOM     90  O   UNL A   1      48.379  26.421  37.432  1.00  0.00    -0.744 OA
ENDBRANCH  86  87
ENDBRANCH  54  79
BRANCH  66  91
ATOM     91  C   UNL A   1      39.953  34.135  37.556  1.00  0.00     0.058 A 
ATOM     92  C   UNL A   1      40.680  35.335  37.587  1.00  0.00     0.135 A 
ATOM     93  C   UNL A   1      39.130  33.833  38.653  1.00  0.00     0.135 A 
ATOM     94  F   UNL A   1      41.484  35.664  36.564  1.00  0.00    -0.206 F 
ATOM     95  C   UNL A   1      40.609  36.196  38.676  1.00  0.00     0.059 A 
ATOM     96  C   UNL A   1      39.027  34.692  39.742  1.00  0.00     0.059 A 
ATOM     97  F   UNL A   1      38.407  32.702  38.665  1.00  0.00    -0.206 F 
ATOM     98  C   UNL A   1      39.780  35.866  39.750  1.00  0.00     0.060 A 
BRANCH  98  99
ATOM     99  S   UNL A   1      39.670  37.007  41.145  1.00  0.00     0.124 S 
ATOM    100  O   UNL A   1      38.866  38.085  40.579  1.00  0.00    -0.237 OA
ATOM    101  O   UNL A   1      39.015  36.196  42.166  1.00  0.00    -0.237 OA
ATOM    102  O   UNL A   1      41.065  37.340  41.418  1.00  0.00    -0.744 OA
ENDBRANCH  98  99
ENDBRANCH  66  91
ENDBRANCH  40  41
ENDBRANCH  33  35
ENDBRANCH  32  33
ENDBRANCH  31  32
ENDBRANCH   1  31
TORSDOF 19
ENDMDL
MODEL 3
REMARK VINA RESULT:      -9.2      1.179      8.013
REMARK SMILES COc1cc(/C=C2/C(=O)N(c3ccccc3)C(=O)N=C2OCCOC(=O)c2ccc(-c3c4nc(c(-c5c(F)cc(S(=O)(=O)[O-])cc5F)c5ccc([nH]5)c(-c5c(F)cc(S(=O)(=O)[O-])cc5F)c5nc(c(-c6c(F)cc(S(=O)(=O)[O-])cc6F)c6ccc3[nH]6)C=C5)C=C4)cc2)ccc1OCC(=O)[O-]
REMARK SMILES IDX 22 1 21 2 20 3 6 4 7 5 8 6 9 7 10 8 19 9 17 10 18 11 5 12
REMARK SMILES IDX 3 13 4 14 95 15 94 16 93 17 2 18 1 19 96 20 97 21 98 22
REMARK SMILES IDX 99 23 100 24 11 25 12 26 16 27 13 28 15 29 14 30 23 31 24 32
REMARK SMILES IDX 25 33 26 34 27 35 28 36 92 37 29 38 91 39 30 40 31 41 32 42
REMARK SMILES IDX 85 43 33 44 90 45 84 46 86 47 34 48 89 49 83 50 82 51 35 53
REMARK SMILES IDX 69 54 48 55 68 56 49 57 52 58 67 59 87 60 50 61 51 62 66 64
REMARK SMILES IDX 88 65 53 66 36 67 37 68 46 69 38 70 39 71 45 72 47 73 40 74
REMARK SMILES IDX 41 75 42 76 43 77 44 78 70 79 71 80 80 81 72 82 73 83 79 84
REMARK SMILES IDX 81 85 74 86 75 87 76 88 77 89 78 90 54 91 55 92 64 93 56 94
REMARK SMILES IDX 57 95 63 96 65 97 58 98 59 99 60 100 61 101 62 102
REMARK H PARENT 86 52 52 63
REMARK Flexibility Score: inf
ROOT
ATOM      1  C   UNL A   1      46.121  26.682  25.811  1.00  0.00     0.273 C 
ENDROOT
BRANCH   1   2
ATOM      2  O   UNL A   1      45.886  26.825  27.231  1.00  0.00    -0.473 OA
BRANCH   2   3
ATOM      3  C   UNL A   1      46.791  26.435  28.145  1.00  0.00     0.231 C 
ATOM      4  C   UNL A   1      45.217  24.783  29.306  1.00  0.00     0.027 C 
ATOM      5  C   UNL A   1      46.184  25.726  29.275  1.00  0.00     0.103 C 
ATOM      6  C   UNL A   1      46.856  26.063  30.578  1.00  0.00     0.272 C 
ATOM      7  O   UNL A   1      46.290  25.818  31.643  1.00  0.00    -0.268 OA
ATOM      8  N   UNL A   1      48.152  26.571  30.442  1.00  0.00    -0.226 N 
ATOM      9  N   UNL A   1      48.014  26.801  28.094  1.00  0.00    -0.156 NA
ATOM     10  C   UNL A   1      48.797  26.513  29.191  1.00  0.00     0.358 C 
ATOM     11  O   UNL A   1      49.977  26.266  29.026  1.00  0.00    -0.245 OA
BRANCH   4  12
ATOM     12  C   UNL A   1      44.492  24.003  28.270  1.00  0.00    -0.021 A 
ATOM     13  C   UNL A   1      44.309  22.403  26.405  1.00  0.00     0.161 A 
ATOM     14  C   UNL A   1      45.068  23.183  27.295  1.00  0.00     0.058 A 
ATOM     15  C   UNL A   1      42.916  22.520  26.415  1.00  0.00     0.161 A 
ATOM     16  C   UNL A   1      42.320  23.368  27.354  1.00  0.00     0.051 A 
ATOM     17  C   UNL A   1      43.094  24.090  28.270  1.00  0.00     0.012 A 
BRANCH  13  18
ATOM     18  O   UNL A   1      44.873  21.493  25.553  1.00  0.00    -0.493 OA
ATOM     19  C   UNL A   1      46.059  21.843  24.854  1.00  0.00     0.278 C 
ENDBRANCH  13  18
BRANCH  15  20
ATOM     20  O   UNL A   1      42.008  21.917  25.585  1.00  0.00    -0.484 OA
BRANCH  20  21
ATOM     21  C   UNL A   1      40.985  21.100  26.132  1.00  0.00     0.282 C 
BRANCH  21  22
ATOM     22  C   UNL A   1      40.998  19.593  25.869  1.00  0.00     0.079 C 
ATOM     23  O   UNL A   1      41.990  18.877  25.871  1.00  0.00    -0.546 OA
ATOM     24  O   UNL A   1      39.779  19.054  25.659  1.00  0.00    -0.546 OA
ENDBRANCH  21  22
ENDBRANCH  20  21
ENDBRANCH  15  20
ENDBRANCH   4  12
BRANCH   8  25
ATOM     25  C   UNL A   1      48.844  27.116  31.592  1.00  0.00     0.054 A 
ATOM     26  C   UNL A   1      49.599  26.262  32.423  1.00  0.00     0.027 A 
ATOM     27  C   UNL A   1      48.661  28.436  32.034  1.00  0.00     0.027 A 
ATOM     28  C   UNL A   1      50.061  26.683  33.677  1.00  0.00     0.002 A 
ATOM     29  C   UNL A   1      49.153  28.867  33.273  1.00  0.00     0.002 A 
ATOM     30  C   UNL A   1      49.826  27.983  34.107  1.00  0.00     0.000 A 
ENDBRANCH   8  25
ENDBRANCH   2   3
ENDBRANCH   1   2
BRANCH   1  31
ATOM     31  C   UNL A   1      44.821  26.188  25.160  1.00  0.00     0.274 C 
BRANCH  31  32
ATOM     32  O   UNL A   1      43.920  27.298  24.991  1.00  0.00    -0.458 OA
BRANCH  32  33
ATOM     33  C   UNL A   1      42.672  27.093  25.472  1.00  0.00     0.338 C 
ATOM     34  O   UNL A   1      41.870  26.248  25.111  1.00  0.00    -0.246 OA
BRANCH  33  35
ATOM     35  C   UNL A   1      42.583  27.805  26.755  1.00  0.00     0.060 A 
ATOM     36  C   UNL A   1      41.813  27.182  27.731  1.00  0.00     0.016 A 
ATOM     37  C   UNL A   1      43.237  29.004  27.034  1.00  0.00     0.016 A 
ATOM     38  C   UNL A   1      41.682  27.745  28.987  1.00  0.00     0.010 A 
ATOM     39  C   UNL A   1      43.084  29.587  28.303  1.00  0.00     0.010 A 
ATOM     40  C   UNL A   1      42.290  28.965  29.284  1.00  0.00    -0.014 A 
BRANCH  40  41
ATOM     41  C   UNL A   1      41.936  29.610  30.575  1.00  0.00     0.031 A 
ATOM     42  C   UNL A   1      40.634  30.354  30.683  1.00  0.00     0.074 A 
ATOM     43  C   UNL A   1      42.674  29.397  31.684  1.00  0.00     0.049 A 
ATOM     44  N   UNL A   1      40.161  31.055  31.679  1.00  0.00    -0.248 NA
ATOM     45  C   UNL A   1      39.736  30.288  29.516  1.00  0.00     0.031 C 
ATOM     46  C   UNL A   1      43.879  28.568  31.753  1.00  0.00     0.029 A 
ATOM     47  N   UNL A   1      42.497  29.830  32.976  1.00  0.00    -0.354 N 
ATOM     48  C   UNL A   1      38.948  31.569  31.237  1.00  0.00     0.074 A 
ATOM     49  C   UNL A   1      38.738  31.072  29.895  1.00  0.00     0.031 C 
ATOM     50  C   UNL A   1      44.310  28.523  33.025  1.00  0.00     0.029 A 
ATOM     51  C   UNL A   1      43.463  29.384  33.847  1.00  0.00     0.049 A 
ATOM     52  H   UNL A   1      41.748  30.406  33.252  1.00  0.00     0.167 HD
ATOM     53  C   UNL A   1      38.098  32.394  31.890  1.00  0.00     0.037 A 
ATOM     54  C   UNL A   1      43.666  29.669  35.149  1.00  0.00     0.037 A 
ATOM     55  C   UNL A   1      38.283  32.835  33.246  1.00  0.00     0.049 A 
ATOM     56  C   UNL A   1      42.736  30.635  35.837  1.00  0.00     0.074 A 
ATOM     57  C   UNL A   1      37.493  33.699  33.985  1.00  0.00     0.029 A 
ATOM     58  N   UNL A   1      39.317  32.430  34.073  1.00  0.00    -0.354 N 
ATOM     59  N   UNL A   1      41.647  31.203  35.375  1.00  0.00    -0.248 NA
ATOM     60  C   UNL A   1      43.079  31.025  37.212  1.00  0.00     0.031 C 
ATOM     61  C   UNL A   1      38.072  33.843  35.251  1.00  0.00     0.029 A 
ATOM     62  C   UNL A   1      39.199  33.038  35.311  1.00  0.00     0.049 A 
ATOM     63  H   UNL A   1      40.032  31.803  33.819  1.00  0.00     0.167 HD
ATOM     64  C   UNL A   1      41.177  32.015  36.402  1.00  0.00     0.074 A 
ATOM     65  C   UNL A   1      42.079  31.842  37.520  1.00  0.00     0.031 C 
ATOM     66  C   UNL A   1      40.104  32.843  36.414  1.00  0.00     0.037 A 
BRANCH  53  67
ATOM     67  C   UNL A   1      36.931  32.940  31.121  1.00  0.00     0.058 A 
ATOM     68  C   UNL A   1      35.625  32.463  31.297  1.00  0.00     0.135 A 
ATOM     69  C   UNL A   1      37.131  33.998  30.221  1.00  0.00     0.135 A 
ATOM     70  F   UNL A   1      35.387  31.433  32.125  1.00  0.00    -0.206 F 
ATOM     71  C   UNL A   1      34.554  33.016  30.601  1.00  0.00     0.059 A 
ATOM     72  C   UNL A   1      36.075  34.578  29.528  1.00  0.00     0.059 A 
ATOM     73  F   UNL A   1      38.366  34.480  30.010  1.00  0.00    -0.206 F 
ATOM     74  C   UNL A   1      34.789  34.075  29.720  1.00  0.00     0.060 A 
BRANCH  74  75
ATOM     75  S   UNL A   1      33.390  34.802  28.842  1.00  0.00     0.124 S 
ATOM     76  O   UNL A   1      32.415  34.947  29.917  1.00  0.00    -0.237 OA
ATOM     77  O   UNL A   1      33.956  36.045  28.326  1.00  0.00    -0.237 OA
ATOM     78  O   UNL A   1      33.066  33.799  27.831  1.00  0.00    -0.744 OA
ENDBRANCH  74  75
ENDBRANCH  53  67
BRANCH  54  79
ATOM     79  C   UNL A   1      44.839  29.107  35.875  1.00  0.00     0.058 A 
ATOM     80  C   UNL A   1      46.108  29.700  35.782  1.00  0.00     0.135 A 
ATOM     81  C   UNL A   1      44.724  27.934  36.638  1.00  0.00     0.135 A 
ATOM     82  F   UNL A   1      46.275  30.814  35.052  1.00  0.00    -0.206 F 
ATOM     83  C   UNL A   1      47.223  29.138  36.397  1.00  0.00     0.059 A 
ATOM     84  C   UNL A   1      45.817  27.371  37.287  1.00  0.00     0.059 A 
ATOM     85  F   UNL A   1      43.535  27.327  36.763  1.00  0.00    -0.206 F 
ATOM     86  C   UNL A   1      47.067  27.969  37.144  1.00  0.00     0.060 A 
BRANCH  86  87
ATOM     87  S   UNL A   1      48.509  27.241  37.952  1.00  0.00     0.124 S 
ATOM     88  O   UNL A   1      48.647  25.984  37.225  1.00  0.00    -0.237 OA
ATOM     89  O   UNL A   1      49.546  28.239  37.703  1.00  0.00    -0.237 OA
ATOM     90  O   UNL A   1      48.085  27.124  39.344  1.00  0.00    -0.744 OA
ENDBRANCH  86  87
ENDBRANCH  54  79
BRANCH  66  91
ATOM     91  C   UNL A   1      39.838  33.611  37.677  1.00  0.00     0.058 A 
ATOM     92  C   UNL A   1      40.508  34.812  37.957  1.00  0.00     0.135 A 
ATOM     93  C   UNL A   1      38.868  33.169  38.591  1.00  0.00     0.135 A 
ATOM     94  F   UNL A   1      41.447  35.274  37.116  1.00  0.00    -0.206 F 
ATOM     95  C   UNL A   1      40.239  35.539  39.112  1.00  0.00     0.059 A 
ATOM     96  C   UNL A   1      38.568  33.892  39.740  1.00  0.00     0.059 A 
ATOM     97  F   UNL A   1      38.192  32.031  38.361  1.00  0.00    -0.206 F 
ATOM     98  C   UNL A   1      39.268  35.070  39.998  1.00  0.00     0.060 A 
BRANCH  98  99
ATOM     99  S   UNL A   1      38.905  36.038  41.479  1.00  0.00     0.124 S 
ATOM    100  O   UNL A   1      40.092  35.789  42.290  1.00  0.00    -0.237 OA
ATOM    101  O   UNL A   1      38.772  37.390  40.947  1.00  0.00    -0.237 OA
ATOM    102  O   UNL A   1      37.667  35.443  41.975  1.00  0.00    -0.744 OA
ENDBRANCH  98  99
ENDBRANCH  66  91
ENDBRANCH  40  41
ENDBRANCH  33  35
ENDBRANCH  32  33
ENDBRANCH  31  32
ENDBRANCH   1  31
TORSDOF 19
ENDMDL
