MODEL 1
REMARK VINA RESULT:      -9.5      0.000      0.000
REMARK SMILES CCOc1cnc(C(=O)c2[nH]c3cc(Cl)ccc3c2CC(=O)OCCOC(=O)c2ccc(-c3c4nc(c(-c5c(F)cc(S(=O)(=O)[O-])cc5F)c5ccc([nH]5)c(-c5c(F)cc(S(=O)(=O)[O-])cc5F)c5nc(c(-c6c(F)cc(S(=O)(=O)[O-])cc6F)c6ccc3[nH]6)C=C5)C=C4)cc2)cc1CC
REMARK SMILES IDX 24 1 23 2 21 3 22 4 20 5 19 6 10 7 11 8 12 9 18 11 13 12
REMARK SMILES IDX 17 13 14 14 16 15 15 16 8 17 9 18 7 19 4 20 5 21 96 22 6 23
REMARK SMILES IDX 95 24 3 25 2 26 1 27 97 28 98 29 25 30 26 31 27 32 28 33
REMARK SMILES IDX 29 34 30 35 94 36 31 37 93 38 32 39 33 40 34 41 87 42 35 43
REMARK SMILES IDX 92 44 86 45 88 46 36 47 91 48 85 49 84 50 37 52 71 53 50 54
REMARK SMILES IDX 70 55 51 56 54 57 69 58 89 59 52 60 53 61 68 63 90 64 55 65
REMARK SMILES IDX 38 66 39 67 48 68 40 69 41 70 47 71 49 72 42 73 43 74 44 75
REMARK SMILES IDX 45 76 46 77 72 78 73 79 82 80 74 81 75 82 81 83 83 84 76 85
REMARK SMILES IDX 77 86 78 87 79 88 80 89 56 90 57 91 66 92 58 93 59 94 65 95
REMARK SMILES IDX 67 96 60 97 61 98 62 99 63 100 64 101
REMARK H PARENT 11 10 88 51 54 62
REMARK Flexibility Score: inf
ROOT
ATOM      1  C   UNL A   1      46.183  39.031  29.611  1.00  0.00     0.274 C 
ENDROOT
BRANCH   1   2
ATOM      2  O   UNL A   1      45.975  39.233  28.195  1.00  0.00    -0.462 OA
BRANCH   2   3
ATOM      3  C   UNL A   1      46.342  40.441  27.696  1.00  0.00     0.310 C 
ATOM      4  O   UNL A   1      47.354  40.623  27.021  1.00  0.00    -0.252 OA
BRANCH   3   5
ATOM      5  C   UNL A   1      45.332  41.549  27.906  1.00  0.00     0.161 C 
BRANCH   5   6
ATOM      6  C   UNL A   1      44.030  41.473  27.170  1.00  0.00     0.000 A 
ATOM      7  C   UNL A   1      42.893  40.736  27.502  1.00  0.00     0.093 A 
ATOM      8  N   UNL A   1      41.948  40.992  26.536  1.00  0.00    -0.351 N 
ATOM      9  C   UNL A   1      42.511  41.648  25.473  1.00  0.00     0.048 A 
ATOM     10  H   UNL A   1      40.999  40.740  26.601  1.00  0.00     0.167 HD
ATOM     11  C   UNL A   1      43.789  42.036  25.868  1.00  0.00     0.004 A 
ATOM     12  C   UNL A   1      41.985  41.919  24.206  1.00  0.00     0.047 A 
ATOM     13  C   UNL A   1      44.569  42.787  24.962  1.00  0.00     0.012 A 
ATOM     14  C   UNL A   1      42.795  42.627  23.317  1.00  0.00     0.043 A 
ATOM     15  C   UNL A   1      44.061  43.072  23.688  1.00  0.00     0.021 A 
ATOM     16  Cl  UNL A   1      42.212  42.950  21.728  1.00  0.00    -0.084 Cl
BRANCH   7  17
ATOM     17  C   UNL A   1      42.572  39.810  28.583  1.00  0.00     0.227 C 
ATOM     18  O   UNL A   1      42.167  40.230  29.666  1.00  0.00    -0.285 OA
BRANCH  17  19
ATOM     19  C   UNL A   1      42.390  38.345  28.238  1.00  0.00     0.113 A 
ATOM     20  C   UNL A   1      42.885  35.788  27.352  1.00  0.00     0.140 A 
ATOM     21  C   UNL A   1      42.320  36.770  26.545  1.00  0.00     0.158 A 
ATOM     22  C   UNL A   1      43.196  36.109  28.672  1.00  0.00    -0.002 A 
ATOM     23  N   UNL A   1      42.078  38.042  26.950  1.00  0.00    -0.249 NA
ATOM     24  C   UNL A   1      42.869  37.391  29.137  1.00  0.00     0.040 A 
BRANCH  20  25
ATOM     25  O   UNL A   1      43.312  34.612  26.813  1.00  0.00    -0.492 OA
BRANCH  25  26
ATOM     26  C   UNL A   1      43.457  34.659  25.388  1.00  0.00     0.226 C 
ATOM     27  C   UNL A   1      43.792  33.267  24.879  1.00  0.00     0.049 C 
ENDBRANCH  25  26
ENDBRANCH  20  25
BRANCH  22  28
ATOM     28  C   UNL A   1      44.000  35.190  29.560  1.00  0.00     0.036 C 
ATOM     29  C   UNL A   1      43.230  34.820  30.824  1.00  0.00     0.009 C 
ENDBRANCH  22  28
ENDBRANCH  17  19
ENDBRANCH   7  17
ENDBRANCH   5   6
ENDBRANCH   3   5
ENDBRANCH   2   3
ENDBRANCH   1   2
BRANCH   1  30
ATOM     30  C   UNL A   1      46.589  37.581  29.921  1.00  0.00     0.275 C 
BRANCH  30  31
ATOM     31  O   UNL A   1      47.995  37.332  29.704  1.00  0.00    -0.458 OA
BRANCH  31  32
ATOM     32  C   UNL A   1      48.246  36.670  28.555  1.00  0.00     0.338 C 
ATOM     33  O   UNL A   1      49.025  37.008  27.680  1.00  0.00    -0.246 OA
BRANCH  32  34
ATOM     34  C   UNL A   1      47.571  35.382  28.456  1.00  0.00     0.060 A 
ATOM     35  C   UNL A   1      47.746  34.483  29.510  1.00  0.00     0.016 A 
ATOM     36  C   UNL A   1      47.021  34.971  27.242  1.00  0.00     0.016 A 
ATOM     37  C   UNL A   1      47.417  33.146  29.334  1.00  0.00     0.010 A 
ATOM     38  C   UNL A   1      46.634  33.639  27.089  1.00  0.00     0.010 A 
ATOM     39  C   UNL A   1      46.847  32.717  28.126  1.00  0.00    -0.014 A 
BRANCH  39  40
ATOM     40  C   UNL A   1      46.415  31.307  27.993  1.00  0.00     0.031 A 
ATOM     41  C   UNL A   1      47.366  30.237  27.549  1.00  0.00     0.074 A 
ATOM     42  C   UNL A   1      45.139  31.005  28.295  1.00  0.00     0.049 A 
ATOM     43  N   UNL A   1      47.133  28.967  27.342  1.00  0.00    -0.248 NA
ATOM     44  C   UNL A   1      48.762  30.639  27.309  1.00  0.00     0.031 C 
ATOM     45  C   UNL A   1      44.135  31.968  28.755  1.00  0.00     0.029 A 
ATOM     46  N   UNL A   1      44.468  29.813  28.261  1.00  0.00    -0.354 N 
ATOM     47  C   UNL A   1      48.344  28.415  26.947  1.00  0.00     0.074 A 
ATOM     48  C   UNL A   1      49.309  29.494  26.918  1.00  0.00     0.031 C 
ATOM     49  C   UNL A   1      42.978  31.326  28.970  1.00  0.00     0.029 A 
ATOM     50  C   UNL A   1      43.145  29.923  28.608  1.00  0.00     0.049 A 
ATOM     51  H   UNL A   1      44.892  28.960  28.011  1.00  0.00     0.167 HD
ATOM     52  C   UNL A   1      48.623  27.124  26.645  1.00  0.00     0.037 A 
ATOM     53  C   UNL A   1      42.161  29.006  28.602  1.00  0.00     0.037 A 
ATOM     54  C   UNL A   1      47.654  26.060  26.660  1.00  0.00     0.049 A 
ATOM     55  C   UNL A   1      42.476  27.604  28.179  1.00  0.00     0.074 A 
ATOM     56  C   UNL A   1      47.840  24.720  26.367  1.00  0.00     0.029 A 
ATOM     57  N   UNL A   1      46.313  26.220  26.974  1.00  0.00    -0.354 N 
ATOM     58  N   UNL A   1      43.631  27.097  27.820  1.00  0.00    -0.248 NA
ATOM     59  C   UNL A   1      41.358  26.653  28.147  1.00  0.00     0.031 C 
ATOM     60  C   UNL A   1      46.603  24.073  26.478  1.00  0.00     0.029 A 
ATOM     61  C   UNL A   1      45.653  25.007  26.862  1.00  0.00     0.049 A 
ATOM     62  H   UNL A   1      45.892  27.068  27.239  1.00  0.00     0.167 HD
ATOM     63  C   UNL A   1      43.381  25.763  27.523  1.00  0.00     0.074 A 
ATOM     64  C   UNL A   1      41.967  25.542  27.757  1.00  0.00     0.031 C 
ATOM     65  C   UNL A   1      44.245  24.811  27.095  1.00  0.00     0.037 A 
BRANCH  52  66
ATOM     66  C   UNL A   1      50.037  26.791  26.278  1.00  0.00     0.058 A 
ATOM     67  C   UNL A   1      50.466  26.853  24.946  1.00  0.00     0.135 A 
ATOM     68  C   UNL A   1      50.974  26.432  27.258  1.00  0.00     0.135 A 
ATOM     69  F   UNL A   1      49.601  27.186  23.976  1.00  0.00    -0.206 F 
ATOM     70  C   UNL A   1      51.774  26.541  24.587  1.00  0.00     0.059 A 
ATOM     71  C   UNL A   1      52.291  26.126  26.925  1.00  0.00     0.059 A 
ATOM     72  F   UNL A   1      50.610  26.363  28.547  1.00  0.00    -0.206 F 
ATOM     73  C   UNL A   1      52.676  26.166  25.584  1.00  0.00     0.060 A 
BRANCH  73  74
ATOM     74  S   UNL A   1      54.367  25.734  25.117  1.00  0.00     0.124 S 
ATOM     75  O   UNL A   1      54.224  24.314  24.814  1.00  0.00    -0.237 OA
ATOM     76  O   UNL A   1      54.616  26.604  23.972  1.00  0.00    -0.237 OA
ATOM     77  O   UNL A   1      55.134  26.050  26.318  1.00  0.00    -0.744 OA
ENDBRANCH  73  74
ENDBRANCH  52  66
BRANCH  53  78
ATOM     78  C   UNL A   1      40.789  29.418  28.984  1.00  0.00     0.058 A 
ATOM     79  C   UNL A   1      39.788  29.577  28.018  1.00  0.00     0.135 A 
ATOM     80  C   UNL A   1      40.437  29.581  30.334  1.00  0.00     0.135 A 
ATOM     81  F   UNL A   1      40.083  29.431  26.717  1.00  0.00    -0.206 F 
ATOM     82  C   UNL A   1      38.478  29.876  28.375  1.00  0.00     0.059 A 
ATOM     83  C   UNL A   1      39.131  29.859  30.717  1.00  0.00     0.059 A 
ATOM     84  F   UNL A   1      41.360  29.417  31.295  1.00  0.00    -0.206 F 
ATOM     85  C   UNL A   1      38.158  30.008  29.729  1.00  0.00     0.060 A 
BRANCH  85  86
ATOM     86  S   UNL A   1      36.439  30.305  30.194  1.00  0.00     0.124 S 
ATOM     87  O   UNL A   1      35.733  29.868  28.997  1.00  0.00    -0.237 OA
ATOM     88  O   UNL A   1      36.284  29.457  31.373  1.00  0.00    -0.237 OA
ATOM     89  O   UNL A   1      36.411  31.741  30.459  1.00  0.00    -0.744 OA
ENDBRANCH  85  86
ENDBRANCH  53  78
BRANCH  65  90
ATOM     90  C   UNL A   1      43.681  23.442  26.862  1.00  0.00     0.058 A 
ATOM     91  C   UNL A   1      43.475  22.953  25.564  1.00  0.00     0.135 A 
ATOM     92  C   UNL A   1      43.382  22.600  27.943  1.00  0.00     0.135 A 
ATOM     93  F   UNL A   1      43.738  23.729  24.500  1.00  0.00    -0.206 F 
ATOM     94  C   UNL A   1      42.975  21.675  25.344  1.00  0.00     0.059 A 
ATOM     95  C   UNL A   1      42.896  21.312  27.747  1.00  0.00     0.059 A 
ATOM     96  F   UNL A   1      43.570  23.023  29.203  1.00  0.00    -0.206 F 
ATOM     97  C   UNL A   1      42.687  20.863  26.442  1.00  0.00     0.060 A 
BRANCH  97  98
ATOM     98  S   UNL A   1      42.070  19.190  26.150  1.00  0.00     0.124 S 
ATOM     99  O   UNL A   1      40.642  19.432  25.976  1.00  0.00    -0.237 OA
ATOM    100  O   UNL A   1      42.797  18.789  24.949  1.00  0.00    -0.237 OA
ATOM    101  O   UNL A   1      42.445  18.478  27.368  1.00  0.00    -0.744 OA
ENDBRANCH  97  98
ENDBRANCH  65  90
ENDBRANCH  39  40
ENDBRANCH  32  34
ENDBRANCH  31  32
ENDBRANCH  30  31
ENDBRANCH   1  30
TORSDOF 20
ENDMDL
MODEL 2
REMARK VINA RESULT:      -9.2      1.998      8.926
REMARK SMILES CCOc1cnc(C(=O)c2[nH]c3cc(Cl)ccc3c2CC(=O)OCCOC(=O)c2ccc(-c3c4nc(c(-c5c(F)cc(S(=O)(=O)[O-])cc5F)c5ccc([nH]5)c(-c5c(F)cc(S(=O)(=O)[O-])cc5F)c5nc(c(-c6c(F)cc(S(=O)(=O)[O-])cc6F)c6ccc3[nH]6)C=C5)C=C4)cc2)cc1CC
REMARK SMILES IDX 24 1 23 2 21 3 22 4 20 5 19 6 10 7 11 8 12 9 18 11 13 12
REMARK SMILES IDX 17 13 14 14 16 15 15 16 8 17 9 18 7 19 4 20 5 21 96 22 6 23
REMARK SMILES IDX 95 24 3 25 2 26 1 27 97 28 98 29 25 30 26 31 27 32 28 33
REMARK SMILES IDX 29 34 30 35 94 36 31 37 93 38 32 39 33 40 34 41 87 42 35 43
REMARK SMILES IDX 92 44 86 45 88 46 36 47 91 48 85 49 84 50 37 52 71 53 50 54
REMARK SMILES IDX 70 55 51 56 54 57 69 58 89 59 52 60 53 61 68 63 90 64 55 65
REMARK SMILES IDX 38 66 39 67 48 68 40 69 41 70 47 71 49 72 42 73 43 74 44 75
REMARK SMILES IDX 45 76 46 77 72 78 73 79 82 80 74 81 75 82 81 83 83 84 76 85
REMARK SMILES IDX 77 86 78 87 79 88 80 89 56 90 57 91 66 92 58 93 59 94 65 95
REMARK SMILES IDX 67 96 60 97 61 98 62 99 63 100 64 101
REMARK H PARENT 11 10 88 51 54 62
REMARK Flexibility Score: inf
ROOT
ATOM      1  C   UNL A   1      45.955  37.905  31.614  1.00  0.00     0.274 C 
ENDROOT
BRANCH   1   2
ATOM      2  O   UNL A   1      44.927  37.171  30.913  1.00  0.00    -0.462 OA
BRANCH   2   3
ATOM      3  C   UNL A   1      44.497  36.025  31.498  1.00  0.00     0.310 C 
ATOM      4  O   UNL A   1      44.270  35.914  32.702  1.00  0.00    -0.252 OA
BRANCH   3   5
ATOM      5  C   UNL A   1      44.168  34.904  30.534  1.00  0.00     0.161 C 
BRANCH   5   6
ATOM      6  C   UNL A   1      42.821  34.900  29.881  1.00  0.00     0.000 A 
ATOM      7  C   UNL A   1      42.475  35.362  28.611  1.00  0.00     0.093 A 
ATOM      8  N   UNL A   1      41.128  35.139  28.451  1.00  0.00    -0.351 N 
ATOM      9  C   UNL A   1      40.551  34.797  29.646  1.00  0.00     0.048 A 
ATOM     10  H   UNL A   1      40.646  35.214  27.597  1.00  0.00     0.167 HD
ATOM     11  C   UNL A   1      41.589  34.559  30.543  1.00  0.00     0.004 A 
ATOM     12  C   UNL A   1      39.200  34.685  29.990  1.00  0.00     0.047 A 
ATOM     13  C   UNL A   1      41.260  34.132  31.847  1.00  0.00     0.012 A 
ATOM     14  C   UNL A   1      38.905  34.301  31.298  1.00  0.00     0.043 A 
ATOM     15  C   UNL A   1      39.913  34.011  32.213  1.00  0.00     0.021 A 
ATOM     16  Cl  UNL A   1      37.256  34.190  31.787  1.00  0.00    -0.084 Cl
BRANCH   7  17
ATOM     17  C   UNL A   1      43.223  36.003  27.534  1.00  0.00     0.227 C 
ATOM     18  O   UNL A   1      43.321  35.462  26.434  1.00  0.00    -0.285 OA
BRANCH  17  19
ATOM     19  C   UNL A   1      43.549  37.477  27.669  1.00  0.00     0.113 A 
ATOM     20  C   UNL A   1      43.598  40.193  27.233  1.00  0.00     0.140 A 
ATOM     21  C   UNL A   1      44.525  39.322  26.670  1.00  0.00     0.158 A 
ATOM     22  C   UNL A   1      42.614  39.668  28.069  1.00  0.00    -0.002 A 
ATOM     23  N   UNL A   1      44.517  37.978  26.856  1.00  0.00    -0.249 NA
ATOM     24  C   UNL A   1      42.643  38.294  28.347  1.00  0.00     0.040 A 
BRANCH  20  25
ATOM     25  O   UNL A   1      43.527  41.489  26.817  1.00  0.00    -0.492 OA
BRANCH  25  26
ATOM     26  C   UNL A   1      43.326  41.623  25.405  1.00  0.00     0.226 C 
ATOM     27  C   UNL A   1      43.893  42.956  24.949  1.00  0.00     0.049 C 
ENDBRANCH  25  26
ENDBRANCH  20  25
BRANCH  22  28
ATOM     28  C   UNL A   1      41.443  40.489  28.554  1.00  0.00     0.036 C 
ATOM     29  C   UNL A   1      41.724  41.111  29.919  1.00  0.00     0.009 C 
ENDBRANCH  22  28
ENDBRANCH  17  19
ENDBRANCH   7  17
ENDBRANCH   5   6
ENDBRANCH   3   5
ENDBRANCH   2   3
ENDBRANCH   1   2
BRANCH   1  30
ATOM     30  C   UNL A   1      47.258  37.969  30.800  1.00  0.00     0.275 C 
BRANCH  30  31
ATOM     31  O   UNL A   1      47.808  36.664  30.514  1.00  0.00    -0.458 OA
BRANCH  31  32
ATOM     32  C   UNL A   1      47.840  36.379  29.196  1.00  0.00     0.338 C 
ATOM     33  O   UNL A   1      48.125  37.150  28.295  1.00  0.00    -0.246 OA
BRANCH  32  34
ATOM     34  C   UNL A   1      47.607  34.973  28.890  1.00  0.00     0.060 A 
ATOM     35  C   UNL A   1      47.107  34.667  27.623  1.00  0.00     0.016 A 
ATOM     36  C   UNL A   1      47.614  34.024  29.911  1.00  0.00     0.016 A 
ATOM     37  C   UNL A   1      46.558  33.414  27.386  1.00  0.00     0.010 A 
ATOM     38  C   UNL A   1      47.117  32.745  29.652  1.00  0.00     0.010 A 
ATOM     39  C   UNL A   1      46.571  32.440  28.395  1.00  0.00    -0.014 A 
BRANCH  39  40
ATOM     40  C   UNL A   1      46.068  31.080  28.093  1.00  0.00     0.031 A 
ATOM     41  C   UNL A   1      44.621  30.728  28.261  1.00  0.00     0.074 A 
ATOM     42  C   UNL A   1      46.948  30.165  27.648  1.00  0.00     0.049 A 
ATOM     43  N   UNL A   1      44.032  29.573  28.080  1.00  0.00    -0.248 NA
ATOM     44  C   UNL A   1      43.712  31.806  28.682  1.00  0.00     0.031 C 
ATOM     45  C   UNL A   1      48.376  30.410  27.431  1.00  0.00     0.029 A 
ATOM     46  N   UNL A   1      46.776  28.852  27.301  1.00  0.00    -0.354 N 
ATOM     47  C   UNL A   1      42.689  29.781  28.364  1.00  0.00     0.074 A 
ATOM     48  C   UNL A   1      42.551  31.168  28.755  1.00  0.00     0.031 C 
ATOM     49  C   UNL A   1      48.950  29.286  26.978  1.00  0.00     0.029 A 
ATOM     50  C   UNL A   1      47.943  28.231  26.929  1.00  0.00     0.049 A 
ATOM     51  H   UNL A   1      45.904  28.398  27.317  1.00  0.00     0.167 HD
ATOM     52  C   UNL A   1      41.667  28.894  28.296  1.00  0.00     0.037 A 
ATOM     53  C   UNL A   1      48.188  26.946  26.617  1.00  0.00     0.037 A 
ATOM     54  C   UNL A   1      41.815  27.513  27.923  1.00  0.00     0.049 A 
ATOM     55  C   UNL A   1      47.055  25.966  26.635  1.00  0.00     0.074 A 
ATOM     56  C   UNL A   1      40.840  26.536  27.827  1.00  0.00     0.029 A 
ATOM     57  N   UNL A   1      43.021  26.909  27.596  1.00  0.00    -0.354 N 
ATOM     58  N   UNL A   1      45.788  26.182  26.895  1.00  0.00    -0.248 NA
ATOM     59  C   UNL A   1      47.383  24.568  26.331  1.00  0.00     0.031 C 
ATOM     60  C   UNL A   1      41.461  25.333  27.467  1.00  0.00     0.029 A 
ATOM     61  C   UNL A   1      42.819  25.567  27.318  1.00  0.00     0.049 A 
ATOM     62  H   UNL A   1      43.891  27.367  27.565  1.00  0.00     0.167 HD
ATOM     63  C   UNL A   1      45.163  24.947  26.780  1.00  0.00     0.074 A 
ATOM     64  C   UNL A   1      46.191  23.992  26.417  1.00  0.00     0.031 C 
ATOM     65  C   UNL A   1      43.857  24.635  26.962  1.00  0.00     0.037 A 
BRANCH  52  66
ATOM     66  C   UNL A   1      40.295  29.396  28.627  1.00  0.00     0.058 A 
ATOM     67  C   UNL A   1      39.936  29.685  29.951  1.00  0.00     0.135 A 
ATOM     68  C   UNL A   1      39.341  29.613  27.623  1.00  0.00     0.135 A 
ATOM     69  F   UNL A   1      40.817  29.485  30.944  1.00  0.00    -0.206 F 
ATOM     70  C   UNL A   1      38.664  30.145  30.277  1.00  0.00     0.059 A 
ATOM     71  C   UNL A   1      38.065  30.084  27.923  1.00  0.00     0.059 A 
ATOM     72  F   UNL A   1      39.640  29.355  26.341  1.00  0.00    -0.206 F 
ATOM     73  C   UNL A   1      37.731  30.330  29.256  1.00  0.00     0.060 A 
BRANCH  73  74
ATOM     74  S   UNL A   1      36.071  30.902  29.680  1.00  0.00     0.124 S 
ATOM     75  O   UNL A   1      35.255  30.111  28.764  1.00  0.00    -0.237 OA
ATOM     76  O   UNL A   1      35.961  30.549  31.092  1.00  0.00    -0.237 OA
ATOM     77  O   UNL A   1      36.131  32.333  29.399  1.00  0.00    -0.744 OA
ENDBRANCH  73  74
ENDBRANCH  52  66
BRANCH  53  78
ATOM     78  C   UNL A   1      49.575  26.533  26.296  1.00  0.00     0.058 A 
ATOM     79  C   UNL A   1      50.102  26.713  25.013  1.00  0.00     0.135 A 
ATOM     80  C   UNL A   1      50.421  26.023  27.294  1.00  0.00     0.135 A 
ATOM     81  F   UNL A   1      49.327  27.197  24.030  1.00  0.00    -0.206 F 
ATOM     82  C   UNL A   1      51.429  26.410  24.726  1.00  0.00     0.059 A 
ATOM     83  C   UNL A   1      51.755  25.733  27.038  1.00  0.00     0.059 A 
ATOM     84  F   UNL A   1      49.962  25.853  28.544  1.00  0.00    -0.206 F 
ATOM     85  C   UNL A   1      52.250  25.927  25.749  1.00  0.00     0.060 A 
BRANCH  85  86
ATOM     86  S   UNL A   1      53.995  25.622  25.397  1.00  0.00     0.124 S 
ATOM     87  O   UNL A   1      53.962  25.365  23.963  1.00  0.00    -0.237 OA
ATOM     88  O   UNL A   1      54.619  26.877  25.808  1.00  0.00    -0.237 OA
ATOM     89  O   UNL A   1      54.307  24.473  26.241  1.00  0.00    -0.744 OA
ENDBRANCH  85  86
ENDBRANCH  53  78
BRANCH  65  90
ATOM     90  C   UNL A   1      43.470  23.201  26.760  1.00  0.00     0.058 A 
ATOM     91  C   UNL A   1      43.459  22.623  25.483  1.00  0.00     0.135 A 
ATOM     92  C   UNL A   1      43.144  22.390  27.857  1.00  0.00     0.135 A 
ATOM     93  F   UNL A   1      43.755  23.366  24.404  1.00  0.00    -0.206 F 
ATOM     94  C   UNL A   1      43.123  21.288  25.296  1.00  0.00     0.059 A 
ATOM     95  C   UNL A   1      42.820  21.047  27.696  1.00  0.00     0.059 A 
ATOM     96  F   UNL A   1      43.146  22.898  29.100  1.00  0.00    -0.206 F 
ATOM     97  C   UNL A   1      42.804  20.508  26.409  1.00  0.00     0.060 A 
BRANCH  97  98
ATOM     98  S   UNL A   1      42.402  18.765  26.164  1.00  0.00     0.124 S 
ATOM     99  O   UNL A   1      42.687  18.212  27.483  1.00  0.00    -0.237 OA
ATOM    100  O   UNL A   1      40.992  18.814  25.788  1.00  0.00    -0.237 OA
ATOM    101  O   UNL A   1      43.313  18.356  25.100  1.00  0.00    -0.744 OA
ENDBRANCH  97  98
ENDBRANCH  65  90
ENDBRANCH  39  40
ENDBRANCH  32  34
ENDBRANCH  31  32
ENDBRANCH  30  31
ENDBRANCH   1  30
TORSDOF 20
ENDMDL
MODEL 3
REMARK VINA RESULT:      -9.1      0.571      8.030
REMARK SMILES CCOc1cnc(C(=O)c2[nH]c3cc(Cl)ccc3c2CC(=O)OCCOC(=O)c2ccc(-c3c4nc(c(-c5c(F)cc(S(=O)(=O)[O-])cc5F)c5ccc([nH]5)c(-c5c(F)cc(S(=O)(=O)[O-])cc5F)c5nc(c(-c6c(F)cc(S(=O)(=O)[O-])cc6F)c6ccc3[nH]6)C=C5)C=C4)cc2)cc1CC
REMARK SMILES IDX 24 1 23 2 21 3 22 4 20 5 19 6 10 7 11 8 12 9 18 11 13 12
REMARK SMILES IDX 17 13 14 14 16 15 15 16 8 17 9 18 7 19 4 20 5 21 96 22 6 23
REMARK SMILES IDX 95 24 3 25 2 26 1 27 97 28 98 29 25 30 26 31 27 32 28 33
REMARK SMILES IDX 29 34 30 35 94 36 31 37 93 38 32 39 33 40 34 41 87 42 35 43
REMARK SMILES IDX 92 44 86 45 88 46 36 47 91 48 85 49 84 50 37 52 71 53 50 54
REMARK SMILES IDX 70 55 51 56 54 57 69 58 89 59 52 60 53 61 68 63 90 64 55 65
REMARK SMILES IDX 38 66 39 67 48 68 40 69 41 70 47 71 49 72 42 73 43 74 44 75
REMARK SMILES IDX 45 76 46 77 72 78 73 79 82 80 74 81 75 82 81 83 83 84 76 85
REMARK SMILES IDX 77 86 78 87 79 88 80 89 56 90 57 91 66 92 58 93 59 94 65 95
REMARK SMILES IDX 67 96 60 97 61 98 62 99 63 100 64 101
REMARK H PARENT 11 10 88 51 54 62
REMARK Flexibility Score: inf
ROOT
ATOM      1  C   UNL A   1      45.820  38.791  29.906  1.00  0.00     0.274 C 
ENDROOT
BRANCH   1   2
ATOM      2  O   UNL A   1      45.887  38.976  28.475  1.00  0.00    -0.462 OA
BRANCH   2   3
ATOM      3  C   UNL A   1      46.450  40.131  28.040  1.00  0.00     0.310 C 
ATOM      4  O   UNL A   1      47.538  40.191  27.469  1.00  0.00    -0.252 OA
BRANCH   3   5
ATOM      5  C   UNL A   1      45.571  41.357  28.176  1.00  0.00     0.161 C 
BRANCH   5   6
ATOM      6  C   UNL A   1      44.368  41.470  27.292  1.00  0.00     0.000 A 
ATOM      7  C   UNL A   1      43.114  40.883  27.462  1.00  0.00     0.093 A 
ATOM      8  N   UNL A   1      42.332  41.284  26.404  1.00  0.00    -0.351 N 
ATOM      9  C   UNL A   1      43.098  41.883  25.439  1.00  0.00     0.048 A 
ATOM     10  H   UNL A   1      41.358  41.158  26.348  1.00  0.00     0.167 HD
ATOM     11  C   UNL A   1      44.359  42.090  25.993  1.00  0.00     0.004 A 
ATOM     12  C   UNL A   1      42.767  42.250  24.130  1.00  0.00     0.047 A 
ATOM     13  C   UNL A   1      45.332  42.751  25.213  1.00  0.00     0.012 A 
ATOM     14  C   UNL A   1      43.762  42.865  23.369  1.00  0.00     0.043 A 
ATOM     15  C   UNL A   1      45.021  43.130  23.900  1.00  0.00     0.021 A 
ATOM     16  Cl  UNL A   1      43.420  43.298  21.736  1.00  0.00    -0.084 Cl
BRANCH   7  17
ATOM     17  C   UNL A   1      42.550  39.984  28.462  1.00  0.00     0.227 C 
ATOM     18  O   UNL A   1      41.998  40.432  29.466  1.00  0.00    -0.285 OA
BRANCH  17  19
ATOM     19  C   UNL A   1      42.325  38.536  28.075  1.00  0.00     0.113 A 
ATOM     20  C   UNL A   1      42.788  35.908  27.404  1.00  0.00     0.140 A 
ATOM     21  C   UNL A   1      42.642  36.914  26.455  1.00  0.00     0.158 A 
ATOM     22  C   UNL A   1      42.676  36.243  28.752  1.00  0.00    -0.002 A 
ATOM     23  N   UNL A   1      42.428  38.220  26.757  1.00  0.00    -0.249 NA
ATOM     24  C   UNL A   1      42.364  37.569  29.082  1.00  0.00     0.040 A 
BRANCH  20  25
ATOM     25  O   UNL A   1      43.233  34.672  27.038  1.00  0.00    -0.492 OA
BRANCH  25  26
ATOM     26  C   UNL A   1      43.479  34.550  25.633  1.00  0.00     0.226 C 
ATOM     27  C   UNL A   1      44.011  33.157  25.343  1.00  0.00     0.049 C 
ENDBRANCH  25  26
ENDBRANCH  20  25
BRANCH  22  28
ATOM     28  C   UNL A   1      43.027  35.276  29.858  1.00  0.00     0.036 C 
ATOM     29  C   UNL A   1      41.785  34.575  30.401  1.00  0.00     0.009 C 
ENDBRANCH  22  28
ENDBRANCH  17  19
ENDBRANCH   7  17
ENDBRANCH   5   6
ENDBRANCH   3   5
ENDBRANCH   2   3
ENDBRANCH   1   2
BRANCH   1  30
ATOM     30  C   UNL A   1      45.948  37.308  30.291  1.00  0.00     0.275 C 
BRANCH  30  31
ATOM     31  O   UNL A   1      47.312  36.911  30.559  1.00  0.00    -0.458 OA
BRANCH  31  32
ATOM     32  C   UNL A   1      47.965  36.481  29.460  1.00  0.00     0.338 C 
ATOM     33  O   UNL A   1      48.765  37.119  28.796  1.00  0.00    -0.246 OA
BRANCH  32  34
ATOM     34  C   UNL A   1      47.734  35.076  29.147  1.00  0.00     0.060 A 
ATOM     35  C   UNL A   1      47.268  34.772  27.866  1.00  0.00     0.016 A 
ATOM     36  C   UNL A   1      47.706  34.127  30.168  1.00  0.00     0.016 A 
ATOM     37  C   UNL A   1      46.720  33.522  27.613  1.00  0.00     0.010 A 
ATOM     38  C   UNL A   1      47.209  32.851  29.895  1.00  0.00     0.010 A 
ATOM     39  C   UNL A   1      46.698  32.548  28.623  1.00  0.00    -0.014 A 
BRANCH  39  40
ATOM     40  C   UNL A   1      46.196  31.192  28.306  1.00  0.00     0.031 A 
ATOM     41  C   UNL A   1      44.759  30.822  28.516  1.00  0.00     0.074 A 
ATOM     42  C   UNL A   1      47.068  30.295  27.810  1.00  0.00     0.049 A 
ATOM     43  N   UNL A   1      44.174  29.667  28.328  1.00  0.00    -0.248 NA
ATOM     44  C   UNL A   1      43.857  31.882  28.993  1.00  0.00     0.031 C 
ATOM     45  C   UNL A   1      48.486  30.559  27.550  1.00  0.00     0.029 A 
ATOM     46  N   UNL A   1      46.896  28.990  27.438  1.00  0.00    -0.354 N 
ATOM     47  C   UNL A   1      42.840  29.855  28.663  1.00  0.00     0.074 A 
ATOM     48  C   UNL A   1      42.703  31.231  29.091  1.00  0.00     0.031 C 
ATOM     49  C   UNL A   1      49.053  29.450  27.051  1.00  0.00     0.029 A 
ATOM     50  C   UNL A   1      48.054  28.388  27.012  1.00  0.00     0.049 A 
ATOM     51  H   UNL A   1      46.028  28.527  27.474  1.00  0.00     0.167 HD
ATOM     52  C   UNL A   1      41.824  28.960  28.609  1.00  0.00     0.037 A 
ATOM     53  C   UNL A   1      48.299  27.113  26.661  1.00  0.00     0.037 A 
ATOM     54  C   UNL A   1      41.971  27.590  28.199  1.00  0.00     0.049 A 
ATOM     55  C   UNL A   1      47.176  26.122  26.695  1.00  0.00     0.074 A 
ATOM     56  C   UNL A   1      41.001  26.606  28.114  1.00  0.00     0.029 A 
ATOM     57  N   UNL A   1      43.169  27.005  27.816  1.00  0.00    -0.354 N 
ATOM     58  N   UNL A   1      45.916  26.320  27.003  1.00  0.00    -0.248 NA
ATOM     59  C   UNL A   1      47.505  24.734  26.347  1.00  0.00     0.031 C 
ATOM     60  C   UNL A   1      41.619  25.417  27.705  1.00  0.00     0.029 A 
ATOM     61  C   UNL A   1      42.969  25.668  27.514  1.00  0.00     0.049 A 
ATOM     62  H   UNL A   1      44.034  27.472  27.766  1.00  0.00     0.167 HD
ATOM     63  C   UNL A   1      45.299  25.083  26.881  1.00  0.00     0.074 A 
ATOM     64  C   UNL A   1      46.322  24.145  26.460  1.00  0.00     0.031 C 
ATOM     65  C   UNL A   1      44.002  24.754  27.100  1.00  0.00     0.037 A 
BRANCH  52  66
ATOM     66  C   UNL A   1      40.460  29.442  28.999  1.00  0.00     0.058 A 
ATOM     67  C   UNL A   1      39.454  29.607  28.037  1.00  0.00     0.135 A 
ATOM     68  C   UNL A   1      40.145  29.719  30.337  1.00  0.00     0.135 A 
ATOM     69  F   UNL A   1      39.714  29.360  26.744  1.00  0.00    -0.206 F 
ATOM     70  C   UNL A   1      38.184  30.060  28.381  1.00  0.00     0.059 A 
ATOM     71  C   UNL A   1      38.878  30.163  30.708  1.00  0.00     0.059 A 
ATOM     72  F   UNL A   1      41.074  29.572  31.293  1.00  0.00    -0.206 F 
ATOM     73  C   UNL A   1      37.910  30.347  29.719  1.00  0.00     0.060 A 
BRANCH  73  74
ATOM     74  S   UNL A   1      36.271  30.961  30.165  1.00  0.00     0.124 S 
ATOM     75  O   UNL A   1      35.710  29.804  30.853  1.00  0.00    -0.237 OA
ATOM     76  O   UNL A   1      36.578  32.112  31.009  1.00  0.00    -0.237 OA
ATOM     77  O   UNL A   1      35.672  31.281  28.872  1.00  0.00    -0.744 OA
ENDBRANCH  73  74
ENDBRANCH  52  66
BRANCH  53  78
ATOM     78  C   UNL A   1      49.677  26.720  26.283  1.00  0.00     0.058 A 
ATOM     79  C   UNL A   1      50.557  26.178  27.228  1.00  0.00     0.135 A 
ATOM     80  C   UNL A   1      50.109  26.807  24.950  1.00  0.00     0.135 A 
ATOM     81  F   UNL A   1      50.184  26.078  28.513  1.00  0.00    -0.206 F 
ATOM     82  C   UNL A   1      51.820  25.726  26.863  1.00  0.00     0.059 A 
ATOM     83  C   UNL A   1      51.358  26.342  24.558  1.00  0.00     0.059 A 
ATOM     84  F   UNL A   1      49.290  27.301  24.008  1.00  0.00    -0.206 F 
ATOM     85  C   UNL A   1      52.209  25.806  25.524  1.00  0.00     0.060 A 
BRANCH  85  86
ATOM     86  S   UNL A   1      53.813  25.132  25.038  1.00  0.00     0.124 S 
ATOM     87  O   UNL A   1      54.113  25.924  23.852  1.00  0.00    -0.237 OA
ATOM     88  O   UNL A   1      54.634  25.406  26.214  1.00  0.00    -0.237 OA
ATOM     89  O   UNL A   1      53.522  23.721  24.803  1.00  0.00    -0.744 OA
ENDBRANCH  85  86
ENDBRANCH  53  78
BRANCH  65  90
ATOM     90  C   UNL A   1      43.621  23.322  26.879  1.00  0.00     0.058 A 
ATOM     91  C   UNL A   1      43.344  22.468  27.956  1.00  0.00     0.135 A 
ATOM     92  C   UNL A   1      43.494  22.811  25.579  1.00  0.00     0.135 A 
ATOM     93  F   UNL A   1      43.462  22.913  29.218  1.00  0.00    -0.206 F 
ATOM     94  C   UNL A   1      42.967  21.146  27.753  1.00  0.00     0.059 A 
ATOM     95  C   UNL A   1      43.102  21.496  25.351  1.00  0.00     0.059 A 
ATOM     96  F   UNL A   1      43.743  23.593  24.516  1.00  0.00    -0.206 F 
ATOM     97  C   UNL A   1      42.850  20.669  26.446  1.00  0.00     0.060 A 
BRANCH  97  98
ATOM     98  S   UNL A   1      42.326  18.960  26.187  1.00  0.00     0.124 S 
ATOM     99  O   UNL A   1      43.205  18.547  25.099  1.00  0.00    -0.237 OA
ATOM    100  O   UNL A   1      42.591  18.346  27.484  1.00  0.00    -0.237 OA
ATOM    101  O   UNL A   1      40.914  19.091  25.840  1.00  0.00    -0.744 OA
ENDBRANCH  97  98
ENDBRANCH  65  90
ENDBRANCH  39  40
ENDBRANCH  32  34
ENDBRANCH  31  32
ENDBRANCH  30  31
ENDBRANCH   1  30
TORSDOF 20
ENDMDL
