MODEL 1
REMARK VINA RESULT:     -13.3      0.000      0.000
REMARK SMILES O=C(OCCOC(=O)c1cc(-c2ccc(N3C(=O)[C@@H]4CC=CC[C@H]4C3=O)cc2)nc2c(Cl)cccc12)c1ccc(-c2c3nc(c(-c4c(F)cc(S(=O)(=O)[O-])cc4F)c4ccc([nH]4)c(-c4c(F)cc(S(=O)(=O)[O-])cc4F)c4nc(c(-c5c(F)cc(S(=O)(=O)[O-])cc5F)c5ccc2[nH]5)C=C4)C=C3)cc1
REMARK SMILES IDX 4 1 3 2 2 3 1 4 37 5 38 6 102 7 39 8 101 9 40 10 41 11 42 12
REMARK SMILES IDX 95 13 43 14 100 15 94 16 96 17 44 18 99 19 93 20 92 21 45 23
REMARK SMILES IDX 79 24 58 25 78 26 59 27 62 28 77 29 97 30 60 31 61 32 76 34
REMARK SMILES IDX 98 35 63 36 46 37 47 38 56 39 48 40 49 41 55 42 57 43 50 44
REMARK SMILES IDX 51 45 52 46 53 47 54 48 80 49 81 50 90 51 82 52 83 53 89 54
REMARK SMILES IDX 91 55 84 56 85 57 86 58 87 59 88 60 64 61 65 62 74 63 66 64
REMARK SMILES IDX 67 65 73 66 75 67 68 68 69 69 70 70 71 71 72 72 5 73 6 74
REMARK SMILES IDX 7 75 8 76 9 77 10 78 36 79 11 80 30 81 35 82 29 83 31 84
REMARK SMILES IDX 34 85 32 86 33 87 12 88 13 89 28 90 14 91 27 92 15 93 16 94
REMARK SMILES IDX 17 95 25 96 18 97 19 98 24 99 26 100 20 101 23 102 21 103
REMARK SMILES IDX 22 104
REMARK H PARENT 96 22 62 33
REMARK Flexibility Score: inf
ROOT
ATOM      1  C   UNL A   1      41.339  22.044  26.114  1.00  0.00     0.275 C 
ENDROOT
BRANCH   1   2
ATOM      2  O   UNL A   1      41.991  23.103  26.827  1.00  0.00    -0.458 OA
BRANCH   2   3
ATOM      3  C   UNL A   1      42.066  24.421  26.540  1.00  0.00     0.338 C 
ATOM      4  O   UNL A   1      42.304  24.737  25.374  1.00  0.00    -0.246 OA
BRANCH   3   5
ATOM      5  C   UNL A   1      42.006  25.527  27.560  1.00  0.00     0.060 A 
ATOM      6  C   UNL A   1      42.913  26.572  27.757  1.00  0.00     0.016 A 
ATOM      7  C   UNL A   1      40.869  25.515  28.379  1.00  0.00     0.016 A 
ATOM      8  C   UNL A   1      42.659  27.601  28.677  1.00  0.00     0.010 A 
ATOM      9  C   UNL A   1      40.579  26.561  29.261  1.00  0.00     0.010 A 
ATOM     10  C   UNL A   1      41.484  27.611  29.428  1.00  0.00    -0.014 A 
BRANCH  10  11
ATOM     11  C   UNL A   1      41.271  28.598  30.514  1.00  0.00     0.031 A 
ATOM     12  C   UNL A   1      42.075  28.443  31.774  1.00  0.00     0.074 A 
ATOM     13  C   UNL A   1      40.397  29.616  30.391  1.00  0.00     0.049 A 
ATOM     14  N   UNL A   1      42.038  29.155  32.866  1.00  0.00    -0.248 NA
ATOM     15  C   UNL A   1      43.074  27.360  31.795  1.00  0.00     0.031 C 
ATOM     16  C   UNL A   1      39.639  29.941  29.187  1.00  0.00     0.029 A 
ATOM     17  N   UNL A   1      39.980  30.559  31.301  1.00  0.00    -0.354 N 
ATOM     18  C   UNL A   1      43.025  28.628  33.687  1.00  0.00     0.074 A 
ATOM     19  C   UNL A   1      43.589  27.486  33.007  1.00  0.00     0.031 C 
ATOM     20  C   UNL A   1      38.801  30.958  29.451  1.00  0.00     0.029 A 
ATOM     21  C   UNL A   1      38.941  31.340  30.847  1.00  0.00     0.049 A 
ATOM     22  H   UNL A   1      40.386  30.666  32.192  1.00  0.00     0.167 HD
ATOM     23  C   UNL A   1      43.455  29.090  34.882  1.00  0.00     0.037 A 
ATOM     24  C   UNL A   1      38.171  32.240  31.488  1.00  0.00     0.037 A 
ATOM     25  C   UNL A   1      42.883  30.228  35.545  1.00  0.00     0.049 A 
ATOM     26  C   UNL A   1      38.536  32.612  32.891  1.00  0.00     0.074 A 
ATOM     27  C   UNL A   1      43.275  30.818  36.731  1.00  0.00     0.029 A 
ATOM     28  N   UNL A   1      41.778  30.933  35.088  1.00  0.00    -0.354 N 
ATOM     29  N   UNL A   1      39.519  32.153  33.626  1.00  0.00    -0.248 NA
ATOM     30  C   UNL A   1      37.733  33.661  33.533  1.00  0.00     0.031 C 
ATOM     31  C   UNL A   1      42.367  31.842  37.024  1.00  0.00     0.029 A 
ATOM     32  C   UNL A   1      41.443  31.923  35.993  1.00  0.00     0.049 A 
ATOM     33  H   UNL A   1      41.303  30.753  34.244  1.00  0.00     0.167 HD
ATOM     34  C   UNL A   1      39.490  32.892  34.798  1.00  0.00     0.074 A 
ATOM     35  C   UNL A   1      38.379  33.818  34.681  1.00  0.00     0.031 C 
ATOM     36  C   UNL A   1      40.330  32.829  35.859  1.00  0.00     0.037 A 
BRANCH  23  37
ATOM     37  C   UNL A   1      44.588  28.355  35.531  1.00  0.00     0.058 A 
ATOM     38  C   UNL A   1      45.929  28.676  35.255  1.00  0.00     0.135 A 
ATOM     39  C   UNL A   1      44.335  27.315  36.438  1.00  0.00     0.135 A 
ATOM     40  F   UNL A   1      46.227  29.642  34.372  1.00  0.00    -0.206 F 
ATOM     41  C   UNL A   1      46.978  27.975  35.840  1.00  0.00     0.059 A 
ATOM     42  C   UNL A   1      45.369  26.617  37.052  1.00  0.00     0.059 A 
ATOM     43  F   UNL A   1      43.073  26.961  36.722  1.00  0.00    -0.206 F 
ATOM     44  C   UNL A   1      46.687  26.947  36.738  1.00  0.00     0.060 A 
BRANCH  44  45
ATOM     45  S   UNL A   1      48.060  26.056  37.498  1.00  0.00     0.124 S 
ATOM     46  O   UNL A   1      49.206  26.653  36.820  1.00  0.00    -0.237 OA
ATOM     47  O   UNL A   1      47.911  26.400  38.909  1.00  0.00    -0.237 OA
ATOM     48  O   UNL A   1      47.789  24.662  37.163  1.00  0.00    -0.744 OA
ENDBRANCH  44  45
ENDBRANCH  23  37
BRANCH  24  49
ATOM     49  C   UNL A   1      36.976  32.833  30.831  1.00  0.00     0.058 A 
ATOM     50  C   UNL A   1      35.696  32.288  30.983  1.00  0.00     0.135 A 
ATOM     51  C   UNL A   1      37.112  33.959  30.005  1.00  0.00     0.135 A 
ATOM     52  F   UNL A   1      35.519  31.192  31.736  1.00  0.00    -0.206 F 
ATOM     53  C   UNL A   1      34.588  32.845  30.347  1.00  0.00     0.059 A 
ATOM     54  C   UNL A   1      36.018  34.550  29.379  1.00  0.00     0.059 A 
ATOM     55  F   UNL A   1      38.327  34.480  29.786  1.00  0.00    -0.206 F 
ATOM     56  C   UNL A   1      34.757  33.980  29.551  1.00  0.00     0.060 A 
BRANCH  56  57
ATOM     57  S   UNL A   1      33.305  34.730  28.779  1.00  0.00     0.124 S 
ATOM     58  O   UNL A   1      32.818  33.640  27.943  1.00  0.00    -0.237 OA
ATOM     59  O   UNL A   1      32.479  35.064  29.936  1.00  0.00    -0.237 OA
ATOM     60  O   UNL A   1      33.859  35.878  28.069  1.00  0.00    -0.744 OA
ENDBRANCH  56  57
ENDBRANCH  24  49
BRANCH  36  61
ATOM     61  C   UNL A   1      40.101  33.811  36.966  1.00  0.00     0.058 A 
ATOM     62  C   UNL A   1      40.734  35.061  36.982  1.00  0.00     0.135 A 
ATOM     63  C   UNL A   1      39.182  33.518  37.987  1.00  0.00     0.135 A 
ATOM     64  F   UNL A   1      41.632  35.376  36.035  1.00  0.00    -0.206 F 
ATOM     65  C   UNL A   1      40.469  35.989  37.981  1.00  0.00     0.059 A 
ATOM     66  C   UNL A   1      38.881  34.443  38.978  1.00  0.00     0.059 A 
ATOM     67  F   UNL A   1      38.551  32.333  38.010  1.00  0.00    -0.206 F 
ATOM     68  C   UNL A   1      39.534  35.674  38.968  1.00  0.00     0.060 A 
BRANCH  68  69
ATOM     69  S   UNL A   1      39.150  36.915  40.218  1.00  0.00     0.124 S 
ATOM     70  O   UNL A   1      38.231  36.186  41.084  1.00  0.00    -0.237 OA
ATOM     71  O   UNL A   1      40.464  37.203  40.785  1.00  0.00    -0.237 OA
ATOM     72  O   UNL A   1      38.556  38.004  39.447  1.00  0.00    -0.744 OA
ENDBRANCH  68  69
ENDBRANCH  36  61
ENDBRANCH  10  11
ENDBRANCH   3   5
ENDBRANCH   2   3
ENDBRANCH   1   2
BRANCH   1  73
ATOM     73  C   UNL A   1      39.934  21.720  26.627  1.00  0.00     0.275 C 
BRANCH  73  74
ATOM     74  O   UNL A   1      38.894  22.026  25.682  1.00  0.00    -0.458 OA
BRANCH  74  75
ATOM     75  C   UNL A   1      38.091  23.074  26.004  1.00  0.00     0.339 C 
ATOM     76  O   UNL A   1      38.422  24.080  26.605  1.00  0.00    -0.246 OA
BRANCH  75  77
ATOM     77  C   UNL A   1      36.734  22.888  25.438  1.00  0.00     0.071 A 
ATOM     78  C   UNL A   1      35.945  24.043  25.329  1.00  0.00     0.045 A 
ATOM     79  C   UNL A   1      36.215  21.609  25.123  1.00  0.00     0.016 A 
ATOM     80  C   UNL A   1      34.648  23.911  24.872  1.00  0.00     0.072 A 
ATOM     81  C   UNL A   1      34.857  21.570  24.747  1.00  0.00     0.090 A 
ATOM     82  C   UNL A   1      36.946  20.390  25.190  1.00  0.00     0.011 A 
ATOM     83  N   UNL A   1      34.122  22.697  24.621  1.00  0.00    -0.246 NA
ATOM     84  C   UNL A   1      34.267  20.320  24.528  1.00  0.00     0.067 A 
ATOM     85  C   UNL A   1      36.341  19.164  24.920  1.00  0.00     0.002 A 
ATOM     86  Cl  UNL A   1      32.576  20.204  24.168  1.00  0.00    -0.082 Cl
ATOM     87  C   UNL A   1      34.989  19.127  24.615  1.00  0.00     0.023 A 
BRANCH  80  88
ATOM     88  C   UNL A   1      33.719  25.033  24.657  1.00  0.00     0.000 A 
ATOM     89  C   UNL A   1      32.663  25.325  25.533  1.00  0.00     0.012 A 
ATOM     90  C   UNL A   1      33.903  25.906  23.579  1.00  0.00     0.012 A 
ATOM     91  C   UNL A   1      31.815  26.424  25.340  1.00  0.00     0.027 A 
ATOM     92  C   UNL A   1      33.023  26.971  23.346  1.00  0.00     0.027 A 
ATOM     93  C   UNL A   1      31.958  27.235  24.216  1.00  0.00     0.052 A 
BRANCH  93  94
ATOM     94  N   UNL A   1      31.023  28.254  23.930  1.00  0.00    -0.250 N 
ATOM     95  C   UNL A   1      30.129  28.262  22.865  1.00  0.00     0.238 C 
ATOM     96  C   UNL A   1      30.979  29.456  24.625  1.00  0.00     0.238 C 
ATOM     97  O   UNL A   1      30.004  27.480  21.937  1.00  0.00    -0.274 OA
ATOM     98  C   UNL A   1      29.216  29.433  23.118  1.00  0.00     0.096 C 
ATOM     99  C   UNL A   1      30.203  30.393  23.749  1.00  0.00     0.096 C 
ATOM    100  O   UNL A   1      31.551  29.797  25.649  1.00  0.00    -0.274 OA
ATOM    101  C   UNL A   1      28.501  30.092  21.955  1.00  0.00     0.041 C 
ATOM    102  C   UNL A   1      29.506  31.568  24.396  1.00  0.00     0.041 C 
ATOM    103  C   UNL A   1      28.046  31.483  22.345  1.00  0.00    -0.030 C 
ATOM    104  C   UNL A   1      28.474  32.130  23.446  1.00  0.00    -0.030 C 
ENDBRANCH  93  94
ENDBRANCH  80  88
ENDBRANCH  75  77
ENDBRANCH  74  75
ENDBRANCH  73  74
ENDBRANCH   1  73
TORSDOF 16
ENDMDL
MODEL 2
REMARK VINA RESULT:     -13.3      6.050     12.049
REMARK SMILES O=C(OCCOC(=O)c1cc(-c2ccc(N3C(=O)[C@@H]4CC=CC[C@H]4C3=O)cc2)nc2c(Cl)cccc12)c1ccc(-c2c3nc(c(-c4c(F)cc(S(=O)(=O)[O-])cc4F)c4ccc([nH]4)c(-c4c(F)cc(S(=O)(=O)[O-])cc4F)c4nc(c(-c5c(F)cc(S(=O)(=O)[O-])cc5F)c5ccc2[nH]5)C=C4)C=C3)cc1
REMARK SMILES IDX 4 1 3 2 2 3 1 4 37 5 38 6 102 7 39 8 101 9 40 10 41 11 42 12
REMARK SMILES IDX 95 13 43 14 100 15 94 16 96 17 44 18 99 19 93 20 92 21 45 23
REMARK SMILES IDX 79 24 58 25 78 26 59 27 62 28 77 29 97 30 60 31 61 32 76 34
REMARK SMILES IDX 98 35 63 36 46 37 47 38 56 39 48 40 49 41 55 42 57 43 50 44
REMARK SMILES IDX 51 45 52 46 53 47 54 48 80 49 81 50 90 51 82 52 83 53 89 54
REMARK SMILES IDX 91 55 84 56 85 57 86 58 87 59 88 60 64 61 65 62 74 63 66 64
REMARK SMILES IDX 67 65 73 66 75 67 68 68 69 69 70 70 71 71 72 72 5 73 6 74
REMARK SMILES IDX 7 75 8 76 9 77 10 78 36 79 11 80 30 81 35 82 29 83 31 84
REMARK SMILES IDX 34 85 32 86 33 87 12 88 13 89 28 90 14 91 27 92 15 93 16 94
REMARK SMILES IDX 17 95 25 96 18 97 19 98 24 99 26 100 20 101 23 102 21 103
REMARK SMILES IDX 22 104
REMARK H PARENT 96 22 62 33
REMARK Flexibility Score: inf
ROOT
ATOM      1  C   UNL A   1      34.682  32.309  29.697  1.00  0.00     0.275 C 
ENDROOT
BRANCH   1   2
ATOM      2  O   UNL A   1      36.021  32.075  30.154  1.00  0.00    -0.458 OA
BRANCH   2   3
ATOM      3  C   UNL A   1      36.624  30.919  30.508  1.00  0.00     0.338 C 
ATOM      4  O   UNL A   1      36.115  30.267  31.420  1.00  0.00    -0.246 OA
BRANCH   3   5
ATOM      5  C   UNL A   1      37.940  30.434  29.959  1.00  0.00     0.060 A 
ATOM      6  C   UNL A   1      38.274  30.160  28.630  1.00  0.00     0.016 A 
ATOM      7  C   UNL A   1      38.958  30.282  30.910  1.00  0.00     0.016 A 
ATOM      8  C   UNL A   1      39.585  29.826  28.256  1.00  0.00     0.010 A 
ATOM      9  C   UNL A   1      40.278  30.002  30.544  1.00  0.00     0.010 A 
ATOM     10  C   UNL A   1      40.600  29.755  29.208  1.00  0.00    -0.014 A 
BRANCH  10  11
ATOM     11  C   UNL A   1      41.951  29.251  28.860  1.00  0.00     0.031 A 
ATOM     12  C   UNL A   1      43.064  30.253  28.733  1.00  0.00     0.074 A 
ATOM     13  C   UNL A   1      42.197  27.940  28.669  1.00  0.00     0.049 A 
ATOM     14  N   UNL A   1      44.312  30.058  28.405  1.00  0.00    -0.248 NA
ATOM     15  C   UNL A   1      42.736  31.655  29.045  1.00  0.00     0.031 C 
ATOM     16  C   UNL A   1      41.234  26.861  28.868  1.00  0.00     0.029 A 
ATOM     17  N   UNL A   1      43.331  27.289  28.244  1.00  0.00    -0.354 N 
ATOM     18  C   UNL A   1      44.920  31.301  28.502  1.00  0.00     0.074 A 
ATOM     19  C   UNL A   1      43.894  32.260  28.838  1.00  0.00     0.031 C 
ATOM     20  C   UNL A   1      41.792  25.695  28.499  1.00  0.00     0.029 A 
ATOM     21  C   UNL A   1      43.139  25.946  28.013  1.00  0.00     0.049 A 
ATOM     22  H   UNL A   1      44.197  27.741  28.118  1.00  0.00     0.167 HD
ATOM     23  C   UNL A   1      46.230  31.605  28.373  1.00  0.00     0.037 A 
ATOM     24  C   UNL A   1      43.946  25.026  27.448  1.00  0.00     0.037 A 
ATOM     25  C   UNL A   1      47.240  30.640  28.039  1.00  0.00     0.049 A 
ATOM     26  C   UNL A   1      45.352  25.422  27.123  1.00  0.00     0.074 A 
ATOM     27  C   UNL A   1      48.604  30.824  27.936  1.00  0.00     0.029 A 
ATOM     28  N   UNL A   1      46.986  29.311  27.730  1.00  0.00    -0.354 N 
ATOM     29  N   UNL A   1      45.930  26.587  27.291  1.00  0.00    -0.248 NA
ATOM     30  C   UNL A   1      46.234  24.375  26.593  1.00  0.00     0.031 C 
ATOM     31  C   UNL A   1      49.171  29.620  27.502  1.00  0.00     0.029 A 
ATOM     32  C   UNL A   1      48.164  28.673  27.388  1.00  0.00     0.049 A 
ATOM     33  H   UNL A   1      46.098  28.885  27.751  1.00  0.00     0.167 HD
ATOM     34  C   UNL A   1      47.257  26.403  26.937  1.00  0.00     0.074 A 
ATOM     35  C   UNL A   1      47.393  25.017  26.530  1.00  0.00     0.031 C 
ATOM     36  C   UNL A   1      48.275  27.295  26.979  1.00  0.00     0.037 A 
BRANCH  23  37
ATOM     37  C   UNL A   1      46.625  33.035  28.590  1.00  0.00     0.058 A 
ATOM     38  C   UNL A   1      46.720  33.943  27.522  1.00  0.00     0.135 A 
ATOM     39  C   UNL A   1      46.915  33.504  29.879  1.00  0.00     0.135 A 
ATOM     40  F   UNL A   1      46.483  33.538  26.264  1.00  0.00    -0.206 F 
ATOM     41  C   UNL A   1      47.111  35.263  27.724  1.00  0.00     0.059 A 
ATOM     42  C   UNL A   1      47.285  34.825  30.107  1.00  0.00     0.059 A 
ATOM     43  F   UNL A   1      46.854  32.672  30.930  1.00  0.00    -0.206 F 
ATOM     44  C   UNL A   1      47.391  35.694  29.021  1.00  0.00     0.060 A 
BRANCH  44  45
ATOM     45  S   UNL A   1      47.885  37.412  29.268  1.00  0.00     0.124 S 
ATOM     46  O   UNL A   1      46.599  38.099  29.197  1.00  0.00    -0.237 OA
ATOM     47  O   UNL A   1      48.508  37.370  30.587  1.00  0.00    -0.237 OA
ATOM     48  O   UNL A   1      48.795  37.668  28.155  1.00  0.00    -0.744 OA
ENDBRANCH  44  45
ENDBRANCH  23  37
BRANCH  24  49
ATOM     49  C   UNL A   1      43.449  23.660  27.134  1.00  0.00     0.058 A 
ATOM     50  C   UNL A   1      43.065  23.288  25.840  1.00  0.00     0.135 A 
ATOM     51  C   UNL A   1      43.326  22.703  28.153  1.00  0.00     0.135 A 
ATOM     52  F   UNL A   1      43.132  24.177  24.839  1.00  0.00    -0.206 F 
ATOM     53  C   UNL A   1      42.584  22.009  25.564  1.00  0.00     0.059 A 
ATOM     54  C   UNL A   1      42.874  21.411  27.898  1.00  0.00     0.059 A 
ATOM     55  F   UNL A   1      43.629  23.034  29.415  1.00  0.00    -0.206 F 
ATOM     56  C   UNL A   1      42.498  21.074  26.599  1.00  0.00     0.060 A 
BRANCH  56  57
ATOM     57  S   UNL A   1      41.932  19.400  26.219  1.00  0.00     0.124 S 
ATOM     58  O   UNL A   1      42.308  18.679  27.428  1.00  0.00    -0.237 OA
ATOM     59  O   UNL A   1      40.499  19.599  26.014  1.00  0.00    -0.237 OA
ATOM     60  O   UNL A   1      42.682  19.059  25.015  1.00  0.00    -0.744 OA
ENDBRANCH  56  57
ENDBRANCH  24  49
BRANCH  36  61
ATOM     61  C   UNL A   1      49.635  26.792  26.606  1.00  0.00     0.058 A 
ATOM     62  C   UNL A   1      50.473  26.173  27.544  1.00  0.00     0.135 A 
ATOM     63  C   UNL A   1      50.074  26.874  25.274  1.00  0.00     0.135 A 
ATOM     64  F   UNL A   1      50.101  26.089  28.831  1.00  0.00    -0.206 F 
ATOM     65  C   UNL A   1      51.708  25.656  27.175  1.00  0.00     0.059 A 
ATOM     66  C   UNL A   1      51.291  26.336  24.878  1.00  0.00     0.059 A 
ATOM     67  F   UNL A   1      49.303  27.457  24.342  1.00  0.00    -0.206 F 
ATOM     68  C   UNL A   1      52.104  25.734  25.838  1.00  0.00     0.060 A 
BRANCH  68  69
ATOM     69  S   UNL A   1      53.678  24.997  25.362  1.00  0.00     0.124 S 
ATOM     70  O   UNL A   1      53.316  23.591  25.225  1.00  0.00    -0.237 OA
ATOM     71  O   UNL A   1      53.986  25.698  24.119  1.00  0.00    -0.237 OA
ATOM     72  O   UNL A   1      54.556  25.313  26.486  1.00  0.00    -0.744 OA
ENDBRANCH  68  69
ENDBRANCH  36  61
ENDBRANCH  10  11
ENDBRANCH   3   5
ENDBRANCH   2   3
ENDBRANCH   1   2
BRANCH   1  73
ATOM     73  C   UNL A   1      34.499  32.139  28.187  1.00  0.00     0.275 C 
BRANCH  73  74
ATOM     74  O   UNL A   1      33.636  31.045  27.834  1.00  0.00    -0.458 OA
BRANCH  74  75
ATOM     75  C   UNL A   1      34.252  29.947  27.323  1.00  0.00     0.339 C 
ATOM     76  O   UNL A   1      35.392  29.585  27.552  1.00  0.00    -0.246 OA
BRANCH  75  77
ATOM     77  C   UNL A   1      33.312  29.156  26.493  1.00  0.00     0.071 A 
ATOM     78  C   UNL A   1      33.659  27.815  26.271  1.00  0.00     0.045 A 
ATOM     79  C   UNL A   1      32.183  29.738  25.867  1.00  0.00     0.016 A 
ATOM     80  C   UNL A   1      32.851  27.055  25.448  1.00  0.00     0.072 A 
ATOM     81  C   UNL A   1      31.472  28.905  24.980  1.00  0.00     0.090 A 
ATOM     82  C   UNL A   1      31.750  31.081  26.047  1.00  0.00     0.011 A 
ATOM     83  N   UNL A   1      31.807  27.608  24.802  1.00  0.00    -0.246 NA
ATOM     84  C   UNL A   1      30.412  29.462  24.256  1.00  0.00     0.067 A 
ATOM     85  C   UNL A   1      30.661  31.593  25.345  1.00  0.00     0.002 A 
ATOM     86  Cl  UNL A   1      29.570  28.515  23.074  1.00  0.00    -0.082 Cl
ATOM     87  C   UNL A   1      30.007  30.788  24.425  1.00  0.00     0.023 A 
BRANCH  80  88
ATOM     88  C   UNL A   1      33.057  25.626  25.160  1.00  0.00     0.000 A 
ATOM     89  C   UNL A   1      34.005  25.164  24.236  1.00  0.00     0.012 A 
ATOM     90  C   UNL A   1      32.341  24.654  25.867  1.00  0.00     0.012 A 
ATOM     91  C   UNL A   1      34.222  23.799  24.007  1.00  0.00     0.027 A 
ATOM     92  C   UNL A   1      32.508  23.289  25.601  1.00  0.00     0.027 A 
ATOM     93  C   UNL A   1      33.441  22.844  24.656  1.00  0.00     0.052 A 
BRANCH  93  94
ATOM     94  N   UNL A   1      33.545  21.474  24.328  1.00  0.00    -0.250 N 
ATOM     95  C   UNL A   1      32.663  20.762  23.522  1.00  0.00     0.238 C 
ATOM     96  C   UNL A   1      34.493  20.631  24.894  1.00  0.00     0.238 C 
ATOM     97  O   UNL A   1      31.614  21.108  23.006  1.00  0.00    -0.274 OA
ATOM     98  C   UNL A   1      33.317  19.422  23.302  1.00  0.00     0.096 C 
ATOM     99  C   UNL A   1      33.986  19.242  24.649  1.00  0.00     0.096 C 
ATOM    100  O   UNL A   1      35.464  20.889  25.588  1.00  0.00    -0.274 OA
ATOM    101  C   UNL A   1      32.461  18.216  22.967  1.00  0.00     0.041 C 
ATOM    102  C   UNL A   1      34.984  18.106  24.630  1.00  0.00     0.041 C 
ATOM    103  C   UNL A   1      33.223  16.940  23.257  1.00  0.00    -0.030 C 
ATOM    104  C   UNL A   1      34.362  16.895  23.977  1.00  0.00    -0.030 C 
ENDBRANCH  93  94
ENDBRANCH  80  88
ENDBRANCH  75  77
ENDBRANCH  74  75
ENDBRANCH  73  74
ENDBRANCH   1  73
TORSDOF 16
ENDMDL
MODEL 3
REMARK VINA RESULT:     -12.9      0.659      7.809
REMARK SMILES O=C(OCCOC(=O)c1cc(-c2ccc(N3C(=O)[C@@H]4CC=CC[C@H]4C3=O)cc2)nc2c(Cl)cccc12)c1ccc(-c2c3nc(c(-c4c(F)cc(S(=O)(=O)[O-])cc4F)c4ccc([nH]4)c(-c4c(F)cc(S(=O)(=O)[O-])cc4F)c4nc(c(-c5c(F)cc(S(=O)(=O)[O-])cc5F)c5ccc2[nH]5)C=C4)C=C3)cc1
REMARK SMILES IDX 4 1 3 2 2 3 1 4 37 5 38 6 102 7 39 8 101 9 40 10 41 11 42 12
REMARK SMILES IDX 95 13 43 14 100 15 94 16 96 17 44 18 99 19 93 20 92 21 45 23
REMARK SMILES IDX 79 24 58 25 78 26 59 27 62 28 77 29 97 30 60 31 61 32 76 34
REMARK SMILES IDX 98 35 63 36 46 37 47 38 56 39 48 40 49 41 55 42 57 43 50 44
REMARK SMILES IDX 51 45 52 46 53 47 54 48 80 49 81 50 90 51 82 52 83 53 89 54
REMARK SMILES IDX 91 55 84 56 85 57 86 58 87 59 88 60 64 61 65 62 74 63 66 64
REMARK SMILES IDX 67 65 73 66 75 67 68 68 69 69 70 70 71 71 72 72 5 73 6 74
REMARK SMILES IDX 7 75 8 76 9 77 10 78 36 79 11 80 30 81 35 82 29 83 31 84
REMARK SMILES IDX 34 85 32 86 33 87 12 88 13 89 28 90 14 91 27 92 15 93 16 94
REMARK SMILES IDX 17 95 25 96 18 97 19 98 24 99 26 100 20 101 23 102 21 103
REMARK SMILES IDX 22 104
REMARK H PARENT 96 22 62 33
REMARK Flexibility Score: inf
ROOT
ATOM      1  C   UNL A   1      41.685  22.545  26.109  1.00  0.00     0.275 C 
ENDROOT
BRANCH   1   2
ATOM      2  O   UNL A   1      42.377  23.631  26.739  1.00  0.00    -0.458 OA
BRANCH   2   3
ATOM      3  C   UNL A   1      42.209  24.964  26.594  1.00  0.00     0.338 C 
ATOM      4  O   UNL A   1      42.257  25.423  25.453  1.00  0.00    -0.246 OA
BRANCH   3   5
ATOM      5  C   UNL A   1      42.095  25.944  27.732  1.00  0.00     0.060 A 
ATOM      6  C   UNL A   1      42.956  26.995  28.059  1.00  0.00     0.016 A 
ATOM      7  C   UNL A   1      40.952  25.793  28.530  1.00  0.00     0.016 A 
ATOM      8  C   UNL A   1      42.651  27.901  29.085  1.00  0.00     0.010 A 
ATOM      9  C   UNL A   1      40.612  26.719  29.521  1.00  0.00     0.010 A 
ATOM     10  C   UNL A   1      41.472  27.778  29.818  1.00  0.00    -0.014 A 
BRANCH  10  11
ATOM     11  C   UNL A   1      41.208  28.627  31.006  1.00  0.00     0.031 A 
ATOM     12  C   UNL A   1      40.156  29.693  30.889  1.00  0.00     0.074 A 
ATOM     13  C   UNL A   1      41.873  28.456  32.166  1.00  0.00     0.049 A 
ATOM     14  N   UNL A   1      39.777  30.574  31.773  1.00  0.00    -0.248 NA
ATOM     15  C   UNL A   1      39.412  29.756  29.619  1.00  0.00     0.031 C 
ATOM     16  C   UNL A   1      42.834  27.393  32.443  1.00  0.00     0.029 A 
ATOM     17  N   UNL A   1      41.855  29.189  33.328  1.00  0.00    -0.354 N 
ATOM     18  C   UNL A   1      38.734  31.271  31.180  1.00  0.00     0.074 A 
ATOM     19  C   UNL A   1      38.592  30.772  29.833  1.00  0.00     0.031 C 
ATOM     20  C   UNL A   1      43.366  27.584  33.662  1.00  0.00     0.029 A 
ATOM     21  C   UNL A   1      42.805  28.792  34.242  1.00  0.00     0.049 A 
ATOM     22  H   UNL A   1      41.223  29.927  33.492  1.00  0.00     0.167 HD
ATOM     23  C   UNL A   1      37.934  32.210  31.731  1.00  0.00     0.037 A 
ATOM     24  C   UNL A   1      43.200  29.354  35.402  1.00  0.00     0.037 A 
ATOM     25  C   UNL A   1      38.089  32.696  33.073  1.00  0.00     0.049 A 
ATOM     26  C   UNL A   1      42.426  30.526  35.920  1.00  0.00     0.074 A 
ATOM     27  C   UNL A   1      37.303  33.605  33.754  1.00  0.00     0.029 A 
ATOM     28  N   UNL A   1      39.117  32.329  33.930  1.00  0.00    -0.354 N 
ATOM     29  N   UNL A   1      41.395  31.126  35.377  1.00  0.00    -0.248 NA
ATOM     30  C   UNL A   1      42.822  31.059  37.229  1.00  0.00     0.031 C 
ATOM     31  C   UNL A   1      37.893  33.836  35.002  1.00  0.00     0.029 A 
ATOM     32  C   UNL A   1      39.014  33.029  35.118  1.00  0.00     0.049 A 
ATOM     33  H   UNL A   1      39.817  31.666  33.722  1.00  0.00     0.167 HD
ATOM     34  C   UNL A   1      40.983  32.074  36.299  1.00  0.00     0.074 A 
ATOM     35  C   UNL A   1      41.888  31.980  37.429  1.00  0.00     0.031 C 
ATOM     36  C   UNL A   1      39.930  32.924  36.227  1.00  0.00     0.037 A 
BRANCH  23  37
ATOM     37  C   UNL A   1      36.836  32.762  30.873  1.00  0.00     0.058 A 
ATOM     38  C   UNL A   1      37.074  33.785  29.939  1.00  0.00     0.135 A 
ATOM     39  C   UNL A   1      35.529  32.266  30.985  1.00  0.00     0.135 A 
ATOM     40  F   UNL A   1      38.300  34.316  29.813  1.00  0.00    -0.206 F 
ATOM     41  C   UNL A   1      36.047  34.311  29.162  1.00  0.00     0.059 A 
ATOM     42  C   UNL A   1      34.492  32.761  30.201  1.00  0.00     0.059 A 
ATOM     43  F   UNL A   1      35.248  31.300  31.872  1.00  0.00    -0.206 F 
ATOM     44  C   UNL A   1      34.760  33.791  29.301  1.00  0.00     0.060 A 
BRANCH  44  45
ATOM     45  S   UNL A   1      33.442  34.478  28.276  1.00  0.00     0.124 S 
ATOM     46  O   UNL A   1      32.860  33.269  27.700  1.00  0.00    -0.237 OA
ATOM     47  O   UNL A   1      32.614  35.171  29.259  1.00  0.00    -0.237 OA
ATOM     48  O   UNL A   1      34.153  35.341  27.339  1.00  0.00    -0.744 OA
ENDBRANCH  44  45
ENDBRANCH  23  37
BRANCH  24  49
ATOM     49  C   UNL A   1      44.385  28.840  36.139  1.00  0.00     0.058 A 
ATOM     50  C   UNL A   1      44.287  27.803  37.073  1.00  0.00     0.135 A 
ATOM     51  C   UNL A   1      45.648  29.414  35.929  1.00  0.00     0.135 A 
ATOM     52  F   UNL A   1      43.096  27.245  37.333  1.00  0.00    -0.206 F 
ATOM     53  C   UNL A   1      45.404  27.344  37.769  1.00  0.00     0.059 A 
ATOM     54  C   UNL A   1      46.784  28.956  36.592  1.00  0.00     0.059 A 
ATOM     55  F   UNL A   1      45.777  30.447  35.086  1.00  0.00    -0.206 F 
ATOM     56  C   UNL A   1      46.651  27.922  37.518  1.00  0.00     0.060 A 
BRANCH  56  57
ATOM     57  S   UNL A   1      48.102  27.278  38.381  1.00  0.00     0.124 S 
ATOM     58  O   UNL A   1      47.564  27.015  39.709  1.00  0.00    -0.237 OA
ATOM     59  O   UNL A   1      48.437  26.101  37.584  1.00  0.00    -0.237 OA
ATOM     60  O   UNL A   1      49.060  28.376  38.288  1.00  0.00    -0.744 OA
ENDBRANCH  56  57
ENDBRANCH  24  49
BRANCH  36  61
ATOM     61  C   UNL A   1      39.677  33.796  37.417  1.00  0.00     0.058 A 
ATOM     62  C   UNL A   1      38.860  33.376  38.476  1.00  0.00     0.135 A 
ATOM     63  C   UNL A   1      40.317  35.041  37.524  1.00  0.00     0.135 A 
ATOM     64  F   UNL A   1      38.216  32.200  38.407  1.00  0.00    -0.206 F 
ATOM     65  C   UNL A   1      38.681  34.166  39.603  1.00  0.00     0.059 A 
ATOM     66  C   UNL A   1      40.174  35.834  38.655  1.00  0.00     0.059 A 
ATOM     67  F   UNL A   1      41.110  35.483  36.535  1.00  0.00    -0.206 F 
ATOM     68  C   UNL A   1      39.349  35.389  39.687  1.00  0.00     0.060 A 
BRANCH  68  69
ATOM     69  S   UNL A   1      39.160  36.373  41.186  1.00  0.00     0.124 S 
ATOM     70  O   UNL A   1      38.032  35.711  41.832  1.00  0.00    -0.237 OA
ATOM     71  O   UNL A   1      40.455  36.202  41.836  1.00  0.00    -0.237 OA
ATOM     72  O   UNL A   1      38.893  37.717  40.680  1.00  0.00    -0.744 OA
ENDBRANCH  68  69
ENDBRANCH  36  61
ENDBRANCH  10  11
ENDBRANCH   3   5
ENDBRANCH   2   3
ENDBRANCH   1   2
BRANCH   1  73
ATOM     73  C   UNL A   1      40.327  22.223  26.737  1.00  0.00     0.275 C 
BRANCH  73  74
ATOM     74  O   UNL A   1      39.220  22.422  25.842  1.00  0.00    -0.458 OA
BRANCH  74  75
ATOM     75  C   UNL A   1      38.337  23.391  26.199  1.00  0.00     0.339 C 
ATOM     76  O   UNL A   1      38.581  24.383  26.863  1.00  0.00    -0.246 OA
BRANCH  75  77
ATOM     77  C   UNL A   1      37.009  23.142  25.590  1.00  0.00     0.071 A 
ATOM     78  C   UNL A   1      36.169  24.258  25.458  1.00  0.00     0.045 A 
ATOM     79  C   UNL A   1      36.563  21.841  25.255  1.00  0.00     0.016 A 
ATOM     80  C   UNL A   1      34.896  24.065  24.958  1.00  0.00     0.072 A 
ATOM     81  C   UNL A   1      35.222  21.737  24.835  1.00  0.00     0.090 A 
ATOM     82  C   UNL A   1      37.350  20.658  25.343  1.00  0.00     0.011 A 
ATOM     83  N   UNL A   1      34.438  22.828  24.688  1.00  0.00    -0.246 NA
ATOM     84  C   UNL A   1      34.700  20.460  24.594  1.00  0.00     0.067 A 
ATOM     85  C   UNL A   1      36.814  19.405  25.051  1.00  0.00     0.002 A 
ATOM     86  Cl  UNL A   1      33.030  20.265  24.179  1.00  0.00    -0.082 Cl
ATOM     87  C   UNL A   1      35.476  19.304  24.702  1.00  0.00     0.023 A 
BRANCH  80  88
ATOM     88  C   UNL A   1      33.920  25.141  24.716  1.00  0.00     0.000 A 
ATOM     89  C   UNL A   1      32.932  25.495  25.646  1.00  0.00     0.012 A 
ATOM     90  C   UNL A   1      33.991  25.909  23.548  1.00  0.00     0.012 A 
ATOM     91  C   UNL A   1      32.039  26.553  25.421  1.00  0.00     0.027 A 
ATOM     92  C   UNL A   1      33.065  26.927  23.289  1.00  0.00     0.027 A 
ATOM     93  C   UNL A   1      32.067  27.253  24.216  1.00  0.00     0.052 A 
BRANCH  93  94
ATOM     94  N   UNL A   1      31.083  28.221  23.913  1.00  0.00    -0.250 N 
ATOM     95  C   UNL A   1      30.211  28.181  22.831  1.00  0.00     0.238 C 
ATOM     96  C   UNL A   1      30.960  29.416  24.609  1.00  0.00     0.238 C 
ATOM     97  O   UNL A   1      30.148  27.396  21.900  1.00  0.00    -0.274 OA
ATOM     98  C   UNL A   1      29.230  29.300  23.068  1.00  0.00     0.096 C 
ATOM     99  C   UNL A   1      30.151  30.311  23.720  1.00  0.00     0.096 C 
ATOM    100  O   UNL A   1      31.493  29.785  25.644  1.00  0.00    -0.274 OA
ATOM    101  C   UNL A   1      28.503  29.922  21.892  1.00  0.00     0.041 C 
ATOM    102  C   UNL A   1      29.378  31.445  24.354  1.00  0.00     0.041 C 
ATOM    103  C   UNL A   1      27.965  31.285  22.275  1.00  0.00    -0.030 C 
ATOM    104  C   UNL A   1      28.336  31.952  23.385  1.00  0.00    -0.030 C 
ENDBRANCH  93  94
ENDBRANCH  80  88
ENDBRANCH  75  77
ENDBRANCH  74  75
ENDBRANCH  73  74
ENDBRANCH   1  73
TORSDOF 16
ENDMDL
