MODEL 1
REMARK VINA RESULT:     -11.1      0.000      0.000
REMARK SMILES C[NH2+][C@@]1(C(=O)OCCOC(=O)c2ccc(-c3c4nc(c(-c5c(F)cc(S(=O)(=O)[O-])cc5F)c5ccc([nH]5)c(-c5c(F)cc(S(=O)(=O)[O-])cc5F)c5nc(c(-c6c(F)cc(S(=O)(=O)[O-])cc6F)c6ccc3[nH]6)C=C5)C=C4)cc2)CC[C@H](Sc2nccc(=O)[nH]2)C1
REMARK SMILES IDX 8 1 7 2 6 3 4 4 5 5 3 6 78 7 89 8 79 9 80 10 2 11 1 12 81 15
REMARK SMILES IDX 82 16 83 17 88 18 84 19 86 20 85 22 87 23 9 24 10 25 11 26
REMARK SMILES IDX 12 27 13 28 77 29 14 30 76 31 15 32 16 33 17 34 70 35 18 36
REMARK SMILES IDX 75 37 69 38 71 39 19 40 74 41 68 42 67 43 20 45 54 46 33 47
REMARK SMILES IDX 53 48 34 49 37 50 52 51 72 52 35 53 36 54 51 56 73 57 38 58
REMARK SMILES IDX 21 59 22 60 31 61 23 62 24 63 30 64 32 65 25 66 26 67 27 68
REMARK SMILES IDX 28 69 29 70 55 71 56 72 65 73 57 74 58 75 64 76 66 77 59 78
REMARK SMILES IDX 60 79 61 80 62 81 63 82 39 83 40 84 49 85 41 86 42 87 48 88
REMARK SMILES IDX 50 89 43 90 44 91 45 92 46 93 47 94
REMARK H PARENT 2 13 2 14 88 21 71 44 37 55
REMARK Flexibility Score: inf
ROOT
ATOM      1  C   UNL A   1      33.071  29.104  27.413  1.00  0.00     0.275 C 
ENDROOT
BRANCH   1   2
ATOM      2  C   UNL A   1      33.455  27.984  26.454  1.00  0.00     0.274 C 
BRANCH   2   3
ATOM      3  O   UNL A   1      32.279  27.295  25.982  1.00  0.00    -0.457 OA
BRANCH   3   4
ATOM      4  C   UNL A   1      32.467  26.286  25.093  1.00  0.00     0.368 C 
ATOM      5  O   UNL A   1      33.564  25.816  24.803  1.00  0.00    -0.245 OA
BRANCH   4   6
ATOM      6  C   UNL A   1      31.150  25.827  24.394  1.00  0.00     0.195 C 
ATOM      7  C   UNL A   1      31.455  25.744  22.892  1.00  0.00     0.082 C 
ATOM      8  C   UNL A   1      29.988  26.836  24.434  1.00  0.00     0.096 C 
ATOM      9  C   UNL A   1      31.358  27.194  22.431  1.00  0.00     0.022 C 
ATOM     10  C   UNL A   1      30.190  27.781  23.233  1.00  0.00     0.062 C 
BRANCH   6  11
ATOM     11  N   UNL A   1      30.802  24.465  24.868  1.00  0.00    -0.335 N 
ATOM     12  C   UNL A   1      31.062  23.398  23.911  1.00  0.00     0.331 C 
ATOM     13  H   UNL A   1      31.345  24.274  25.710  1.00  0.00     0.347 HD
ATOM     14  H   UNL A   1      29.795  24.465  25.027  1.00  0.00     0.347 HD
ENDBRANCH   6  11
BRANCH  10  15
ATOM     15  S   UNL A   1      30.453  29.489  23.807  1.00  0.00    -0.084 SA
BRANCH  15  16
ATOM     16  C   UNL A   1      29.468  30.401  22.719  1.00  0.00     0.168 A 
ATOM     17  N   UNL A   1      28.943  29.922  21.643  1.00  0.00    -0.233 NA
ATOM     18  N   UNL A   1      29.325  31.687  23.138  1.00  0.00    -0.301 N 
ATOM     19  C   UNL A   1      28.210  30.796  20.886  1.00  0.00     0.120 A 
ATOM     20  C   UNL A   1      28.602  32.595  22.430  1.00  0.00     0.251 A 
ATOM     21  H   UNL A   1      29.757  31.967  23.977  1.00  0.00     0.172 HD
ATOM     22  C   UNL A   1      28.001  32.081  21.189  1.00  0.00     0.091 A 
ATOM     23  O   UNL A   1      28.452  33.759  22.779  1.00  0.00    -0.269 OA
ENDBRANCH  15  16
ENDBRANCH  10  15
ENDBRANCH   4   6
ENDBRANCH   3   4
ENDBRANCH   2   3
ENDBRANCH   1   2
BRANCH   1  24
ATOM     24  O   UNL A   1      33.938  30.226  27.185  1.00  0.00    -0.458 OA
BRANCH  24  25
ATOM     25  C   UNL A   1      34.561  30.721  28.276  1.00  0.00     0.338 C 
ATOM     26  O   UNL A   1      34.114  31.509  29.095  1.00  0.00    -0.246 OA
BRANCH  25  27
ATOM     27  C   UNL A   1      35.904  30.130  28.374  1.00  0.00     0.060 A 
ATOM     28  C   UNL A   1      36.387  29.725  29.617  1.00  0.00     0.016 A 
ATOM     29  C   UNL A   1      36.735  30.101  27.256  1.00  0.00     0.016 A 
ATOM     30  C   UNL A   1      37.729  29.394  29.769  1.00  0.00     0.010 A 
ATOM     31  C   UNL A   1      38.054  29.658  27.392  1.00  0.00     0.010 A 
ATOM     32  C   UNL A   1      38.579  29.338  28.657  1.00  0.00    -0.014 A 
BRANCH  32  33
ATOM     33  C   UNL A   1      40.018  28.988  28.820  1.00  0.00     0.031 A 
ATOM     34  C   UNL A   1      40.990  30.016  29.337  1.00  0.00     0.074 A 
ATOM     35  C   UNL A   1      40.460  27.751  28.516  1.00  0.00     0.049 A 
ATOM     36  N   UNL A   1      42.298  29.993  29.333  1.00  0.00    -0.248 NA
ATOM     37  C   UNL A   1      40.416  31.240  29.920  1.00  0.00     0.031 C 
ATOM     38  C   UNL A   1      39.627  26.637  28.056  1.00  0.00     0.029 A 
ATOM     39  N   UNL A   1      41.725  27.218  28.554  1.00  0.00    -0.354 N 
ATOM     40  C   UNL A   1      42.703  31.223  29.839  1.00  0.00     0.074 A 
ATOM     41  C   UNL A   1      41.501  31.966  30.155  1.00  0.00     0.031 C 
ATOM     42  C   UNL A   1      40.392  25.548  27.896  1.00  0.00     0.029 A 
ATOM     43  C   UNL A   1      41.783  25.907  28.143  1.00  0.00     0.049 A 
ATOM     44  H   UNL A   1      42.516  27.727  28.846  1.00  0.00     0.167 HD
ATOM     45  C   UNL A   1      43.962  31.691  30.013  1.00  0.00     0.037 A 
ATOM     46  C   UNL A   1      42.837  25.096  27.936  1.00  0.00     0.037 A 
ATOM     47  C   UNL A   1      45.152  30.918  29.764  1.00  0.00     0.049 A 
ATOM     48  C   UNL A   1      44.224  25.633  28.137  1.00  0.00     0.074 A 
ATOM     49  C   UNL A   1      46.474  31.297  29.915  1.00  0.00     0.029 A 
ATOM     50  N   UNL A   1      45.161  29.598  29.337  1.00  0.00    -0.354 N 
ATOM     51  N   UNL A   1      44.594  26.830  28.522  1.00  0.00    -0.248 NA
ATOM     52  C   UNL A   1      45.338  24.719  27.847  1.00  0.00     0.031 C 
ATOM     53  C   UNL A   1      47.285  30.212  29.559  1.00  0.00     0.029 A 
ATOM     54  C   UNL A   1      46.466  29.148  29.218  1.00  0.00     0.049 A 
ATOM     55  H   UNL A   1      44.360  29.061  29.146  1.00  0.00     0.167 HD
ATOM     56  C   UNL A   1      45.983  26.816  28.520  1.00  0.00     0.074 A 
ATOM     57  C   UNL A   1      46.388  25.483  28.117  1.00  0.00     0.031 C 
ATOM     58  C   UNL A   1      46.846  27.819  28.813  1.00  0.00     0.037 A 
BRANCH  45  59
ATOM     59  C   UNL A   1      44.122  33.118  30.458  1.00  0.00     0.058 A 
ATOM     60  C   UNL A   1      44.047  34.194  29.562  1.00  0.00     0.135 A 
ATOM     61  C   UNL A   1      44.325  33.410  31.818  1.00  0.00     0.135 A 
ATOM     62  F   UNL A   1      43.874  33.970  28.250  1.00  0.00    -0.206 F 
ATOM     63  C   UNL A   1      44.188  35.510  29.994  1.00  0.00     0.059 A 
ATOM     64  C   UNL A   1      44.447  34.718  32.275  1.00  0.00     0.059 A 
ATOM     65  F   UNL A   1      44.408  32.417  32.717  1.00  0.00    -0.206 F 
ATOM     66  C   UNL A   1      44.391  35.762  31.353  1.00  0.00     0.060 A 
BRANCH  66  67
ATOM     67  S   UNL A   1      44.570  37.473  31.904  1.00  0.00     0.124 S 
ATOM     68  O   UNL A   1      43.400  37.626  32.762  1.00  0.00    -0.237 OA
ATOM     69  O   UNL A   1      45.859  37.449  32.590  1.00  0.00    -0.237 OA
ATOM     70  O   UNL A   1      44.541  38.234  30.660  1.00  0.00    -0.744 OA
ENDBRANCH  66  67
ENDBRANCH  45  59
BRANCH  46  71
ATOM     71  C   UNL A   1      42.612  23.706  27.459  1.00  0.00     0.058 A 
ATOM     72  C   UNL A   1      42.632  23.400  26.092  1.00  0.00     0.135 A 
ATOM     73  C   UNL A   1      42.416  22.651  28.364  1.00  0.00     0.135 A 
ATOM     74  F   UNL A   1      42.803  24.377  25.188  1.00  0.00    -0.206 F 
ATOM     75  C   UNL A   1      42.471  22.096  25.636  1.00  0.00     0.059 A 
ATOM     76  C   UNL A   1      42.278  21.336  27.936  1.00  0.00     0.059 A 
ATOM     77  F   UNL A   1      42.401  22.892  29.685  1.00  0.00    -0.206 F 
ATOM     78  C   UNL A   1      42.301  21.069  26.567  1.00  0.00     0.060 A 
BRANCH  78  79
ATOM     79  S   UNL A   1      42.177  19.365  25.979  1.00  0.00     0.124 S 
ATOM     80  O   UNL A   1      43.099  19.378  24.850  1.00  0.00    -0.237 OA
ATOM     81  O   UNL A   1      42.607  18.600  27.145  1.00  0.00    -0.237 OA
ATOM     82  O   UNL A   1      40.762  19.233  25.641  1.00  0.00    -0.744 OA
ENDBRANCH  78  79
ENDBRANCH  46  71
BRANCH  58  83
ATOM     83  C   UNL A   1      48.310  27.505  28.723  1.00  0.00     0.058 A 
ATOM     84  C   UNL A   1      49.029  27.705  27.536  1.00  0.00     0.135 A 
ATOM     85  C   UNL A   1      49.007  27.030  29.845  1.00  0.00     0.135 A 
ATOM     86  F   UNL A   1      48.403  28.150  26.434  1.00  0.00    -0.206 F 
ATOM     87  C   UNL A   1      50.388  27.424  27.455  1.00  0.00     0.059 A 
ATOM     88  C   UNL A   1      50.371  26.760  29.794  1.00  0.00     0.059 A 
ATOM     89  F   UNL A   1      48.363  26.830  31.006  1.00  0.00    -0.206 F 
ATOM     90  C   UNL A   1      51.050  26.948  28.591  1.00  0.00     0.060 A 
BRANCH  90  91
ATOM     91  S   UNL A   1      52.819  26.605  28.485  1.00  0.00     0.124 S 
ATOM     92  O   UNL A   1      53.355  27.924  28.168  1.00  0.00    -0.237 OA
ATOM     93  O   UNL A   1      53.124  26.101  29.822  1.00  0.00    -0.237 OA
ATOM     94  O   UNL A   1      52.908  25.616  27.415  1.00  0.00    -0.744 OA
ENDBRANCH  90  91
ENDBRANCH  58  83
ENDBRANCH  32  33
ENDBRANCH  25  27
ENDBRANCH  24  25
ENDBRANCH   1  24
TORSDOF 17
ENDMDL
MODEL 2
REMARK VINA RESULT:     -11.1      2.908      4.785
REMARK SMILES C[NH2+][C@@]1(C(=O)OCCOC(=O)c2ccc(-c3c4nc(c(-c5c(F)cc(S(=O)(=O)[O-])cc5F)c5ccc([nH]5)c(-c5c(F)cc(S(=O)(=O)[O-])cc5F)c5nc(c(-c6c(F)cc(S(=O)(=O)[O-])cc6F)c6ccc3[nH]6)C=C5)C=C4)cc2)CC[C@H](Sc2nccc(=O)[nH]2)C1
REMARK SMILES IDX 8 1 7 2 6 3 4 4 5 5 3 6 78 7 89 8 79 9 80 10 2 11 1 12 81 15
REMARK SMILES IDX 82 16 83 17 88 18 84 19 86 20 85 22 87 23 9 24 10 25 11 26
REMARK SMILES IDX 12 27 13 28 77 29 14 30 76 31 15 32 16 33 17 34 70 35 18 36
REMARK SMILES IDX 75 37 69 38 71 39 19 40 74 41 68 42 67 43 20 45 54 46 33 47
REMARK SMILES IDX 53 48 34 49 37 50 52 51 72 52 35 53 36 54 51 56 73 57 38 58
REMARK SMILES IDX 21 59 22 60 31 61 23 62 24 63 30 64 32 65 25 66 26 67 27 68
REMARK SMILES IDX 28 69 29 70 55 71 56 72 65 73 57 74 58 75 64 76 66 77 59 78
REMARK SMILES IDX 60 79 61 80 62 81 63 82 39 83 40 84 49 85 41 86 42 87 48 88
REMARK SMILES IDX 50 89 43 90 44 91 45 92 46 93 47 94
REMARK H PARENT 2 13 2 14 88 21 71 44 37 55
REMARK Flexibility Score: inf
ROOT
ATOM      1  C   UNL A   1      33.954  28.100  26.453  1.00  0.00     0.275 C 
ENDROOT
BRANCH   1   2
ATOM      2  C   UNL A   1      33.227  26.763  26.382  1.00  0.00     0.274 C 
BRANCH   2   3
ATOM      3  O   UNL A   1      33.998  25.806  25.628  1.00  0.00    -0.457 OA
BRANCH   3   4
ATOM      4  C   UNL A   1      33.765  24.491  25.874  1.00  0.00     0.368 C 
ATOM      5  O   UNL A   1      32.749  24.058  26.410  1.00  0.00    -0.245 OA
BRANCH   4   6
ATOM      6  C   UNL A   1      34.963  23.570  25.486  1.00  0.00     0.195 C 
ATOM      7  C   UNL A   1      35.135  23.689  23.965  1.00  0.00     0.082 C 
ATOM      8  C   UNL A   1      34.729  22.060  25.668  1.00  0.00     0.096 C 
ATOM      9  C   UNL A   1      34.060  22.759  23.414  1.00  0.00     0.022 C 
ATOM     10  C   UNL A   1      34.047  21.565  24.378  1.00  0.00     0.062 C 
BRANCH   6  11
ATOM     11  N   UNL A   1      36.197  24.086  26.128  1.00  0.00    -0.335 N 
ATOM     12  C   UNL A   1      37.440  23.673  25.492  1.00  0.00     0.331 C 
ATOM     13  H   UNL A   1      36.159  25.105  26.114  1.00  0.00     0.347 HD
ATOM     14  H   UNL A   1      36.215  23.696  27.070  1.00  0.00     0.347 HD
ENDBRANCH   6  11
BRANCH  10  15
ATOM     15  S   UNL A   1      32.387  20.914  24.747  1.00  0.00    -0.084 SA
BRANCH  15  16
ATOM     16  C   UNL A   1      32.664  19.209  24.812  1.00  0.00     0.168 A 
ATOM     17  N   UNL A   1      32.478  18.485  25.862  1.00  0.00    -0.233 NA
ATOM     18  N   UNL A   1      33.111  18.733  23.619  1.00  0.00    -0.301 N 
ATOM     19  C   UNL A   1      32.772  17.154  25.740  1.00  0.00     0.120 A 
ATOM     20  C   UNL A   1      33.411  17.420  23.439  1.00  0.00     0.251 A 
ATOM     21  H   UNL A   1      33.220  19.357  22.866  1.00  0.00     0.172 HD
ATOM     22  C   UNL A   1      33.221  16.570  24.624  1.00  0.00     0.091 A 
ATOM     23  O   UNL A   1      33.814  16.958  22.378  1.00  0.00    -0.269 OA
ENDBRANCH  15  16
ENDBRANCH  10  15
ENDBRANCH   4   6
ENDBRANCH   3   4
ENDBRANCH   2   3
ENDBRANCH   1   2
BRANCH   1  24
ATOM     24  O   UNL A   1      33.851  28.613  27.790  1.00  0.00    -0.458 OA
BRANCH  24  25
ATOM     25  C   UNL A   1      34.344  29.855  27.986  1.00  0.00     0.338 C 
ATOM     26  O   UNL A   1      33.727  30.909  27.984  1.00  0.00    -0.246 OA
BRANCH  25  27
ATOM     27  C   UNL A   1      35.787  29.766  28.250  1.00  0.00     0.060 A 
ATOM     28  C   UNL A   1      36.692  30.059  27.230  1.00  0.00     0.016 A 
ATOM     29  C   UNL A   1      36.242  29.262  29.466  1.00  0.00     0.016 A 
ATOM     30  C   UNL A   1      38.039  29.749  27.382  1.00  0.00     0.010 A 
ATOM     31  C   UNL A   1      37.613  29.059  29.655  1.00  0.00     0.010 A 
ATOM     32  C   UNL A   1      38.523  29.261  28.603  1.00  0.00    -0.014 A 
BRANCH  32  33
ATOM     33  C   UNL A   1      39.965  28.925  28.765  1.00  0.00     0.031 A 
ATOM     34  C   UNL A   1      40.928  29.963  29.279  1.00  0.00     0.074 A 
ATOM     35  C   UNL A   1      40.418  27.692  28.462  1.00  0.00     0.049 A 
ATOM     36  N   UNL A   1      42.236  29.952  29.274  1.00  0.00    -0.248 NA
ATOM     37  C   UNL A   1      40.343  31.183  29.860  1.00  0.00     0.031 C 
ATOM     38  C   UNL A   1      39.596  26.569  28.005  1.00  0.00     0.029 A 
ATOM     39  N   UNL A   1      41.689  27.171  28.500  1.00  0.00    -0.354 N 
ATOM     40  C   UNL A   1      42.630  31.187  29.777  1.00  0.00     0.074 A 
ATOM     41  C   UNL A   1      41.422  31.919  30.092  1.00  0.00     0.031 C 
ATOM     42  C   UNL A   1      40.371  25.487  27.846  1.00  0.00     0.029 A 
ATOM     43  C   UNL A   1      41.758  25.860  28.092  1.00  0.00     0.049 A 
ATOM     44  H   UNL A   1      42.475  27.688  28.791  1.00  0.00     0.167 HD
ATOM     45  C   UNL A   1      43.885  31.667  29.949  1.00  0.00     0.037 A 
ATOM     46  C   UNL A   1      42.820  25.058  27.884  1.00  0.00     0.037 A 
ATOM     47  C   UNL A   1      45.082  30.905  29.701  1.00  0.00     0.049 A 
ATOM     48  C   UNL A   1      44.202  25.608  28.084  1.00  0.00     0.074 A 
ATOM     49  C   UNL A   1      46.400  31.296  29.850  1.00  0.00     0.029 A 
ATOM     50  N   UNL A   1      45.103  29.584  29.275  1.00  0.00    -0.354 N 
ATOM     51  N   UNL A   1      44.561  26.809  28.466  1.00  0.00    -0.248 NA
ATOM     52  C   UNL A   1      45.324  24.704  27.794  1.00  0.00     0.031 C 
ATOM     53  C   UNL A   1      47.221  30.219  29.494  1.00  0.00     0.029 A 
ATOM     54  C   UNL A   1      46.412  29.146  29.156  1.00  0.00     0.049 A 
ATOM     55  H   UNL A   1      44.306  29.039  29.086  1.00  0.00     0.167 HD
ATOM     56  C   UNL A   1      45.950  26.809  28.463  1.00  0.00     0.074 A 
ATOM     57  C   UNL A   1      46.367  25.479  28.062  1.00  0.00     0.031 C 
ATOM     58  C   UNL A   1      46.804  27.820  28.753  1.00  0.00     0.037 A 
BRANCH  45  59
ATOM     59  C   UNL A   1      44.033  33.096  30.392  1.00  0.00     0.058 A 
ATOM     60  C   UNL A   1      44.261  33.444  31.731  1.00  0.00     0.135 A 
ATOM     61  C   UNL A   1      43.974  34.134  29.446  1.00  0.00     0.135 A 
ATOM     62  F   UNL A   1      44.307  32.494  32.678  1.00  0.00    -0.206 F 
ATOM     63  C   UNL A   1      44.405  34.773  32.122  1.00  0.00     0.059 A 
ATOM     64  C   UNL A   1      44.138  35.466  29.810  1.00  0.00     0.059 A 
ATOM     65  F   UNL A   1      43.755  33.856  28.151  1.00  0.00    -0.206 F 
ATOM     66  C   UNL A   1      44.339  35.777  31.154  1.00  0.00     0.060 A 
BRANCH  66  67
ATOM     67  S   UNL A   1      44.530  37.498  31.671  1.00  0.00     0.124 S 
ATOM     68  O   UNL A   1      44.499  38.191  30.387  1.00  0.00    -0.237 OA
ATOM     69  O   UNL A   1      43.366  37.700  32.528  1.00  0.00    -0.237 OA
ATOM     70  O   UNL A   1      45.818  37.504  32.357  1.00  0.00    -0.744 OA
ENDBRANCH  66  67
ENDBRANCH  45  59
BRANCH  46  71
ATOM     71  C   UNL A   1      42.607  23.665  27.410  1.00  0.00     0.058 A 
ATOM     72  C   UNL A   1      42.676  23.349  26.047  1.00  0.00     0.135 A 
ATOM     73  C   UNL A   1      42.374  22.618  28.316  1.00  0.00     0.135 A 
ATOM     74  F   UNL A   1      42.884  24.318  25.143  1.00  0.00    -0.206 F 
ATOM     75  C   UNL A   1      42.527  22.041  25.596  1.00  0.00     0.059 A 
ATOM     76  C   UNL A   1      42.247  21.300  27.893  1.00  0.00     0.059 A 
ATOM     77  F   UNL A   1      42.312  22.869  29.633  1.00  0.00    -0.206 F 
ATOM     78  C   UNL A   1      42.320  21.022  26.528  1.00  0.00     0.060 A 
BRANCH  78  79
ATOM     79  S   UNL A   1      42.211  19.315  25.949  1.00  0.00     0.124 S 
ATOM     80  O   UNL A   1      40.790  19.201  25.641  1.00  0.00    -0.237 OA
ATOM     81  O   UNL A   1      43.115  19.315  24.802  1.00  0.00    -0.237 OA
ATOM     82  O   UNL A   1      42.674  18.544  27.099  1.00  0.00    -0.744 OA
ENDBRANCH  78  79
ENDBRANCH  46  71
BRANCH  58  83
ATOM     83  C   UNL A   1      48.271  27.519  28.662  1.00  0.00     0.058 A 
ATOM     84  C   UNL A   1      49.012  27.835  27.514  1.00  0.00     0.135 A 
ATOM     85  C   UNL A   1      48.948  26.939  29.747  1.00  0.00     0.135 A 
ATOM     86  F   UNL A   1      48.406  28.384  26.448  1.00  0.00    -0.206 F 
ATOM     87  C   UNL A   1      50.374  27.566  27.434  1.00  0.00     0.059 A 
ATOM     88  C   UNL A   1      50.313  26.679  29.697  1.00  0.00     0.059 A 
ATOM     89  F   UNL A   1      48.282  26.627  30.870  1.00  0.00    -0.206 F 
ATOM     90  C   UNL A   1      51.015  26.984  28.531  1.00  0.00     0.060 A 
BRANCH  90  91
ATOM     91  S   UNL A   1      52.787  26.657  28.428  1.00  0.00     0.124 S 
ATOM     92  O   UNL A   1      53.303  27.958  28.017  1.00  0.00    -0.237 OA
ATOM     93  O   UNL A   1      53.113  26.248  29.792  1.00  0.00    -0.237 OA
ATOM     94  O   UNL A   1      52.878  25.600  27.426  1.00  0.00    -0.744 OA
ENDBRANCH  90  91
ENDBRANCH  58  83
ENDBRANCH  32  33
ENDBRANCH  25  27
ENDBRANCH  24  25
ENDBRANCH   1  24
TORSDOF 17
ENDMDL
MODEL 3
REMARK VINA RESULT:     -10.8      1.092      3.391
REMARK SMILES C[NH2+][C@@]1(C(=O)OCCOC(=O)c2ccc(-c3c4nc(c(-c5c(F)cc(S(=O)(=O)[O-])cc5F)c5ccc([nH]5)c(-c5c(F)cc(S(=O)(=O)[O-])cc5F)c5nc(c(-c6c(F)cc(S(=O)(=O)[O-])cc6F)c6ccc3[nH]6)C=C5)C=C4)cc2)CC[C@H](Sc2nccc(=O)[nH]2)C1
REMARK SMILES IDX 8 1 7 2 6 3 4 4 5 5 3 6 78 7 89 8 79 9 80 10 2 11 1 12 81 15
REMARK SMILES IDX 82 16 83 17 88 18 84 19 86 20 85 22 87 23 9 24 10 25 11 26
REMARK SMILES IDX 12 27 13 28 77 29 14 30 76 31 15 32 16 33 17 34 70 35 18 36
REMARK SMILES IDX 75 37 69 38 71 39 19 40 74 41 68 42 67 43 20 45 54 46 33 47
REMARK SMILES IDX 53 48 34 49 37 50 52 51 72 52 35 53 36 54 51 56 73 57 38 58
REMARK SMILES IDX 21 59 22 60 31 61 23 62 24 63 30 64 32 65 25 66 26 67 27 68
REMARK SMILES IDX 28 69 29 70 55 71 56 72 65 73 57 74 58 75 64 76 66 77 59 78
REMARK SMILES IDX 60 79 61 80 62 81 63 82 39 83 40 84 49 85 41 86 42 87 48 88
REMARK SMILES IDX 50 89 43 90 44 91 45 92 46 93 47 94
REMARK H PARENT 2 13 2 14 88 21 71 44 37 55
REMARK Flexibility Score: inf
ROOT
ATOM      1  C   UNL A   1      32.772  30.423  26.917  1.00  0.00     0.275 C 
ENDROOT
BRANCH   1   2
ATOM      2  C   UNL A   1      31.902  29.330  26.310  1.00  0.00     0.274 C 
BRANCH   2   3
ATOM      3  O   UNL A   1      31.994  29.350  24.871  1.00  0.00    -0.457 OA
BRANCH   3   4
ATOM      4  C   UNL A   1      30.892  29.749  24.185  1.00  0.00     0.368 C 
ATOM      5  O   UNL A   1      30.086  30.581  24.595  1.00  0.00    -0.245 OA
BRANCH   4   6
ATOM      6  C   UNL A   1      30.690  28.980  22.843  1.00  0.00     0.195 C 
ATOM      7  C   UNL A   1      29.317  28.299  22.929  1.00  0.00     0.082 C 
ATOM      8  C   UNL A   1      31.631  27.785  22.611  1.00  0.00     0.096 C 
ATOM      9  C   UNL A   1      29.593  27.053  23.762  1.00  0.00     0.022 C 
ATOM     10  C   UNL A   1      30.975  26.572  23.301  1.00  0.00     0.062 C 
BRANCH   6  11
ATOM     11  N   UNL A   1      30.647  29.958  21.728  1.00  0.00    -0.335 N 
ATOM     12  C   UNL A   1      29.314  30.425  21.372  1.00  0.00     0.331 C 
ATOM     13  H   UNL A   1      31.204  30.769  21.996  1.00  0.00     0.347 HD
ATOM     14  H   UNL A   1      31.008  29.473  20.907  1.00  0.00     0.347 HD
ENDBRANCH   6  11
BRANCH  10  15
ATOM     15  S   UNL A   1      32.041  25.949  24.638  1.00  0.00    -0.084 SA
BRANCH  15  16
ATOM     16  C   UNL A   1      32.278  24.299  24.184  1.00  0.00     0.168 A 
ATOM     17  N   UNL A   1      31.644  23.713  23.226  1.00  0.00    -0.233 NA
ATOM     18  N   UNL A   1      33.210  23.696  24.969  1.00  0.00    -0.301 N 
ATOM     19  C   UNL A   1      31.941  22.393  23.020  1.00  0.00     0.120 A 
ATOM     20  C   UNL A   1      33.550  22.390  24.805  1.00  0.00     0.251 A 
ATOM     21  H   UNL A   1      33.650  24.221  25.676  1.00  0.00     0.172 HD
ATOM     22  C   UNL A   1      32.833  21.691  23.727  1.00  0.00     0.091 A 
ATOM     23  O   UNL A   1      34.386  21.818  25.493  1.00  0.00    -0.269 OA
ENDBRANCH  15  16
ENDBRANCH  10  15
ENDBRANCH   4   6
ENDBRANCH   3   4
ENDBRANCH   2   3
ENDBRANCH   1   2
BRANCH   1  24
ATOM     24  O   UNL A   1      33.735  29.815  27.792  1.00  0.00    -0.458 OA
BRANCH  24  25
ATOM     25  C   UNL A   1      34.554  30.664  28.450  1.00  0.00     0.338 C 
ATOM     26  O   UNL A   1      34.261  31.734  28.960  1.00  0.00    -0.246 OA
BRANCH  25  27
ATOM     27  C   UNL A   1      35.905  30.086  28.505  1.00  0.00     0.060 A 
ATOM     28  C   UNL A   1      36.409  29.633  29.724  1.00  0.00     0.016 A 
ATOM     29  C   UNL A   1      36.721  30.116  27.377  1.00  0.00     0.016 A 
ATOM     30  C   UNL A   1      37.757  29.313  29.845  1.00  0.00     0.010 A 
ATOM     31  C   UNL A   1      38.047  29.685  27.478  1.00  0.00     0.010 A 
ATOM     32  C   UNL A   1      38.593  29.317  28.721  1.00  0.00    -0.014 A 
BRANCH  32  33
ATOM     33  C   UNL A   1      40.038  28.978  28.851  1.00  0.00     0.031 A 
ATOM     34  C   UNL A   1      41.014  30.016  29.340  1.00  0.00     0.074 A 
ATOM     35  C   UNL A   1      40.481  27.743  28.541  1.00  0.00     0.049 A 
ATOM     36  N   UNL A   1      42.322  30.003  29.304  1.00  0.00    -0.248 NA
ATOM     37  C   UNL A   1      40.445  31.238  29.931  1.00  0.00     0.031 C 
ATOM     38  C   UNL A   1      39.647  26.621  28.106  1.00  0.00     0.029 A 
ATOM     39  N   UNL A   1      41.752  27.220  28.550  1.00  0.00    -0.354 N 
ATOM     40  C   UNL A   1      42.729  31.238  29.795  1.00  0.00     0.074 A 
ATOM     41  C   UNL A   1      41.530  31.973  30.136  1.00  0.00     0.031 C 
ATOM     42  C   UNL A   1      40.416  25.537  27.932  1.00  0.00     0.029 A 
ATOM     43  C   UNL A   1      41.809  25.908  28.144  1.00  0.00     0.049 A 
ATOM     44  H   UNL A   1      42.545  27.736  28.822  1.00  0.00     0.167 HD
ATOM     45  C   UNL A   1      43.988  31.717  29.937  1.00  0.00     0.037 A 
ATOM     46  C   UNL A   1      42.865  25.103  27.915  1.00  0.00     0.037 A 
ATOM     47  C   UNL A   1      45.178  30.951  29.663  1.00  0.00     0.049 A 
ATOM     48  C   UNL A   1      44.252  25.652  28.081  1.00  0.00     0.074 A 
ATOM     49  C   UNL A   1      46.500  31.341  29.780  1.00  0.00     0.029 A 
ATOM     50  N   UNL A   1      45.187  29.630  29.240  1.00  0.00    -0.354 N 
ATOM     51  N   UNL A   1      44.622  26.854  28.452  1.00  0.00    -0.248 NA
ATOM     52  C   UNL A   1      45.365  24.745  27.768  1.00  0.00     0.031 C 
ATOM     53  C   UNL A   1      47.311  30.261  29.409  1.00  0.00     0.029 A 
ATOM     54  C   UNL A   1      46.492  29.189  29.092  1.00  0.00     0.049 A 
ATOM     55  H   UNL A   1      44.385  29.086  29.072  1.00  0.00     0.167 HD
ATOM     56  C   UNL A   1      46.010  26.850  28.416  1.00  0.00     0.074 A 
ATOM     57  C   UNL A   1      46.415  25.519  28.009  1.00  0.00     0.031 C 
ATOM     58  C   UNL A   1      46.873  27.861  28.684  1.00  0.00     0.037 A 
BRANCH  45  59
ATOM     59  C   UNL A   1      44.149  33.146  30.372  1.00  0.00     0.058 A 
ATOM     60  C   UNL A   1      44.161  34.209  29.457  1.00  0.00     0.135 A 
ATOM     61  C   UNL A   1      44.261  33.455  31.738  1.00  0.00     0.135 A 
ATOM     62  F   UNL A   1      44.077  33.969  28.140  1.00  0.00    -0.206 F 
ATOM     63  C   UNL A   1      44.301  35.529  29.880  1.00  0.00     0.059 A 
ATOM     64  C   UNL A   1      44.379  34.768  32.185  1.00  0.00     0.059 A 
ATOM     65  F   UNL A   1      44.258  32.475  32.655  1.00  0.00    -0.206 F 
ATOM     66  C   UNL A   1      44.412  35.798  31.246  1.00  0.00     0.060 A 
BRANCH  66  67
ATOM     67  S   UNL A   1      44.590  37.513  31.784  1.00  0.00     0.124 S 
ATOM     68  O   UNL A   1      44.028  38.234  30.647  1.00  0.00    -0.237 OA
ATOM     69  O   UNL A   1      43.795  37.543  33.008  1.00  0.00    -0.237 OA
ATOM     70  O   UNL A   1      46.030  37.660  31.973  1.00  0.00    -0.744 OA
ENDBRANCH  66  67
ENDBRANCH  45  59
BRANCH  46  71
ATOM     71  C   UNL A   1      42.638  23.710  27.450  1.00  0.00     0.058 A 
ATOM     72  C   UNL A   1      42.607  23.402  26.083  1.00  0.00     0.135 A 
ATOM     73  C   UNL A   1      42.493  22.655  28.364  1.00  0.00     0.135 A 
ATOM     74  F   UNL A   1      42.728  24.380  25.172  1.00  0.00    -0.206 F 
ATOM     75  C   UNL A   1      42.444  22.095  25.636  1.00  0.00     0.059 A 
ATOM     76  C   UNL A   1      42.356  21.337  27.943  1.00  0.00     0.059 A 
ATOM     77  F   UNL A   1      42.529  22.897  29.683  1.00  0.00    -0.206 F 
ATOM     78  C   UNL A   1      42.327  21.067  26.575  1.00  0.00     0.060 A 
BRANCH  78  79
ATOM     79  S   UNL A   1      42.201  19.361  25.994  1.00  0.00     0.124 S 
ATOM     80  O   UNL A   1      43.044  19.394  24.805  1.00  0.00    -0.237 OA
ATOM     81  O   UNL A   1      42.726  18.606  27.128  1.00  0.00    -0.237 OA
ATOM     82  O   UNL A   1      40.770  19.197  25.753  1.00  0.00    -0.744 OA
ENDBRANCH  78  79
ENDBRANCH  46  71
BRANCH  58  83
ATOM     83  C   UNL A   1      48.336  27.557  28.560  1.00  0.00     0.058 A 
ATOM     84  C   UNL A   1      49.052  26.969  29.613  1.00  0.00     0.135 A 
ATOM     85  C   UNL A   1      49.022  27.829  27.365  1.00  0.00     0.135 A 
ATOM     86  F   UNL A   1      48.440  26.698  30.778  1.00  0.00    -0.206 F 
ATOM     87  C   UNL A   1      50.407  26.678  29.495  1.00  0.00     0.059 A 
ATOM     88  C   UNL A   1      50.372  27.529  27.218  1.00  0.00     0.059 A 
ATOM     89  F   UNL A   1      48.378  28.384  26.328  1.00  0.00    -0.206 F 
ATOM     90  C   UNL A   1      51.059  26.965  28.293  1.00  0.00     0.060 A 
BRANCH  90  91
ATOM     91  S   UNL A   1      52.812  26.565  28.139  1.00  0.00     0.124 S 
ATOM     92  O   UNL A   1      53.358  27.824  27.644  1.00  0.00    -0.237 OA
ATOM     93  O   UNL A   1      53.177  26.211  29.508  1.00  0.00    -0.237 OA
ATOM     94  O   UNL A   1      52.824  25.457  27.189  1.00  0.00    -0.744 OA
ENDBRANCH  90  91
ENDBRANCH  58  83
ENDBRANCH  32  33
ENDBRANCH  25  27
ENDBRANCH  24  25
ENDBRANCH   1  24
TORSDOF 17
ENDMDL
