MODEL 1
REMARK VINA RESULT:     -11.5      0.000      0.000
REMARK SMILES COCC[C@]1(C(=O)OCCOC(=O)c2ccc(-c3c4nc(c(-c5c(F)cc(S(=O)(=O)[O-])cc5F)c5ccc([nH]5)c(-c5c(F)cc(S(=O)(=O)[O-])cc5F)c5nc(c(-c6c(F)cc(S(=O)(=O)[O-])cc6F)c6ccc3[nH]6)C=C5)C=C4)cc2)CCCN(C(=O)c2ccc(=O)[nH]c2)C1
REMARK SMILES IDX 9 1 8 2 6 3 7 4 5 5 80 6 93 7 81 8 83 9 82 10 4 11 3 12 2 13
REMARK SMILES IDX 1 14 84 15 85 16 86 17 87 18 92 19 88 20 91 21 89 22 90 24
REMARK SMILES IDX 10 25 11 26 12 27 13 28 14 29 15 30 79 31 16 32 78 33 17 34
REMARK SMILES IDX 18 35 19 36 72 37 20 38 77 39 71 40 73 41 21 42 76 43 70 44
REMARK SMILES IDX 69 45 22 47 56 48 35 49 55 50 36 51 39 52 54 53 74 54 37 55
REMARK SMILES IDX 38 56 53 58 75 59 40 60 23 61 24 62 33 63 25 64 26 65 32 66
REMARK SMILES IDX 34 67 27 68 28 69 29 70 30 71 31 72 57 73 58 74 67 75 59 76
REMARK SMILES IDX 60 77 66 78 68 79 61 80 62 81 63 82 64 83 65 84 41 85 42 86
REMARK SMILES IDX 51 87 43 88 44 89 50 90 52 91 45 92 46 93 47 94 48 95 49 96
REMARK H PARENT 91 23 73 46 39 57
REMARK Flexibility Score: inf
ROOT
ATOM      1  C   UNL A   1      33.178  30.702  27.627  1.00  0.00     0.274 C 
ENDROOT
BRANCH   1   2
ATOM      2  O   UNL A   1      33.438  30.173  26.313  1.00  0.00    -0.462 OA
BRANCH   2   3
ATOM      3  C   UNL A   1      33.654  28.837  26.091  1.00  0.00     0.314 C 
ATOM      4  O   UNL A   1      34.516  28.155  26.615  1.00  0.00    -0.252 OA
BRANCH   3   5
ATOM      5  C   UNL A   1      32.678  28.398  24.991  1.00  0.00     0.088 C 
ATOM      6  C   UNL A   1      32.541  26.874  25.318  1.00  0.00     0.022 C 
ATOM      7  C   UNL A   1      31.238  29.007  25.084  1.00  0.00     0.138 C 
ATOM      8  C   UNL A   1      31.398  26.083  24.696  1.00  0.00     0.023 C 
ATOM      9  N   UNL A   1      30.334  28.194  24.220  1.00  0.00    -0.337 N 
ATOM     10  C   UNL A   1      30.096  26.859  24.730  1.00  0.00     0.120 C 
BRANCH   5  11
ATOM     11  C   UNL A   1      33.266  28.996  23.668  1.00  0.00     0.049 C 
BRANCH  11  12
ATOM     12  C   UNL A   1      34.135  28.244  22.673  1.00  0.00     0.161 C 
BRANCH  12  13
ATOM     13  O   UNL A   1      33.936  26.839  22.713  1.00  0.00    -0.385 OA
ATOM     14  C   UNL A   1      33.248  26.322  21.592  1.00  0.00     0.194 C 
ENDBRANCH  12  13
ENDBRANCH  11  12
ENDBRANCH   5  11
BRANCH   9  15
ATOM     15  C   UNL A   1      30.108  28.561  22.888  1.00  0.00     0.255 C 
ATOM     16  O   UNL A   1      30.268  27.794  21.942  1.00  0.00    -0.269 OA
BRANCH  15  17
ATOM     17  C   UNL A   1      29.437  29.887  22.655  1.00  0.00     0.056 A 
ATOM     18  C   UNL A   1      28.689  30.206  21.456  1.00  0.00     0.021 A 
ATOM     19  C   UNL A   1      29.563  30.827  23.609  1.00  0.00     0.099 A 
ATOM     20  C   UNL A   1      28.208  31.445  21.260  1.00  0.00     0.072 A 
ATOM     21  N   UNL A   1      29.079  32.100  23.419  1.00  0.00    -0.328 N 
ATOM     22  C   UNL A   1      28.429  32.506  22.280  1.00  0.00     0.247 A 
ATOM     23  H   UNL A   1      29.206  32.758  24.141  1.00  0.00     0.169 HD
ATOM     24  O   UNL A   1      28.054  33.659  22.097  1.00  0.00    -0.270 OA
ENDBRANCH  15  17
ENDBRANCH   9  15
ENDBRANCH   3   5
ENDBRANCH   2   3
ENDBRANCH   1   2
BRANCH   1  25
ATOM     25  C   UNL A   1      33.751  32.127  27.666  1.00  0.00     0.275 C 
BRANCH  25  26
ATOM     26  O   UNL A   1      35.135  32.086  28.050  1.00  0.00    -0.458 OA
BRANCH  26  27
ATOM     27  C   UNL A   1      35.300  31.628  29.308  1.00  0.00     0.338 C 
ATOM     28  O   UNL A   1      34.921  32.174  30.333  1.00  0.00    -0.246 OA
BRANCH  27  29
ATOM     29  C   UNL A   1      36.205  30.476  29.293  1.00  0.00     0.060 A 
ATOM     30  C   UNL A   1      36.781  30.136  28.064  1.00  0.00     0.016 A 
ATOM     31  C   UNL A   1      36.630  29.886  30.482  1.00  0.00     0.016 A 
ATOM     32  C   UNL A   1      37.890  29.303  28.030  1.00  0.00     0.010 A 
ATOM     33  C   UNL A   1      37.781  29.101  30.458  1.00  0.00     0.010 A 
ATOM     34  C   UNL A   1      38.469  28.909  29.245  1.00  0.00    -0.014 A 
BRANCH  34  35
ATOM     35  C   UNL A   1      39.942  28.747  29.296  1.00  0.00     0.031 A 
ATOM     36  C   UNL A   1      40.863  29.879  29.597  1.00  0.00     0.074 A 
ATOM     37  C   UNL A   1      40.419  27.525  28.967  1.00  0.00     0.049 A 
ATOM     38  N   UNL A   1      42.169  29.893  29.553  1.00  0.00    -0.248 NA
ATOM     39  C   UNL A   1      40.250  31.155  29.988  1.00  0.00     0.031 C 
ATOM     40  C   UNL A   1      39.589  26.358  28.639  1.00  0.00     0.029 A 
ATOM     41  N   UNL A   1      41.698  27.058  28.831  1.00  0.00    -0.354 N 
ATOM     42  C   UNL A   1      42.544  31.179  29.909  1.00  0.00     0.074 A 
ATOM     43  C   UNL A   1      41.323  31.922  30.150  1.00  0.00     0.031 C 
ATOM     44  C   UNL A   1      40.375  25.316  28.344  1.00  0.00     0.029 A 
ATOM     45  C   UNL A   1      41.761  25.753  28.400  1.00  0.00     0.049 A 
ATOM     46  H   UNL A   1      42.496  27.603  29.023  1.00  0.00     0.167 HD
ATOM     47  C   UNL A   1      43.799  31.678  30.018  1.00  0.00     0.037 A 
ATOM     48  C   UNL A   1      42.811  24.994  28.042  1.00  0.00     0.037 A 
ATOM     49  C   UNL A   1      44.996  30.916  29.756  1.00  0.00     0.049 A 
ATOM     50  C   UNL A   1      44.178  25.594  28.114  1.00  0.00     0.074 A 
ATOM     51  C   UNL A   1      46.316  31.316  29.884  1.00  0.00     0.029 A 
ATOM     52  N   UNL A   1      45.022  29.606  29.294  1.00  0.00    -0.354 N 
ATOM     53  N   UNL A   1      44.520  26.802  28.491  1.00  0.00    -0.248 NA
ATOM     54  C   UNL A   1      45.298  24.741  27.704  1.00  0.00     0.031 C 
ATOM     55  C   UNL A   1      47.136  30.264  29.456  1.00  0.00     0.029 A 
ATOM     56  C   UNL A   1      46.332  29.194  29.098  1.00  0.00     0.049 A 
ATOM     57  H   UNL A   1      44.226  29.051  29.129  1.00  0.00     0.167 HD
ATOM     58  C   UNL A   1      45.899  26.859  28.362  1.00  0.00     0.074 A 
ATOM     59  C   UNL A   1      46.328  25.554  27.896  1.00  0.00     0.031 C 
ATOM     60  C   UNL A   1      46.732  27.900  28.605  1.00  0.00     0.037 A 
BRANCH  47  61
ATOM     61  C   UNL A   1      43.945  33.119  30.419  1.00  0.00     0.058 A 
ATOM     62  C   UNL A   1      44.219  33.490  31.743  1.00  0.00     0.135 A 
ATOM     63  C   UNL A   1      43.865  34.137  29.455  1.00  0.00     0.135 A 
ATOM     64  F   UNL A   1      44.296  32.558  32.706  1.00  0.00    -0.206 F 
ATOM     65  C   UNL A   1      44.395  34.824  32.103  1.00  0.00     0.059 A 
ATOM     66  C   UNL A   1      44.057  35.476  29.789  1.00  0.00     0.059 A 
ATOM     67  F   UNL A   1      43.603  33.836  28.173  1.00  0.00    -0.206 F 
ATOM     68  C   UNL A   1      44.312  35.810  31.118  1.00  0.00     0.060 A 
BRANCH  68  69
ATOM     69  S   UNL A   1      44.559  37.534  31.595  1.00  0.00     0.124 S 
ATOM     70  O   UNL A   1      45.986  37.550  31.902  1.00  0.00    -0.237 OA
ATOM     71  O   UNL A   1      44.164  38.253  30.389  1.00  0.00    -0.237 OA
ATOM     72  O   UNL A   1      43.670  37.700  32.740  1.00  0.00    -0.744 OA
ENDBRANCH  68  69
ENDBRANCH  47  61
BRANCH  48  73
ATOM     73  C   UNL A   1      42.583  23.608  27.561  1.00  0.00     0.058 A 
ATOM     74  C   UNL A   1      42.325  23.348  26.210  1.00  0.00     0.135 A 
ATOM     75  C   UNL A   1      42.692  22.512  28.433  1.00  0.00     0.135 A 
ATOM     76  F   UNL A   1      42.213  24.364  25.340  1.00  0.00    -0.206 F 
ATOM     77  C   UNL A   1      42.181  22.049  25.735  1.00  0.00     0.059 A 
ATOM     78  C   UNL A   1      42.576  21.202  27.977  1.00  0.00     0.059 A 
ATOM     79  F   UNL A   1      42.963  22.709  29.733  1.00  0.00    -0.206 F 
ATOM     80  C   UNL A   1      42.312  20.981  26.627  1.00  0.00     0.060 A 
BRANCH  80  81
ATOM     81  S   UNL A   1      42.194  19.296  25.990  1.00  0.00     0.124 S 
ATOM     82  O   UNL A   1      42.618  18.516  27.146  1.00  0.00    -0.237 OA
ATOM     83  O   UNL A   1      40.780  19.195  25.637  1.00  0.00    -0.237 OA
ATOM     84  O   UNL A   1      43.114  19.300  24.857  1.00  0.00    -0.744 OA
ENDBRANCH  80  81
ENDBRANCH  48  73
BRANCH  60  85
ATOM     85  C   UNL A   1      48.191  27.659  28.354  1.00  0.00     0.058 A 
ATOM     86  C   UNL A   1      48.772  27.946  27.108  1.00  0.00     0.135 A 
ATOM     87  C   UNL A   1      49.019  27.148  29.365  1.00  0.00     0.135 A 
ATOM     88  F   UNL A   1      48.017  28.420  26.104  1.00  0.00    -0.206 F 
ATOM     89  C   UNL A   1      50.121  27.718  26.868  1.00  0.00     0.059 A 
ATOM     90  C   UNL A   1      50.376  26.933  29.154  1.00  0.00     0.059 A 
ATOM     91  F   UNL A   1      48.509  26.858  30.573  1.00  0.00    -0.206 F 
ATOM     92  C   UNL A   1      50.915  27.210  27.898  1.00  0.00     0.060 A 
BRANCH  92  93
ATOM     93  S   UNL A   1      52.672  26.940  27.583  1.00  0.00     0.124 S 
ATOM     94  O   UNL A   1      52.951  27.964  26.582  1.00  0.00    -0.237 OA
ATOM     95  O   UNL A   1      53.264  27.160  28.899  1.00  0.00    -0.237 OA
ATOM     96  O   UNL A   1      52.722  25.561  27.104  1.00  0.00    -0.744 OA
ENDBRANCH  92  93
ENDBRANCH  60  85
ENDBRANCH  34  35
ENDBRANCH  27  29
ENDBRANCH  26  27
ENDBRANCH  25  26
ENDBRANCH   1  25
TORSDOF 19
ENDMDL
MODEL 2
REMARK VINA RESULT:     -11.3      1.797      3.881
REMARK SMILES COCC[C@]1(C(=O)OCCOC(=O)c2ccc(-c3c4nc(c(-c5c(F)cc(S(=O)(=O)[O-])cc5F)c5ccc([nH]5)c(-c5c(F)cc(S(=O)(=O)[O-])cc5F)c5nc(c(-c6c(F)cc(S(=O)(=O)[O-])cc6F)c6ccc3[nH]6)C=C5)C=C4)cc2)CCCN(C(=O)c2ccc(=O)[nH]c2)C1
REMARK SMILES IDX 9 1 8 2 6 3 7 4 5 5 80 6 93 7 81 8 83 9 82 10 4 11 3 12 2 13
REMARK SMILES IDX 1 14 84 15 85 16 86 17 87 18 92 19 88 20 91 21 89 22 90 24
REMARK SMILES IDX 10 25 11 26 12 27 13 28 14 29 15 30 79 31 16 32 78 33 17 34
REMARK SMILES IDX 18 35 19 36 72 37 20 38 77 39 71 40 73 41 21 42 76 43 70 44
REMARK SMILES IDX 69 45 22 47 56 48 35 49 55 50 36 51 39 52 54 53 74 54 37 55
REMARK SMILES IDX 38 56 53 58 75 59 40 60 23 61 24 62 33 63 25 64 26 65 32 66
REMARK SMILES IDX 34 67 27 68 28 69 29 70 30 71 31 72 57 73 58 74 67 75 59 76
REMARK SMILES IDX 60 77 66 78 68 79 61 80 62 81 63 82 64 83 65 84 41 85 42 86
REMARK SMILES IDX 51 87 43 88 44 89 50 90 52 91 45 92 46 93 47 94 48 95 49 96
REMARK H PARENT 91 23 73 46 39 57
REMARK Flexibility Score: inf
ROOT
ATOM      1  C   UNL A   1      33.706  29.943  27.039  1.00  0.00     0.274 C 
ENDROOT
BRANCH   1   2
ATOM      2  O   UNL A   1      32.382  29.550  26.629  1.00  0.00    -0.462 OA
BRANCH   2   3
ATOM      3  C   UNL A   1      31.850  28.327  26.949  1.00  0.00     0.314 C 
ATOM      4  O   UNL A   1      31.270  28.048  27.983  1.00  0.00    -0.252 OA
BRANCH   3   5
ATOM      5  C   UNL A   1      32.213  27.364  25.811  1.00  0.00     0.088 C 
ATOM      6  C   UNL A   1      31.978  28.284  24.568  1.00  0.00     0.022 C 
ATOM      7  C   UNL A   1      33.713  26.915  25.759  1.00  0.00     0.138 C 
ATOM      8  C   UNL A   1      32.544  27.863  23.218  1.00  0.00     0.023 C 
ATOM      9  N   UNL A   1      33.976  26.334  24.411  1.00  0.00    -0.337 N 
ATOM     10  C   UNL A   1      33.951  27.316  23.345  1.00  0.00     0.120 C 
BRANCH   5  11
ATOM     11  C   UNL A   1      31.427  26.048  26.131  1.00  0.00     0.049 C 
BRANCH  11  12
ATOM     12  C   UNL A   1      30.038  25.706  25.615  1.00  0.00     0.161 C 
BRANCH  12  13
ATOM     13  O   UNL A   1      29.451  26.756  24.861  1.00  0.00    -0.385 OA
ATOM     14  C   UNL A   1      28.592  26.315  23.830  1.00  0.00     0.194 C 
ENDBRANCH  12  13
ENDBRANCH  11  12
ENDBRANCH   5  11
BRANCH   9  15
ATOM     15  C   UNL A   1      33.840  24.958  24.193  1.00  0.00     0.255 C 
ATOM     16  O   UNL A   1      32.865  24.457  23.637  1.00  0.00    -0.269 OA
BRANCH  15  17
ATOM     17  C   UNL A   1      35.048  24.105  24.468  1.00  0.00     0.056 A 
ATOM     18  C   UNL A   1      35.686  23.275  23.467  1.00  0.00     0.021 A 
ATOM     19  C   UNL A   1      35.541  24.105  25.719  1.00  0.00     0.099 A 
ATOM     20  C   UNL A   1      36.694  22.451  23.802  1.00  0.00     0.072 A 
ATOM     21  N   UNL A   1      36.569  23.264  26.077  1.00  0.00    -0.328 N 
ATOM     22  C   UNL A   1      37.175  22.390  25.210  1.00  0.00     0.247 A 
ATOM     23  H   UNL A   1      36.887  23.290  27.008  1.00  0.00     0.169 HD
ATOM     24  O   UNL A   1      38.050  21.603  25.553  1.00  0.00    -0.270 OA
ENDBRANCH  15  17
ENDBRANCH   9  15
ENDBRANCH   3   5
ENDBRANCH   2   3
ENDBRANCH   1   2
BRANCH   1  25
ATOM     25  C   UNL A   1      33.583  31.319  27.713  1.00  0.00     0.275 C 
BRANCH  25  26
ATOM     26  O   UNL A   1      34.890  31.867  27.947  1.00  0.00    -0.458 OA
BRANCH  26  27
ATOM     27  C   UNL A   1      35.328  31.621  29.200  1.00  0.00     0.338 C 
ATOM     28  O   UNL A   1      35.169  32.338  30.176  1.00  0.00    -0.246 OA
BRANCH  27  29
ATOM     29  C   UNL A   1      36.225  30.463  29.184  1.00  0.00     0.060 A 
ATOM     30  C   UNL A   1      36.829  30.143  27.963  1.00  0.00     0.016 A 
ATOM     31  C   UNL A   1      36.615  29.846  30.372  1.00  0.00     0.016 A 
ATOM     32  C   UNL A   1      37.932  29.303  27.941  1.00  0.00     0.010 A 
ATOM     33  C   UNL A   1      37.761  29.053  30.361  1.00  0.00     0.010 A 
ATOM     34  C   UNL A   1      38.478  28.881  29.162  1.00  0.00    -0.014 A 
BRANCH  34  35
ATOM     35  C   UNL A   1      39.948  28.706  29.247  1.00  0.00     0.031 A 
ATOM     36  C   UNL A   1      40.870  29.828  29.581  1.00  0.00     0.074 A 
ATOM     37  C   UNL A   1      40.423  27.485  28.917  1.00  0.00     0.049 A 
ATOM     38  N   UNL A   1      42.177  29.832  29.569  1.00  0.00    -0.248 NA
ATOM     39  C   UNL A   1      40.258  31.105  29.970  1.00  0.00     0.031 C 
ATOM     40  C   UNL A   1      39.593  26.327  28.556  1.00  0.00     0.029 A 
ATOM     41  N   UNL A   1      41.702  27.009  28.806  1.00  0.00    -0.354 N 
ATOM     42  C   UNL A   1      42.553  31.112  29.946  1.00  0.00     0.074 A 
ATOM     43  C   UNL A   1      41.332  31.862  30.166  1.00  0.00     0.031 C 
ATOM     44  C   UNL A   1      40.378  25.282  28.270  1.00  0.00     0.029 A 
ATOM     45  C   UNL A   1      41.766  25.708  28.364  1.00  0.00     0.049 A 
ATOM     46  H   UNL A   1      42.500  27.545  29.023  1.00  0.00     0.167 HD
ATOM     47  C   UNL A   1      43.809  31.600  30.090  1.00  0.00     0.037 A 
ATOM     48  C   UNL A   1      42.818  24.944  28.023  1.00  0.00     0.037 A 
ATOM     49  C   UNL A   1      45.006  30.831  29.849  1.00  0.00     0.049 A 
ATOM     50  C   UNL A   1      44.187  25.532  28.134  1.00  0.00     0.074 A 
ATOM     51  C   UNL A   1      46.325  31.219  30.013  1.00  0.00     0.029 A 
ATOM     52  N   UNL A   1      45.033  29.526  29.375  1.00  0.00    -0.354 N 
ATOM     53  N   UNL A   1      44.529  26.734  28.532  1.00  0.00    -0.248 NA
ATOM     54  C   UNL A   1      45.311  24.675  27.742  1.00  0.00     0.031 C 
ATOM     55  C   UNL A   1      47.147  30.166  29.594  1.00  0.00     0.029 A 
ATOM     56  C   UNL A   1      46.344  29.106  29.206  1.00  0.00     0.049 A 
ATOM     57  H   UNL A   1      44.237  28.979  29.185  1.00  0.00     0.167 HD
ATOM     58  C   UNL A   1      45.911  26.782  28.436  1.00  0.00     0.074 A 
ATOM     59  C   UNL A   1      46.342  25.477  27.966  1.00  0.00     0.031 C 
ATOM     60  C   UNL A   1      46.746  27.813  28.709  1.00  0.00     0.037 A 
BRANCH  47  61
ATOM     61  C   UNL A   1      43.956  33.036  30.509  1.00  0.00     0.058 A 
ATOM     62  C   UNL A   1      43.881  34.084  29.581  1.00  0.00     0.135 A 
ATOM     63  C   UNL A   1      44.118  33.368  31.864  1.00  0.00     0.135 A 
ATOM     64  F   UNL A   1      43.737  33.822  28.273  1.00  0.00    -0.206 F 
ATOM     65  C   UNL A   1      43.975  35.415  29.979  1.00  0.00     0.059 A 
ATOM     66  C   UNL A   1      44.196  34.693  32.287  1.00  0.00     0.059 A 
ATOM     67  F   UNL A   1      44.199  32.402  32.793  1.00  0.00    -0.206 F 
ATOM     68  C   UNL A   1      44.132  35.709  31.335  1.00  0.00     0.060 A 
BRANCH  68  69
ATOM     69  S   UNL A   1      44.237  37.440  31.839  1.00  0.00     0.124 S 
ATOM     70  O   UNL A   1      43.756  38.122  30.641  1.00  0.00    -0.237 OA
ATOM     71  O   UNL A   1      43.345  37.486  32.993  1.00  0.00    -0.237 OA
ATOM     72  O   UNL A   1      45.653  37.623  32.138  1.00  0.00    -0.744 OA
ENDBRANCH  68  69
ENDBRANCH  47  61
BRANCH  48  73
ATOM     73  C   UNL A   1      42.591  23.565  27.523  1.00  0.00     0.058 A 
ATOM     74  C   UNL A   1      42.542  23.296  26.149  1.00  0.00     0.135 A 
ATOM     75  C   UNL A   1      42.492  22.480  28.410  1.00  0.00     0.135 A 
ATOM     76  F   UNL A   1      42.634  24.301  25.265  1.00  0.00    -0.206 F 
ATOM     77  C   UNL A   1      42.402  21.998  25.668  1.00  0.00     0.059 A 
ATOM     78  C   UNL A   1      42.375  21.171  27.952  1.00  0.00     0.059 A 
ATOM     79  F   UNL A   1      42.557  22.684  29.735  1.00  0.00    -0.206 F 
ATOM     80  C   UNL A   1      42.324  20.941  26.578  1.00  0.00     0.060 A 
BRANCH  80  81
ATOM     81  S   UNL A   1      42.212  19.254  25.944  1.00  0.00     0.124 S 
ATOM     82  O   UNL A   1      42.697  18.482  27.082  1.00  0.00    -0.237 OA
ATOM     83  O   UNL A   1      40.789  19.126  25.647  1.00  0.00    -0.237 OA
ATOM     84  O   UNL A   1      43.088  19.276  24.776  1.00  0.00    -0.744 OA
ENDBRANCH  80  81
ENDBRANCH  48  73
BRANCH  60  85
ATOM     85  C   UNL A   1      48.209  27.563  28.491  1.00  0.00     0.058 A 
ATOM     86  C   UNL A   1      49.007  26.990  29.495  1.00  0.00     0.135 A 
ATOM     87  C   UNL A   1      48.818  27.888  27.270  1.00  0.00     0.135 A 
ATOM     88  F   UNL A   1      48.473  26.679  30.686  1.00  0.00    -0.206 F 
ATOM     89  C   UNL A   1      50.363  26.764  29.300  1.00  0.00     0.059 A 
ATOM     90  C   UNL A   1      50.169  27.650  27.045  1.00  0.00     0.059 A 
ATOM     91  F   UNL A   1      48.096  28.438  26.280  1.00  0.00    -0.206 F 
ATOM     92  C   UNL A   1      50.936  27.098  28.072  1.00  0.00     0.060 A 
BRANCH  92  93
ATOM     93  S   UNL A   1      52.695  26.777  27.821  1.00  0.00     0.124 S 
ATOM     94  O   UNL A   1      52.659  25.552  27.030  1.00  0.00    -0.237 OA
ATOM     95  O   UNL A   1      53.135  27.977  27.114  1.00  0.00    -0.237 OA
ATOM     96  O   UNL A   1      53.210  26.635  29.180  1.00  0.00    -0.744 OA
ENDBRANCH  92  93
ENDBRANCH  60  85
ENDBRANCH  34  35
ENDBRANCH  27  29
ENDBRANCH  26  27
ENDBRANCH  25  26
ENDBRANCH   1  25
TORSDOF 19
ENDMDL
MODEL 3
REMARK VINA RESULT:     -10.9      4.328     11.151
REMARK SMILES COCC[C@]1(C(=O)OCCOC(=O)c2ccc(-c3c4nc(c(-c5c(F)cc(S(=O)(=O)[O-])cc5F)c5ccc([nH]5)c(-c5c(F)cc(S(=O)(=O)[O-])cc5F)c5nc(c(-c6c(F)cc(S(=O)(=O)[O-])cc6F)c6ccc3[nH]6)C=C5)C=C4)cc2)CCCN(C(=O)c2ccc(=O)[nH]c2)C1
REMARK SMILES IDX 9 1 8 2 6 3 7 4 5 5 80 6 93 7 81 8 83 9 82 10 4 11 3 12 2 13
REMARK SMILES IDX 1 14 84 15 85 16 86 17 87 18 92 19 88 20 91 21 89 22 90 24
REMARK SMILES IDX 10 25 11 26 12 27 13 28 14 29 15 30 79 31 16 32 78 33 17 34
REMARK SMILES IDX 18 35 19 36 72 37 20 38 77 39 71 40 73 41 21 42 76 43 70 44
REMARK SMILES IDX 69 45 22 47 56 48 35 49 55 50 36 51 39 52 54 53 74 54 37 55
REMARK SMILES IDX 38 56 53 58 75 59 40 60 23 61 24 62 33 63 25 64 26 65 32 66
REMARK SMILES IDX 34 67 27 68 28 69 29 70 30 71 31 72 57 73 58 74 67 75 59 76
REMARK SMILES IDX 60 77 66 78 68 79 61 80 62 81 63 82 64 83 65 84 41 85 42 86
REMARK SMILES IDX 51 87 43 88 44 89 50 90 52 91 45 92 46 93 47 94 48 95 49 96
REMARK H PARENT 91 23 73 46 39 57
REMARK Flexibility Score: inf
ROOT
ATOM      1  C   UNL A   1      35.334  34.055  33.047  1.00  0.00     0.274 C 
ENDROOT
BRANCH   1   2
ATOM      2  O   UNL A   1      36.411  33.168  33.405  1.00  0.00    -0.462 OA
BRANCH   2   3
ATOM      3  C   UNL A   1      37.719  33.443  33.099  1.00  0.00     0.314 C 
ATOM      4  O   UNL A   1      38.109  34.105  32.155  1.00  0.00    -0.252 OA
BRANCH   3   5
ATOM      5  C   UNL A   1      38.589  32.679  34.106  1.00  0.00     0.088 C 
ATOM      6  C   UNL A   1      37.783  32.919  35.425  1.00  0.00     0.022 C 
ATOM      7  C   UNL A   1      38.658  31.128  33.899  1.00  0.00     0.138 C 
ATOM      8  C   UNL A   1      38.083  32.056  36.644  1.00  0.00     0.023 C 
ATOM      9  N   UNL A   1      39.187  30.516  35.152  1.00  0.00    -0.337 N 
ATOM     10  C   UNL A   1      38.265  30.599  36.268  1.00  0.00     0.120 C 
BRANCH   5  11
ATOM     11  C   UNL A   1      40.051  33.171  33.830  1.00  0.00     0.049 C 
BRANCH  11  12
ATOM     12  C   UNL A   1      40.932  33.909  34.824  1.00  0.00     0.161 C 
BRANCH  12  13
ATOM     13  O   UNL A   1      40.511  35.246  35.055  1.00  0.00    -0.385 OA
ATOM     14  C   UNL A   1      41.497  36.065  35.650  1.00  0.00     0.194 C 
ENDBRANCH  12  13
ENDBRANCH  11  12
ENDBRANCH   5  11
BRANCH   9  15
ATOM     15  C   UNL A   1      40.559  30.283  35.302  1.00  0.00     0.255 C 
ATOM     16  O   UNL A   1      41.158  30.450  36.362  1.00  0.00    -0.269 OA
BRANCH  15  17
ATOM     17  C   UNL A   1      41.259  29.596  34.161  1.00  0.00     0.056 A 
ATOM     18  C   UNL A   1      40.596  28.694  33.243  1.00  0.00     0.021 A 
ATOM     19  C   UNL A   1      42.576  29.824  34.009  1.00  0.00     0.099 A 
ATOM     20  C   UNL A   1      41.300  28.025  32.313  1.00  0.00     0.072 A 
ATOM     21  N   UNL A   1      43.309  29.144  33.065  1.00  0.00    -0.328 N 
ATOM     22  C   UNL A   1      42.773  28.214  32.209  1.00  0.00     0.247 A 
ATOM     23  H   UNL A   1      44.273  29.334  32.999  1.00  0.00     0.169 HD
ATOM     24  O   UNL A   1      43.446  27.571  31.412  1.00  0.00    -0.270 OA
ENDBRANCH  15  17
ENDBRANCH   9  15
ENDBRANCH   3   5
ENDBRANCH   2   3
ENDBRANCH   1   2
BRANCH   1  25
ATOM     25  C   UNL A   1      34.366  33.260  32.157  1.00  0.00     0.275 C 
BRANCH  25  26
ATOM     26  O   UNL A   1      34.977  32.023  31.753  1.00  0.00    -0.458 OA
BRANCH  26  27
ATOM     27  C   UNL A   1      35.140  31.950  30.415  1.00  0.00     0.338 C 
ATOM     28  O   UNL A   1      34.533  32.597  29.576  1.00  0.00    -0.246 OA
BRANCH  27  29
ATOM     29  C   UNL A   1      36.002  30.811  30.092  1.00  0.00     0.060 A 
ATOM     30  C   UNL A   1      36.343  30.632  28.746  1.00  0.00     0.016 A 
ATOM     31  C   UNL A   1      36.618  30.072  31.102  1.00  0.00     0.016 A 
ATOM     32  C   UNL A   1      37.409  29.811  28.410  1.00  0.00     0.010 A 
ATOM     33  C   UNL A   1      37.729  29.298  30.772  1.00  0.00     0.010 A 
ATOM     34  C   UNL A   1      38.186  29.265  29.441  1.00  0.00    -0.014 A 
BRANCH  34  35
ATOM     35  C   UNL A   1      39.641  29.098  29.207  1.00  0.00     0.031 A 
ATOM     36  C   UNL A   1      40.240  27.805  28.772  1.00  0.00     0.074 A 
ATOM     37  C   UNL A   1      40.416  30.168  29.494  1.00  0.00     0.049 A 
ATOM     38  N   UNL A   1      41.504  27.501  28.650  1.00  0.00    -0.248 NA
ATOM     39  C   UNL A   1      39.313  26.716  28.440  1.00  0.00     0.031 C 
ATOM     40  C   UNL A   1      39.917  31.474  29.945  1.00  0.00     0.029 A 
ATOM     41  N   UNL A   1      41.775  30.333  29.475  1.00  0.00    -0.354 N 
ATOM     42  C   UNL A   1      41.535  26.180  28.228  1.00  0.00     0.074 A 
ATOM     43  C   UNL A   1      40.157  25.738  28.130  1.00  0.00     0.031 C 
ATOM     44  C   UNL A   1      40.947  32.301  30.156  1.00  0.00     0.029 A 
ATOM     45  C   UNL A   1      42.182  31.571  29.918  1.00  0.00     0.049 A 
ATOM     46  H   UNL A   1      42.401  29.635  29.174  1.00  0.00     0.167 HD
ATOM     47  C   UNL A   1      42.623  25.421  27.952  1.00  0.00     0.037 A 
ATOM     48  C   UNL A   1      43.411  32.061  30.153  1.00  0.00     0.037 A 
ATOM     49  C   UNL A   1      43.983  25.886  28.074  1.00  0.00     0.049 A 
ATOM     50  C   UNL A   1      44.588  31.177  29.898  1.00  0.00     0.074 A 
ATOM     51  C   UNL A   1      45.154  25.210  27.772  1.00  0.00     0.029 A 
ATOM     52  N   UNL A   1      44.358  27.136  28.551  1.00  0.00    -0.354 N 
ATOM     53  N   UNL A   1      44.602  29.942  29.460  1.00  0.00    -0.248 NA
ATOM     54  C   UNL A   1      45.913  31.741  30.178  1.00  0.00     0.031 C 
ATOM     55  C   UNL A   1      46.235  26.033  28.111  1.00  0.00     0.029 A 
ATOM     56  C   UNL A   1      45.741  27.238  28.587  1.00  0.00     0.049 A 
ATOM     57  H   UNL A   1      43.734  27.845  28.825  1.00  0.00     0.167 HD
ATOM     58  C   UNL A   1      45.937  29.574  29.412  1.00  0.00     0.074 A 
ATOM     59  C   UNL A   1      46.703  30.730  29.843  1.00  0.00     0.031 C 
ATOM     60  C   UNL A   1      46.480  28.387  29.048  1.00  0.00     0.037 A 
BRANCH  47  61
ATOM     61  C   UNL A   1      42.391  24.003  27.511  1.00  0.00     0.058 A 
ATOM     62  C   UNL A   1      42.259  23.667  26.155  1.00  0.00     0.135 A 
ATOM     63  C   UNL A   1      42.356  22.962  28.452  1.00  0.00     0.135 A 
ATOM     64  F   UNL A   1      42.274  24.625  25.215  1.00  0.00    -0.206 F 
ATOM     65  C   UNL A   1      42.086  22.347  25.748  1.00  0.00     0.059 A 
ATOM     66  C   UNL A   1      42.204  21.633  28.065  1.00  0.00     0.059 A 
ATOM     67  F   UNL A   1      42.476  23.230  29.762  1.00  0.00    -0.206 F 
ATOM     68  C   UNL A   1      42.060  21.336  26.711  1.00  0.00     0.060 A 
BRANCH  68  69
ATOM     69  S   UNL A   1      41.852  19.627  26.167  1.00  0.00     0.124 S 
ATOM     70  O   UNL A   1      42.277  18.889  27.353  1.00  0.00    -0.237 OA
ATOM     71  O   UNL A   1      40.426  19.566  25.862  1.00  0.00    -0.237 OA
ATOM     72  O   UNL A   1      42.741  19.526  25.015  1.00  0.00    -0.744 OA
ENDBRANCH  68  69
ENDBRANCH  47  61
BRANCH  48  73
ATOM     73  C   UNL A   1      43.560  33.440  30.683  1.00  0.00     0.058 A 
ATOM     74  C   UNL A   1      43.649  33.677  32.060  1.00  0.00     0.135 A 
ATOM     75  C   UNL A   1      43.691  34.539  29.817  1.00  0.00     0.135 A 
ATOM     76  F   UNL A   1      43.531  32.657  32.925  1.00  0.00    -0.206 F 
ATOM     77  C   UNL A   1      43.861  34.955  32.565  1.00  0.00     0.059 A 
ATOM     78  C   UNL A   1      43.927  35.823  30.297  1.00  0.00     0.059 A 
ATOM     79  F   UNL A   1      43.637  34.359  28.488  1.00  0.00    -0.206 F 
ATOM     80  C   UNL A   1      44.004  36.022  31.674  1.00  0.00     0.060 A 
BRANCH  80  81
ATOM     81  S   UNL A   1      44.348  37.667  32.336  1.00  0.00     0.124 S 
ATOM     82  O   UNL A   1      43.426  37.728  33.463  1.00  0.00    -0.237 OA
ATOM     83  O   UNL A   1      45.766  37.575  32.675  1.00  0.00    -0.237 OA
ATOM     84  O   UNL A   1      44.038  38.550  31.215  1.00  0.00    -0.744 OA
ENDBRANCH  80  81
ENDBRANCH  48  73
BRANCH  60  85
ATOM     85  C   UNL A   1      47.975  28.287  29.116  1.00  0.00     0.058 A 
ATOM     86  C   UNL A   1      48.622  27.863  30.288  1.00  0.00     0.135 A 
ATOM     87  C   UNL A   1      48.767  28.606  28.004  1.00  0.00     0.135 A 
ATOM     88  F   UNL A   1      47.907  27.565  31.384  1.00  0.00    -0.206 F 
ATOM     89  C   UNL A   1      50.007  27.776  30.359  1.00  0.00     0.059 A 
ATOM     90  C   UNL A   1      50.153  28.504  28.044  1.00  0.00     0.059 A 
ATOM     91  F   UNL A   1      48.193  29.016  26.860  1.00  0.00    -0.206 F 
ATOM     92  C   UNL A   1      50.764  28.100  29.232  1.00  0.00     0.060 A 
BRANCH  92  93
ATOM     93  S   UNL A   1      52.561  27.959  29.327  1.00  0.00     0.124 S 
ATOM     94  O   UNL A   1      52.765  26.558  28.974  1.00  0.00    -0.237 OA
ATOM     95  O   UNL A   1      53.005  28.935  28.336  1.00  0.00    -0.237 OA
ATOM     96  O   UNL A   1      52.855  28.308  30.715  1.00  0.00    -0.744 OA
ENDBRANCH  92  93
ENDBRANCH  60  85
ENDBRANCH  34  35
ENDBRANCH  27  29
ENDBRANCH  26  27
ENDBRANCH  25  26
ENDBRANCH   1  25
TORSDOF 19
ENDMDL
