MODEL 1
REMARK VINA RESULT:      -8.8      0.000      0.000
REMARK SMILES C=CCN(CC(=O)OCCOC(=O)c1ccc(-c2c3nc(c(-c4c(F)cc(S(=O)(=O)[O-])cc4F)c4ccc([nH]4)c(-c4c(F)cc(S(=O)(=O)[O-])cc4F)c4nc(c(-c5c(F)cc(S(=O)(=O)[O-])cc5F)c5ccc2[nH]5)C=C4)C=C3)cc1)C(=O)C1C[NH2+]C1
REMARK SMILES IDX 9 1 8 2 6 3 7 4 5 5 4 6 3 7 2 8 1 9 80 10 81 11 82 12 83 13
REMARK SMILES IDX 85 14 84 15 10 18 11 19 12 20 13 21 14 22 15 23 79 24 16 25
REMARK SMILES IDX 78 26 17 27 18 28 19 29 72 30 20 31 77 32 71 33 73 34 21 35
REMARK SMILES IDX 76 36 70 37 69 38 22 40 56 41 35 42 55 43 36 44 39 45 54 46
REMARK SMILES IDX 74 47 37 48 38 49 53 51 75 52 40 53 23 54 24 55 33 56 25 57
REMARK SMILES IDX 26 58 32 59 34 60 27 61 28 62 29 63 30 64 31 65 57 66 58 67
REMARK SMILES IDX 67 68 59 69 60 70 66 71 68 72 61 73 62 74 63 75 64 76 65 77
REMARK SMILES IDX 41 78 42 79 51 80 43 81 44 82 50 83 52 84 45 85 46 86 47 87
REMARK SMILES IDX 48 88 49 89
REMARK H PARENT 84 16 84 17 73 39 39 50
REMARK Flexibility Score: inf
ROOT
ATOM      1  C   UNL A   1      34.331  33.774  31.147  1.00  0.00     0.274 C 
ENDROOT
BRANCH   1   2
ATOM      2  O   UNL A   1      34.140  32.839  32.226  1.00  0.00    -0.461 OA
BRANCH   2   3
ATOM      3  C   UNL A   1      35.061  32.916  33.225  1.00  0.00     0.325 C 
ATOM      4  O   UNL A   1      34.882  33.490  34.295  1.00  0.00    -0.250 OA
BRANCH   3   5
ATOM      5  C   UNL A   1      36.325  32.105  32.953  1.00  0.00     0.242 C 
BRANCH   5   6
ATOM      6  N   UNL A   1      37.606  32.810  33.022  1.00  0.00    -0.327 N 
BRANCH   6   7
ATOM      7  C   UNL A   1      38.593  32.279  33.951  1.00  0.00     0.147 C 
BRANCH   7   8
ATOM      8  C   UNL A   1      39.431  31.282  33.197  1.00  0.00    -0.014 C 
ATOM      9  C   UNL A   1      39.447  29.968  33.457  1.00  0.00     0.006 C 
ENDBRANCH   7   8
ENDBRANCH   6   7
BRANCH   6  10
ATOM     10  C   UNL A   1      37.968  33.925  32.256  1.00  0.00     0.237 C 
ATOM     11  O   UNL A   1      37.734  35.067  32.683  1.00  0.00    -0.274 OA
BRANCH  10  12
ATOM     12  C   UNL A   1      38.677  33.728  30.902  1.00  0.00     0.188 C 
ATOM     13  C   UNL A   1      37.741  33.784  29.660  1.00  0.00     0.280 C 
ATOM     14  C   UNL A   1      39.384  34.904  30.187  1.00  0.00     0.280 C 
ATOM     15  N   UNL A   1      38.842  34.417  28.903  1.00  0.00    -0.345 N 
ATOM     16  H   UNL A   1      38.544  35.155  28.263  1.00  0.00     0.346 HD
ATOM     17  H   UNL A   1      39.416  33.881  28.253  1.00  0.00     0.346 HD
ENDBRANCH  10  12
ENDBRANCH   6  10
ENDBRANCH   5   6
ENDBRANCH   3   5
ENDBRANCH   2   3
ENDBRANCH   1   2
BRANCH   1  18
ATOM     18  C   UNL A   1      34.526  33.050  29.816  1.00  0.00     0.275 C 
BRANCH  18  19
ATOM     19  O   UNL A   1      34.882  31.672  30.035  1.00  0.00    -0.458 OA
BRANCH  19  20
ATOM     20  C   UNL A   1      35.035  30.932  28.917  1.00  0.00     0.338 C 
ATOM     21  O   UNL A   1      34.224  30.808  28.004  1.00  0.00    -0.246 OA
BRANCH  20  22
ATOM     22  C   UNL A   1      36.342  30.248  28.889  1.00  0.00     0.060 A 
ATOM     23  C   UNL A   1      36.959  29.800  30.058  1.00  0.00     0.016 A 
ATOM     24  C   UNL A   1      37.025  30.191  27.671  1.00  0.00     0.016 A 
ATOM     25  C   UNL A   1      38.297  29.390  30.019  1.00  0.00     0.010 A 
ATOM     26  C   UNL A   1      38.334  29.710  27.624  1.00  0.00     0.010 A 
ATOM     27  C   UNL A   1      39.003  29.353  28.805  1.00  0.00    -0.014 A 
BRANCH  27  28
ATOM     28  C   UNL A   1      40.448  28.988  28.756  1.00  0.00     0.031 A 
ATOM     29  C   UNL A   1      41.505  30.004  29.112  1.00  0.00     0.074 A 
ATOM     30  C   UNL A   1      40.824  27.749  28.387  1.00  0.00     0.049 A 
ATOM     31  N   UNL A   1      42.808  29.920  29.000  1.00  0.00    -0.248 NA
ATOM     32  C   UNL A   1      41.035  31.286  29.659  1.00  0.00     0.031 C 
ATOM     33  C   UNL A   1      39.916  26.654  28.044  1.00  0.00     0.029 A 
ATOM     34  N   UNL A   1      42.075  27.203  28.242  1.00  0.00    -0.354 N 
ATOM     35  C   UNL A   1      43.308  31.145  29.430  1.00  0.00     0.074 A 
ATOM     36  C   UNL A   1      42.169  31.958  29.800  1.00  0.00     0.031 C 
ATOM     37  C   UNL A   1      40.638  25.558  27.767  1.00  0.00     0.029 A 
ATOM     38  C   UNL A   1      42.058  25.888  27.847  1.00  0.00     0.049 A 
ATOM     39  H   UNL A   1      42.905  27.707  28.406  1.00  0.00     0.167 HD
ATOM     40  C   UNL A   1      44.597  31.559  29.509  1.00  0.00     0.037 A 
ATOM     41  C   UNL A   1      43.068  25.045  27.555  1.00  0.00     0.037 A 
ATOM     42  C   UNL A   1      45.737  30.748  29.172  1.00  0.00     0.049 A 
ATOM     43  C   UNL A   1      44.486  25.529  27.621  1.00  0.00     0.074 A 
ATOM     44  C   UNL A   1      47.080  31.085  29.213  1.00  0.00     0.029 A 
ATOM     45  N   UNL A   1      45.671  29.431  28.742  1.00  0.00    -0.354 N 
ATOM     46  N   UNL A   1      44.937  26.711  27.964  1.00  0.00    -0.248 NA
ATOM     47  C   UNL A   1      45.532  24.570  27.240  1.00  0.00     0.031 C 
ATOM     48  C   UNL A   1      47.825  29.976  28.791  1.00  0.00     0.029 A 
ATOM     49  C   UNL A   1      46.946  28.942  28.511  1.00  0.00     0.049 A 
ATOM     50  H   UNL A   1      44.840  28.919  28.621  1.00  0.00     0.167 HD
ATOM     51  C   UNL A   1      46.319  26.639  27.842  1.00  0.00     0.074 A 
ATOM     52  C   UNL A   1      46.632  25.293  27.407  1.00  0.00     0.031 C 
ATOM     53  C   UNL A   1      47.244  27.604  28.068  1.00  0.00     0.037 A 
BRANCH  40  54
ATOM     54  C   UNL A   1      44.839  32.974  29.954  1.00  0.00     0.058 A 
ATOM     55  C   UNL A   1      45.054  33.297  31.303  1.00  0.00     0.135 A 
ATOM     56  C   UNL A   1      44.870  34.018  29.016  1.00  0.00     0.135 A 
ATOM     57  F   UNL A   1      45.020  32.336  32.240  1.00  0.00    -0.206 F 
ATOM     58  C   UNL A   1      45.267  34.611  31.711  1.00  0.00     0.059 A 
ATOM     59  C   UNL A   1      45.099  35.336  29.399  1.00  0.00     0.059 A 
ATOM     60  F   UNL A   1      44.670  33.761  27.714  1.00  0.00    -0.206 F 
ATOM     61  C   UNL A   1      45.279  35.625  30.751  1.00  0.00     0.060 A 
BRANCH  61  62
ATOM     62  S   UNL A   1      45.547  37.331  31.281  1.00  0.00     0.124 S 
ATOM     63  O   UNL A   1      45.391  37.212  32.727  1.00  0.00    -0.237 OA
ATOM     64  O   UNL A   1      46.901  37.604  30.811  1.00  0.00    -0.237 OA
ATOM     65  O   UNL A   1      44.490  38.066  30.593  1.00  0.00    -0.744 OA
ENDBRANCH  61  62
ENDBRANCH  40  54
BRANCH  41  66
ATOM     66  C   UNL A   1      42.752  23.648  27.171  1.00  0.00     0.058 A 
ATOM     67  C   UNL A   1      42.796  23.251  25.828  1.00  0.00     0.135 A 
ATOM     68  C   UNL A   1      42.478  22.671  28.140  1.00  0.00     0.135 A 
ATOM     69  F   UNL A   1      43.044  24.156  24.869  1.00  0.00    -0.206 F 
ATOM     70  C   UNL A   1      42.599  21.925  25.456  1.00  0.00     0.059 A 
ATOM     71  C   UNL A   1      42.296  21.336  27.795  1.00  0.00     0.059 A 
ATOM     72  F   UNL A   1      42.437  23.005  29.439  1.00  0.00    -0.206 F 
ATOM     73  C   UNL A   1      42.362  20.972  26.450  1.00  0.00     0.060 A 
BRANCH  73  74
ATOM     74  S   UNL A   1      42.232  19.233  25.981  1.00  0.00     0.124 S 
ATOM     75  O   UNL A   1      43.124  19.173  24.829  1.00  0.00    -0.237 OA
ATOM     76  O   UNL A   1      42.695  18.549  27.184  1.00  0.00    -0.237 OA
ATOM     77  O   UNL A   1      40.809  19.076  25.692  1.00  0.00    -0.744 OA
ENDBRANCH  73  74
ENDBRANCH  41  66
BRANCH  53  78
ATOM     78  C   UNL A   1      48.680  27.231  27.855  1.00  0.00     0.058 A 
ATOM     79  C   UNL A   1      49.277  27.316  26.587  1.00  0.00     0.135 A 
ATOM     80  C   UNL A   1      49.472  26.793  28.928  1.00  0.00     0.135 A 
ATOM     81  F   UNL A   1      48.558  27.723  25.530  1.00  0.00    -0.206 F 
ATOM     82  C   UNL A   1      50.604  26.955  26.385  1.00  0.00     0.059 A 
ATOM     83  C   UNL A   1      50.807  26.440  28.751  1.00  0.00     0.059 A 
ATOM     84  F   UNL A   1      48.948  26.701  30.161  1.00  0.00    -0.206 F 
ATOM     85  C   UNL A   1      51.359  26.510  27.473  1.00  0.00     0.060 A 
BRANCH  85  86
ATOM     86  S   UNL A   1      53.083  26.043  27.207  1.00  0.00     0.124 S 
ATOM     87  O   UNL A   1      52.937  24.790  26.475  1.00  0.00    -0.237 OA
ATOM     88  O   UNL A   1      53.605  27.168  26.437  1.00  0.00    -0.237 OA
ATOM     89  O   UNL A   1      53.611  25.922  28.563  1.00  0.00    -0.744 OA
ENDBRANCH  85  86
ENDBRANCH  53  78
ENDBRANCH  27  28
ENDBRANCH  20  22
ENDBRANCH  19  20
ENDBRANCH  18  19
ENDBRANCH   1  18
TORSDOF 19
ENDMDL
MODEL 2
REMARK VINA RESULT:      -8.7      0.873      1.888
REMARK SMILES C=CCN(CC(=O)OCCOC(=O)c1ccc(-c2c3nc(c(-c4c(F)cc(S(=O)(=O)[O-])cc4F)c4ccc([nH]4)c(-c4c(F)cc(S(=O)(=O)[O-])cc4F)c4nc(c(-c5c(F)cc(S(=O)(=O)[O-])cc5F)c5ccc2[nH]5)C=C4)C=C3)cc1)C(=O)C1C[NH2+]C1
REMARK SMILES IDX 9 1 8 2 6 3 7 4 5 5 4 6 3 7 2 8 1 9 80 10 81 11 82 12 83 13
REMARK SMILES IDX 85 14 84 15 10 18 11 19 12 20 13 21 14 22 15 23 79 24 16 25
REMARK SMILES IDX 78 26 17 27 18 28 19 29 72 30 20 31 77 32 71 33 73 34 21 35
REMARK SMILES IDX 76 36 70 37 69 38 22 40 56 41 35 42 55 43 36 44 39 45 54 46
REMARK SMILES IDX 74 47 37 48 38 49 53 51 75 52 40 53 23 54 24 55 33 56 25 57
REMARK SMILES IDX 26 58 32 59 34 60 27 61 28 62 29 63 30 64 31 65 57 66 58 67
REMARK SMILES IDX 67 68 59 69 60 70 66 71 68 72 61 73 62 74 63 75 64 76 65 77
REMARK SMILES IDX 41 78 42 79 51 80 43 81 44 82 50 83 52 84 45 85 46 86 47 87
REMARK SMILES IDX 48 88 49 89
REMARK H PARENT 84 16 84 17 73 39 39 50
REMARK Flexibility Score: inf
ROOT
ATOM      1  C   UNL A   1      34.399  34.124  29.876  1.00  0.00     0.274 C 
ENDROOT
BRANCH   1   2
ATOM      2  O   UNL A   1      33.866  33.958  31.205  1.00  0.00    -0.461 OA
BRANCH   2   3
ATOM      3  C   UNL A   1      34.679  34.386  32.209  1.00  0.00     0.325 C 
ATOM      4  O   UNL A   1      34.600  35.485  32.749  1.00  0.00    -0.250 OA
BRANCH   3   5
ATOM      5  C   UNL A   1      35.645  33.315  32.711  1.00  0.00     0.242 C 
BRANCH   5   6
ATOM      6  N   UNL A   1      37.076  33.610  32.634  1.00  0.00    -0.327 N 
BRANCH   6   7
ATOM      7  C   UNL A   1      37.543  34.259  31.417  1.00  0.00     0.147 C 
BRANCH   7   8
ATOM      8  C   UNL A   1      37.794  33.180  30.399  1.00  0.00    -0.014 C 
ATOM      9  C   UNL A   1      38.154  33.416  29.129  1.00  0.00     0.006 C 
ENDBRANCH   7   8
ENDBRANCH   6   7
BRANCH   6  10
ATOM     10  C   UNL A   1      38.020  33.349  33.634  1.00  0.00     0.237 C 
ATOM     11  O   UNL A   1      38.997  34.104  33.770  1.00  0.00    -0.274 OA
BRANCH  10  12
ATOM     12  C   UNL A   1      37.828  32.144  34.575  1.00  0.00     0.188 C 
ATOM     13  C   UNL A   1      37.707  30.768  33.858  1.00  0.00     0.280 C 
ATOM     14  C   UNL A   1      39.033  31.464  35.266  1.00  0.00     0.280 C 
ATOM     15  N   UNL A   1      38.416  30.151  34.998  1.00  0.00    -0.345 N 
ATOM     16  H   UNL A   1      39.077  29.418  34.737  1.00  0.00     0.346 HD
ATOM     17  H   UNL A   1      37.912  29.643  35.724  1.00  0.00     0.346 HD
ENDBRANCH  10  12
ENDBRANCH   6  10
ENDBRANCH   5   6
ENDBRANCH   3   5
ENDBRANCH   2   3
ENDBRANCH   1   2
BRANCH   1  18
ATOM     18  C   UNL A   1      34.122  32.895  29.012  1.00  0.00     0.275 C 
BRANCH  18  19
ATOM     19  O   UNL A   1      34.866  31.758  29.492  1.00  0.00    -0.458 OA
BRANCH  19  20
ATOM     20  C   UNL A   1      34.899  30.699  28.657  1.00  0.00     0.338 C 
ATOM     21  O   UNL A   1      33.978  30.288  27.958  1.00  0.00    -0.246 OA
BRANCH  20  22
ATOM     22  C   UNL A   1      36.220  30.043  28.659  1.00  0.00     0.060 A 
ATOM     23  C   UNL A   1      36.766  29.500  29.824  1.00  0.00     0.016 A 
ATOM     24  C   UNL A   1      36.986  30.110  27.492  1.00  0.00     0.016 A 
ATOM     25  C   UNL A   1      38.112  29.118  29.843  1.00  0.00     0.010 A 
ATOM     26  C   UNL A   1      38.306  29.658  27.495  1.00  0.00     0.010 A 
ATOM     27  C   UNL A   1      38.902  29.205  28.683  1.00  0.00    -0.014 A 
BRANCH  27  28
ATOM     28  C   UNL A   1      40.354  28.871  28.703  1.00  0.00     0.031 A 
ATOM     29  C   UNL A   1      41.369  29.901  29.134  1.00  0.00     0.074 A 
ATOM     30  C   UNL A   1      40.776  27.648  28.331  1.00  0.00     0.049 A 
ATOM     31  N   UNL A   1      42.678  29.847  29.089  1.00  0.00    -0.248 NA
ATOM     32  C   UNL A   1      40.844  31.162  29.679  1.00  0.00     0.031 C 
ATOM     33  C   UNL A   1      39.911  26.541  27.921  1.00  0.00     0.029 A 
ATOM     34  N   UNL A   1      42.045  27.131  28.242  1.00  0.00    -0.354 N 
ATOM     35  C   UNL A   1      43.128  31.073  29.568  1.00  0.00     0.074 A 
ATOM     36  C   UNL A   1      41.953  31.854  29.892  1.00  0.00     0.031 C 
ATOM     37  C   UNL A   1      40.671  25.466  27.661  1.00  0.00     0.029 A 
ATOM     38  C   UNL A   1      42.077  25.824  27.822  1.00  0.00     0.049 A 
ATOM     39  H   UNL A   1      42.854  27.648  28.459  1.00  0.00     0.167 HD
ATOM     40  C   UNL A   1      44.402  31.512  29.722  1.00  0.00     0.037 A 
ATOM     41  C   UNL A   1      43.118  25.008  27.568  1.00  0.00     0.037 A 
ATOM     42  C   UNL A   1      45.575  30.731  29.430  1.00  0.00     0.049 A 
ATOM     43  C   UNL A   1      44.521  25.520  27.717  1.00  0.00     0.074 A 
ATOM     44  C   UNL A   1      46.906  31.095  29.548  1.00  0.00     0.029 A 
ATOM     45  N   UNL A   1      45.560  29.423  28.973  1.00  0.00    -0.354 N 
ATOM     46  N   UNL A   1      44.927  26.704  28.106  1.00  0.00    -0.248 NA
ATOM     47  C   UNL A   1      45.605  24.591  27.374  1.00  0.00     0.031 C 
ATOM     48  C   UNL A   1      47.696  30.011  29.145  1.00  0.00     0.029 A 
ATOM     49  C   UNL A   1      46.856  28.965  28.800  1.00  0.00     0.049 A 
ATOM     50  H   UNL A   1      44.747  28.896  28.798  1.00  0.00     0.167 HD
ATOM     51  C   UNL A   1      46.315  26.663  28.056  1.00  0.00     0.074 A 
ATOM     52  C   UNL A   1      46.679  25.332  27.612  1.00  0.00     0.031 C 
ATOM     53  C   UNL A   1      47.205  27.642  28.348  1.00  0.00     0.037 A 
BRANCH  40  54
ATOM     54  C   UNL A   1      44.589  32.922  30.206  1.00  0.00     0.058 A 
ATOM     55  C   UNL A   1      44.771  33.218  31.566  1.00  0.00     0.135 A 
ATOM     56  C   UNL A   1      44.601  33.990  29.295  1.00  0.00     0.135 A 
ATOM     57  F   UNL A   1      44.754  32.234  32.478  1.00  0.00    -0.206 F 
ATOM     58  C   UNL A   1      44.934  34.527  32.010  1.00  0.00     0.059 A 
ATOM     59  C   UNL A   1      44.780  35.305  29.714  1.00  0.00     0.059 A 
ATOM     60  F   UNL A   1      44.430  33.760  27.983  1.00  0.00    -0.206 F 
ATOM     61  C   UNL A   1      44.928  35.565  31.075  1.00  0.00     0.060 A 
BRANCH  61  62
ATOM     62  S   UNL A   1      45.131  37.265  31.652  1.00  0.00     0.124 S 
ATOM     63  O   UNL A   1      43.794  37.559  32.159  1.00  0.00    -0.237 OA
ATOM     64  O   UNL A   1      46.177  37.139  32.661  1.00  0.00    -0.237 OA
ATOM     65  O   UNL A   1      45.517  37.986  30.442  1.00  0.00    -0.744 OA
ENDBRANCH  61  62
ENDBRANCH  40  54
BRANCH  41  66
ATOM     66  C   UNL A   1      42.853  23.612  27.141  1.00  0.00     0.058 A 
ATOM     67  C   UNL A   1      43.004  23.237  25.800  1.00  0.00     0.135 A 
ATOM     68  C   UNL A   1      42.522  22.617  28.073  1.00  0.00     0.135 A 
ATOM     69  F   UNL A   1      43.310  24.159  24.875  1.00  0.00    -0.206 F 
ATOM     70  C   UNL A   1      42.856  21.914  25.396  1.00  0.00     0.059 A 
ATOM     71  C   UNL A   1      42.387  21.285  27.697  1.00  0.00     0.059 A 
ATOM     72  F   UNL A   1      42.379  22.931  29.369  1.00  0.00    -0.206 F 
ATOM     73  C   UNL A   1      42.559  20.943  26.355  1.00  0.00     0.060 A 
BRANCH  73  74
ATOM     74  S   UNL A   1      42.491  19.209  25.853  1.00  0.00     0.124 S 
ATOM     75  O   UNL A   1      43.287  19.226  24.632  1.00  0.00    -0.237 OA
ATOM     76  O   UNL A   1      43.090  18.528  26.997  1.00  0.00    -0.237 OA
ATOM     77  O   UNL A   1      41.061  18.975  25.676  1.00  0.00    -0.744 OA
ENDBRANCH  73  74
ENDBRANCH  41  66
BRANCH  53  78
ATOM     78  C   UNL A   1      48.659  27.303  28.204  1.00  0.00     0.058 A 
ATOM     79  C   UNL A   1      49.406  26.819  29.289  1.00  0.00     0.135 A 
ATOM     80  C   UNL A   1      49.309  27.451  26.969  1.00  0.00     0.135 A 
ATOM     81  F   UNL A   1      48.829  26.666  30.491  1.00  0.00    -0.206 F 
ATOM     82  C   UNL A   1      50.758  26.519  29.162  1.00  0.00     0.059 A 
ATOM     83  C   UNL A   1      50.658  27.144  26.816  1.00  0.00     0.059 A 
ATOM     84  F   UNL A   1      48.635  27.904  25.900  1.00  0.00    -0.206 F 
ATOM     85  C   UNL A   1      51.377  26.693  27.922  1.00  0.00     0.060 A 
BRANCH  85  86
ATOM     86  S   UNL A   1      53.133  26.301  27.760  1.00  0.00     0.124 S 
ATOM     87  O   UNL A   1      53.099  25.197  26.808  1.00  0.00    -0.237 OA
ATOM     88  O   UNL A   1      53.695  27.552  27.260  1.00  0.00    -0.237 OA
ATOM     89  O   UNL A   1      53.524  25.947  29.122  1.00  0.00    -0.744 OA
ENDBRANCH  85  86
ENDBRANCH  53  78
ENDBRANCH  27  28
ENDBRANCH  20  22
ENDBRANCH  19  20
ENDBRANCH  18  19
ENDBRANCH   1  18
TORSDOF 19
ENDMDL
MODEL 3
REMARK VINA RESULT:      -8.6      1.868      2.733
REMARK SMILES C=CCN(CC(=O)OCCOC(=O)c1ccc(-c2c3nc(c(-c4c(F)cc(S(=O)(=O)[O-])cc4F)c4ccc([nH]4)c(-c4c(F)cc(S(=O)(=O)[O-])cc4F)c4nc(c(-c5c(F)cc(S(=O)(=O)[O-])cc5F)c5ccc2[nH]5)C=C4)C=C3)cc1)C(=O)C1C[NH2+]C1
REMARK SMILES IDX 9 1 8 2 6 3 7 4 5 5 4 6 3 7 2 8 1 9 80 10 81 11 82 12 83 13
REMARK SMILES IDX 85 14 84 15 10 18 11 19 12 20 13 21 14 22 15 23 79 24 16 25
REMARK SMILES IDX 78 26 17 27 18 28 19 29 72 30 20 31 77 32 71 33 73 34 21 35
REMARK SMILES IDX 76 36 70 37 69 38 22 40 56 41 35 42 55 43 36 44 39 45 54 46
REMARK SMILES IDX 74 47 37 48 38 49 53 51 75 52 40 53 23 54 24 55 33 56 25 57
REMARK SMILES IDX 26 58 32 59 34 60 27 61 28 62 29 63 30 64 31 65 57 66 58 67
REMARK SMILES IDX 67 68 59 69 60 70 66 71 68 72 61 73 62 74 63 75 64 76 65 77
REMARK SMILES IDX 41 78 42 79 51 80 43 81 44 82 50 83 52 84 45 85 46 86 47 87
REMARK SMILES IDX 48 88 49 89
REMARK H PARENT 84 16 84 17 73 39 39 50
REMARK Flexibility Score: inf
ROOT
ATOM      1  C   UNL A   1      34.187  34.364  28.958  1.00  0.00     0.274 C 
ENDROOT
BRANCH   1   2
ATOM      2  O   UNL A   1      33.599  33.953  30.208  1.00  0.00    -0.461 OA
BRANCH   2   3
ATOM      3  C   UNL A   1      34.127  34.545  31.314  1.00  0.00     0.325 C 
ATOM      4  O   UNL A   1      34.107  35.752  31.536  1.00  0.00    -0.250 OA
BRANCH   3   5
ATOM      5  C   UNL A   1      34.651  33.550  32.347  1.00  0.00     0.242 C 
BRANCH   5   6
ATOM      6  N   UNL A   1      36.097  33.509  32.567  1.00  0.00    -0.327 N 
BRANCH   6   7
ATOM      7  C   UNL A   1      36.932  34.104  31.534  1.00  0.00     0.147 C 
BRANCH   7   8
ATOM      8  C   UNL A   1      37.151  33.059  30.473  1.00  0.00    -0.014 C 
ATOM      9  C   UNL A   1      37.845  33.268  29.346  1.00  0.00     0.006 C 
ENDBRANCH   7   8
ENDBRANCH   6   7
BRANCH   6  10
ATOM     10  C   UNL A   1      36.739  32.974  33.691  1.00  0.00     0.237 C 
ATOM     11  O   UNL A   1      36.198  33.058  34.806  1.00  0.00    -0.274 OA
BRANCH  10  12
ATOM     12  C   UNL A   1      38.096  32.263  33.534  1.00  0.00     0.188 C 
ATOM     13  C   UNL A   1      39.322  33.073  34.045  1.00  0.00     0.280 C 
ATOM     14  C   UNL A   1      38.586  31.228  34.575  1.00  0.00     0.280 C 
ATOM     15  N   UNL A   1      39.943  31.801  34.471  1.00  0.00    -0.345 N 
ATOM     16  H   UNL A   1      40.448  31.853  35.356  1.00  0.00     0.346 HD
ATOM     17  H   UNL A   1      40.668  31.352  33.913  1.00  0.00     0.346 HD
ENDBRANCH  10  12
ENDBRANCH   6  10
ENDBRANCH   5   6
ENDBRANCH   3   5
ENDBRANCH   2   3
ENDBRANCH   1   2
BRANCH   1  18
ATOM     18  C   UNL A   1      34.405  33.169  28.031  1.00  0.00     0.275 C 
BRANCH  18  19
ATOM     19  O   UNL A   1      34.345  31.935  28.771  1.00  0.00    -0.458 OA
BRANCH  19  20
ATOM     20  C   UNL A   1      34.487  30.814  28.032  1.00  0.00     0.338 C 
ATOM     21  O   UNL A   1      33.684  30.365  27.220  1.00  0.00    -0.246 OA
BRANCH  20  22
ATOM     22  C   UNL A   1      35.771  30.141  28.304  1.00  0.00     0.060 A 
ATOM     23  C   UNL A   1      36.061  29.592  29.555  1.00  0.00     0.016 A 
ATOM     24  C   UNL A   1      36.761  30.196  27.318  1.00  0.00     0.016 A 
ATOM     25  C   UNL A   1      37.370  29.193  29.848  1.00  0.00     0.010 A 
ATOM     26  C   UNL A   1      38.047  29.727  27.591  1.00  0.00     0.010 A 
ATOM     27  C   UNL A   1      38.380  29.268  28.874  1.00  0.00    -0.014 A 
BRANCH  27  28
ATOM     28  C   UNL A   1      39.793  28.915  29.191  1.00  0.00     0.031 A 
ATOM     29  C   UNL A   1      40.671  29.880  29.950  1.00  0.00     0.074 A 
ATOM     30  C   UNL A   1      40.304  27.733  28.797  1.00  0.00     0.049 A 
ATOM     31  N   UNL A   1      41.955  29.814  30.200  1.00  0.00    -0.248 NA
ATOM     32  C   UNL A   1      40.019  31.083  30.492  1.00  0.00     0.031 C 
ATOM     33  C   UNL A   1      39.569  26.688  28.084  1.00  0.00     0.029 A 
ATOM     34  N   UNL A   1      41.565  27.212  28.946  1.00  0.00    -0.354 N 
ATOM     35  C   UNL A   1      42.270  30.976  30.897  1.00  0.00     0.074 A 
ATOM     36  C   UNL A   1      41.042  31.733  31.026  1.00  0.00     0.031 C 
ATOM     37  C   UNL A   1      40.380  25.636  27.892  1.00  0.00     0.029 A 
ATOM     38  C   UNL A   1      41.708  25.957  28.408  1.00  0.00     0.049 A 
ATOM     39  H   UNL A   1      42.297  27.693  29.396  1.00  0.00     0.167 HD
ATOM     40  C   UNL A   1      43.469  31.380  31.385  1.00  0.00     0.037 A 
ATOM     41  C   UNL A   1      42.790  25.159  28.313  1.00  0.00     0.037 A 
ATOM     42  C   UNL A   1      44.687  30.620  31.288  1.00  0.00     0.049 A 
ATOM     43  C   UNL A   1      44.114  25.634  28.834  1.00  0.00     0.074 A 
ATOM     44  C   UNL A   1      45.951  30.951  31.746  1.00  0.00     0.029 A 
ATOM     45  N   UNL A   1      44.792  29.367  30.703  1.00  0.00    -0.354 N 
ATOM     46  N   UNL A   1      44.407  26.765  29.429  1.00  0.00    -0.248 NA
ATOM     47  C   UNL A   1      45.260  24.733  28.650  1.00  0.00     0.031 C 
ATOM     48  C   UNL A   1      46.825  29.906  31.421  1.00  0.00     0.029 A 
ATOM     49  C   UNL A   1      46.099  28.914  30.783  1.00  0.00     0.049 A 
ATOM     50  H   UNL A   1      44.048  28.872  30.291  1.00  0.00     0.167 HD
ATOM     51  C   UNL A   1      45.770  26.711  29.694  1.00  0.00     0.074 A 
ATOM     52  C   UNL A   1      46.241  25.431  29.206  1.00  0.00     0.031 C 
ATOM     53  C   UNL A   1      46.558  27.642  30.284  1.00  0.00     0.037 A 
BRANCH  40  54
ATOM     54  C   UNL A   1      43.524  32.728  32.047  1.00  0.00     0.058 A 
ATOM     55  C   UNL A   1      43.745  33.903  31.312  1.00  0.00     0.135 A 
ATOM     56  C   UNL A   1      43.338  32.845  33.434  1.00  0.00     0.135 A 
ATOM     57  F   UNL A   1      43.942  33.842  29.986  1.00  0.00    -0.206 F 
ATOM     58  C   UNL A   1      43.805  35.148  31.933  1.00  0.00     0.059 A 
ATOM     59  C   UNL A   1      43.377  34.081  34.073  1.00  0.00     0.059 A 
ATOM     60  F   UNL A   1      43.124  31.751  34.181  1.00  0.00    -0.206 F 
ATOM     61  C   UNL A   1      43.628  35.225  33.317  1.00  0.00     0.060 A 
BRANCH  61  62
ATOM     62  S   UNL A   1      43.715  36.839  34.123  1.00  0.00     0.124 S 
ATOM     63  O   UNL A   1      44.755  36.608  35.120  1.00  0.00    -0.237 OA
ATOM     64  O   UNL A   1      44.078  37.727  33.023  1.00  0.00    -0.237 OA
ATOM     65  O   UNL A   1      42.366  37.022  34.652  1.00  0.00    -0.744 OA
ENDBRANCH  61  62
ENDBRANCH  40  54
BRANCH  41  66
ATOM     66  C   UNL A   1      42.646  23.821  27.691  1.00  0.00     0.058 A 
ATOM     67  C   UNL A   1      42.806  23.657  26.309  1.00  0.00     0.135 A 
ATOM     68  C   UNL A   1      42.425  22.676  28.471  1.00  0.00     0.135 A 
ATOM     69  F   UNL A   1      43.008  24.727  25.525  1.00  0.00    -0.206 F 
ATOM     70  C   UNL A   1      42.772  22.398  25.719  1.00  0.00     0.059 A 
ATOM     71  C   UNL A   1      42.406  21.404  27.907  1.00  0.00     0.059 A 
ATOM     72  F   UNL A   1      42.278  22.786  29.800  1.00  0.00    -0.206 F 
ATOM     73  C   UNL A   1      42.584  21.276  26.529  1.00  0.00     0.060 A 
BRANCH  73  74
ATOM     74  S   UNL A   1      42.666  19.633  25.782  1.00  0.00     0.124 S 
ATOM     75  O   UNL A   1      41.271  19.405  25.424  1.00  0.00    -0.237 OA
ATOM     76  O   UNL A   1      43.586  19.841  24.668  1.00  0.00    -0.237 OA
ATOM     77  O   UNL A   1      43.188  18.806  26.866  1.00  0.00    -0.744 OA
ENDBRANCH  73  74
ENDBRANCH  41  66
BRANCH  53  78
ATOM     78  C   UNL A   1      48.010  27.301  30.442  1.00  0.00     0.058 A 
ATOM     79  C   UNL A   1      48.938  27.573  29.425  1.00  0.00     0.135 A 
ATOM     80  C   UNL A   1      48.481  26.707  31.623  1.00  0.00     0.135 A 
ATOM     81  F   UNL A   1      48.534  28.135  28.275  1.00  0.00    -0.206 F 
ATOM     82  C   UNL A   1      50.281  27.243  29.563  1.00  0.00     0.059 A 
ATOM     83  C   UNL A   1      49.824  26.381  31.788  1.00  0.00     0.059 A 
ATOM     84  F   UNL A   1      47.633  26.434  32.627  1.00  0.00    -0.206 F 
ATOM     85  C   UNL A   1      50.713  26.640  30.746  1.00  0.00     0.060 A 
BRANCH  85  86
ATOM     86  S   UNL A   1      52.460  26.213  30.921  1.00  0.00     0.124 S 
ATOM     87  O   UNL A   1      52.380  24.935  31.619  1.00  0.00    -0.237 OA
ATOM     88  O   UNL A   1      52.915  26.151  29.536  1.00  0.00    -0.237 OA
ATOM     89  O   UNL A   1      52.999  27.324  31.701  1.00  0.00    -0.744 OA
ENDBRANCH  85  86
ENDBRANCH  53  78
ENDBRANCH  27  28
ENDBRANCH  20  22
ENDBRANCH  19  20
ENDBRANCH  18  19
ENDBRANCH   1  18
TORSDOF 19
ENDMDL
