MODEL 1
REMARK VINA RESULT:     -11.2      0.000      0.000
REMARK SMILES CCOc1ccc(-n2ncc(C(=O)OCCOC(=O)c3ccc(-c4c5nc(c(-c6c(F)cc(S(=O)(=O)[O-])cc6F)c6ccc([nH]6)c(-c6c(F)cc(S(=O)(=O)[O-])cc6F)c6nc(c(-c7c(F)cc(S(=O)(=O)[O-])cc7F)c7ccc4[nH]7)C=C6)C=C5)cc3)c2C)nn1
REMARK SMILES IDX 15 1 14 2 12 3 13 4 11 5 8 6 9 7 86 8 10 9 87 10 7 11 4 12
REMARK SMILES IDX 5 13 89 14 6 15 88 16 3 17 2 18 1 19 16 20 17 21 18 22 19 23
REMARK SMILES IDX 20 24 21 25 85 26 22 27 84 28 23 29 24 30 25 31 78 32 26 33
REMARK SMILES IDX 83 34 77 35 79 36 27 37 82 38 76 39 75 40 28 42 62 43 41 44
REMARK SMILES IDX 61 45 42 46 45 47 60 48 80 49 43 50 44 51 59 53 81 54 46 55
REMARK SMILES IDX 29 56 30 57 39 58 31 59 32 60 38 61 40 62 33 63 34 64 35 65
REMARK SMILES IDX 36 66 37 67 63 68 64 69 73 70 65 71 66 72 72 73 74 74 67 75
REMARK SMILES IDX 68 76 69 77 70 78 71 79 47 80 48 81 57 82 49 83 50 84 56 85
REMARK SMILES IDX 58 86 51 87 52 88 53 89 54 90 55 91
REMARK H PARENT 79 41 45 52
REMARK Flexibility Score: inf
ROOT
ATOM      1  C   UNL A   1      42.757  20.614  26.093  1.00  0.00     0.275 C 
ENDROOT
BRANCH   1   2
ATOM      2  O   UNL A   1      41.524  21.281  25.768  1.00  0.00    -0.458 OA
BRANCH   2   3
ATOM      3  C   UNL A   1      40.598  21.344  26.771  1.00  0.00     0.341 C 
ATOM      4  O   UNL A   1      40.688  20.731  27.834  1.00  0.00    -0.246 OA
BRANCH   3   5
ATOM      5  C   UNL A   1      39.495  22.234  26.462  1.00  0.00     0.101 A 
ATOM      6  N   UNL A   1      37.629  23.133  25.667  1.00  0.00    -0.217 N 
ATOM      7  N   UNL A   1      38.314  24.172  26.223  1.00  0.00    -0.174 NA
ATOM      8  C   UNL A   1      38.332  21.943  25.759  1.00  0.00     0.058 A 
ATOM      9  C   UNL A   1      39.360  23.590  26.811  1.00  0.00     0.151 A 
ATOM     10  C   UNL A   1      37.848  20.688  25.120  1.00  0.00     0.068 C 
BRANCH   6  11
ATOM     11  C   UNL A   1      36.448  23.357  24.913  1.00  0.00     0.176 A 
ATOM     12  C   UNL A   1      34.291  24.056  23.443  1.00  0.00     0.233 A 
ATOM     13  C   UNL A   1      34.254  24.272  24.808  1.00  0.00     0.074 A 
ATOM     14  N   UNL A   1      35.354  23.504  22.828  1.00  0.00    -0.110 NA
ATOM     15  C   UNL A   1      35.352  23.898  25.568  1.00  0.00     0.057 A 
ATOM     16  N   UNL A   1      36.464  23.186  23.567  1.00  0.00    -0.127 NA
BRANCH  12  17
ATOM     17  O   UNL A   1      33.171  24.288  22.689  1.00  0.00    -0.477 OA
BRANCH  17  18
ATOM     18  C   UNL A   1      32.645  25.599  22.903  1.00  0.00     0.228 C 
ATOM     19  C   UNL A   1      33.459  26.642  22.150  1.00  0.00     0.049 C 
ENDBRANCH  17  18
ENDBRANCH  12  17
ENDBRANCH   6  11
ENDBRANCH   3   5
ENDBRANCH   2   3
ENDBRANCH   1   2
BRANCH   1  20
ATOM     20  C   UNL A   1      43.964  21.330  25.505  1.00  0.00     0.275 C 
BRANCH  20  21
ATOM     21  O   UNL A   1      44.185  22.575  26.159  1.00  0.00    -0.458 OA
BRANCH  21  22
ATOM     22  C   UNL A   1      43.814  23.659  25.442  1.00  0.00     0.338 C 
ATOM     23  O   UNL A   1      44.258  24.017  24.363  1.00  0.00    -0.246 OA
BRANCH  22  24
ATOM     24  C   UNL A   1      42.936  24.486  26.263  1.00  0.00     0.060 A 
ATOM     25  C   UNL A   1      42.207  25.483  25.612  1.00  0.00     0.016 A 
ATOM     26  C   UNL A   1      43.118  24.471  27.653  1.00  0.00     0.016 A 
ATOM     27  C   UNL A   1      41.881  26.606  26.335  1.00  0.00     0.010 A 
ATOM     28  C   UNL A   1      42.730  25.562  28.379  1.00  0.00     0.010 A 
ATOM     29  C   UNL A   1      42.250  26.664  27.687  1.00  0.00    -0.014 A 
BRANCH  29  30
ATOM     30  C   UNL A   1      42.007  27.873  28.438  1.00  0.00     0.031 A 
ATOM     31  C   UNL A   1      43.101  28.847  28.231  1.00  0.00     0.074 A 
ATOM     32  C   UNL A   1      40.870  28.069  29.140  1.00  0.00     0.049 A 
ATOM     33  N   UNL A   1      43.984  29.196  29.103  1.00  0.00    -0.248 NA
ATOM     34  C   UNL A   1      43.426  29.265  26.855  1.00  0.00     0.031 C 
ATOM     35  C   UNL A   1      39.689  27.208  29.273  1.00  0.00     0.029 A 
ATOM     36  N   UNL A   1      40.511  29.173  29.852  1.00  0.00    -0.354 N 
ATOM     37  C   UNL A   1      44.825  30.085  28.449  1.00  0.00     0.074 A 
ATOM     38  C   UNL A   1      44.568  29.929  27.043  1.00  0.00     0.031 C 
ATOM     39  C   UNL A   1      38.663  27.921  29.796  1.00  0.00     0.029 A 
ATOM     40  C   UNL A   1      39.146  29.237  30.161  1.00  0.00     0.049 A 
ATOM     41  H   UNL A   1      41.155  29.866  30.125  1.00  0.00     0.167 HD
ATOM     42  C   UNL A   1      45.473  31.054  29.147  1.00  0.00     0.037 A 
ATOM     43  C   UNL A   1      38.503  30.344  30.632  1.00  0.00     0.037 A 
ATOM     44  C   UNL A   1      45.465  30.762  30.558  1.00  0.00     0.049 A 
ATOM     45  C   UNL A   1      39.566  31.177  31.279  1.00  0.00     0.074 A 
ATOM     46  C   UNL A   1      46.008  29.753  31.330  1.00  0.00     0.029 A 
ATOM     47  N   UNL A   1      44.452  31.315  31.307  1.00  0.00    -0.354 N 
ATOM     48  N   UNL A   1      40.223  30.772  32.337  1.00  0.00    -0.248 NA
ATOM     49  C   UNL A   1      40.276  32.126  30.428  1.00  0.00     0.031 C 
ATOM     50  C   UNL A   1      44.999  29.438  32.286  1.00  0.00     0.029 A 
ATOM     51  C   UNL A   1      43.941  30.334  32.120  1.00  0.00     0.049 A 
ATOM     52  H   UNL A   1      44.147  32.250  31.265  1.00  0.00     0.167 HD
ATOM     53  C   UNL A   1      41.555  31.056  32.060  1.00  0.00     0.074 A 
ATOM     54  C   UNL A   1      41.520  31.915  30.873  1.00  0.00     0.031 C 
ATOM     55  C   UNL A   1      42.576  30.325  32.603  1.00  0.00     0.037 A 
BRANCH  42  56
ATOM     56  C   UNL A   1      45.750  32.428  28.608  1.00  0.00     0.058 A 
ATOM     57  C   UNL A   1      47.072  32.912  28.616  1.00  0.00     0.135 A 
ATOM     58  C   UNL A   1      44.743  33.385  28.354  1.00  0.00     0.135 A 
ATOM     59  F   UNL A   1      48.100  32.084  28.860  1.00  0.00    -0.206 F 
ATOM     60  C   UNL A   1      47.366  34.261  28.440  1.00  0.00     0.059 A 
ATOM     61  C   UNL A   1      45.019  34.727  28.128  1.00  0.00     0.059 A 
ATOM     62  F   UNL A   1      43.439  33.084  28.404  1.00  0.00    -0.206 F 
ATOM     63  C   UNL A   1      46.332  35.162  28.205  1.00  0.00     0.060 A 
BRANCH  63  64
ATOM     64  S   UNL A   1      46.716  36.911  28.030  1.00  0.00     0.124 S 
ATOM     65  O   UNL A   1      47.626  36.903  26.891  1.00  0.00    -0.237 OA
ATOM     66  O   UNL A   1      45.394  37.482  27.789  1.00  0.00    -0.237 OA
ATOM     67  O   UNL A   1      47.316  37.256  29.315  1.00  0.00    -0.744 OA
ENDBRANCH  63  64
ENDBRANCH  42  56
BRANCH  43  68
ATOM     68  C   UNL A   1      37.214  30.910  30.123  1.00  0.00     0.058 A 
ATOM     69  C   UNL A   1      36.259  31.507  30.973  1.00  0.00     0.135 A 
ATOM     70  C   UNL A   1      37.014  31.124  28.744  1.00  0.00     0.135 A 
ATOM     71  F   UNL A   1      36.369  31.377  32.304  1.00  0.00    -0.206 F 
ATOM     72  C   UNL A   1      35.205  32.301  30.485  1.00  0.00     0.059 A 
ATOM     73  C   UNL A   1      35.975  31.906  28.237  1.00  0.00     0.059 A 
ATOM     74  F   UNL A   1      37.882  30.650  27.838  1.00  0.00    -0.206 F 
ATOM     75  C   UNL A   1      35.086  32.515  29.112  1.00  0.00     0.060 A 
BRANCH  75  76
ATOM     76  S   UNL A   1      33.855  33.680  28.469  1.00  0.00     0.124 S 
ATOM     77  O   UNL A   1      32.987  32.808  27.686  1.00  0.00    -0.237 OA
ATOM     78  O   UNL A   1      33.276  34.226  29.692  1.00  0.00    -0.237 OA
ATOM     79  O   UNL A   1      34.654  34.623  27.690  1.00  0.00    -0.744 OA
ENDBRANCH  75  76
ENDBRANCH  43  68
BRANCH  55  80
ATOM     80  C   UNL A   1      42.246  29.304  33.666  1.00  0.00     0.058 A 
ATOM     81  C   UNL A   1      41.928  27.955  33.418  1.00  0.00     0.135 A 
ATOM     82  C   UNL A   1      42.436  29.672  35.005  1.00  0.00     0.135 A 
ATOM     83  F   UNL A   1      41.842  27.490  32.164  1.00  0.00    -0.206 F 
ATOM     84  C   UNL A   1      41.757  27.029  34.453  1.00  0.00     0.059 A 
ATOM     85  C   UNL A   1      42.300  28.763  36.051  1.00  0.00     0.059 A 
ATOM     86  F   UNL A   1      42.815  30.924  35.308  1.00  0.00    -0.206 F 
ATOM     87  C   UNL A   1      41.941  27.447  35.770  1.00  0.00     0.060 A 
BRANCH  87  88
ATOM     88  S   UNL A   1      41.752  26.256  37.116  1.00  0.00     0.124 S 
ATOM     89  O   UNL A   1      40.440  26.604  37.649  1.00  0.00    -0.237 OA
ATOM     90  O   UNL A   1      41.836  24.974  36.423  1.00  0.00    -0.237 OA
ATOM     91  O   UNL A   1      42.880  26.554  37.997  1.00  0.00    -0.744 OA
ENDBRANCH  87  88
ENDBRANCH  55  80
ENDBRANCH  29  30
ENDBRANCH  22  24
ENDBRANCH  21  22
ENDBRANCH  20  21
ENDBRANCH   1  20
TORSDOF 17
ENDMDL
MODEL 2
REMARK VINA RESULT:     -11.2      2.280      3.065
REMARK SMILES CCOc1ccc(-n2ncc(C(=O)OCCOC(=O)c3ccc(-c4c5nc(c(-c6c(F)cc(S(=O)(=O)[O-])cc6F)c6ccc([nH]6)c(-c6c(F)cc(S(=O)(=O)[O-])cc6F)c6nc(c(-c7c(F)cc(S(=O)(=O)[O-])cc7F)c7ccc4[nH]7)C=C6)C=C5)cc3)c2C)nn1
REMARK SMILES IDX 15 1 14 2 12 3 13 4 11 5 8 6 9 7 86 8 10 9 87 10 7 11 4 12
REMARK SMILES IDX 5 13 89 14 6 15 88 16 3 17 2 18 1 19 16 20 17 21 18 22 19 23
REMARK SMILES IDX 20 24 21 25 85 26 22 27 84 28 23 29 24 30 25 31 78 32 26 33
REMARK SMILES IDX 83 34 77 35 79 36 27 37 82 38 76 39 75 40 28 42 62 43 41 44
REMARK SMILES IDX 61 45 42 46 45 47 60 48 80 49 43 50 44 51 59 53 81 54 46 55
REMARK SMILES IDX 29 56 30 57 39 58 31 59 32 60 38 61 40 62 33 63 34 64 35 65
REMARK SMILES IDX 36 66 37 67 63 68 64 69 73 70 65 71 66 72 72 73 74 74 67 75
REMARK SMILES IDX 68 76 69 77 70 78 71 79 47 80 48 81 57 82 49 83 50 84 56 85
REMARK SMILES IDX 58 86 51 87 52 88 53 89 54 90 55 91
REMARK H PARENT 79 41 45 52
REMARK Flexibility Score: inf
ROOT
ATOM      1  C   UNL A   1      41.617  19.242  26.079  1.00  0.00     0.275 C 
ENDROOT
BRANCH   1   2
ATOM      2  O   UNL A   1      40.986  20.490  25.737  1.00  0.00    -0.458 OA
BRANCH   2   3
ATOM      3  C   UNL A   1      40.385  21.156  26.769  1.00  0.00     0.341 C 
ATOM      4  O   UNL A   1      40.766  21.106  27.938  1.00  0.00    -0.246 OA
BRANCH   3   5
ATOM      5  C   UNL A   1      39.254  21.955  26.339  1.00  0.00     0.101 A 
ATOM      6  N   UNL A   1      37.393  22.686  25.376  1.00  0.00    -0.217 N 
ATOM      7  N   UNL A   1      37.977  23.797  25.908  1.00  0.00    -0.174 NA
ATOM      8  C   UNL A   1      38.158  21.551  25.584  1.00  0.00     0.058 A 
ATOM      9  C   UNL A   1      39.015  23.317  26.595  1.00  0.00     0.151 A 
ATOM     10  C   UNL A   1      37.793  20.233  24.994  1.00  0.00     0.068 C 
BRANCH   6  11
ATOM     11  C   UNL A   1      36.253  22.790  24.537  1.00  0.00     0.176 A 
ATOM     12  C   UNL A   1      34.070  23.268  23.018  1.00  0.00     0.233 A 
ATOM     13  C   UNL A   1      33.886  22.933  24.346  1.00  0.00     0.074 A 
ATOM     14  N   UNL A   1      35.292  23.354  22.458  1.00  0.00    -0.110 NA
ATOM     15  C   UNL A   1      35.003  22.670  25.125  1.00  0.00     0.057 A 
ATOM     16  N   UNL A   1      36.401  23.150  23.238  1.00  0.00    -0.127 NA
BRANCH  12  17
ATOM     17  O   UNL A   1      32.984  23.399  22.194  1.00  0.00    -0.477 OA
BRANCH  17  18
ATOM     18  C   UNL A   1      32.382  24.690  22.304  1.00  0.00     0.228 C 
ATOM     19  C   UNL A   1      32.643  25.520  21.054  1.00  0.00     0.049 C 
ENDBRANCH  17  18
ENDBRANCH  12  17
ENDBRANCH   6  11
ENDBRANCH   3   5
ENDBRANCH   2   3
ENDBRANCH   1   2
BRANCH   1  20
ATOM     20  C   UNL A   1      43.026  19.144  25.513  1.00  0.00     0.275 C 
BRANCH  20  21
ATOM     21  O   UNL A   1      43.763  20.333  25.776  1.00  0.00    -0.458 OA
BRANCH  21  22
ATOM     22  C   UNL A   1      44.333  20.892  24.685  1.00  0.00     0.338 C 
ATOM     23  O   UNL A   1      44.787  20.314  23.712  1.00  0.00    -0.246 OA
BRANCH  22  24
ATOM     24  C   UNL A   1      44.533  22.315  24.938  1.00  0.00     0.060 A 
ATOM     25  C   UNL A   1      45.542  22.668  25.835  1.00  0.00     0.016 A 
ATOM     26  C   UNL A   1      43.520  23.205  24.555  1.00  0.00     0.016 A 
ATOM     27  C   UNL A   1      45.384  23.836  26.544  1.00  0.00     0.010 A 
ATOM     28  C   UNL A   1      43.406  24.396  25.216  1.00  0.00     0.010 A 
ATOM     29  C   UNL A   1      44.252  24.624  26.292  1.00  0.00    -0.014 A 
BRANCH  29  30
ATOM     30  C   UNL A   1      44.013  25.802  27.094  1.00  0.00     0.031 A 
ATOM     31  C   UNL A   1      45.034  26.837  26.820  1.00  0.00     0.074 A 
ATOM     32  C   UNL A   1      42.934  25.920  27.895  1.00  0.00     0.049 A 
ATOM     33  N   UNL A   1      45.970  27.213  27.621  1.00  0.00    -0.248 NA
ATOM     34  C   UNL A   1      45.216  27.302  25.432  1.00  0.00     0.031 C 
ATOM     35  C   UNL A   1      41.814  24.995  28.106  1.00  0.00     0.029 A 
ATOM     36  N   UNL A   1      42.582  26.988  28.665  1.00  0.00    -0.354 N 
ATOM     37  C   UNL A   1      46.705  28.160  26.922  1.00  0.00     0.074 A 
ATOM     38  C   UNL A   1      46.335  28.022  25.539  1.00  0.00     0.031 C 
ATOM     39  C   UNL A   1      40.802  25.641  28.734  1.00  0.00     0.029 A 
ATOM     40  C   UNL A   1      41.247  26.972  29.091  1.00  0.00     0.049 A 
ATOM     41  H   UNL A   1      43.210  27.708  28.899  1.00  0.00     0.167 HD
ATOM     42  C   UNL A   1      47.360  29.147  27.587  1.00  0.00     0.037 A 
ATOM     43  C   UNL A   1      40.592  28.032  29.645  1.00  0.00     0.037 A 
ATOM     44  C   UNL A   1      47.491  28.823  28.986  1.00  0.00     0.049 A 
ATOM     45  C   UNL A   1      41.663  28.907  30.220  1.00  0.00     0.074 A 
ATOM     46  C   UNL A   1      48.150  27.828  29.681  1.00  0.00     0.029 A 
ATOM     47  N   UNL A   1      46.520  29.305  29.833  1.00  0.00    -0.354 N 
ATOM     48  N   UNL A   1      42.429  28.514  31.207  1.00  0.00    -0.248 NA
ATOM     49  C   UNL A   1      42.246  29.911  29.338  1.00  0.00     0.031 C 
ATOM     50  C   UNL A   1      47.245  27.438  30.711  1.00  0.00     0.029 A 
ATOM     51  C   UNL A   1      46.132  28.280  30.660  1.00  0.00     0.049 A 
ATOM     52  H   UNL A   1      46.164  30.223  29.843  1.00  0.00     0.167 HD
ATOM     53  C   UNL A   1      43.716  28.875  30.824  1.00  0.00     0.074 A 
ATOM     54  C   UNL A   1      43.534  29.757  29.668  1.00  0.00     0.031 C 
ATOM     55  C   UNL A   1      44.817  28.187  31.258  1.00  0.00     0.037 A 
BRANCH  42  56
ATOM     56  C   UNL A   1      47.519  30.544  27.063  1.00  0.00     0.058 A 
ATOM     57  C   UNL A   1      48.792  31.144  27.089  1.00  0.00     0.135 A 
ATOM     58  C   UNL A   1      46.433  31.411  26.807  1.00  0.00     0.135 A 
ATOM     59  F   UNL A   1      49.887  30.409  27.337  1.00  0.00    -0.206 F 
ATOM     60  C   UNL A   1      48.966  32.516  26.929  1.00  0.00     0.059 A 
ATOM     61  C   UNL A   1      46.590  32.774  26.596  1.00  0.00     0.059 A 
ATOM     62  F   UNL A   1      45.161  30.993  26.841  1.00  0.00    -0.206 F 
ATOM     63  C   UNL A   1      47.858  33.323  26.690  1.00  0.00     0.060 A 
BRANCH  63  64
ATOM     64  S   UNL A   1      48.085  35.102  26.535  1.00  0.00     0.124 S 
ATOM     65  O   UNL A   1      48.377  35.240  25.113  1.00  0.00    -0.237 OA
ATOM     66  O   UNL A   1      46.788  35.606  26.974  1.00  0.00    -0.237 OA
ATOM     67  O   UNL A   1      49.197  35.381  27.438  1.00  0.00    -0.744 OA
ENDBRANCH  63  64
ENDBRANCH  42  56
BRANCH  43  68
ATOM     68  C   UNL A   1      39.236  28.540  29.263  1.00  0.00     0.058 A 
ATOM     69  C   UNL A   1      38.179  28.653  30.191  1.00  0.00     0.135 A 
ATOM     70  C   UNL A   1      39.029  29.188  28.029  1.00  0.00     0.135 A 
ATOM     71  F   UNL A   1      38.284  28.086  31.403  1.00  0.00    -0.206 F 
ATOM     72  C   UNL A   1      37.017  29.399  29.926  1.00  0.00     0.059 A 
ATOM     73  C   UNL A   1      37.884  29.932  27.742  1.00  0.00     0.059 A 
ATOM     74  F   UNL A   1      39.980  29.196  27.084  1.00  0.00    -0.206 F 
ATOM     75  C   UNL A   1      36.889  30.057  28.703  1.00  0.00     0.060 A 
BRANCH  75  76
ATOM     76  S   UNL A   1      35.493  31.174  28.404  1.00  0.00     0.124 S 
ATOM     77  O   UNL A   1      35.052  31.484  29.759  1.00  0.00    -0.237 OA
ATOM     78  O   UNL A   1      36.122  32.269  27.671  1.00  0.00    -0.237 OA
ATOM     79  O   UNL A   1      34.567  30.359  27.620  1.00  0.00    -0.744 OA
ENDBRANCH  75  76
ENDBRANCH  43  68
BRANCH  55  80
ATOM     80  C   UNL A   1      44.633  27.127  32.318  1.00  0.00     0.058 A 
ATOM     81  C   UNL A   1      44.459  27.382  33.692  1.00  0.00     0.135 A 
ATOM     82  C   UNL A   1      44.448  25.805  31.893  1.00  0.00     0.135 A 
ATOM     83  F   UNL A   1      44.504  28.634  34.168  1.00  0.00    -0.206 F 
ATOM     84  C   UNL A   1      44.166  26.364  34.606  1.00  0.00     0.059 A 
ATOM     85  C   UNL A   1      44.127  24.779  32.778  1.00  0.00     0.059 A 
ATOM     86  F   UNL A   1      44.523  25.504  30.587  1.00  0.00    -0.206 F 
ATOM     87  C   UNL A   1      44.007  25.061  34.137  1.00  0.00     0.060 A 
BRANCH  87  88
ATOM     88  S   UNL A   1      43.600  23.740  35.302  1.00  0.00     0.124 S 
ATOM     89  O   UNL A   1      42.144  23.695  35.216  1.00  0.00    -0.237 OA
ATOM     90  O   UNL A   1      44.304  22.591  34.740  1.00  0.00    -0.237 OA
ATOM     91  O   UNL A   1      44.134  24.229  36.571  1.00  0.00    -0.744 OA
ENDBRANCH  87  88
ENDBRANCH  55  80
ENDBRANCH  29  30
ENDBRANCH  22  24
ENDBRANCH  21  22
ENDBRANCH  20  21
ENDBRANCH   1  20
TORSDOF 17
ENDMDL
MODEL 3
REMARK VINA RESULT:     -11.1      3.762     11.314
REMARK SMILES CCOc1ccc(-n2ncc(C(=O)OCCOC(=O)c3ccc(-c4c5nc(c(-c6c(F)cc(S(=O)(=O)[O-])cc6F)c6ccc([nH]6)c(-c6c(F)cc(S(=O)(=O)[O-])cc6F)c6nc(c(-c7c(F)cc(S(=O)(=O)[O-])cc7F)c7ccc4[nH]7)C=C6)C=C5)cc3)c2C)nn1
REMARK SMILES IDX 15 1 14 2 12 3 13 4 11 5 8 6 9 7 86 8 10 9 87 10 7 11 4 12
REMARK SMILES IDX 5 13 89 14 6 15 88 16 3 17 2 18 1 19 16 20 17 21 18 22 19 23
REMARK SMILES IDX 20 24 21 25 85 26 22 27 84 28 23 29 24 30 25 31 78 32 26 33
REMARK SMILES IDX 83 34 77 35 79 36 27 37 82 38 76 39 75 40 28 42 62 43 41 44
REMARK SMILES IDX 61 45 42 46 45 47 60 48 80 49 43 50 44 51 59 53 81 54 46 55
REMARK SMILES IDX 29 56 30 57 39 58 31 59 32 60 38 61 40 62 33 63 34 64 35 65
REMARK SMILES IDX 36 66 37 67 63 68 64 69 73 70 65 71 66 72 72 73 74 74 67 75
REMARK SMILES IDX 68 76 69 77 70 78 71 79 47 80 48 81 57 82 49 83 50 84 56 85
REMARK SMILES IDX 58 86 51 87 52 88 53 89 54 90 55 91
REMARK H PARENT 79 41 45 52
REMARK Flexibility Score: inf
ROOT
ATOM      1  C   UNL A   1      33.974  33.889  29.465  1.00  0.00     0.275 C 
ENDROOT
BRANCH   1   2
ATOM      2  O   UNL A   1      34.378  32.858  30.385  1.00  0.00    -0.458 OA
BRANCH   2   3
ATOM      3  C   UNL A   1      34.424  33.220  31.703  1.00  0.00     0.341 C 
ATOM      4  O   UNL A   1      33.693  34.069  32.211  1.00  0.00    -0.246 OA
BRANCH   3   5
ATOM      5  C   UNL A   1      35.417  32.478  32.454  1.00  0.00     0.101 A 
ATOM      6  N   UNL A   1      36.987  31.857  33.894  1.00  0.00    -0.217 N 
ATOM      7  N   UNL A   1      36.945  30.861  32.965  1.00  0.00    -0.174 NA
ATOM      8  C   UNL A   1      36.099  32.878  33.598  1.00  0.00     0.058 A 
ATOM      9  C   UNL A   1      35.907  31.186  32.191  1.00  0.00     0.151 A 
ATOM     10  C   UNL A   1      36.043  34.133  34.397  1.00  0.00     0.068 C 
BRANCH   6  11
ATOM     11  C   UNL A   1      37.994  31.882  34.893  1.00  0.00     0.176 A 
ATOM     12  C   UNL A   1      39.854  32.213  36.825  1.00  0.00     0.233 A 
ATOM     13  C   UNL A   1      40.216  32.464  35.515  1.00  0.00     0.074 A 
ATOM     14  N   UNL A   1      38.618  31.804  37.167  1.00  0.00    -0.110 NA
ATOM     15  C   UNL A   1      39.270  32.279  34.519  1.00  0.00     0.057 A 
ATOM     16  N   UNL A   1      37.663  31.674  36.191  1.00  0.00    -0.127 NA
BRANCH  12  17
ATOM     17  O   UNL A   1      40.804  32.257  37.812  1.00  0.00    -0.477 OA
BRANCH  17  18
ATOM     18  C   UNL A   1      40.458  33.180  38.847  1.00  0.00     0.228 C 
ATOM     19  C   UNL A   1      40.827  34.603  38.452  1.00  0.00     0.049 C 
ENDBRANCH  17  18
ENDBRANCH  12  17
ENDBRANCH   6  11
ENDBRANCH   3   5
ENDBRANCH   2   3
ENDBRANCH   1   2
BRANCH   1  20
ATOM     20  C   UNL A   1      34.137  33.453  28.015  1.00  0.00     0.275 C 
BRANCH  20  21
ATOM     21  O   UNL A   1      35.399  32.827  27.812  1.00  0.00    -0.458 OA
BRANCH  21  22
ATOM     22  C   UNL A   1      35.346  31.482  27.698  1.00  0.00     0.338 C 
ATOM     23  O   UNL A   1      34.489  30.823  27.133  1.00  0.00    -0.246 OA
BRANCH  22  24
ATOM     24  C   UNL A   1      36.371  30.898  28.556  1.00  0.00     0.060 A 
ATOM     25  C   UNL A   1      37.289  31.773  29.140  1.00  0.00     0.016 A 
ATOM     26  C   UNL A   1      36.592  29.515  28.480  1.00  0.00     0.016 A 
ATOM     27  C   UNL A   1      38.546  31.286  29.415  1.00  0.00     0.010 A 
ATOM     28  C   UNL A   1      37.822  29.025  28.820  1.00  0.00     0.010 A 
ATOM     29  C   UNL A   1      38.816  29.937  29.144  1.00  0.00    -0.014 A 
BRANCH  29  30
ATOM     30  C   UNL A   1      40.155  29.429  29.331  1.00  0.00     0.031 A 
ATOM     31  C   UNL A   1      40.446  29.240  30.769  1.00  0.00     0.074 A 
ATOM     32  C   UNL A   1      40.952  29.100  28.293  1.00  0.00     0.049 A 
ATOM     33  N   UNL A   1      41.258  29.944  31.481  1.00  0.00    -0.248 NA
ATOM     34  C   UNL A   1      39.554  28.377  31.565  1.00  0.00     0.031 C 
ATOM     35  C   UNL A   1      40.677  29.130  26.852  1.00  0.00     0.029 A 
ATOM     36  N   UNL A   1      42.210  28.579  28.342  1.00  0.00    -0.354 N 
ATOM     37  C   UNL A   1      41.168  29.435  32.768  1.00  0.00     0.074 A 
ATOM     38  C   UNL A   1      39.974  28.633  32.806  1.00  0.00     0.031 C 
ATOM     39  C   UNL A   1      41.624  28.418  26.193  1.00  0.00     0.029 A 
ATOM     40  C   UNL A   1      42.639  28.003  27.139  1.00  0.00     0.049 A 
ATOM     41  H   UNL A   1      42.769  28.605  29.152  1.00  0.00     0.167 HD
ATOM     42  C   UNL A   1      42.229  29.515  33.612  1.00  0.00     0.037 A 
ATOM     43  C   UNL A   1      43.735  27.202  27.004  1.00  0.00     0.037 A 
ATOM     44  C   UNL A   1      43.190  30.479  33.138  1.00  0.00     0.049 A 
ATOM     45  C   UNL A   1      44.632  27.557  28.149  1.00  0.00     0.074 A 
ATOM     46  C   UNL A   1      43.160  31.846  32.943  1.00  0.00     0.029 A 
ATOM     47  N   UNL A   1      44.222  30.003  32.362  1.00  0.00    -0.354 N 
ATOM     48  N   UNL A   1      45.174  28.744  28.269  1.00  0.00    -0.248 NA
ATOM     49  C   UNL A   1      44.433  26.833  29.400  1.00  0.00     0.031 C 
ATOM     50  C   UNL A   1      43.847  32.057  31.712  1.00  0.00     0.029 A 
ATOM     51  C   UNL A   1      44.352  30.831  31.274  1.00  0.00     0.049 A 
ATOM     52  H   UNL A   1      44.770  29.208  32.553  1.00  0.00     0.167 HD
ATOM     53  C   UNL A   1      44.979  29.092  29.601  1.00  0.00     0.074 A 
ATOM     54  C   UNL A   1      44.534  27.858  30.254  1.00  0.00     0.031 C 
ATOM     55  C   UNL A   1      44.877  30.398  29.997  1.00  0.00     0.037 A 
BRANCH  42  56
ATOM     56  C   UNL A   1      42.574  28.459  34.622  1.00  0.00     0.058 A 
ATOM     57  C   UNL A   1      42.649  28.812  35.982  1.00  0.00     0.135 A 
ATOM     58  C   UNL A   1      43.110  27.197  34.281  1.00  0.00     0.135 A 
ATOM     59  F   UNL A   1      42.180  29.996  36.407  1.00  0.00    -0.206 F 
ATOM     60  C   UNL A   1      43.264  27.994  36.926  1.00  0.00     0.059 A 
ATOM     61  C   UNL A   1      43.683  26.345  35.215  1.00  0.00     0.059 A 
ATOM     62  F   UNL A   1      43.185  26.771  33.014  1.00  0.00    -0.206 F 
ATOM     63  C   UNL A   1      43.784  26.765  36.531  1.00  0.00     0.060 A 
BRANCH  63  64
ATOM     64  S   UNL A   1      44.623  25.736  37.745  1.00  0.00     0.124 S 
ATOM     65  O   UNL A   1      46.024  26.043  37.477  1.00  0.00    -0.237 OA
ATOM     66  O   UNL A   1      44.082  26.255  38.997  1.00  0.00    -0.237 OA
ATOM     67  O   UNL A   1      44.195  24.385  37.397  1.00  0.00    -0.744 OA
ENDBRANCH  63  64
ENDBRANCH  42  56
BRANCH  43  68
ATOM     68  C   UNL A   1      43.795  25.885  26.294  1.00  0.00     0.058 A 
ATOM     69  C   UNL A   1      44.796  25.577  25.349  1.00  0.00     0.135 A 
ATOM     70  C   UNL A   1      43.022  24.791  26.736  1.00  0.00     0.135 A 
ATOM     71  F   UNL A   1      45.597  26.545  24.879  1.00  0.00    -0.206 F 
ATOM     72  C   UNL A   1      45.042  24.263  24.910  1.00  0.00     0.059 A 
ATOM     73  C   UNL A   1      43.246  23.481  26.313  1.00  0.00     0.059 A 
ATOM     74  F   UNL A   1      42.073  24.948  27.670  1.00  0.00    -0.206 F 
ATOM     75  C   UNL A   1      44.274  23.216  25.418  1.00  0.00     0.060 A 
BRANCH  75  76
ATOM     76  S   UNL A   1      44.687  21.497  25.015  1.00  0.00     0.124 S 
ATOM     77  O   UNL A   1      43.670  20.756  25.752  1.00  0.00    -0.237 OA
ATOM     78  O   UNL A   1      44.560  21.480  23.561  1.00  0.00    -0.237 OA
ATOM     79  O   UNL A   1      46.051  21.348  25.517  1.00  0.00    -0.744 OA
ENDBRANCH  75  76
ENDBRANCH  43  68
BRANCH  55  80
ATOM     80  C   UNL A   1      45.165  31.483  28.985  1.00  0.00     0.058 A 
ATOM     81  C   UNL A   1      46.452  31.879  28.573  1.00  0.00     0.135 A 
ATOM     82  C   UNL A   1      44.082  32.017  28.276  1.00  0.00     0.135 A 
ATOM     83  F   UNL A   1      47.546  31.331  29.119  1.00  0.00    -0.206 F 
ATOM     84  C   UNL A   1      46.650  32.801  27.539  1.00  0.00     0.059 A 
ATOM     85  C   UNL A   1      44.254  32.914  27.225  1.00  0.00     0.059 A 
ATOM     86  F   UNL A   1      42.832  31.624  28.566  1.00  0.00    -0.206 F 
ATOM     87  C   UNL A   1      45.539  33.317  26.873  1.00  0.00     0.060 A 
BRANCH  87  88
ATOM     88  S   UNL A   1      45.780  34.488  25.517  1.00  0.00     0.124 S 
ATOM     89  O   UNL A   1      47.203  34.339  25.235  1.00  0.00    -0.237 OA
ATOM     90  O   UNL A   1      44.874  33.979  24.491  1.00  0.00    -0.237 OA
ATOM     91  O   UNL A   1      45.391  35.770  26.100  1.00  0.00    -0.744 OA
ENDBRANCH  87  88
ENDBRANCH  55  80
ENDBRANCH  29  30
ENDBRANCH  22  24
ENDBRANCH  21  22
ENDBRANCH  20  21
ENDBRANCH   1  20
TORSDOF 17
ENDMDL
