MODEL 1
REMARK VINA RESULT:     -10.6      0.000      0.000
REMARK SMILES CC(=O)C1=C(C(=O)OCCOC(=O)c2ccc(-c3c4nc(c(-c5c(F)cc(S(=O)(=O)[O-])cc5F)c5ccc([nH]5)c(-c5c(F)cc(S(=O)(=O)[O-])cc5F)c5nc(c(-c6c(F)cc(S(=O)(=O)[O-])cc6F)c6ccc3[nH]6)C=C5)C=C4)cc2)S[C@H]2CCCCC2=N1
REMARK SMILES IDX 10 1 9 2 8 3 6 4 7 5 5 6 4 7 87 8 80 9 86 10 81 11 85 12
REMARK SMILES IDX 82 13 84 14 83 15 2 16 1 17 3 18 11 19 12 20 13 21 14 22
REMARK SMILES IDX 15 23 79 24 16 25 78 26 17 27 18 28 19 29 72 30 20 31 77 32
REMARK SMILES IDX 71 33 73 34 21 35 76 36 70 37 69 38 22 40 56 41 35 42 55 43
REMARK SMILES IDX 36 44 39 45 54 46 74 47 37 48 38 49 53 51 75 52 40 53 23 54
REMARK SMILES IDX 24 55 33 56 25 57 26 58 32 59 34 60 27 61 28 62 29 63 30 64
REMARK SMILES IDX 31 65 57 66 58 67 67 68 59 69 60 70 66 71 68 72 61 73 62 74
REMARK SMILES IDX 63 75 64 76 65 77 41 78 42 79 51 80 43 81 44 82 50 83 52 84
REMARK SMILES IDX 45 85 46 86 47 87 48 88 49 89
REMARK H PARENT 73 39 39 50
REMARK Flexibility Score: inf
ROOT
ATOM      1  C   UNL A   1      32.509  29.637  26.949  1.00  0.00     0.275 C 
ENDROOT
BRANCH   1   2
ATOM      2  C   UNL A   1      32.303  29.062  25.545  1.00  0.00     0.275 C 
BRANCH   2   3
ATOM      3  O   UNL A   1      32.904  27.761  25.513  1.00  0.00    -0.458 OA
BRANCH   3   4
ATOM      4  C   UNL A   1      32.222  26.766  24.892  1.00  0.00     0.347 C 
ATOM      5  O   UNL A   1      31.051  26.785  24.559  1.00  0.00    -0.245 OA
BRANCH   4   6
ATOM      6  C   UNL A   1      33.199  25.698  24.570  1.00  0.00     0.123 C 
ATOM      7  C   UNL A   1      33.691  25.482  23.334  1.00  0.00     0.127 C 
ATOM      8  N   UNL A   1      34.636  24.516  23.022  1.00  0.00    -0.251 NA
ATOM      9  S   UNL A   1      33.635  24.723  25.942  1.00  0.00    -0.107 SA
ATOM     10  C   UNL A   1      35.335  23.904  23.927  1.00  0.00     0.032 C 
ATOM     11  C   UNL A   1      35.261  24.126  25.427  1.00  0.00     0.097 C 
ATOM     12  C   UNL A   1      36.464  23.020  23.416  1.00  0.00     0.053 C 
ATOM     13  C   UNL A   1      35.511  22.827  26.207  1.00  0.00     0.021 C 
ATOM     14  C   UNL A   1      36.593  21.745  24.231  1.00  0.00     0.006 C 
ATOM     15  C   UNL A   1      36.735  22.064  25.714  1.00  0.00     0.002 C 
BRANCH   7  16
ATOM     16  C   UNL A   1      33.219  26.252  22.102  1.00  0.00     0.179 C 
ATOM     17  C   UNL A   1      32.028  25.811  21.291  1.00  0.00     0.095 C 
ATOM     18  O   UNL A   1      33.796  27.297  21.783  1.00  0.00    -0.293 OA
ENDBRANCH   7  16
ENDBRANCH   4   6
ENDBRANCH   3   4
ENDBRANCH   2   3
ENDBRANCH   1   2
BRANCH   1  19
ATOM     19  O   UNL A   1      33.865  29.400  27.382  1.00  0.00    -0.458 OA
BRANCH  19  20
ATOM     20  C   UNL A   1      34.499  30.444  27.980  1.00  0.00     0.338 C 
ATOM     21  O   UNL A   1      33.987  31.464  28.401  1.00  0.00    -0.246 OA
BRANCH  20  22
ATOM     22  C   UNL A   1      35.919  30.081  28.215  1.00  0.00     0.060 A 
ATOM     23  C   UNL A   1      36.284  29.645  29.497  1.00  0.00     0.016 A 
ATOM     24  C   UNL A   1      36.870  30.096  27.187  1.00  0.00     0.016 A 
ATOM     25  C   UNL A   1      37.583  29.195  29.741  1.00  0.00     0.010 A 
ATOM     26  C   UNL A   1      38.175  29.667  27.440  1.00  0.00     0.010 A 
ATOM     27  C   UNL A   1      38.539  29.213  28.717  1.00  0.00    -0.014 A 
BRANCH  27  28
ATOM     28  C   UNL A   1      39.947  28.848  29.000  1.00  0.00     0.031 A 
ATOM     29  C   UNL A   1      40.861  29.881  29.592  1.00  0.00     0.074 A 
ATOM     30  C   UNL A   1      40.411  27.616  28.718  1.00  0.00     0.049 A 
ATOM     31  N   UNL A   1      42.117  29.773  29.935  1.00  0.00    -0.248 NA
ATOM     32  C   UNL A   1      40.278  31.211  29.831  1.00  0.00     0.031 C 
ATOM     33  C   UNL A   1      39.617  26.523  28.163  1.00  0.00     0.029 A 
ATOM     34  N   UNL A   1      41.667  27.082  28.853  1.00  0.00    -0.354 N 
ATOM     35  C   UNL A   1      42.468  31.007  30.465  1.00  0.00     0.074 A 
ATOM     36  C   UNL A   1      41.304  31.862  30.361  1.00  0.00     0.031 C 
ATOM     37  C   UNL A   1      40.408  25.450  27.986  1.00  0.00     0.029 A 
ATOM     38  C   UNL A   1      41.767  25.786  28.404  1.00  0.00     0.049 A 
ATOM     39  H   UNL A   1      42.426  27.579  29.235  1.00  0.00     0.167 HD
ATOM     40  C   UNL A   1      43.652  31.391  30.998  1.00  0.00     0.037 A 
ATOM     41  C   UNL A   1      42.836  24.969  28.328  1.00  0.00     0.037 A 
ATOM     42  C   UNL A   1      44.826  30.563  31.043  1.00  0.00     0.049 A 
ATOM     43  C   UNL A   1      44.171  25.458  28.826  1.00  0.00     0.074 A 
ATOM     44  C   UNL A   1      46.078  30.867  31.546  1.00  0.00     0.029 A 
ATOM     45  N   UNL A   1      44.900  29.271  30.541  1.00  0.00    -0.354 N 
ATOM     46  N   UNL A   1      44.475  26.608  29.377  1.00  0.00    -0.248 NA
ATOM     47  C   UNL A   1      45.309  24.535  28.695  1.00  0.00     0.031 C 
ATOM     48  C   UNL A   1      46.922  29.777  31.308  1.00  0.00     0.029 A 
ATOM     49  C   UNL A   1      46.185  28.776  30.695  1.00  0.00     0.049 A 
ATOM     50  H   UNL A   1      44.150  28.779  30.136  1.00  0.00     0.167 HD
ATOM     51  C   UNL A   1      45.830  26.538  29.686  1.00  0.00     0.074 A 
ATOM     52  C   UNL A   1      46.287  25.230  29.262  1.00  0.00     0.031 C 
ATOM     53  C   UNL A   1      46.622  27.469  30.272  1.00  0.00     0.037 A 
BRANCH  40  54
ATOM     54  C   UNL A   1      43.727  32.784  31.549  1.00  0.00     0.058 A 
ATOM     55  C   UNL A   1      44.064  33.874  30.730  1.00  0.00     0.135 A 
ATOM     56  C   UNL A   1      43.468  33.034  32.905  1.00  0.00     0.135 A 
ATOM     57  F   UNL A   1      44.341  33.681  29.431  1.00  0.00    -0.206 F 
ATOM     58  C   UNL A   1      44.173  35.160  31.244  1.00  0.00     0.059 A 
ATOM     59  C   UNL A   1      43.552  34.318  33.437  1.00  0.00     0.059 A 
ATOM     60  F   UNL A   1      43.149  32.025  33.731  1.00  0.00    -0.206 F 
ATOM     61  C   UNL A   1      43.924  35.371  32.601  1.00  0.00     0.060 A 
BRANCH  61  62
ATOM     62  S   UNL A   1      44.099  37.042  33.262  1.00  0.00     0.124 S 
ATOM     63  O   UNL A   1      44.084  37.839  32.039  1.00  0.00    -0.237 OA
ATOM     64  O   UNL A   1      42.921  37.169  34.114  1.00  0.00    -0.237 OA
ATOM     65  O   UNL A   1      45.376  36.997  33.966  1.00  0.00    -0.744 OA
ENDBRANCH  61  62
ENDBRANCH  40  54
BRANCH  41  66
ATOM     66  C   UNL A   1      42.696  23.605  27.752  1.00  0.00     0.058 A 
ATOM     67  C   UNL A   1      42.694  23.401  26.365  1.00  0.00     0.135 A 
ATOM     68  C   UNL A   1      42.540  22.482  28.579  1.00  0.00     0.135 A 
ATOM     69  F   UNL A   1      42.827  24.445  25.533  1.00  0.00    -0.206 F 
ATOM     70  C   UNL A   1      42.520  22.134  25.815  1.00  0.00     0.059 A 
ATOM     71  C   UNL A   1      42.385  21.203  28.055  1.00  0.00     0.059 A 
ATOM     72  F   UNL A   1      42.543  22.624  29.914  1.00  0.00    -0.206 F 
ATOM     73  C   UNL A   1      42.361  21.040  26.669  1.00  0.00     0.060 A 
BRANCH  73  74
ATOM     74  S   UNL A   1      42.149  19.397  25.950  1.00  0.00     0.124 S 
ATOM     75  O   UNL A   1      40.715  19.374  25.689  1.00  0.00    -0.237 OA
ATOM     76  O   UNL A   1      43.011  19.459  24.773  1.00  0.00    -0.237 OA
ATOM     77  O   UNL A   1      42.613  18.506  27.010  1.00  0.00    -0.744 OA
ENDBRANCH  73  74
ENDBRANCH  41  66
BRANCH  53  78
ATOM     78  C   UNL A   1      48.059  27.104  30.515  1.00  0.00     0.058 A 
ATOM     79  C   UNL A   1      49.073  27.477  29.620  1.00  0.00     0.135 A 
ATOM     80  C   UNL A   1      48.433  26.436  31.692  1.00  0.00     0.135 A 
ATOM     81  F   UNL A   1      48.767  28.111  28.478  1.00  0.00    -0.206 F 
ATOM     82  C   UNL A   1      50.409  27.189  29.878  1.00  0.00     0.059 A 
ATOM     83  C   UNL A   1      49.765  26.157  31.980  1.00  0.00     0.059 A 
ATOM     84  F   UNL A   1      47.502  26.066  32.585  1.00  0.00    -0.206 F 
ATOM     85  C   UNL A   1      50.747  26.532  31.063  1.00  0.00     0.060 A 
BRANCH  85  86
ATOM     86  S   UNL A   1      52.489  26.214  31.416  1.00  0.00     0.124 S 
ATOM     87  O   UNL A   1      52.828  27.351  32.266  1.00  0.00    -0.237 OA
ATOM     88  O   UNL A   1      52.443  24.916  32.083  1.00  0.00    -0.237 OA
ATOM     89  O   UNL A   1      53.108  26.210  30.094  1.00  0.00    -0.744 OA
ENDBRANCH  85  86
ENDBRANCH  53  78
ENDBRANCH  27  28
ENDBRANCH  20  22
ENDBRANCH  19  20
ENDBRANCH   1  19
TORSDOF 15
ENDMDL
MODEL 2
REMARK VINA RESULT:     -10.5      3.988     10.552
REMARK SMILES CC(=O)C1=C(C(=O)OCCOC(=O)c2ccc(-c3c4nc(c(-c5c(F)cc(S(=O)(=O)[O-])cc5F)c5ccc([nH]5)c(-c5c(F)cc(S(=O)(=O)[O-])cc5F)c5nc(c(-c6c(F)cc(S(=O)(=O)[O-])cc6F)c6ccc3[nH]6)C=C5)C=C4)cc2)S[C@H]2CCCCC2=N1
REMARK SMILES IDX 10 1 9 2 8 3 6 4 7 5 5 6 4 7 87 8 80 9 86 10 81 11 85 12
REMARK SMILES IDX 82 13 84 14 83 15 2 16 1 17 3 18 11 19 12 20 13 21 14 22
REMARK SMILES IDX 15 23 79 24 16 25 78 26 17 27 18 28 19 29 72 30 20 31 77 32
REMARK SMILES IDX 71 33 73 34 21 35 76 36 70 37 69 38 22 40 56 41 35 42 55 43
REMARK SMILES IDX 36 44 39 45 54 46 74 47 37 48 38 49 53 51 75 52 40 53 23 54
REMARK SMILES IDX 24 55 33 56 25 57 26 58 32 59 34 60 27 61 28 62 29 63 30 64
REMARK SMILES IDX 31 65 57 66 58 67 67 68 59 69 60 70 66 71 68 72 61 73 62 74
REMARK SMILES IDX 63 75 64 76 65 77 41 78 42 79 51 80 43 81 44 82 50 83 52 84
REMARK SMILES IDX 45 85 46 86 47 87 48 88 49 89
REMARK H PARENT 73 39 39 50
REMARK Flexibility Score: inf
ROOT
ATOM      1  C   UNL A   1      40.082  21.019  26.096  1.00  0.00     0.275 C 
ENDROOT
BRANCH   1   2
ATOM      2  C   UNL A   1      40.914  19.973  26.844  1.00  0.00     0.275 C 
BRANCH   2   3
ATOM      3  O   UNL A   1      42.285  20.384  26.786  1.00  0.00    -0.458 OA
BRANCH   3   4
ATOM      4  C   UNL A   1      43.019  19.986  25.717  1.00  0.00     0.347 C 
ATOM      5  O   UNL A   1      42.796  19.027  24.999  1.00  0.00    -0.245 OA
BRANCH   4   6
ATOM      6  C   UNL A   1      44.069  21.009  25.498  1.00  0.00     0.123 C 
ATOM      7  C   UNL A   1      45.291  20.732  25.000  1.00  0.00     0.127 C 
ATOM      8  N   UNL A   1      46.270  21.681  24.748  1.00  0.00    -0.251 NA
ATOM      9  S   UNL A   1      43.585  22.610  25.971  1.00  0.00    -0.107 SA
ATOM     10  C   UNL A   1      46.019  22.953  24.716  1.00  0.00     0.032 C 
ATOM     11  C   UNL A   1      44.668  23.612  24.928  1.00  0.00     0.097 C 
ATOM     12  C   UNL A   1      47.153  23.847  24.234  1.00  0.00     0.053 C 
ATOM     13  C   UNL A   1      44.801  24.973  25.626  1.00  0.00     0.021 C 
ATOM     14  C   UNL A   1      47.221  25.145  25.020  1.00  0.00     0.006 C 
ATOM     15  C   UNL A   1      45.874  25.858  25.001  1.00  0.00     0.002 C 
BRANCH   7  16
ATOM     16  C   UNL A   1      45.767  19.312  24.699  1.00  0.00     0.179 C 
ATOM     17  C   UNL A   1      46.405  18.443  25.751  1.00  0.00     0.095 C 
ATOM     18  O   UNL A   1      45.582  18.837  23.574  1.00  0.00    -0.293 OA
ENDBRANCH   7  16
ENDBRANCH   4   6
ENDBRANCH   3   4
ENDBRANCH   2   3
ENDBRANCH   1   2
BRANCH   1  19
ATOM     19  O   UNL A   1      39.535  21.971  27.032  1.00  0.00    -0.458 OA
BRANCH  19  20
ATOM     20  C   UNL A   1      38.863  23.026  26.496  1.00  0.00     0.338 C 
ATOM     21  O   UNL A   1      37.860  22.980  25.809  1.00  0.00    -0.246 OA
BRANCH  20  22
ATOM     22  C   UNL A   1      39.436  24.289  27.027  1.00  0.00     0.060 A 
ATOM     23  C   UNL A   1      40.080  25.150  26.127  1.00  0.00     0.016 A 
ATOM     24  C   UNL A   1      39.289  24.665  28.368  1.00  0.00     0.016 A 
ATOM     25  C   UNL A   1      40.544  26.395  26.557  1.00  0.00     0.010 A 
ATOM     26  C   UNL A   1      39.776  25.901  28.801  1.00  0.00     0.010 A 
ATOM     27  C   UNL A   1      40.404  26.773  27.899  1.00  0.00    -0.014 A 
BRANCH  27  28
ATOM     28  C   UNL A   1      40.998  28.040  28.386  1.00  0.00     0.031 A 
ATOM     29  C   UNL A   1      42.490  28.198  28.368  1.00  0.00     0.074 A 
ATOM     30  C   UNL A   1      40.219  29.033  28.854  1.00  0.00     0.049 A 
ATOM     31  N   UNL A   1      43.217  29.222  28.727  1.00  0.00    -0.248 NA
ATOM     32  C   UNL A   1      43.264  27.047  27.876  1.00  0.00     0.031 C 
ATOM     33  C   UNL A   1      38.759  29.009  28.901  1.00  0.00     0.029 A 
ATOM     34  N   UNL A   1      40.549  30.253  29.386  1.00  0.00    -0.354 N 
ATOM     35  C   UNL A   1      44.532  28.857  28.473  1.00  0.00     0.074 A 
ATOM     36  C   UNL A   1      44.506  27.500  27.966  1.00  0.00     0.031 C 
ATOM     37  C   UNL A   1      38.317  30.153  29.451  1.00  0.00     0.029 A 
ATOM     38  C   UNL A   1      39.464  30.986  29.806  1.00  0.00     0.049 A 
ATOM     39  H   UNL A   1      41.477  30.576  29.460  1.00  0.00     0.167 HD
ATOM     40  C   UNL A   1      45.659  29.589  28.638  1.00  0.00     0.037 A 
ATOM     41  C   UNL A   1      39.404  32.185  30.417  1.00  0.00     0.037 A 
ATOM     42  C   UNL A   1      45.690  30.911  29.200  1.00  0.00     0.049 A 
ATOM     43  C   UNL A   1      40.681  32.934  30.692  1.00  0.00     0.074 A 
ATOM     44  C   UNL A   1      46.784  31.727  29.426  1.00  0.00     0.029 A 
ATOM     45  N   UNL A   1      44.574  31.603  29.652  1.00  0.00    -0.354 N 
ATOM     46  N   UNL A   1      41.914  32.601  30.394  1.00  0.00    -0.248 NA
ATOM     47  C   UNL A   1      40.560  34.225  31.385  1.00  0.00     0.031 C 
ATOM     48  C   UNL A   1      46.336  32.895  30.056  1.00  0.00     0.029 A 
ATOM     49  C   UNL A   1      44.958  32.823  30.184  1.00  0.00     0.049 A 
ATOM     50  H   UNL A   1      43.648  31.275  29.602  1.00  0.00     0.167 HD
ATOM     51  C   UNL A   1      42.711  33.651  30.834  1.00  0.00     0.074 A 
ATOM     52  C   UNL A   1      41.822  34.634  31.418  1.00  0.00     0.031 C 
ATOM     53  C   UNL A   1      44.058  33.793  30.757  1.00  0.00     0.037 A 
BRANCH  40  54
ATOM     54  C   UNL A   1      46.950  28.948  28.223  1.00  0.00     0.058 A 
ATOM     55  C   UNL A   1      47.745  28.249  29.146  1.00  0.00     0.135 A 
ATOM     56  C   UNL A   1      47.402  29.036  26.898  1.00  0.00     0.135 A 
ATOM     57  F   UNL A   1      47.365  28.155  30.429  1.00  0.00    -0.206 F 
ATOM     58  C   UNL A   1      48.961  27.687  28.775  1.00  0.00     0.059 A 
ATOM     59  C   UNL A   1      48.607  28.465  26.500  1.00  0.00     0.059 A 
ATOM     60  F   UNL A   1      46.681  29.700  25.980  1.00  0.00    -0.206 F 
ATOM     61  C   UNL A   1      49.388  27.808  27.451  1.00  0.00     0.060 A 
BRANCH  61  62
ATOM     62  S   UNL A   1      50.983  27.100  26.990  1.00  0.00     0.124 S 
ATOM     63  O   UNL A   1      50.627  25.702  26.773  1.00  0.00    -0.237 OA
ATOM     64  O   UNL A   1      51.331  27.858  25.792  1.00  0.00    -0.237 OA
ATOM     65  O   UNL A   1      51.820  27.360  28.157  1.00  0.00    -0.744 OA
ENDBRANCH  61  62
ENDBRANCH  40  54
BRANCH  41  66
ATOM     66  C   UNL A   1      38.091  32.755  30.820  1.00  0.00     0.058 A 
ATOM     67  C   UNL A   1      37.565  32.531  32.100  1.00  0.00     0.135 A 
ATOM     68  C   UNL A   1      37.326  33.517  29.923  1.00  0.00     0.135 A 
ATOM     69  F   UNL A   1      38.253  31.797  32.988  1.00  0.00    -0.206 F 
ATOM     70  C   UNL A   1      36.317  33.023  32.473  1.00  0.00     0.059 A 
ATOM     71  C   UNL A   1      36.085  34.037  30.278  1.00  0.00     0.059 A 
ATOM     72  F   UNL A   1      37.788  33.766  28.688  1.00  0.00    -0.206 F 
ATOM     73  C   UNL A   1      35.582  33.772  31.552  1.00  0.00     0.060 A 
BRANCH  73  74
ATOM     74  S   UNL A   1      33.969  34.420  32.045  1.00  0.00     0.124 S 
ATOM     75  O   UNL A   1      33.310  34.578  30.754  1.00  0.00    -0.237 OA
ATOM     76  O   UNL A   1      33.454  33.353  32.898  1.00  0.00    -0.237 OA
ATOM     77  O   UNL A   1      34.305  35.659  32.739  1.00  0.00    -0.744 OA
ENDBRANCH  73  74
ENDBRANCH  41  66
BRANCH  53  78
ATOM     78  C   UNL A   1      44.655  35.064  31.293  1.00  0.00     0.058 A 
ATOM     79  C   UNL A   1      45.128  35.154  32.610  1.00  0.00     0.135 A 
ATOM     80  C   UNL A   1      44.817  36.180  30.457  1.00  0.00     0.135 A 
ATOM     81  F   UNL A   1      44.989  34.117  33.451  1.00  0.00    -0.206 F 
ATOM     82  C   UNL A   1      45.733  36.313  33.085  1.00  0.00     0.059 A 
ATOM     83  C   UNL A   1      45.439  37.341  30.904  1.00  0.00     0.059 A 
ATOM     84  F   UNL A   1      44.389  36.140  29.186  1.00  0.00    -0.206 F 
ATOM     85  C   UNL A   1      45.888  37.401  32.223  1.00  0.00     0.060 A 
BRANCH  85  86
ATOM     86  S   UNL A   1      46.728  38.880  32.831  1.00  0.00     0.124 S 
ATOM     87  O   UNL A   1      48.042  38.350  33.178  1.00  0.00    -0.237 OA
ATOM     88  O   UNL A   1      46.687  39.764  31.670  1.00  0.00    -0.237 OA
ATOM     89  O   UNL A   1      45.901  39.300  33.958  1.00  0.00    -0.744 OA
ENDBRANCH  85  86
ENDBRANCH  53  78
ENDBRANCH  27  28
ENDBRANCH  20  22
ENDBRANCH  19  20
ENDBRANCH   1  19
TORSDOF 15
ENDMDL
MODEL 3
REMARK VINA RESULT:     -10.4      3.603     10.411
REMARK SMILES CC(=O)C1=C(C(=O)OCCOC(=O)c2ccc(-c3c4nc(c(-c5c(F)cc(S(=O)(=O)[O-])cc5F)c5ccc([nH]5)c(-c5c(F)cc(S(=O)(=O)[O-])cc5F)c5nc(c(-c6c(F)cc(S(=O)(=O)[O-])cc6F)c6ccc3[nH]6)C=C5)C=C4)cc2)S[C@H]2CCCCC2=N1
REMARK SMILES IDX 10 1 9 2 8 3 6 4 7 5 5 6 4 7 87 8 80 9 86 10 81 11 85 12
REMARK SMILES IDX 82 13 84 14 83 15 2 16 1 17 3 18 11 19 12 20 13 21 14 22
REMARK SMILES IDX 15 23 79 24 16 25 78 26 17 27 18 28 19 29 72 30 20 31 77 32
REMARK SMILES IDX 71 33 73 34 21 35 76 36 70 37 69 38 22 40 56 41 35 42 55 43
REMARK SMILES IDX 36 44 39 45 54 46 74 47 37 48 38 49 53 51 75 52 40 53 23 54
REMARK SMILES IDX 24 55 33 56 25 57 26 58 32 59 34 60 27 61 28 62 29 63 30 64
REMARK SMILES IDX 31 65 57 66 58 67 67 68 59 69 60 70 66 71 68 72 61 73 62 74
REMARK SMILES IDX 63 75 64 76 65 77 41 78 42 79 51 80 43 81 44 82 50 83 52 84
REMARK SMILES IDX 45 85 46 86 47 87 48 88 49 89
REMARK H PARENT 73 39 39 50
REMARK Flexibility Score: inf
ROOT
ATOM      1  C   UNL A   1      39.337  20.697  25.736  1.00  0.00     0.275 C 
ENDROOT
BRANCH   1   2
ATOM      2  C   UNL A   1      40.351  19.648  26.202  1.00  0.00     0.275 C 
BRANCH   2   3
ATOM      3  O   UNL A   1      41.505  19.752  25.359  1.00  0.00    -0.458 OA
BRANCH   3   4
ATOM      4  C   UNL A   1      42.708  19.423  25.892  1.00  0.00     0.347 C 
ATOM      5  O   UNL A   1      43.025  18.344  26.361  1.00  0.00    -0.245 OA
BRANCH   4   6
ATOM      6  C   UNL A   1      43.615  20.576  25.678  1.00  0.00     0.123 C 
ATOM      7  C   UNL A   1      44.705  20.534  24.887  1.00  0.00     0.127 C 
ATOM      8  N   UNL A   1      45.540  21.614  24.642  1.00  0.00    -0.251 NA
ATOM      9  S   UNL A   1      43.153  21.994  26.572  1.00  0.00    -0.107 SA
ATOM     10  C   UNL A   1      45.209  22.834  24.933  1.00  0.00     0.032 C 
ATOM     11  C   UNL A   1      43.904  23.289  25.560  1.00  0.00     0.097 C 
ATOM     12  C   UNL A   1      46.146  23.921  24.424  1.00  0.00     0.053 C 
ATOM     13  C   UNL A   1      44.108  24.497  26.486  1.00  0.00     0.021 C 
ATOM     14  C   UNL A   1      46.310  25.041  25.435  1.00  0.00     0.006 C 
ATOM     15  C   UNL A   1      44.953  25.596  25.852  1.00  0.00     0.002 C 
BRANCH   7  16
ATOM     16  C   UNL A   1      45.188  19.258  24.198  1.00  0.00     0.179 C 
ATOM     17  C   UNL A   1      44.897  18.974  22.748  1.00  0.00     0.095 C 
ATOM     18  O   UNL A   1      45.879  18.454  24.831  1.00  0.00    -0.293 OA
ENDBRANCH   7  16
ENDBRANCH   4   6
ENDBRANCH   3   4
ENDBRANCH   2   3
ENDBRANCH   1   2
BRANCH   1  19
ATOM     19  O   UNL A   1      39.483  21.901  26.516  1.00  0.00    -0.458 OA
BRANCH  19  20
ATOM     20  C   UNL A   1      38.795  22.990  26.079  1.00  0.00     0.338 C 
ATOM     21  O   UNL A   1      37.857  22.998  25.305  1.00  0.00    -0.246 OA
BRANCH  20  22
ATOM     22  C   UNL A   1      39.242  24.185  26.838  1.00  0.00     0.060 A 
ATOM     23  C   UNL A   1      40.018  25.141  26.165  1.00  0.00     0.016 A 
ATOM     24  C   UNL A   1      38.855  24.411  28.165  1.00  0.00     0.016 A 
ATOM     25  C   UNL A   1      40.376  26.330  26.804  1.00  0.00     0.010 A 
ATOM     26  C   UNL A   1      39.236  25.591  28.810  1.00  0.00     0.010 A 
ATOM     27  C   UNL A   1      39.996  26.557  28.134  1.00  0.00    -0.014 A 
BRANCH  27  28
ATOM     28  C   UNL A   1      40.472  27.761  28.854  1.00  0.00     0.031 A 
ATOM     29  C   UNL A   1      41.864  27.771  29.413  1.00  0.00     0.074 A 
ATOM     30  C   UNL A   1      39.668  28.828  29.021  1.00  0.00     0.049 A 
ATOM     31  N   UNL A   1      42.489  28.720  30.058  1.00  0.00    -0.248 NA
ATOM     32  C   UNL A   1      42.658  26.547  29.216  1.00  0.00     0.031 C 
ATOM     33  C   UNL A   1      38.307  28.948  28.505  1.00  0.00     0.029 A 
ATOM     34  N   UNL A   1      39.881  30.012  29.679  1.00  0.00    -0.354 N 
ATOM     35  C   UNL A   1      43.760  28.226  30.313  1.00  0.00     0.074 A 
ATOM     36  C   UNL A   1      43.806  26.877  29.790  1.00  0.00     0.031 C 
ATOM     37  C   UNL A   1      37.795  30.133  28.882  1.00  0.00     0.029 A 
ATOM     38  C   UNL A   1      38.790  30.850  29.677  1.00  0.00     0.049 A 
ATOM     39  H   UNL A   1      40.734  30.242  30.114  1.00  0.00     0.167 HD
ATOM     40  C   UNL A   1      44.800  28.845  30.922  1.00  0.00     0.037 A 
ATOM     41  C   UNL A   1      38.611  32.052  30.259  1.00  0.00     0.037 A 
ATOM     42  C   UNL A   1      44.735  30.160  31.498  1.00  0.00     0.049 A 
ATOM     43  C   UNL A   1      39.748  32.673  31.027  1.00  0.00     0.074 A 
ATOM     44  C   UNL A   1      45.729  30.865  32.152  1.00  0.00     0.029 A 
ATOM     45  N   UNL A   1      43.601  30.960  31.512  1.00  0.00    -0.354 N 
ATOM     46  N   UNL A   1      40.965  32.218  31.212  1.00  0.00    -0.248 NA
ATOM     47  C   UNL A   1      39.490  33.973  31.664  1.00  0.00     0.031 C 
ATOM     48  C   UNL A   1      45.184  32.074  32.602  1.00  0.00     0.029 A 
ATOM     49  C   UNL A   1      43.862  32.139  32.190  1.00  0.00     0.049 A 
ATOM     50  H   UNL A   1      42.739  30.724  31.100  1.00  0.00     0.167 HD
ATOM     51  C   UNL A   1      41.625  33.187  31.959  1.00  0.00     0.074 A 
ATOM     52  C   UNL A   1      40.674  34.256  32.191  1.00  0.00     0.031 C 
ATOM     53  C   UNL A   1      42.904  33.195  32.408  1.00  0.00     0.037 A 
BRANCH  40  54
ATOM     54  C   UNL A   1      46.087  28.078  31.011  1.00  0.00     0.058 A 
ATOM     55  C   UNL A   1      47.124  28.288  30.088  1.00  0.00     0.135 A 
ATOM     56  C   UNL A   1      46.285  27.122  32.018  1.00  0.00     0.135 A 
ATOM     57  F   UNL A   1      46.973  29.177  29.093  1.00  0.00    -0.206 F 
ATOM     58  C   UNL A   1      48.302  27.553  30.141  1.00  0.00     0.059 A 
ATOM     59  C   UNL A   1      47.464  26.388  32.102  1.00  0.00     0.059 A 
ATOM     60  F   UNL A   1      45.321  26.880  32.920  1.00  0.00    -0.206 F 
ATOM     61  C   UNL A   1      48.459  26.598  31.148  1.00  0.00     0.060 A 
BRANCH  61  62
ATOM     62  S   UNL A   1      49.981  25.628  31.187  1.00  0.00     0.124 S 
ATOM     63  O   UNL A   1      49.940  24.972  29.884  1.00  0.00    -0.237 OA
ATOM     64  O   UNL A   1      51.006  26.656  31.345  1.00  0.00    -0.237 OA
ATOM     65  O   UNL A   1      49.795  24.750  32.338  1.00  0.00    -0.744 OA
ENDBRANCH  61  62
ENDBRANCH  40  54
BRANCH  41  66
ATOM     66  C   UNL A   1      37.303  32.750  30.147  1.00  0.00     0.058 A 
ATOM     67  C   UNL A   1      37.030  33.610  29.074  1.00  0.00     0.135 A 
ATOM     68  C   UNL A   1      36.309  32.588  31.124  1.00  0.00     0.135 A 
ATOM     69  F   UNL A   1      37.955  33.809  28.122  1.00  0.00    -0.206 F 
ATOM     70  C   UNL A   1      35.826  34.302  28.982  1.00  0.00     0.059 A 
ATOM     71  C   UNL A   1      35.089  33.252  31.045  1.00  0.00     0.059 A 
ATOM     72  F   UNL A   1      36.519  31.769  32.167  1.00  0.00    -0.206 F 
ATOM     73  C   UNL A   1      34.862  34.120  29.977  1.00  0.00     0.060 A 
BRANCH  73  74
ATOM     74  S   UNL A   1      33.295  35.011  29.845  1.00  0.00     0.124 S 
ATOM     75  O   UNL A   1      33.744  36.327  29.408  1.00  0.00    -0.237 OA
ATOM     76  O   UNL A   1      32.572  34.221  28.853  1.00  0.00    -0.237 OA
ATOM     77  O   UNL A   1      32.758  34.944  31.201  1.00  0.00    -0.744 OA
ENDBRANCH  73  74
ENDBRANCH  41  66
BRANCH  53  78
ATOM     78  C   UNL A   1      43.365  34.403  33.174  1.00  0.00     0.058 A 
ATOM     79  C   UNL A   1      43.787  35.571  32.520  1.00  0.00     0.135 A 
ATOM     80  C   UNL A   1      43.316  34.416  34.577  1.00  0.00     0.135 A 
ATOM     81  F   UNL A   1      43.858  35.607  31.180  1.00  0.00    -0.206 F 
ATOM     82  C   UNL A   1      44.157  36.707  33.232  1.00  0.00     0.059 A 
ATOM     83  C   UNL A   1      43.661  35.548  35.308  1.00  0.00     0.059 A 
ATOM     84  F   UNL A   1      42.911  33.327  35.249  1.00  0.00    -0.206 F 
ATOM     85  C   UNL A   1      44.087  36.688  34.626  1.00  0.00     0.060 A 
BRANCH  85  86
ATOM     86  S   UNL A   1      44.513  38.187  35.540  1.00  0.00     0.124 S 
ATOM     87  O   UNL A   1      45.956  38.038  35.692  1.00  0.00    -0.237 OA
ATOM     88  O   UNL A   1      44.077  39.243  34.631  1.00  0.00    -0.237 OA
ATOM     89  O   UNL A   1      43.734  38.067  36.769  1.00  0.00    -0.744 OA
ENDBRANCH  85  86
ENDBRANCH  53  78
ENDBRANCH  27  28
ENDBRANCH  20  22
ENDBRANCH  19  20
ENDBRANCH   1  19
TORSDOF 15
ENDMDL
