MODEL 1
REMARK VINA RESULT:     -13.3      0.000      0.000
REMARK SMILES Cc1ccc([C@H](C)Nc2ccc(C(=O)OCCOC(=O)c3ccc(-c4c5nc(c(-c6c(F)cc(S(=O)(=O)[O-])cc6F)c6ccc([nH]6)c(-c6c(F)cc(S(=O)(=O)[O-])cc6F)c6nc(c(-c7c(F)cc(S(=O)(=O)[O-])cc7F)c7ccc4[nH]7)C=C6)C=C5)cc3)cc2Cl)cc1F
REMARK SMILES IDX 16 1 15 2 13 3 14 4 12 5 9 6 10 7 88 8 11 9 87 10 89 11 8 12
REMARK SMILES IDX 6 14 7 15 5 16 1 17 2 18 3 19 91 20 4 21 90 22 92 23 17 24
REMARK SMILES IDX 18 25 19 26 20 27 21 28 22 29 86 30 23 31 85 32 24 33 25 34
REMARK SMILES IDX 26 35 79 36 27 37 84 38 78 39 80 40 28 41 83 42 77 43 76 44
REMARK SMILES IDX 29 46 63 47 42 48 62 49 43 50 46 51 61 52 81 53 44 54 45 55
REMARK SMILES IDX 60 57 82 58 47 59 30 60 31 61 40 62 32 63 33 64 39 65 41 66
REMARK SMILES IDX 34 67 35 68 36 69 37 70 38 71 64 72 65 73 74 74 66 75 67 76
REMARK SMILES IDX 73 77 75 78 68 79 69 80 70 81 71 82 72 83 48 84 49 85 58 86
REMARK SMILES IDX 50 87 51 88 57 89 59 90 52 91 53 92 54 93 55 94 56 95
REMARK H PARENT 8 13 80 45 46 56
REMARK Flexibility Score: inf
ROOT
ATOM      1  C   UNL A   1      33.034  31.033  27.085  1.00  0.00     0.275 C 
ENDROOT
BRANCH   1   2
ATOM      2  O   UNL A   1      32.168  29.885  27.202  1.00  0.00    -0.458 OA
BRANCH   2   3
ATOM      3  C   UNL A   1      31.823  29.256  26.045  1.00  0.00     0.338 C 
ATOM      4  O   UNL A   1      31.220  29.772  25.111  1.00  0.00    -0.246 OA
BRANCH   3   5
ATOM      5  C   UNL A   1      32.302  27.846  26.011  1.00  0.00     0.061 A 
ATOM      6  C   UNL A   1      33.307  25.183  25.947  1.00  0.00     0.053 A 
ATOM      7  C   UNL A   1      34.135  26.286  25.689  1.00  0.00     0.028 A 
ATOM      8  C   UNL A   1      31.955  25.453  26.252  1.00  0.00     0.065 A 
ATOM      9  C   UNL A   1      33.639  27.595  25.684  1.00  0.00     0.018 A 
ATOM     10  C   UNL A   1      31.464  26.769  26.299  1.00  0.00     0.038 A 
ATOM     11  Cl  UNL A   1      30.791  24.211  26.568  1.00  0.00    -0.082 Cl
BRANCH   6  12
ATOM     12  N   UNL A   1      33.941  23.948  26.095  1.00  0.00    -0.377 N 
ATOM     13  H   UNL A   1      33.884  23.495  26.967  1.00  0.00     0.161 HD
BRANCH  12  14
ATOM     14  C   UNL A   1      34.683  23.297  25.027  1.00  0.00     0.106 C 
ATOM     15  C   UNL A   1      36.164  23.329  25.439  1.00  0.00     0.036 C 
BRANCH  14  16
ATOM     16  C   UNL A   1      34.135  21.899  24.716  1.00  0.00    -0.023 A 
ATOM     17  C   UNL A   1      32.605  17.839  24.498  1.00  0.00     0.047 C 
ATOM     18  C   UNL A   1      33.117  19.245  24.509  1.00  0.00    -0.015 A 
ATOM     19  C   UNL A   1      32.260  20.343  24.415  1.00  0.00     0.007 A 
ATOM     20  C   UNL A   1      34.480  19.483  24.671  1.00  0.00     0.126 A 
ATOM     21  C   UNL A   1      32.763  21.649  24.520  1.00  0.00     0.006 A 
ATOM     22  C   UNL A   1      34.984  20.777  24.763  1.00  0.00     0.045 A 
ATOM     23  F   UNL A   1      35.318  18.442  24.783  1.00  0.00    -0.207 F 
ENDBRANCH  14  16
ENDBRANCH  12  14
ENDBRANCH   6  12
ENDBRANCH   3   5
ENDBRANCH   2   3
ENDBRANCH   1   2
BRANCH   1  24
ATOM     24  C   UNL A   1      34.257  31.003  28.012  1.00  0.00     0.275 C 
BRANCH  24  25
ATOM     25  O   UNL A   1      35.492  31.087  27.295  1.00  0.00    -0.458 OA
BRANCH  25  26
ATOM     26  C   UNL A   1      36.547  31.087  28.144  1.00  0.00     0.338 C 
ATOM     27  O   UNL A   1      36.984  32.052  28.744  1.00  0.00    -0.246 OA
BRANCH  26  28
ATOM     28  C   UNL A   1      37.243  29.808  28.167  1.00  0.00     0.060 A 
ATOM     29  C   UNL A   1      37.120  29.042  29.336  1.00  0.00     0.016 A 
ATOM     30  C   UNL A   1      38.310  29.659  27.287  1.00  0.00     0.016 A 
ATOM     31  C   UNL A   1      38.177  28.251  29.747  1.00  0.00     0.010 A 
ATOM     32  C   UNL A   1      39.368  28.890  27.707  1.00  0.00     0.010 A 
ATOM     33  C   UNL A   1      39.324  28.263  28.967  1.00  0.00    -0.014 A 
BRANCH  33  34
ATOM     34  C   UNL A   1      40.576  27.654  29.366  1.00  0.00     0.031 A 
ATOM     35  C   UNL A   1      40.863  26.283  28.917  1.00  0.00     0.074 A 
ATOM     36  C   UNL A   1      41.542  28.458  29.859  1.00  0.00     0.049 A 
ATOM     37  N   UNL A   1      41.928  25.625  29.215  1.00  0.00    -0.248 NA
ATOM     38  C   UNL A   1      39.911  25.513  28.126  1.00  0.00     0.031 C 
ATOM     39  C   UNL A   1      42.976  28.253  29.740  1.00  0.00     0.029 A 
ATOM     40  N   UNL A   1      41.423  29.547  30.728  1.00  0.00    -0.354 N 
ATOM     41  C   UNL A   1      41.953  24.493  28.431  1.00  0.00     0.074 A 
ATOM     42  C   UNL A   1      40.624  24.413  27.873  1.00  0.00     0.031 C 
ATOM     43  C   UNL A   1      43.593  28.983  30.679  1.00  0.00     0.029 A 
ATOM     44  C   UNL A   1      42.559  29.502  31.558  1.00  0.00     0.049 A 
ATOM     45  H   UNL A   1      40.695  30.207  30.754  1.00  0.00     0.167 HD
ATOM     46  C   UNL A   1      43.144  23.849  28.263  1.00  0.00     0.037 A 
ATOM     47  C   UNL A   1      42.524  29.303  32.912  1.00  0.00     0.037 A 
ATOM     48  C   UNL A   1      44.165  24.423  29.145  1.00  0.00     0.049 A 
ATOM     49  C   UNL A   1      43.272  28.067  33.375  1.00  0.00     0.074 A 
ATOM     50  C   UNL A   1      45.176  25.357  28.990  1.00  0.00     0.029 A 
ATOM     51  N   UNL A   1      44.035  24.220  30.503  1.00  0.00    -0.354 N 
ATOM     52  N   UNL A   1      43.873  27.233  32.574  1.00  0.00    -0.248 NA
ATOM     53  C   UNL A   1      43.310  27.615  34.768  1.00  0.00     0.031 C 
ATOM     54  C   UNL A   1      45.615  25.746  30.292  1.00  0.00     0.029 A 
ATOM     55  C   UNL A   1      44.881  25.036  31.226  1.00  0.00     0.049 A 
ATOM     56  H   UNL A   1      43.414  23.572  30.907  1.00  0.00     0.167 HD
ATOM     57  C   UNL A   1      44.269  26.131  33.276  1.00  0.00     0.074 A 
ATOM     58  C   UNL A   1      43.932  26.428  34.655  1.00  0.00     0.031 C 
ATOM     59  C   UNL A   1      44.780  25.022  32.674  1.00  0.00     0.037 A 
BRANCH  46  60
ATOM     60  C   UNL A   1      43.485  22.825  27.197  1.00  0.00     0.058 A 
ATOM     61  C   UNL A   1      42.792  21.590  27.165  1.00  0.00     0.135 A 
ATOM     62  C   UNL A   1      44.498  22.938  26.223  1.00  0.00     0.135 A 
ATOM     63  F   UNL A   1      41.757  21.346  27.981  1.00  0.00    -0.206 F 
ATOM     64  C   UNL A   1      43.129  20.542  26.307  1.00  0.00     0.059 A 
ATOM     65  C   UNL A   1      44.866  21.898  25.366  1.00  0.00     0.059 A 
ATOM     66  F   UNL A   1      45.174  24.068  26.018  1.00  0.00    -0.206 F 
ATOM     67  C   UNL A   1      44.187  20.695  25.426  1.00  0.00     0.060 A 
BRANCH  67  68
ATOM     68  S   UNL A   1      44.655  19.319  24.366  1.00  0.00     0.124 S 
ATOM     69  O   UNL A   1      43.725  18.278  24.796  1.00  0.00    -0.237 OA
ATOM     70  O   UNL A   1      44.428  19.866  23.033  1.00  0.00    -0.237 OA
ATOM     71  O   UNL A   1      46.054  19.081  24.713  1.00  0.00    -0.744 OA
ENDBRANCH  67  68
ENDBRANCH  46  60
BRANCH  47  72
ATOM     72  C   UNL A   1      41.293  29.813  33.565  1.00  0.00     0.058 A 
ATOM     73  C   UNL A   1      41.260  31.167  33.942  1.00  0.00     0.135 A 
ATOM     74  C   UNL A   1      40.076  29.142  33.378  1.00  0.00     0.135 A 
ATOM     75  F   UNL A   1      42.404  31.832  34.166  1.00  0.00    -0.206 F 
ATOM     76  C   UNL A   1      40.070  31.883  33.937  1.00  0.00     0.059 A 
ATOM     77  C   UNL A   1      38.878  29.841  33.365  1.00  0.00     0.059 A 
ATOM     78  F   UNL A   1      40.061  27.850  33.021  1.00  0.00    -0.206 F 
ATOM     79  C   UNL A   1      38.898  31.221  33.577  1.00  0.00     0.060 A 
BRANCH  79  80
ATOM     80  S   UNL A   1      37.460  32.199  33.083  1.00  0.00     0.124 S 
ATOM     81  O   UNL A   1      38.055  33.515  32.887  1.00  0.00    -0.237 OA
ATOM     82  O   UNL A   1      37.013  31.512  31.876  1.00  0.00    -0.237 OA
ATOM     83  O   UNL A   1      36.597  32.066  34.251  1.00  0.00    -0.744 OA
ENDBRANCH  79  80
ENDBRANCH  47  72
BRANCH  59  84
ATOM     84  C   UNL A   1      45.199  23.809  33.440  1.00  0.00     0.058 A 
ATOM     85  C   UNL A   1      44.274  22.820  33.803  1.00  0.00     0.135 A 
ATOM     86  C   UNL A   1      46.507  23.674  33.946  1.00  0.00     0.135 A 
ATOM     87  F   UNL A   1      43.003  22.883  33.373  1.00  0.00    -0.206 F 
ATOM     88  C   UNL A   1      44.629  21.749  34.620  1.00  0.00     0.059 A 
ATOM     89  C   UNL A   1      46.872  22.641  34.800  1.00  0.00     0.059 A 
ATOM     90  F   UNL A   1      47.477  24.535  33.599  1.00  0.00    -0.206 F 
ATOM     91  C   UNL A   1      45.930  21.672  35.120  1.00  0.00     0.060 A 
BRANCH  91  92
ATOM     92  S   UNL A   1      46.387  20.308  36.205  1.00  0.00     0.124 S 
ATOM     93  O   UNL A   1      45.795  19.152  35.537  1.00  0.00    -0.237 OA
ATOM     94  O   UNL A   1      47.844  20.383  36.163  1.00  0.00    -0.237 OA
ATOM     95  O   UNL A   1      45.773  20.670  37.478  1.00  0.00    -0.744 OA
ENDBRANCH  91  92
ENDBRANCH  59  84
ENDBRANCH  33  34
ENDBRANCH  26  28
ENDBRANCH  25  26
ENDBRANCH  24  25
ENDBRANCH   1  24
TORSDOF 17
ENDMDL
MODEL 2
REMARK VINA RESULT:     -13.0      4.727     11.249
REMARK SMILES Cc1ccc([C@H](C)Nc2ccc(C(=O)OCCOC(=O)c3ccc(-c4c5nc(c(-c6c(F)cc(S(=O)(=O)[O-])cc6F)c6ccc([nH]6)c(-c6c(F)cc(S(=O)(=O)[O-])cc6F)c6nc(c(-c7c(F)cc(S(=O)(=O)[O-])cc7F)c7ccc4[nH]7)C=C6)C=C5)cc3)cc2Cl)cc1F
REMARK SMILES IDX 16 1 15 2 13 3 14 4 12 5 9 6 10 7 88 8 11 9 87 10 89 11 8 12
REMARK SMILES IDX 6 14 7 15 5 16 1 17 2 18 3 19 91 20 4 21 90 22 92 23 17 24
REMARK SMILES IDX 18 25 19 26 20 27 21 28 22 29 86 30 23 31 85 32 24 33 25 34
REMARK SMILES IDX 26 35 79 36 27 37 84 38 78 39 80 40 28 41 83 42 77 43 76 44
REMARK SMILES IDX 29 46 63 47 42 48 62 49 43 50 46 51 61 52 81 53 44 54 45 55
REMARK SMILES IDX 60 57 82 58 47 59 30 60 31 61 40 62 32 63 33 64 39 65 41 66
REMARK SMILES IDX 34 67 35 68 36 69 37 70 38 71 64 72 65 73 74 74 66 75 67 76
REMARK SMILES IDX 73 77 75 78 68 79 69 80 70 81 71 82 72 83 48 84 49 85 58 86
REMARK SMILES IDX 50 87 51 88 57 89 59 90 52 91 53 92 54 93 55 94 56 95
REMARK H PARENT 8 13 80 45 46 56
REMARK Flexibility Score: inf
ROOT
ATOM      1  C   UNL A   1      37.610  21.270  24.939  1.00  0.00     0.275 C 
ENDROOT
BRANCH   1   2
ATOM      2  O   UNL A   1      36.483  21.921  24.319  1.00  0.00    -0.458 OA
BRANCH   2   3
ATOM      3  C   UNL A   1      35.247  21.464  24.657  1.00  0.00     0.338 C 
ATOM      4  O   UNL A   1      34.944  20.286  24.805  1.00  0.00    -0.246 OA
BRANCH   3   5
ATOM      5  C   UNL A   1      34.280  22.576  24.875  1.00  0.00     0.061 A 
ATOM      6  C   UNL A   1      32.500  24.750  25.335  1.00  0.00     0.053 A 
ATOM      7  C   UNL A   1      33.736  24.661  25.995  1.00  0.00     0.028 A 
ATOM      8  C   UNL A   1      32.184  23.719  24.423  1.00  0.00     0.065 A 
ATOM      9  C   UNL A   1      34.599  23.576  25.800  1.00  0.00     0.018 A 
ATOM     10  C   UNL A   1      33.070  22.656  24.185  1.00  0.00     0.038 A 
ATOM     11  Cl  UNL A   1      30.692  23.659  23.546  1.00  0.00    -0.082 Cl
BRANCH   6  12
ATOM     12  N   UNL A   1      31.804  25.952  25.475  1.00  0.00    -0.377 N 
ATOM     13  H   UNL A   1      31.147  26.028  26.205  1.00  0.00     0.161 HD
BRANCH  12  14
ATOM     14  C   UNL A   1      31.998  27.096  24.599  1.00  0.00     0.106 C 
ATOM     15  C   UNL A   1      30.643  27.369  23.927  1.00  0.00     0.036 C 
BRANCH  14  16
ATOM     16  C   UNL A   1      32.597  28.296  25.344  1.00  0.00    -0.023 A 
ATOM     17  C   UNL A   1      33.954  31.466  27.986  1.00  0.00     0.047 C 
ATOM     18  C   UNL A   1      33.530  30.394  27.031  1.00  0.00    -0.015 A 
ATOM     19  C   UNL A   1      34.351  29.307  26.731  1.00  0.00     0.007 A 
ATOM     20  C   UNL A   1      32.261  30.442  26.458  1.00  0.00     0.126 A 
ATOM     21  C   UNL A   1      33.889  28.273  25.902  1.00  0.00     0.006 A 
ATOM     22  C   UNL A   1      31.804  29.423  25.626  1.00  0.00     0.045 A 
ATOM     23  F   UNL A   1      31.449  31.468  26.749  1.00  0.00    -0.207 F 
ENDBRANCH  14  16
ENDBRANCH  12  14
ENDBRANCH   6  12
ENDBRANCH   3   5
ENDBRANCH   2   3
ENDBRANCH   1   2
BRANCH   1  24
ATOM     24  C   UNL A   1      38.206  22.029  26.132  1.00  0.00     0.275 C 
BRANCH  24  25
ATOM     25  O   UNL A   1      39.611  22.262  25.990  1.00  0.00    -0.458 OA
BRANCH  25  26
ATOM     26  C   UNL A   1      40.110  22.894  27.078  1.00  0.00     0.338 C 
ATOM     27  O   UNL A   1      40.725  22.373  27.991  1.00  0.00    -0.246 OA
BRANCH  26  28
ATOM     28  C   UNL A   1      39.703  24.291  27.147  1.00  0.00     0.060 A 
ATOM     29  C   UNL A   1      40.276  25.164  26.211  1.00  0.00     0.016 A 
ATOM     30  C   UNL A   1      39.185  24.734  28.360  1.00  0.00     0.016 A 
ATOM     31  C   UNL A   1      40.524  26.477  26.565  1.00  0.00     0.010 A 
ATOM     32  C   UNL A   1      39.451  26.033  28.719  1.00  0.00     0.010 A 
ATOM     33  C   UNL A   1      40.189  26.864  27.855  1.00  0.00    -0.014 A 
BRANCH  33  34
ATOM     34  C   UNL A   1      40.566  28.133  28.439  1.00  0.00     0.031 A 
ATOM     35  C   UNL A   1      39.560  29.205  28.499  1.00  0.00     0.074 A 
ATOM     36  C   UNL A   1      41.701  28.182  29.168  1.00  0.00     0.049 A 
ATOM     37  N   UNL A   1      39.772  30.380  28.977  1.00  0.00    -0.248 NA
ATOM     38  C   UNL A   1      38.219  29.037  27.953  1.00  0.00     0.031 C 
ATOM     39  C   UNL A   1      41.962  29.060  30.297  1.00  0.00     0.029 A 
ATOM     40  N   UNL A   1      42.930  27.561  28.927  1.00  0.00    -0.354 N 
ATOM     41  C   UNL A   1      38.555  31.014  29.086  1.00  0.00     0.074 A 
ATOM     42  C   UNL A   1      37.650  30.187  28.322  1.00  0.00     0.031 C 
ATOM     43  C   UNL A   1      43.287  29.131  30.489  1.00  0.00     0.029 A 
ATOM     44  C   UNL A   1      43.913  28.474  29.354  1.00  0.00     0.049 A 
ATOM     45  H   UNL A   1      43.078  26.670  28.538  1.00  0.00     0.167 HD
ATOM     46  C   UNL A   1      38.457  32.090  29.920  1.00  0.00     0.037 A 
ATOM     47  C   UNL A   1      44.834  29.065  28.531  1.00  0.00     0.037 A 
ATOM     48  C   UNL A   1      39.782  32.476  30.412  1.00  0.00     0.049 A 
ATOM     49  C   UNL A   1      44.753  30.579  28.499  1.00  0.00     0.074 A 
ATOM     50  C   UNL A   1      40.505  32.231  31.568  1.00  0.00     0.029 A 
ATOM     51  N   UNL A   1      40.674  33.021  29.511  1.00  0.00    -0.354 N 
ATOM     52  N   UNL A   1      43.873  31.279  29.157  1.00  0.00    -0.248 NA
ATOM     53  C   UNL A   1      45.589  31.419  27.636  1.00  0.00     0.031 C 
ATOM     54  C   UNL A   1      41.863  32.595  31.321  1.00  0.00     0.029 A 
ATOM     55  C   UNL A   1      41.953  33.074  30.026  1.00  0.00     0.049 A 
ATOM     56  H   UNL A   1      40.427  33.334  28.612  1.00  0.00     0.167 HD
ATOM     57  C   UNL A   1      43.935  32.584  28.758  1.00  0.00     0.074 A 
ATOM     58  C   UNL A   1      45.051  32.636  27.832  1.00  0.00     0.031 C 
ATOM     59  C   UNL A   1      43.028  33.517  29.155  1.00  0.00     0.037 A 
BRANCH  46  60
ATOM     60  C   UNL A   1      37.184  32.712  30.461  1.00  0.00     0.058 A 
ATOM     61  C   UNL A   1      36.369  33.495  29.608  1.00  0.00     0.135 A 
ATOM     62  C   UNL A   1      36.723  32.647  31.792  1.00  0.00     0.135 A 
ATOM     63  F   UNL A   1      36.630  33.607  28.298  1.00  0.00    -0.206 F 
ATOM     64  C   UNL A   1      35.256  34.210  30.053  1.00  0.00     0.059 A 
ATOM     65  C   UNL A   1      35.624  33.368  32.265  1.00  0.00     0.059 A 
ATOM     66  F   UNL A   1      37.286  31.862  32.710  1.00  0.00    -0.206 F 
ATOM     67  C   UNL A   1      34.905  34.163  31.392  1.00  0.00     0.060 A 
BRANCH  67  68
ATOM     68  S   UNL A   1      33.506  35.135  31.969  1.00  0.00     0.124 S 
ATOM     69  O   UNL A   1      34.163  36.333  32.482  1.00  0.00    -0.237 OA
ATOM     70  O   UNL A   1      32.726  35.308  30.749  1.00  0.00    -0.237 OA
ATOM     71  O   UNL A   1      32.894  34.282  32.985  1.00  0.00    -0.744 OA
ENDBRANCH  67  68
ENDBRANCH  46  60
BRANCH  47  72
ATOM     72  C   UNL A   1      45.218  28.235  27.362  1.00  0.00     0.058 A 
ATOM     73  C   UNL A   1      46.214  27.259  27.545  1.00  0.00     0.135 A 
ATOM     74  C   UNL A   1      44.326  28.086  26.291  1.00  0.00     0.135 A 
ATOM     75  F   UNL A   1      47.109  27.388  28.538  1.00  0.00    -0.206 F 
ATOM     76  C   UNL A   1      46.201  26.077  26.818  1.00  0.00     0.059 A 
ATOM     77  C   UNL A   1      44.295  26.910  25.555  1.00  0.00     0.059 A 
ATOM     78  F   UNL A   1      43.363  28.993  26.078  1.00  0.00    -0.206 F 
ATOM     79  C   UNL A   1      45.191  25.888  25.876  1.00  0.00     0.060 A 
BRANCH  79  80
ATOM     80  S   UNL A   1      44.850  24.214  25.287  1.00  0.00     0.124 S 
ATOM     81  O   UNL A   1      43.474  24.342  24.822  1.00  0.00    -0.237 OA
ATOM     82  O   UNL A   1      45.862  24.033  24.252  1.00  0.00    -0.237 OA
ATOM     83  O   UNL A   1      45.032  23.429  26.503  1.00  0.00    -0.744 OA
ENDBRANCH  79  80
ENDBRANCH  47  72
BRANCH  59  84
ATOM     84  C   UNL A   1      43.086  34.940  28.706  1.00  0.00     0.058 A 
ATOM     85  C   UNL A   1      43.304  35.985  29.615  1.00  0.00     0.135 A 
ATOM     86  C   UNL A   1      42.788  35.305  27.378  1.00  0.00     0.135 A 
ATOM     87  F   UNL A   1      43.581  35.722  30.903  1.00  0.00    -0.206 F 
ATOM     88  C   UNL A   1      43.237  37.322  29.227  1.00  0.00     0.059 A 
ATOM     89  C   UNL A   1      42.668  36.630  26.978  1.00  0.00     0.059 A 
ATOM     90  F   UNL A   1      42.629  34.375  26.423  1.00  0.00    -0.206 F 
ATOM     91  C   UNL A   1      42.912  37.634  27.907  1.00  0.00     0.060 A 
BRANCH  91  92
ATOM     92  S   UNL A   1      42.789  39.361  27.405  1.00  0.00     0.124 S 
ATOM     93  O   UNL A   1      41.563  39.379  26.612  1.00  0.00    -0.237 OA
ATOM     94  O   UNL A   1      42.713  40.030  28.700  1.00  0.00    -0.237 OA
ATOM     95  O   UNL A   1      44.019  39.581  26.653  1.00  0.00    -0.744 OA
ENDBRANCH  91  92
ENDBRANCH  59  84
ENDBRANCH  33  34
ENDBRANCH  26  28
ENDBRANCH  25  26
ENDBRANCH  24  25
ENDBRANCH   1  24
TORSDOF 17
ENDMDL
MODEL 3
REMARK VINA RESULT:     -12.9      1.789      2.603
REMARK SMILES Cc1ccc([C@H](C)Nc2ccc(C(=O)OCCOC(=O)c3ccc(-c4c5nc(c(-c6c(F)cc(S(=O)(=O)[O-])cc6F)c6ccc([nH]6)c(-c6c(F)cc(S(=O)(=O)[O-])cc6F)c6nc(c(-c7c(F)cc(S(=O)(=O)[O-])cc7F)c7ccc4[nH]7)C=C6)C=C5)cc3)cc2Cl)cc1F
REMARK SMILES IDX 16 1 15 2 13 3 14 4 12 5 9 6 10 7 88 8 11 9 87 10 89 11 8 12
REMARK SMILES IDX 6 14 7 15 5 16 1 17 2 18 3 19 91 20 4 21 90 22 92 23 17 24
REMARK SMILES IDX 18 25 19 26 20 27 21 28 22 29 86 30 23 31 85 32 24 33 25 34
REMARK SMILES IDX 26 35 79 36 27 37 84 38 78 39 80 40 28 41 83 42 77 43 76 44
REMARK SMILES IDX 29 46 63 47 42 48 62 49 43 50 46 51 61 52 81 53 44 54 45 55
REMARK SMILES IDX 60 57 82 58 47 59 30 60 31 61 40 62 32 63 33 64 39 65 41 66
REMARK SMILES IDX 34 67 35 68 36 69 37 70 38 71 64 72 65 73 74 74 66 75 67 76
REMARK SMILES IDX 73 77 75 78 68 79 69 80 70 81 71 82 72 83 48 84 49 85 58 86
REMARK SMILES IDX 50 87 51 88 57 89 59 90 52 91 53 92 54 93 55 94 56 95
REMARK H PARENT 8 13 80 45 46 56
REMARK Flexibility Score: inf
ROOT
ATOM      1  C   UNL A   1      32.123  30.284  25.919  1.00  0.00     0.275 C 
ENDROOT
BRANCH   1   2
ATOM      2  O   UNL A   1      31.351  29.082  25.718  1.00  0.00    -0.458 OA
BRANCH   2   3
ATOM      3  C   UNL A   1      30.824  28.891  24.478  1.00  0.00     0.338 C 
ATOM      4  O   UNL A   1      30.287  29.756  23.796  1.00  0.00    -0.246 OA
BRANCH   3   5
ATOM      5  C   UNL A   1      31.007  27.491  24.003  1.00  0.00     0.061 A 
ATOM      6  C   UNL A   1      31.294  24.787  23.159  1.00  0.00     0.053 A 
ATOM      7  C   UNL A   1      30.646  25.116  24.361  1.00  0.00     0.028 A 
ATOM      8  C   UNL A   1      31.785  25.858  22.381  1.00  0.00     0.065 A 
ATOM      9  C   UNL A   1      30.535  26.442  24.798  1.00  0.00     0.018 A 
ATOM     10  C   UNL A   1      31.630  27.192  22.791  1.00  0.00     0.038 A 
ATOM     11  Cl  UNL A   1      32.632  25.629  20.888  1.00  0.00    -0.082 Cl
BRANCH   6  12
ATOM     12  N   UNL A   1      31.195  23.459  22.742  1.00  0.00    -0.377 N 
ATOM     13  H   UNL A   1      30.576  23.245  22.007  1.00  0.00     0.161 HD
BRANCH  12  14
ATOM     14  C   UNL A   1      31.958  22.374  23.339  1.00  0.00     0.106 C 
ATOM     15  C   UNL A   1      32.015  21.249  22.291  1.00  0.00     0.036 C 
BRANCH  14  16
ATOM     16  C   UNL A   1      33.326  22.845  23.847  1.00  0.00    -0.023 A 
ATOM     17  C   UNL A   1      37.309  23.535  25.439  1.00  0.00     0.047 C 
ATOM     18  C   UNL A   1      35.937  23.359  24.868  1.00  0.00    -0.015 A 
ATOM     19  C   UNL A   1      35.713  23.291  23.492  1.00  0.00     0.007 A 
ATOM     20  C   UNL A   1      34.847  23.204  25.722  1.00  0.00     0.126 A 
ATOM     21  C   UNL A   1      34.428  23.035  22.991  1.00  0.00     0.006 A 
ATOM     22  C   UNL A   1      33.568  22.962  25.228  1.00  0.00     0.045 A 
ATOM     23  F   UNL A   1      35.043  23.247  27.048  1.00  0.00    -0.207 F 
ENDBRANCH  14  16
ENDBRANCH  12  14
ENDBRANCH   6  12
ENDBRANCH   3   5
ENDBRANCH   2   3
ENDBRANCH   1   2
BRANCH   1  24
ATOM     24  C   UNL A   1      32.871  30.343  27.258  1.00  0.00     0.275 C 
BRANCH  24  25
ATOM     25  O   UNL A   1      34.274  30.572  27.094  1.00  0.00    -0.458 OA
BRANCH  25  26
ATOM     26  C   UNL A   1      34.989  29.488  27.478  1.00  0.00     0.338 C 
ATOM     27  O   UNL A   1      34.638  28.326  27.381  1.00  0.00    -0.246 OA
BRANCH  26  28
ATOM     28  C   UNL A   1      36.208  29.848  28.188  1.00  0.00     0.060 A 
ATOM     29  C   UNL A   1      37.296  30.267  27.407  1.00  0.00     0.016 A 
ATOM     30  C   UNL A   1      36.368  29.324  29.467  1.00  0.00     0.016 A 
ATOM     31  C   UNL A   1      38.583  29.976  27.819  1.00  0.00     0.010 A 
ATOM     32  C   UNL A   1      37.646  29.016  29.865  1.00  0.00     0.010 A 
ATOM     33  C   UNL A   1      38.730  29.268  29.003  1.00  0.00    -0.014 A 
BRANCH  33  34
ATOM     34  C   UNL A   1      39.987  28.716  29.461  1.00  0.00     0.031 A 
ATOM     35  C   UNL A   1      40.381  27.381  28.986  1.00  0.00     0.074 A 
ATOM     36  C   UNL A   1      40.872  29.553  30.043  1.00  0.00     0.049 A 
ATOM     37  N   UNL A   1      41.462  26.773  29.329  1.00  0.00    -0.248 NA
ATOM     38  C   UNL A   1      39.527  26.589  28.109  1.00  0.00     0.031 C 
ATOM     39  C   UNL A   1      42.320  29.433  30.011  1.00  0.00     0.029 A 
ATOM     40  N   UNL A   1      40.635  30.600  30.940  1.00  0.00    -0.354 N 
ATOM     41  C   UNL A   1      41.602  25.675  28.510  1.00  0.00     0.074 A 
ATOM     42  C   UNL A   1      40.318  25.541  27.865  1.00  0.00     0.031 C 
ATOM     43  C   UNL A   1      42.834  30.161  31.013  1.00  0.00     0.029 A 
ATOM     44  C   UNL A   1      41.718  30.588  31.840  1.00  0.00     0.049 A 
ATOM     45  H   UNL A   1      39.870  31.217  30.941  1.00  0.00     0.167 HD
ATOM     46  C   UNL A   1      42.837  25.104  28.398  1.00  0.00     0.037 A 
ATOM     47  C   UNL A   1      41.609  30.336  33.181  1.00  0.00     0.037 A 
ATOM     48  C   UNL A   1      43.765  25.701  29.363  1.00  0.00     0.049 A 
ATOM     49  C   UNL A   1      42.398  29.127  33.648  1.00  0.00     0.074 A 
ATOM     50  C   UNL A   1      44.728  26.695  29.307  1.00  0.00     0.029 A 
ATOM     51  N   UNL A   1      43.562  25.440  30.703  1.00  0.00    -0.354 N 
ATOM     52  N   UNL A   1      43.095  28.359  32.860  1.00  0.00    -0.248 NA
ATOM     53  C   UNL A   1      42.374  28.625  35.025  1.00  0.00     0.031 C 
ATOM     54  C   UNL A   1      45.061  27.059  30.647  1.00  0.00     0.029 A 
ATOM     55  C   UNL A   1      44.312  26.274  31.506  1.00  0.00     0.049 A 
ATOM     56  H   UNL A   1      42.956  24.744  31.043  1.00  0.00     0.167 HD
ATOM     57  C   UNL A   1      43.510  27.255  33.549  1.00  0.00     0.074 A 
ATOM     58  C   UNL A   1      43.070  27.480  34.912  1.00  0.00     0.031 C 
ATOM     59  C   UNL A   1      44.122  26.200  32.944  1.00  0.00     0.037 A 
BRANCH  46  60
ATOM     60  C   UNL A   1      43.303  24.142  27.322  1.00  0.00     0.058 A 
ATOM     61  C   UNL A   1      42.794  22.821  27.296  1.00  0.00     0.135 A 
ATOM     62  C   UNL A   1      44.273  24.402  26.332  1.00  0.00     0.135 A 
ATOM     63  F   UNL A   1      41.819  22.429  28.128  1.00  0.00    -0.206 F 
ATOM     64  C   UNL A   1      43.264  21.834  26.428  1.00  0.00     0.059 A 
ATOM     65  C   UNL A   1      44.772  23.427  25.465  1.00  0.00     0.059 A 
ATOM     66  F   UNL A   1      44.776  25.618  26.121  1.00  0.00    -0.206 F 
ATOM     67  C   UNL A   1      44.275  22.139  25.531  1.00  0.00     0.060 A 
BRANCH  67  68
ATOM     68  S   UNL A   1      44.917  20.847  24.457  1.00  0.00     0.124 S 
ATOM     69  O   UNL A   1      46.320  20.793  24.856  1.00  0.00    -0.237 OA
ATOM     70  O   UNL A   1      44.102  19.698  24.835  1.00  0.00    -0.237 OA
ATOM     71  O   UNL A   1      44.675  21.368  23.114  1.00  0.00    -0.744 OA
ENDBRANCH  67  68
ENDBRANCH  46  60
BRANCH  47  72
ATOM     72  C   UNL A   1      40.312  30.751  33.770  1.00  0.00     0.058 A 
ATOM     73  C   UNL A   1      40.140  32.108  34.095  1.00  0.00     0.135 A 
ATOM     74  C   UNL A   1      39.170  29.964  33.563  1.00  0.00     0.135 A 
ATOM     75  F   UNL A   1      41.210  32.883  34.336  1.00  0.00    -0.206 F 
ATOM     76  C   UNL A   1      38.892  32.710  34.020  1.00  0.00     0.059 A 
ATOM     77  C   UNL A   1      37.914  30.548  33.481  1.00  0.00     0.059 A 
ATOM     78  F   UNL A   1      39.287  28.665  33.253  1.00  0.00    -0.206 F 
ATOM     79  C   UNL A   1      37.799  31.931  33.643  1.00  0.00     0.060 A 
BRANCH  79  80
ATOM     80  S   UNL A   1      36.299  32.754  33.061  1.00  0.00     0.124 S 
ATOM     81  O   UNL A   1      35.667  31.696  32.284  1.00  0.00    -0.237 OA
ATOM     82  O   UNL A   1      35.636  33.116  34.310  1.00  0.00    -0.237 OA
ATOM     83  O   UNL A   1      36.850  33.860  32.286  1.00  0.00    -0.744 OA
ENDBRANCH  79  80
ENDBRANCH  47  72
BRANCH  59  84
ATOM     84  C   UNL A   1      44.561  24.984  33.693  1.00  0.00     0.058 A 
ATOM     85  C   UNL A   1      45.906  24.592  33.723  1.00  0.00     0.135 A 
ATOM     86  C   UNL A   1      43.629  24.109  34.284  1.00  0.00     0.135 A 
ATOM     87  F   UNL A   1      46.855  25.364  33.170  1.00  0.00    -0.206 F 
ATOM     88  C   UNL A   1      46.308  23.395  34.314  1.00  0.00     0.059 A 
ATOM     89  C   UNL A   1      43.999  22.889  34.837  1.00  0.00     0.059 A 
ATOM     90  F   UNL A   1      42.328  24.430  34.363  1.00  0.00    -0.206 F 
ATOM     91  C   UNL A   1      45.346  22.547  34.862  1.00  0.00     0.060 A 
BRANCH  91  92
ATOM     92  S   UNL A   1      45.854  20.982  35.597  1.00  0.00     0.124 S 
ATOM     93  O   UNL A   1      44.863  20.044  35.076  1.00  0.00    -0.237 OA
ATOM     94  O   UNL A   1      47.203  20.838  35.060  1.00  0.00    -0.237 OA
ATOM     95  O   UNL A   1      45.770  21.240  37.030  1.00  0.00    -0.744 OA
ENDBRANCH  91  92
ENDBRANCH  59  84
ENDBRANCH  33  34
ENDBRANCH  26  28
ENDBRANCH  25  26
ENDBRANCH  24  25
ENDBRANCH   1  24
TORSDOF 17
ENDMDL
