MODEL 1
REMARK VINA RESULT:     -11.7      0.000      0.000
REMARK SMILES C[C@H](NC(=O)CCN1C(=O)/C(=C/c2ccc([N+](=O)[O-])cc2)SC1=S)C(=O)OCCOC(=O)c1ccc(-c2c3nc(c(-c4c(F)cc(S(=O)(=O)[O-])cc4F)c4ccc([nH]4)c(-c4c(F)cc(S(=O)(=O)[O-])cc4F)c4nc(c(-c5c(F)cc(S(=O)(=O)[O-])cc5F)c5ccc2[nH]5)C=C4)C=C3)cc1
REMARK SMILES IDX 27 1 25 2 26 3 2 4 1 5 3 6 4 7 5 9 6 10 7 11 8 12 9 13 23 14
REMARK SMILES IDX 10 15 11 16 22 17 24 18 12 19 13 20 14 21 21 22 15 23 20 24
REMARK SMILES IDX 16 25 17 26 18 27 19 28 28 29 29 30 30 31 31 32 32 33 33 34
REMARK SMILES IDX 34 35 98 36 35 37 97 38 36 39 37 40 38 41 91 42 39 43 96 44
REMARK SMILES IDX 90 45 92 46 40 47 95 48 89 49 88 50 41 52 75 53 54 54 74 55
REMARK SMILES IDX 55 56 58 57 73 58 93 59 56 60 57 61 72 63 94 64 59 65 42 66
REMARK SMILES IDX 43 67 52 68 44 69 45 70 51 71 53 72 46 73 47 74 48 75 49 76
REMARK SMILES IDX 50 77 76 78 77 79 86 80 78 81 79 82 85 83 87 84 80 85 81 86
REMARK SMILES IDX 82 87 83 88 84 89 60 90 61 91 70 92 62 93 63 94 69 95 71 96
REMARK SMILES IDX 64 97 65 98 66 99 67 100 68 101
REMARK H PARENT 3 8 92 51 58 62
REMARK Flexibility Score: inf
ROOT
ATOM      1  O   UNL A   1      31.570  29.868  25.013  1.00  0.00    -0.461 OA
ENDROOT
BRANCH   1   2
ATOM      2  C   UNL A   1      31.245  28.602  24.615  1.00  0.00     0.328 C 
ATOM      3  O   UNL A   1      30.724  27.762  25.337  1.00  0.00    -0.250 OA
BRANCH   2   4
ATOM      4  C   UNL A   1      31.442  28.427  23.101  1.00  0.00     0.189 C 
ATOM      5  C   UNL A   1      30.532  29.334  22.289  1.00  0.00     0.043 C 
BRANCH   4   6
ATOM      6  N   UNL A   1      31.458  27.003  22.750  1.00  0.00    -0.343 N 
ATOM      7  C   UNL A   1      32.415  26.043  22.731  1.00  0.00     0.222 C 
ATOM      8  H   UNL A   1      30.577  26.670  22.464  1.00  0.00     0.164 HD
ATOM      9  O   UNL A   1      32.195  25.037  22.051  1.00  0.00    -0.275 OA
BRANCH   7  10
ATOM     10  C   UNL A   1      33.676  26.117  23.560  1.00  0.00     0.122 C 
BRANCH  10  11
ATOM     11  C   UNL A   1      33.513  25.511  24.956  1.00  0.00     0.137 C 
BRANCH  11  12
ATOM     12  N   UNL A   1      33.089  24.102  24.947  1.00  0.00    -0.292 N 
ATOM     13  C   UNL A   1      33.924  23.150  24.388  1.00  0.00     0.266 C 
ATOM     14  C   UNL A   1      31.887  23.638  25.444  1.00  0.00     0.148 C 
ATOM     15  O   UNL A   1      35.009  23.372  23.865  1.00  0.00    -0.268 OA
ATOM     16  C   UNL A   1      33.355  21.782  24.563  1.00  0.00     0.081 C 
ATOM     17  S   UNL A   1      31.836  21.881  25.347  1.00  0.00    -0.054 SA
ATOM     18  S   UNL A   1      30.626  24.529  26.076  1.00  0.00    -0.052 S 
ATOM     19  C   UNL A   1      34.099  20.711  24.245  1.00  0.00     0.029 C 
BRANCH  19  20
ATOM     20  C   UNL A   1      33.933  19.287  24.591  1.00  0.00    -0.024 A 
ATOM     21  C   UNL A   1      32.638  18.885  24.972  1.00  0.00     0.015 A 
ATOM     22  C   UNL A   1      34.944  18.322  24.561  1.00  0.00     0.015 A 
ATOM     23  C   UNL A   1      32.342  17.553  25.266  1.00  0.00     0.086 A 
ATOM     24  C   UNL A   1      34.661  16.979  24.851  1.00  0.00     0.086 A 
ATOM     25  C   UNL A   1      33.358  16.600  25.196  1.00  0.00     0.269 A 
BRANCH  25  26
ATOM     26  N   UNL A   1      33.050  15.198  25.506  1.00  0.00     0.062 N 
ATOM     27  O   UNL A   1      31.893  14.929  25.859  1.00  0.00    -0.258 OA
ATOM     28  O   UNL A   1      33.971  14.374  25.426  1.00  0.00    -0.258 OA
ENDBRANCH  25  26
ENDBRANCH  19  20
ENDBRANCH  11  12
ENDBRANCH  10  11
ENDBRANCH   7  10
ENDBRANCH   4   6
ENDBRANCH   2   4
ENDBRANCH   1   2
BRANCH   1  29
ATOM     29  C   UNL A   1      32.856  30.009  25.641  1.00  0.00     0.274 C 
BRANCH  29  30
ATOM     30  C   UNL A   1      32.776  30.707  27.003  1.00  0.00     0.275 C 
BRANCH  30  31
ATOM     31  O   UNL A   1      33.600  30.058  27.989  1.00  0.00    -0.458 OA
BRANCH  31  32
ATOM     32  C   UNL A   1      34.601  30.819  28.484  1.00  0.00     0.338 C 
ATOM     33  O   UNL A   1      34.508  31.960  28.927  1.00  0.00    -0.246 OA
BRANCH  32  34
ATOM     34  C   UNL A   1      35.872  30.083  28.506  1.00  0.00     0.060 A 
ATOM     35  C   UNL A   1      36.311  29.532  29.709  1.00  0.00     0.016 A 
ATOM     36  C   UNL A   1      36.728  30.128  27.408  1.00  0.00     0.016 A 
ATOM     37  C   UNL A   1      37.634  29.125  29.860  1.00  0.00     0.010 A 
ATOM     38  C   UNL A   1      38.035  29.641  27.534  1.00  0.00     0.010 A 
ATOM     39  C   UNL A   1      38.515  29.186  28.776  1.00  0.00    -0.014 A 
BRANCH  39  40
ATOM     40  C   UNL A   1      39.959  28.870  28.955  1.00  0.00     0.031 A 
ATOM     41  C   UNL A   1      40.892  29.937  29.466  1.00  0.00     0.074 A 
ATOM     42  C   UNL A   1      40.439  27.641  28.683  1.00  0.00     0.049 A 
ATOM     43  N   UNL A   1      42.198  29.956  29.485  1.00  0.00    -0.248 NA
ATOM     44  C   UNL A   1      40.266  31.149  30.023  1.00  0.00     0.031 C 
ATOM     45  C   UNL A   1      39.640  26.489  28.262  1.00  0.00     0.029 A 
ATOM     46  N   UNL A   1      41.724  27.159  28.718  1.00  0.00    -0.354 N 
ATOM     47  C   UNL A   1      42.553  31.199  29.998  1.00  0.00     0.074 A 
ATOM     48  C   UNL A   1      41.323  31.904  30.286  1.00  0.00     0.031 C 
ATOM     49  C   UNL A   1      40.451  25.434  28.083  1.00  0.00     0.029 A 
ATOM     50  C   UNL A   1      41.832  25.854  28.300  1.00  0.00     0.049 A 
ATOM     51  H   UNL A   1      42.494  27.697  29.013  1.00  0.00     0.167 HD
ATOM     52  C   UNL A   1      43.792  31.708  30.198  1.00  0.00     0.037 A 
ATOM     53  C   UNL A   1      42.920  25.095  28.066  1.00  0.00     0.037 A 
ATOM     54  C   UNL A   1      45.011  30.983  29.956  1.00  0.00     0.049 A 
ATOM     55  C   UNL A   1      44.288  25.690  28.257  1.00  0.00     0.074 A 
ATOM     56  C   UNL A   1      46.318  31.411  30.119  1.00  0.00     0.029 A 
ATOM     57  N   UNL A   1      45.074  29.669  29.514  1.00  0.00    -0.354 N 
ATOM     58  N   UNL A   1      44.611  26.896  28.660  1.00  0.00    -0.248 NA
ATOM     59  C   UNL A   1      45.436  24.831  27.941  1.00  0.00     0.031 C 
ATOM     60  C   UNL A   1      47.171  30.362  29.756  1.00  0.00     0.029 A 
ATOM     61  C   UNL A   1      46.394  29.272  29.397  1.00  0.00     0.049 A 
ATOM     62  H   UNL A   1      44.293  29.103  29.315  1.00  0.00     0.167 HD
ATOM     63  C   UNL A   1      46.001  26.937  28.653  1.00  0.00     0.074 A 
ATOM     64  C   UNL A   1      46.457  25.631  28.221  1.00  0.00     0.031 C 
ATOM     65  C   UNL A   1      46.826  27.964  28.972  1.00  0.00     0.037 A 
BRANCH  52  66
ATOM     66  C   UNL A   1      43.889  33.132  30.665  1.00  0.00     0.058 A 
ATOM     67  C   UNL A   1      44.036  34.202  29.769  1.00  0.00     0.135 A 
ATOM     68  C   UNL A   1      43.816  33.429  32.036  1.00  0.00     0.135 A 
ATOM     69  F   UNL A   1      44.132  33.969  28.451  1.00  0.00    -0.206 F 
ATOM     70  C   UNL A   1      44.133  35.515  30.217  1.00  0.00     0.059 A 
ATOM     71  C   UNL A   1      43.890  34.737  32.506  1.00  0.00     0.059 A 
ATOM     72  F   UNL A   1      43.678  32.442  32.935  1.00  0.00    -0.206 F 
ATOM     73  C   UNL A   1      44.066  35.773  31.589  1.00  0.00     0.060 A 
BRANCH  73  74
ATOM     74  S   UNL A   1      44.201  37.479  32.162  1.00  0.00     0.124 S 
ATOM     75  O   UNL A   1      45.634  37.582  32.426  1.00  0.00    -0.237 OA
ATOM     76  O   UNL A   1      43.713  38.239  31.015  1.00  0.00    -0.237 OA
ATOM     77  O   UNL A   1      43.343  37.510  33.342  1.00  0.00    -0.744 OA
ENDBRANCH  73  74
ENDBRANCH  52  66
BRANCH  53  78
ATOM     78  C   UNL A   1      42.757  23.705  27.571  1.00  0.00     0.058 A 
ATOM     79  C   UNL A   1      42.517  22.646  28.458  1.00  0.00     0.135 A 
ATOM     80  C   UNL A   1      42.814  23.411  26.199  1.00  0.00     0.135 A 
ATOM     81  F   UNL A   1      42.466  22.876  29.779  1.00  0.00    -0.206 F 
ATOM     82  C   UNL A   1      42.341  21.343  28.004  1.00  0.00     0.059 A 
ATOM     83  C   UNL A   1      42.619  22.121  25.719  1.00  0.00     0.059 A 
ATOM     84  F   UNL A   1      43.031  24.393  25.311  1.00  0.00    -0.206 F 
ATOM     85  C   UNL A   1      42.390  21.091  26.631  1.00  0.00     0.060 A 
BRANCH  85  86
ATOM     86  S   UNL A   1      42.091  19.410  26.042  1.00  0.00     0.124 S 
ATOM     87  O   UNL A   1      42.500  18.619  27.196  1.00  0.00    -0.237 OA
ATOM     88  O   UNL A   1      40.660  19.430  25.756  1.00  0.00    -0.237 OA
ATOM     89  O   UNL A   1      42.953  19.311  24.868  1.00  0.00    -0.744 OA
ENDBRANCH  85  86
ENDBRANCH  53  78
BRANCH  65  90
ATOM     90  C   UNL A   1      48.303  27.709  28.894  1.00  0.00     0.058 A 
ATOM     91  C   UNL A   1      49.013  27.880  27.697  1.00  0.00     0.135 A 
ATOM     92  C   UNL A   1      49.021  27.337  30.041  1.00  0.00     0.135 A 
ATOM     93  F   UNL A   1      48.368  28.227  26.573  1.00  0.00    -0.206 F 
ATOM     94  C   UNL A   1      50.388  27.674  27.636  1.00  0.00     0.059 A 
ATOM     95  C   UNL A   1      50.398  27.145  30.006  1.00  0.00     0.059 A 
ATOM     96  F   UNL A   1      48.385  27.171  31.212  1.00  0.00    -0.206 F 
ATOM     97  C   UNL A   1      51.071  27.306  28.796  1.00  0.00     0.060 A 
BRANCH  97  98
ATOM     98  S   UNL A   1      52.860  27.077  28.717  1.00  0.00     0.124 S 
ATOM     99  O   UNL A   1      53.092  26.189  29.852  1.00  0.00    -0.237 OA
ATOM    100  O   UNL A   1      53.046  26.482  27.398  1.00  0.00    -0.237 OA
ATOM    101  O   UNL A   1      53.381  28.434  28.863  1.00  0.00    -0.744 OA
ENDBRANCH  97  98
ENDBRANCH  65  90
ENDBRANCH  39  40
ENDBRANCH  32  34
ENDBRANCH  31  32
ENDBRANCH  30  31
ENDBRANCH  29  30
ENDBRANCH   1  29
TORSDOF 20
ENDMDL
MODEL 2
REMARK VINA RESULT:     -11.7      2.302      3.287
REMARK SMILES C[C@H](NC(=O)CCN1C(=O)/C(=C/c2ccc([N+](=O)[O-])cc2)SC1=S)C(=O)OCCOC(=O)c1ccc(-c2c3nc(c(-c4c(F)cc(S(=O)(=O)[O-])cc4F)c4ccc([nH]4)c(-c4c(F)cc(S(=O)(=O)[O-])cc4F)c4nc(c(-c5c(F)cc(S(=O)(=O)[O-])cc5F)c5ccc2[nH]5)C=C4)C=C3)cc1
REMARK SMILES IDX 27 1 25 2 26 3 2 4 1 5 3 6 4 7 5 9 6 10 7 11 8 12 9 13 23 14
REMARK SMILES IDX 10 15 11 16 22 17 24 18 12 19 13 20 14 21 21 22 15 23 20 24
REMARK SMILES IDX 16 25 17 26 18 27 19 28 28 29 29 30 30 31 31 32 32 33 33 34
REMARK SMILES IDX 34 35 98 36 35 37 97 38 36 39 37 40 38 41 91 42 39 43 96 44
REMARK SMILES IDX 90 45 92 46 40 47 95 48 89 49 88 50 41 52 75 53 54 54 74 55
REMARK SMILES IDX 55 56 58 57 73 58 93 59 56 60 57 61 72 63 94 64 59 65 42 66
REMARK SMILES IDX 43 67 52 68 44 69 45 70 51 71 53 72 46 73 47 74 48 75 49 76
REMARK SMILES IDX 50 77 76 78 77 79 86 80 78 81 79 82 85 83 87 84 80 85 81 86
REMARK SMILES IDX 82 87 83 88 84 89 60 90 61 91 70 92 62 93 63 94 69 95 71 96
REMARK SMILES IDX 64 97 65 98 66 99 67 100 68 101
REMARK H PARENT 3 8 92 51 58 62
REMARK Flexibility Score: inf
ROOT
ATOM      1  O   UNL A   1      33.687  31.470  27.949  1.00  0.00    -0.461 OA
ENDROOT
BRANCH   1   2
ATOM      2  C   UNL A   1      34.132  30.374  27.263  1.00  0.00     0.328 C 
ATOM      3  O   UNL A   1      35.167  29.772  27.518  1.00  0.00    -0.250 OA
BRANCH   2   4
ATOM      4  C   UNL A   1      33.080  29.882  26.257  1.00  0.00     0.189 C 
ATOM      5  C   UNL A   1      32.191  28.791  26.835  1.00  0.00     0.043 C 
BRANCH   4   6
ATOM      6  N   UNL A   1      33.701  29.623  24.955  1.00  0.00    -0.343 N 
ATOM      7  C   UNL A   1      33.306  28.982  23.828  1.00  0.00     0.222 C 
ATOM      8  H   UNL A   1      34.609  29.998  24.883  1.00  0.00     0.164 HD
ATOM      9  O   UNL A   1      34.186  28.629  23.038  1.00  0.00    -0.275 OA
BRANCH   7  10
ATOM     10  C   UNL A   1      31.855  28.763  23.468  1.00  0.00     0.122 C 
BRANCH  10  11
ATOM     11  C   UNL A   1      31.668  27.833  22.267  1.00  0.00     0.137 C 
BRANCH  11  12
ATOM     12  N   UNL A   1      31.501  26.417  22.631  1.00  0.00    -0.292 N 
ATOM     13  C   UNL A   1      32.478  25.507  22.266  1.00  0.00     0.266 C 
ATOM     14  C   UNL A   1      30.413  25.902  23.307  1.00  0.00     0.148 C 
ATOM     15  O   UNL A   1      33.492  25.766  21.632  1.00  0.00    -0.268 OA
ATOM     16  C   UNL A   1      32.164  24.152  22.808  1.00  0.00     0.081 C 
ATOM     17  S   UNL A   1      30.672  24.193  23.645  1.00  0.00    -0.054 SA
ATOM     18  S   UNL A   1      29.030  26.702  23.787  1.00  0.00    -0.052 S 
ATOM     19  C   UNL A   1      33.077  23.175  22.711  1.00  0.00     0.029 C 
BRANCH  19  20
ATOM     20  C   UNL A   1      33.175  21.876  23.405  1.00  0.00    -0.024 A 
ATOM     21  C   UNL A   1      32.308  20.863  22.953  1.00  0.00     0.015 A 
ATOM     22  C   UNL A   1      34.054  21.580  24.450  1.00  0.00     0.015 A 
ATOM     23  C   UNL A   1      32.346  19.575  23.490  1.00  0.00     0.086 A 
ATOM     24  C   UNL A   1      34.106  20.288  24.998  1.00  0.00     0.086 A 
ATOM     25  C   UNL A   1      33.254  19.290  24.510  1.00  0.00     0.269 A 
BRANCH  25  26
ATOM     26  N   UNL A   1      33.296  17.937  25.078  1.00  0.00     0.062 N 
ATOM     27  O   UNL A   1      32.386  17.611  25.854  1.00  0.00    -0.258 OA
ATOM     28  O   UNL A   1      34.251  17.211  24.771  1.00  0.00    -0.258 OA
ENDBRANCH  25  26
ENDBRANCH  19  20
ENDBRANCH  11  12
ENDBRANCH  10  11
ENDBRANCH   7  10
ENDBRANCH   4   6
ENDBRANCH   2   4
ENDBRANCH   1   2
BRANCH   1  29
ATOM     29  C   UNL A   1      34.669  32.494  28.183  1.00  0.00     0.274 C 
BRANCH  29  30
ATOM     30  C   UNL A   1      35.047  32.624  29.661  1.00  0.00     0.275 C 
BRANCH  30  31
ATOM     31  O   UNL A   1      35.658  31.423  30.168  1.00  0.00    -0.458 OA
BRANCH  31  32
ATOM     32  C   UNL A   1      36.779  31.618  30.897  1.00  0.00     0.338 C 
ATOM     33  O   UNL A   1      36.900  32.342  31.881  1.00  0.00    -0.246 OA
BRANCH  32  34
ATOM     34  C   UNL A   1      37.885  30.781  30.413  1.00  0.00     0.060 A 
ATOM     35  C   UNL A   1      38.721  30.166  31.343  1.00  0.00     0.016 A 
ATOM     36  C   UNL A   1      38.228  30.783  29.062  1.00  0.00     0.016 A 
ATOM     37  C   UNL A   1      39.954  29.650  30.953  1.00  0.00     0.010 A 
ATOM     38  C   UNL A   1      39.429  30.189  28.657  1.00  0.00     0.010 A 
ATOM     39  C   UNL A   1      40.328  29.665  29.605  1.00  0.00    -0.014 A 
BRANCH  39  40
ATOM     40  C   UNL A   1      41.689  29.228  29.191  1.00  0.00     0.031 A 
ATOM     41  C   UNL A   1      42.817  30.227  29.188  1.00  0.00     0.074 A 
ATOM     42  C   UNL A   1      41.930  27.951  28.837  1.00  0.00     0.049 A 
ATOM     43  N   UNL A   1      44.009  30.129  28.661  1.00  0.00    -0.248 NA
ATOM     44  C   UNL A   1      42.563  31.512  29.862  1.00  0.00     0.031 C 
ATOM     45  C   UNL A   1      40.956  26.860  28.872  1.00  0.00     0.029 A 
ATOM     46  N   UNL A   1      43.077  27.358  28.371  1.00  0.00    -0.354 N 
ATOM     47  C   UNL A   1      44.626  31.355  28.886  1.00  0.00     0.074 A 
ATOM     48  C   UNL A   1      43.679  32.179  29.606  1.00  0.00     0.031 C 
ATOM     49  C   UNL A   1      41.547  25.730  28.452  1.00  0.00     0.029 A 
ATOM     50  C   UNL A   1      42.915  26.032  28.044  1.00  0.00     0.049 A 
ATOM     51  H   UNL A   1      43.933  27.836  28.279  1.00  0.00     0.167 HD
ATOM     52  C   UNL A   1      45.864  31.759  28.515  1.00  0.00     0.037 A 
ATOM     53  C   UNL A   1      43.753  25.170  27.436  1.00  0.00     0.037 A 
ATOM     54  C   UNL A   1      46.820  30.918  27.843  1.00  0.00     0.049 A 
ATOM     55  C   UNL A   1      45.109  25.647  26.997  1.00  0.00     0.074 A 
ATOM     56  C   UNL A   1      48.098  31.233  27.417  1.00  0.00     0.029 A 
ATOM     57  N   UNL A   1      46.606  29.587  27.514  1.00  0.00    -0.354 N 
ATOM     58  N   UNL A   1      45.649  26.834  27.138  1.00  0.00    -0.248 NA
ATOM     59  C   UNL A   1      45.960  24.676  26.297  1.00  0.00     0.031 C 
ATOM     60  C   UNL A   1      48.650  30.098  26.811  1.00  0.00     0.029 A 
ATOM     61  C   UNL A   1      47.726  29.068  26.889  1.00  0.00     0.049 A 
ATOM     62  H   UNL A   1      45.779  29.086  27.700  1.00  0.00     0.167 HD
ATOM     63  C   UNL A   1      46.907  26.750  26.551  1.00  0.00     0.074 A 
ATOM     64  C   UNL A   1      47.054  25.392  26.067  1.00  0.00     0.031 C 
ATOM     65  C   UNL A   1      47.854  27.711  26.422  1.00  0.00     0.037 A 
BRANCH  52  66
ATOM     66  C   UNL A   1      46.240  33.186  28.792  1.00  0.00     0.058 A 
ATOM     67  C   UNL A   1      46.892  33.569  29.973  1.00  0.00     0.135 A 
ATOM     68  C   UNL A   1      45.953  34.185  27.847  1.00  0.00     0.135 A 
ATOM     69  F   UNL A   1      47.169  32.657  30.918  1.00  0.00    -0.206 F 
ATOM     70  C   UNL A   1      47.226  34.897  30.220  1.00  0.00     0.059 A 
ATOM     71  C   UNL A   1      46.296  35.516  28.063  1.00  0.00     0.059 A 
ATOM     72  F   UNL A   1      45.328  33.872  26.701  1.00  0.00    -0.206 F 
ATOM     73  C   UNL A   1      46.918  35.865  29.261  1.00  0.00     0.060 A 
BRANCH  73  74
ATOM     74  S   UNL A   1      47.347  37.587  29.593  1.00  0.00     0.124 S 
ATOM     75  O   UNL A   1      46.936  37.723  30.988  1.00  0.00    -0.237 OA
ATOM     76  O   UNL A   1      48.786  37.607  29.353  1.00  0.00    -0.237 OA
ATOM     77  O   UNL A   1      46.543  38.329  28.628  1.00  0.00    -0.744 OA
ENDBRANCH  73  74
ENDBRANCH  52  66
BRANCH  53  78
ATOM     78  C   UNL A   1      43.307  23.781  27.159  1.00  0.00     0.058 A 
ATOM     79  C   UNL A   1      43.235  22.827  28.184  1.00  0.00     0.135 A 
ATOM     80  C   UNL A   1      42.922  23.386  25.867  1.00  0.00     0.135 A 
ATOM     81  F   UNL A   1      43.604  23.155  29.431  1.00  0.00    -0.206 F 
ATOM     82  C   UNL A   1      42.798  21.529  27.940  1.00  0.00     0.059 A 
ATOM     83  C   UNL A   1      42.460  22.101  25.602  1.00  0.00     0.059 A 
ATOM     84  F   UNL A   1      42.964  24.267  24.855  1.00  0.00    -0.206 F 
ATOM     85  C   UNL A   1      42.410  21.177  26.645  1.00  0.00     0.060 A 
BRANCH  85  86
ATOM     86  S   UNL A   1      41.778  19.512  26.347  1.00  0.00     0.124 S 
ATOM     87  O   UNL A   1      42.462  19.156  25.109  1.00  0.00    -0.237 OA
ATOM     88  O   UNL A   1      42.211  18.796  27.544  1.00  0.00    -0.237 OA
ATOM     89  O   UNL A   1      40.337  19.717  26.239  1.00  0.00    -0.744 OA
ENDBRANCH  85  86
ENDBRANCH  53  78
BRANCH  65  90
ATOM     90  C   UNL A   1      49.141  27.321  25.756  1.00  0.00     0.058 A 
ATOM     91  C   UNL A   1      49.286  27.361  24.362  1.00  0.00     0.135 A 
ATOM     92  C   UNL A   1      50.255  26.952  26.527  1.00  0.00     0.135 A 
ATOM     93  F   UNL A   1      48.247  27.700  23.584  1.00  0.00    -0.206 F 
ATOM     94  C   UNL A   1      50.491  27.031  23.751  1.00  0.00     0.059 A 
ATOM     95  C   UNL A   1      51.474  26.637  25.937  1.00  0.00     0.059 A 
ATOM     96  F   UNL A   1      50.167  26.909  27.866  1.00  0.00    -0.206 F 
ATOM     97  C   UNL A   1      51.580  26.669  24.546  1.00  0.00     0.060 A 
BRANCH  97  98
ATOM     98  S   UNL A   1      53.150  26.277  23.748  1.00  0.00     0.124 S 
ATOM     99  O   UNL A   1      52.764  26.243  22.341  1.00  0.00    -0.237 OA
ATOM    100  O   UNL A   1      53.996  27.398  24.146  1.00  0.00    -0.237 OA
ATOM    101  O   UNL A   1      53.514  24.989  24.331  1.00  0.00    -0.744 OA
ENDBRANCH  97  98
ENDBRANCH  65  90
ENDBRANCH  39  40
ENDBRANCH  32  34
ENDBRANCH  31  32
ENDBRANCH  30  31
ENDBRANCH  29  30
ENDBRANCH   1  29
TORSDOF 20
ENDMDL
MODEL 3
REMARK VINA RESULT:     -11.4      2.793      8.741
REMARK SMILES C[C@H](NC(=O)CCN1C(=O)/C(=C/c2ccc([N+](=O)[O-])cc2)SC1=S)C(=O)OCCOC(=O)c1ccc(-c2c3nc(c(-c4c(F)cc(S(=O)(=O)[O-])cc4F)c4ccc([nH]4)c(-c4c(F)cc(S(=O)(=O)[O-])cc4F)c4nc(c(-c5c(F)cc(S(=O)(=O)[O-])cc5F)c5ccc2[nH]5)C=C4)C=C3)cc1
REMARK SMILES IDX 27 1 25 2 26 3 2 4 1 5 3 6 4 7 5 9 6 10 7 11 8 12 9 13 23 14
REMARK SMILES IDX 10 15 11 16 22 17 24 18 12 19 13 20 14 21 21 22 15 23 20 24
REMARK SMILES IDX 16 25 17 26 18 27 19 28 28 29 29 30 30 31 31 32 32 33 33 34
REMARK SMILES IDX 34 35 98 36 35 37 97 38 36 39 37 40 38 41 91 42 39 43 96 44
REMARK SMILES IDX 90 45 92 46 40 47 95 48 89 49 88 50 41 52 75 53 54 54 74 55
REMARK SMILES IDX 55 56 58 57 73 58 93 59 56 60 57 61 72 63 94 64 59 65 42 66
REMARK SMILES IDX 43 67 52 68 44 69 45 70 51 71 53 72 46 73 47 74 48 75 49 76
REMARK SMILES IDX 50 77 76 78 77 79 86 80 78 81 79 82 85 83 87 84 80 85 81 86
REMARK SMILES IDX 82 87 83 88 84 89 60 90 61 91 70 92 62 93 63 94 69 95 71 96
REMARK SMILES IDX 64 97 65 98 66 99 67 100 68 101
REMARK H PARENT 3 8 92 51 58 62
REMARK Flexibility Score: inf
ROOT
ATOM      1  O   UNL A   1      33.811  29.676  26.239  1.00  0.00    -0.461 OA
ENDROOT
BRANCH   1   2
ATOM      2  C   UNL A   1      32.613  29.496  25.606  1.00  0.00     0.328 C 
ATOM      3  O   UNL A   1      31.601  30.141  25.845  1.00  0.00    -0.250 OA
BRANCH   2   4
ATOM      4  C   UNL A   1      32.746  28.514  24.432  1.00  0.00     0.189 C 
ATOM      5  C   UNL A   1      34.013  28.746  23.623  1.00  0.00     0.043 C 
BRANCH   4   6
ATOM      6  N   UNL A   1      31.483  28.430  23.692  1.00  0.00    -0.343 N 
ATOM      7  C   UNL A   1      31.098  27.825  22.542  1.00  0.00     0.222 C 
ATOM      8  H   UNL A   1      30.751  28.923  24.128  1.00  0.00     0.164 HD
ATOM      9  O   UNL A   1      30.066  28.235  22.004  1.00  0.00    -0.275 OA
BRANCH   7  10
ATOM     10  C   UNL A   1      31.821  26.637  21.951  1.00  0.00     0.122 C 
BRANCH  10  11
ATOM     11  C   UNL A   1      31.340  25.299  22.516  1.00  0.00     0.137 C 
BRANCH  11  12
ATOM     12  N   UNL A   1      32.287  24.672  23.451  1.00  0.00    -0.292 N 
ATOM     13  C   UNL A   1      33.387  24.000  22.947  1.00  0.00     0.266 C 
ATOM     14  C   UNL A   1      32.159  24.682  24.826  1.00  0.00     0.148 C 
ATOM     15  O   UNL A   1      33.650  23.852  21.761  1.00  0.00    -0.268 OA
ATOM     16  C   UNL A   1      34.265  23.522  24.055  1.00  0.00     0.081 C 
ATOM     17  S   UNL A   1      33.568  23.928  25.565  1.00  0.00    -0.054 SA
ATOM     18  S   UNL A   1      30.905  25.302  25.735  1.00  0.00    -0.052 S 
ATOM     19  C   UNL A   1      35.468  23.003  23.768  1.00  0.00     0.029 C 
BRANCH  19  20
ATOM     20  C   UNL A   1      36.638  22.747  24.629  1.00  0.00    -0.024 A 
ATOM     21  C   UNL A   1      37.123  21.425  24.644  1.00  0.00     0.015 A 
ATOM     22  C   UNL A   1      37.294  23.703  25.410  1.00  0.00     0.015 A 
ATOM     23  C   UNL A   1      38.259  21.071  25.374  1.00  0.00     0.086 A 
ATOM     24  C   UNL A   1      38.439  23.363  26.147  1.00  0.00     0.086 A 
ATOM     25  C   UNL A   1      38.920  22.048  26.120  1.00  0.00     0.269 A 
BRANCH  25  26
ATOM     26  N   UNL A   1      40.113  21.679  26.890  1.00  0.00     0.062 N 
ATOM     27  O   UNL A   1      40.671  20.608  26.607  1.00  0.00    -0.258 OA
ATOM     28  O   UNL A   1      40.475  22.442  27.796  1.00  0.00    -0.258 OA
ENDBRANCH  25  26
ENDBRANCH  19  20
ENDBRANCH  11  12
ENDBRANCH  10  11
ENDBRANCH   7  10
ENDBRANCH   4   6
ENDBRANCH   2   4
ENDBRANCH   1   2
BRANCH   1  29
ATOM     29  C   UNL A   1      33.825  30.685  27.264  1.00  0.00     0.274 C 
BRANCH  29  30
ATOM     30  C   UNL A   1      35.177  30.784  27.978  1.00  0.00     0.275 C 
BRANCH  30  31
ATOM     31  O   UNL A   1      35.817  29.501  28.099  1.00  0.00    -0.458 OA
BRANCH  31  32
ATOM     32  C   UNL A   1      36.637  29.372  29.165  1.00  0.00     0.338 C 
ATOM     33  O   UNL A   1      36.346  29.553  30.344  1.00  0.00    -0.246 OA
BRANCH  32  34
ATOM     34  C   UNL A   1      37.970  28.901  28.763  1.00  0.00     0.060 A 
ATOM     35  C   UNL A   1      38.789  28.303  29.718  1.00  0.00     0.016 A 
ATOM     36  C   UNL A   1      38.489  29.247  27.518  1.00  0.00     0.016 A 
ATOM     37  C   UNL A   1      40.153  28.147  29.482  1.00  0.00     0.010 A 
ATOM     38  C   UNL A   1      39.843  29.013  27.249  1.00  0.00     0.010 A 
ATOM     39  C   UNL A   1      40.698  28.511  28.247  1.00  0.00    -0.014 A 
BRANCH  39  40
ATOM     40  C   UNL A   1      42.169  28.463  28.025  1.00  0.00     0.031 A 
ATOM     41  C   UNL A   1      42.793  27.209  27.471  1.00  0.00     0.074 A 
ATOM     42  C   UNL A   1      42.946  29.530  28.294  1.00  0.00     0.049 A 
ATOM     43  N   UNL A   1      44.053  26.868  27.409  1.00  0.00    -0.248 NA
ATOM     44  C   UNL A   1      41.871  26.200  26.922  1.00  0.00     0.031 C 
ATOM     45  C   UNL A   1      42.470  30.835  28.755  1.00  0.00     0.029 A 
ATOM     46  N   UNL A   1      44.309  29.679  28.222  1.00  0.00    -0.354 N 
ATOM     47  C   UNL A   1      44.074  25.585  26.871  1.00  0.00     0.074 A 
ATOM     48  C   UNL A   1      42.700  25.212  26.615  1.00  0.00     0.031 C 
ATOM     49  C   UNL A   1      43.522  31.653  28.918  1.00  0.00     0.029 A 
ATOM     50  C   UNL A   1      44.749  30.909  28.651  1.00  0.00     0.049 A 
ATOM     51  H   UNL A   1      44.913  28.974  27.896  1.00  0.00     0.167 HD
ATOM     52  C   UNL A   1      45.142  24.790  26.624  1.00  0.00     0.037 A 
ATOM     53  C   UNL A   1      45.998  31.371  28.858  1.00  0.00     0.037 A 
ATOM     54  C   UNL A   1      46.509  25.186  26.834  1.00  0.00     0.049 A 
ATOM     55  C   UNL A   1      47.169  30.460  28.615  1.00  0.00     0.074 A 
ATOM     56  C   UNL A   1      47.663  24.452  26.623  1.00  0.00     0.029 A 
ATOM     57  N   UNL A   1      46.908  26.435  27.289  1.00  0.00    -0.354 N 
ATOM     58  N   UNL A   1      47.172  29.219  28.189  1.00  0.00    -0.248 NA
ATOM     59  C   UNL A   1      48.503  31.003  28.904  1.00  0.00     0.031 C 
ATOM     60  C   UNL A   1      48.760  25.250  26.970  1.00  0.00     0.029 A 
ATOM     61  C   UNL A   1      48.288  26.491  27.367  1.00  0.00     0.049 A 
ATOM     62  H   UNL A   1      46.298  27.172  27.519  1.00  0.00     0.167 HD
ATOM     63  C   UNL A   1      48.508  28.836  28.150  1.00  0.00     0.074 A 
ATOM     64  C   UNL A   1      49.285  29.980  28.581  1.00  0.00     0.031 C 
ATOM     65  C   UNL A   1      49.043  27.643  27.792  1.00  0.00     0.037 A 
BRANCH  52  66
ATOM     66  C   UNL A   1      44.869  23.395  26.139  1.00  0.00     0.058 A 
ATOM     67  C   UNL A   1      44.310  22.413  26.969  1.00  0.00     0.135 A 
ATOM     68  C   UNL A   1      45.160  23.044  24.810  1.00  0.00     0.135 A 
ATOM     69  F   UNL A   1      44.033  22.691  28.252  1.00  0.00    -0.206 F 
ATOM     70  C   UNL A   1      44.071  21.122  26.507  1.00  0.00     0.059 A 
ATOM     71  C   UNL A   1      44.911  21.765  24.320  1.00  0.00     0.059 A 
ATOM     72  F   UNL A   1      45.699  23.946  23.974  1.00  0.00    -0.206 F 
ATOM     73  C   UNL A   1      44.381  20.806  25.182  1.00  0.00     0.060 A 
BRANCH  73  74
ATOM     74  S   UNL A   1      44.076  19.126  24.594  1.00  0.00     0.124 S 
ATOM     75  O   UNL A   1      45.041  18.365  25.382  1.00  0.00    -0.237 OA
ATOM     76  O   UNL A   1      42.673  18.919  24.939  1.00  0.00    -0.237 OA
ATOM     77  O   UNL A   1      44.361  19.211  23.165  1.00  0.00    -0.744 OA
ENDBRANCH  73  74
ENDBRANCH  52  66
BRANCH  53  78
ATOM     78  C   UNL A   1      46.198  32.749  29.374  1.00  0.00     0.058 A 
ATOM     79  C   UNL A   1      46.374  33.829  28.498  1.00  0.00     0.135 A 
ATOM     80  C   UNL A   1      46.195  33.016  30.753  1.00  0.00     0.135 A 
ATOM     81  F   UNL A   1      46.397  33.621  27.173  1.00  0.00    -0.206 F 
ATOM     82  C   UNL A   1      46.541  35.128  28.969  1.00  0.00     0.059 A 
ATOM     83  C   UNL A   1      46.337  34.308  31.247  1.00  0.00     0.059 A 
ATOM     84  F   UNL A   1      46.020  32.016  31.630  1.00  0.00    -0.206 F 
ATOM     85  C   UNL A   1      46.517  35.357  30.347  1.00  0.00     0.060 A 
BRANCH  85  86
ATOM     86  S   UNL A   1      46.665  37.052  30.951  1.00  0.00     0.124 S 
ATOM     87  O   UNL A   1      46.233  37.816  29.786  1.00  0.00    -0.237 OA
ATOM     88  O   UNL A   1      45.754  37.057  32.092  1.00  0.00    -0.237 OA
ATOM     89  O   UNL A   1      48.080  37.162  31.292  1.00  0.00    -0.744 OA
ENDBRANCH  85  86
ENDBRANCH  53  78
BRANCH  65  90
ATOM     90  C   UNL A   1      50.539  27.524  27.824  1.00  0.00     0.058 A 
ATOM     91  C   UNL A   1      51.209  27.033  28.954  1.00  0.00     0.135 A 
ATOM     92  C   UNL A   1      51.302  27.858  26.695  1.00  0.00     0.135 A 
ATOM     93  F   UNL A   1      50.522  26.708  30.060  1.00  0.00    -0.206 F 
ATOM     94  C   UNL A   1      52.593  26.892  28.969  1.00  0.00     0.059 A 
ATOM     95  C   UNL A   1      52.685  27.707  26.682  1.00  0.00     0.059 A 
ATOM     96  F   UNL A   1      50.703  28.323  25.588  1.00  0.00    -0.206 F 
ATOM     97  C   UNL A   1      53.323  27.233  27.828  1.00  0.00     0.060 A 
BRANCH  97  98
ATOM     98  S   UNL A   1      55.114  27.014  27.842  1.00  0.00     0.124 S 
ATOM     99  O   UNL A   1      55.525  27.887  26.747  1.00  0.00    -0.237 OA
ATOM    100  O   UNL A   1      55.478  27.463  29.182  1.00  0.00    -0.237 OA
ATOM    101  O   UNL A   1      55.281  25.583  27.602  1.00  0.00    -0.744 OA
ENDBRANCH  97  98
ENDBRANCH  65  90
ENDBRANCH  39  40
ENDBRANCH  32  34
ENDBRANCH  31  32
ENDBRANCH  30  31
ENDBRANCH  29  30
ENDBRANCH   1  29
TORSDOF 20
ENDMDL
