MODEL 1
REMARK VINA RESULT:     -13.0      0.000      0.000
REMARK SMILES COc1cc2c(CC(=O)OCCOC(=O)c3ccc(-c4c5nc(c(-c6c(F)cc(S(=O)(=O)[O-])cc6F)c6ccc([nH]6)c(-c6c(F)cc(S(=O)(=O)[O-])cc6F)c6nc(c(-c7c(F)cc(S(=O)(=O)[O-])cc7F)c7ccc4[nH]7)C=C6)C=C5)cc3)c(C)n(C(=O)c3ccc(Cl)cc3)c2cc1Cl
REMARK SMILES IDX 11 1 10 2 8 3 9 4 7 5 6 6 3 7 4 8 96 9 5 10 95 11 97 12
REMARK SMILES IDX 94 13 82 14 84 15 83 16 2 17 1 18 85 19 86 20 87 21 88 22
REMARK SMILES IDX 93 23 89 24 92 25 90 26 91 27 12 28 13 29 14 30 15 31 16 32
REMARK SMILES IDX 17 33 81 34 18 35 80 36 19 37 20 38 21 39 74 40 22 41 79 42
REMARK SMILES IDX 73 43 75 44 23 45 78 46 72 47 71 48 24 50 58 51 37 52 57 53
REMARK SMILES IDX 38 54 41 55 56 56 76 57 39 58 40 59 55 61 77 62 42 63 25 64
REMARK SMILES IDX 26 65 35 66 27 67 28 68 34 69 36 70 29 71 30 72 31 73 32 74
REMARK SMILES IDX 33 75 59 76 60 77 69 78 61 79 62 80 68 81 70 82 63 83 64 84
REMARK SMILES IDX 65 85 66 86 67 87 43 88 44 89 53 90 45 91 46 92 52 93 54 94
REMARK SMILES IDX 47 95 48 96 49 97 50 98 51 99
REMARK H PARENT 75 49 41 60
REMARK Flexibility Score: inf
ROOT
ATOM      1  C   UNL A   1      36.806  22.368  24.232  1.00  0.00     0.274 C 
ENDROOT
BRANCH   1   2
ATOM      2  O   UNL A   1      36.406  23.537  24.980  1.00  0.00    -0.462 OA
BRANCH   2   3
ATOM      3  C   UNL A   1      35.248  24.112  24.575  1.00  0.00     0.310 C 
ATOM      4  O   UNL A   1      34.910  24.219  23.399  1.00  0.00    -0.252 OA
BRANCH   3   5
ATOM      5  C   UNL A   1      34.390  24.675  25.672  1.00  0.00     0.160 C 
BRANCH   5   6
ATOM      6  C   UNL A   1      33.307  25.682  25.385  1.00  0.00    -0.008 A 
ATOM      7  C   UNL A   1      33.624  29.334  26.683  1.00  0.00     0.138 A 
ATOM      8  C   UNL A   1      34.044  28.024  26.356  1.00  0.00     0.058 A 
ATOM      9  C   UNL A   1      32.326  29.703  26.364  1.00  0.00     0.085 A 
ATOM     10  C   UNL A   1      33.199  27.068  25.739  1.00  0.00     0.008 A 
ATOM     11  C   UNL A   1      31.460  28.774  25.768  1.00  0.00     0.051 A 
ATOM     12  Cl  UNL A   1      31.665  31.295  26.538  1.00  0.00    -0.080 Cl
ATOM     13  C   UNL A   1      31.905  27.482  25.409  1.00  0.00     0.058 A 
ATOM     14  C   UNL A   1      32.070  25.306  24.868  1.00  0.00     0.028 A 
ATOM     15  N   UNL A   1      31.286  26.441  24.698  1.00  0.00    -0.280 N 
ATOM     16  C   UNL A   1      31.638  23.910  24.532  1.00  0.00     0.065 C 
BRANCH   7  17
ATOM     17  O   UNL A   1      34.614  30.086  27.254  1.00  0.00    -0.495 OA
ATOM     18  C   UNL A   1      35.813  29.464  27.696  1.00  0.00     0.278 C 
ENDBRANCH   7  17
BRANCH  15  19
ATOM     19  C   UNL A   1      30.091  26.535  23.934  1.00  0.00     0.262 C 
ATOM     20  O   UNL A   1      29.338  25.567  23.851  1.00  0.00    -0.268 OA
BRANCH  19  21
ATOM     21  C   UNL A   1      29.686  27.725  23.176  1.00  0.00     0.040 A 
ATOM     22  C   UNL A   1      30.647  28.476  22.490  1.00  0.00     0.015 A 
ATOM     23  C   UNL A   1      28.349  28.127  23.232  1.00  0.00     0.015 A 
ATOM     24  C   UNL A   1      30.269  29.686  21.907  1.00  0.00     0.021 A 
ATOM     25  C   UNL A   1      27.979  29.334  22.641  1.00  0.00     0.021 A 
ATOM     26  C   UNL A   1      28.942  30.114  21.995  1.00  0.00     0.041 A 
ATOM     27  Cl  UNL A   1      28.493  31.631  21.320  1.00  0.00    -0.084 Cl
ENDBRANCH  19  21
ENDBRANCH  15  19
ENDBRANCH   5   6
ENDBRANCH   3   5
ENDBRANCH   2   3
ENDBRANCH   1   2
BRANCH   1  28
ATOM     28  C   UNL A   1      37.825  21.545  25.024  1.00  0.00     0.275 C 
BRANCH  28  29
ATOM     29  O   UNL A   1      38.220  22.294  26.181  1.00  0.00    -0.458 OA
BRANCH  29  30
ATOM     30  C   UNL A   1      39.533  22.289  26.507  1.00  0.00     0.338 C 
ATOM     31  O   UNL A   1      40.356  21.427  26.248  1.00  0.00    -0.246 OA
BRANCH  30  32
ATOM     32  C   UNL A   1      39.843  23.666  26.933  1.00  0.00     0.060 A 
ATOM     33  C   UNL A   1      41.008  23.928  27.650  1.00  0.00     0.016 A 
ATOM     34  C   UNL A   1      38.854  24.648  26.792  1.00  0.00     0.016 A 
ATOM     35  C   UNL A   1      41.129  25.139  28.318  1.00  0.00     0.010 A 
ATOM     36  C   UNL A   1      38.958  25.842  27.498  1.00  0.00     0.010 A 
ATOM     37  C   UNL A   1      40.080  26.074  28.287  1.00  0.00    -0.014 A 
BRANCH  37  38
ATOM     38  C   UNL A   1      40.377  27.427  28.743  1.00  0.00     0.031 A 
ATOM     39  C   UNL A   1      41.565  27.949  28.040  1.00  0.00     0.074 A 
ATOM     40  C   UNL A   1      39.733  28.221  29.620  1.00  0.00     0.049 A 
ATOM     41  N   UNL A   1      42.789  27.840  28.432  1.00  0.00    -0.248 NA
ATOM     42  C   UNL A   1      41.410  28.449  26.666  1.00  0.00     0.031 C 
ATOM     43  C   UNL A   1      38.382  28.085  30.157  1.00  0.00     0.029 A 
ATOM     44  N   UNL A   1      40.179  29.390  30.183  1.00  0.00    -0.354 N 
ATOM     45  C   UNL A   1      43.526  28.528  27.485  1.00  0.00     0.074 A 
ATOM     46  C   UNL A   1      42.685  28.651  26.325  1.00  0.00     0.031 C 
ATOM     47  C   UNL A   1      38.050  29.223  30.819  1.00  0.00     0.029 A 
ATOM     48  C   UNL A   1      39.219  30.090  30.902  1.00  0.00     0.049 A 
ATOM     49  H   UNL A   1      41.106  29.708  30.084  1.00  0.00     0.167 HD
ATOM     50  C   UNL A   1      44.618  29.242  27.870  1.00  0.00     0.037 A 
ATOM     51  C   UNL A   1      39.382  31.284  31.526  1.00  0.00     0.037 A 
ATOM     52  C   UNL A   1      45.000  28.926  29.223  1.00  0.00     0.049 A 
ATOM     53  C   UNL A   1      40.817  31.420  31.886  1.00  0.00     0.074 A 
ATOM     54  C   UNL A   1      45.642  27.906  29.889  1.00  0.00     0.029 A 
ATOM     55  N   UNL A   1      44.343  29.672  30.163  1.00  0.00    -0.354 N 
ATOM     56  N   UNL A   1      41.427  30.659  32.756  1.00  0.00    -0.248 NA
ATOM     57  C   UNL A   1      41.687  32.275  31.083  1.00  0.00     0.031 C 
ATOM     58  C   UNL A   1      45.269  28.016  31.262  1.00  0.00     0.029 A 
ATOM     59  C   UNL A   1      44.417  29.107  31.408  1.00  0.00     0.049 A 
ATOM     60  H   UNL A   1      43.874  30.514  29.967  1.00  0.00     0.167 HD
ATOM     61  C   UNL A   1      42.740  30.648  32.337  1.00  0.00     0.074 A 
ATOM     62  C   UNL A   1      42.875  31.775  31.427  1.00  0.00     0.031 C 
ATOM     63  C   UNL A   1      43.509  29.531  32.453  1.00  0.00     0.037 A 
BRANCH  50  64
ATOM     64  C   UNL A   1      45.023  30.561  27.259  1.00  0.00     0.058 A 
ATOM     65  C   UNL A   1      46.319  30.685  26.722  1.00  0.00     0.135 A 
ATOM     66  C   UNL A   1      44.320  31.773  27.451  1.00  0.00     0.135 A 
ATOM     67  F   UNL A   1      47.083  29.599  26.525  1.00  0.00    -0.206 F 
ATOM     68  C   UNL A   1      46.892  31.924  26.439  1.00  0.00     0.059 A 
ATOM     69  C   UNL A   1      44.851  33.013  27.121  1.00  0.00     0.059 A 
ATOM     70  F   UNL A   1      43.131  31.825  28.064  1.00  0.00    -0.206 F 
ATOM     71  C   UNL A   1      46.150  33.082  26.649  1.00  0.00     0.060 A 
BRANCH  71  72
ATOM     72  S   UNL A   1      46.907  34.685  26.342  1.00  0.00     0.124 S 
ATOM     73  O   UNL A   1      47.253  35.107  27.695  1.00  0.00    -0.237 OA
ATOM     74  O   UNL A   1      48.026  34.329  25.476  1.00  0.00    -0.237 OA
ATOM     75  O   UNL A   1      45.838  35.441  25.696  1.00  0.00    -0.744 OA
ENDBRANCH  71  72
ENDBRANCH  50  64
BRANCH  51  76
ATOM     76  C   UNL A   1      38.443  32.431  31.673  1.00  0.00     0.058 A 
ATOM     77  C   UNL A   1      37.764  32.957  30.554  1.00  0.00     0.135 A 
ATOM     78  C   UNL A   1      37.946  32.816  32.932  1.00  0.00     0.135 A 
ATOM     79  F   UNL A   1      38.166  32.648  29.312  1.00  0.00    -0.206 F 
ATOM     80  C   UNL A   1      36.610  33.735  30.674  1.00  0.00     0.059 A 
ATOM     81  C   UNL A   1      36.802  33.604  33.077  1.00  0.00     0.059 A 
ATOM     82  F   UNL A   1      38.503  32.354  34.063  1.00  0.00    -0.206 F 
ATOM     83  C   UNL A   1      36.118  34.028  31.942  1.00  0.00     0.060 A 
BRANCH  83  84
ATOM     84  S   UNL A   1      34.515  34.853  32.094  1.00  0.00     0.124 S 
ATOM     85  O   UNL A   1      33.712  33.833  32.760  1.00  0.00    -0.237 OA
ATOM     86  O   UNL A   1      34.846  36.026  32.895  1.00  0.00    -0.237 OA
ATOM     87  O   UNL A   1      34.145  35.131  30.708  1.00  0.00    -0.744 OA
ENDBRANCH  83  84
ENDBRANCH  51  76
BRANCH  63  88
ATOM     88  C   UNL A   1      43.308  28.633  33.632  1.00  0.00     0.058 A 
ATOM     89  C   UNL A   1      43.934  28.769  34.879  1.00  0.00     0.135 A 
ATOM     90  C   UNL A   1      42.316  27.645  33.506  1.00  0.00     0.135 A 
ATOM     91  F   UNL A   1      44.856  29.721  35.090  1.00  0.00    -0.206 F 
ATOM     92  C   UNL A   1      43.573  27.960  35.961  1.00  0.00     0.059 A 
ATOM     93  C   UNL A   1      41.924  26.850  34.574  1.00  0.00     0.059 A 
ATOM     94  F   UNL A   1      41.671  27.486  32.338  1.00  0.00    -0.206 F 
ATOM     95  C   UNL A   1      42.554  27.016  35.803  1.00  0.00     0.060 A 
BRANCH  95  96
ATOM     96  S   UNL A   1      41.985  26.075  37.236  1.00  0.00     0.124 S 
ATOM     97  O   UNL A   1      41.955  24.711  36.720  1.00  0.00    -0.237 OA
ATOM     98  O   UNL A   1      43.018  26.358  38.228  1.00  0.00    -0.237 OA
ATOM     99  O   UNL A   1      40.677  26.658  37.532  1.00  0.00    -0.744 OA
ENDBRANCH  95  96
ENDBRANCH  63  88
ENDBRANCH  37  38
ENDBRANCH  30  32
ENDBRANCH  29  30
ENDBRANCH  28  29
ENDBRANCH   1  28
TORSDOF 18
ENDMDL
MODEL 2
REMARK VINA RESULT:     -12.9      2.612      4.493
REMARK SMILES COc1cc2c(CC(=O)OCCOC(=O)c3ccc(-c4c5nc(c(-c6c(F)cc(S(=O)(=O)[O-])cc6F)c6ccc([nH]6)c(-c6c(F)cc(S(=O)(=O)[O-])cc6F)c6nc(c(-c7c(F)cc(S(=O)(=O)[O-])cc7F)c7ccc4[nH]7)C=C6)C=C5)cc3)c(C)n(C(=O)c3ccc(Cl)cc3)c2cc1Cl
REMARK SMILES IDX 11 1 10 2 8 3 9 4 7 5 6 6 3 7 4 8 96 9 5 10 95 11 97 12
REMARK SMILES IDX 94 13 82 14 84 15 83 16 2 17 1 18 85 19 86 20 87 21 88 22
REMARK SMILES IDX 93 23 89 24 92 25 90 26 91 27 12 28 13 29 14 30 15 31 16 32
REMARK SMILES IDX 17 33 81 34 18 35 80 36 19 37 20 38 21 39 74 40 22 41 79 42
REMARK SMILES IDX 73 43 75 44 23 45 78 46 72 47 71 48 24 50 58 51 37 52 57 53
REMARK SMILES IDX 38 54 41 55 56 56 76 57 39 58 40 59 55 61 77 62 42 63 25 64
REMARK SMILES IDX 26 65 35 66 27 67 28 68 34 69 36 70 29 71 30 72 31 73 32 74
REMARK SMILES IDX 33 75 59 76 60 77 69 78 61 79 62 80 68 81 70 82 63 83 64 84
REMARK SMILES IDX 65 85 66 86 67 87 43 88 44 89 53 90 45 91 46 92 52 93 54 94
REMARK SMILES IDX 47 95 48 96 49 97 50 98 51 99
REMARK H PARENT 75 49 41 60
REMARK Flexibility Score: inf
ROOT
ATOM      1  C   UNL A   1      40.550  20.536  26.931  1.00  0.00     0.274 C 
ENDROOT
BRANCH   1   2
ATOM      2  O   UNL A   1      39.590  20.638  25.855  1.00  0.00    -0.462 OA
BRANCH   2   3
ATOM      3  C   UNL A   1      38.837  21.764  25.860  1.00  0.00     0.310 C 
ATOM      4  O   UNL A   1      38.980  22.682  26.664  1.00  0.00    -0.252 OA
BRANCH   3   5
ATOM      5  C   UNL A   1      37.750  21.816  24.825  1.00  0.00     0.160 C 
BRANCH   5   6
ATOM      6  C   UNL A   1      36.306  21.593  25.190  1.00  0.00    -0.008 A 
ATOM      7  C   UNL A   1      34.643  18.126  24.611  1.00  0.00     0.138 A 
ATOM      8  C   UNL A   1      35.692  19.066  24.731  1.00  0.00     0.058 A 
ATOM      9  C   UNL A   1      33.349  18.552  24.873  1.00  0.00     0.085 A 
ATOM     10  C   UNL A   1      35.483  20.423  25.086  1.00  0.00     0.008 A 
ATOM     11  C   UNL A   1      33.108  19.892  25.209  1.00  0.00     0.051 A 
ATOM     12  Cl  UNL A   1      31.950  17.532  24.932  1.00  0.00    -0.080 Cl
ATOM     13  C   UNL A   1      34.170  20.812  25.367  1.00  0.00     0.058 A 
ATOM     14  C   UNL A   1      35.458  22.648  25.517  1.00  0.00     0.028 A 
ATOM     15  N   UNL A   1      34.199  22.141  25.818  1.00  0.00    -0.280 N 
ATOM     16  C   UNL A   1      35.825  24.101  25.553  1.00  0.00     0.065 C 
BRANCH   7  17
ATOM     17  O   UNL A   1      35.083  16.874  24.278  1.00  0.00    -0.495 OA
ATOM     18  C   UNL A   1      35.304  15.905  25.293  1.00  0.00     0.278 C 
ENDBRANCH   7  17
BRANCH  15  19
ATOM     19  C   UNL A   1      33.146  22.833  26.476  1.00  0.00     0.262 C 
ATOM     20  O   UNL A   1      32.931  22.633  27.669  1.00  0.00    -0.268 OA
BRANCH  19  21
ATOM     21  C   UNL A   1      32.236  23.774  25.812  1.00  0.00     0.040 A 
ATOM     22  C   UNL A   1      31.560  24.740  26.565  1.00  0.00     0.015 A 
ATOM     23  C   UNL A   1      32.004  23.623  24.442  1.00  0.00     0.015 A 
ATOM     24  C   UNL A   1      30.585  25.522  25.944  1.00  0.00     0.021 A 
ATOM     25  C   UNL A   1      31.033  24.414  23.828  1.00  0.00     0.021 A 
ATOM     26  C   UNL A   1      30.319  25.347  24.584  1.00  0.00     0.041 A 
ATOM     27  Cl  UNL A   1      29.080  26.277  23.835  1.00  0.00    -0.084 Cl
ENDBRANCH  19  21
ENDBRANCH  15  19
ENDBRANCH   5   6
ENDBRANCH   3   5
ENDBRANCH   2   3
ENDBRANCH   1   2
BRANCH   1  28
ATOM     28  C   UNL A   1      41.958  20.867  26.429  1.00  0.00     0.275 C 
BRANCH  28  29
ATOM     29  O   UNL A   1      42.309  22.182  26.881  1.00  0.00    -0.458 OA
BRANCH  29  30
ATOM     30  C   UNL A   1      42.732  23.067  25.949  1.00  0.00     0.338 C 
ATOM     31  O   UNL A   1      42.994  22.841  24.779  1.00  0.00    -0.246 OA
BRANCH  30  32
ATOM     32  C   UNL A   1      42.493  24.400  26.528  1.00  0.00     0.060 A 
ATOM     33  C   UNL A   1      43.122  24.767  27.717  1.00  0.00     0.016 A 
ATOM     34  C   UNL A   1      41.474  25.193  25.986  1.00  0.00     0.016 A 
ATOM     35  C   UNL A   1      42.650  25.870  28.416  1.00  0.00     0.010 A 
ATOM     36  C   UNL A   1      40.975  26.271  26.710  1.00  0.00     0.010 A 
ATOM     37  C   UNL A   1      41.541  26.589  27.940  1.00  0.00    -0.014 A 
BRANCH  37  38
ATOM     38  C   UNL A   1      41.283  27.893  28.540  1.00  0.00     0.031 A 
ATOM     39  C   UNL A   1      42.328  28.853  28.133  1.00  0.00     0.074 A 
ATOM     40  C   UNL A   1      40.269  28.318  29.319  1.00  0.00     0.049 A 
ATOM     41  N   UNL A   1      43.431  29.085  28.761  1.00  0.00    -0.248 NA
ATOM     42  C   UNL A   1      42.252  29.456  26.796  1.00  0.00     0.031 C 
ATOM     43  C   UNL A   1      38.971  27.692  29.556  1.00  0.00     0.029 A 
ATOM     44  N   UNL A   1      40.193  29.482  30.040  1.00  0.00    -0.354 N 
ATOM     45  C   UNL A   1      44.044  30.091  28.036  1.00  0.00     0.074 A 
ATOM     46  C   UNL A   1      43.422  30.095  26.738  1.00  0.00     0.031 C 
ATOM     47  C   UNL A   1      38.168  28.567  30.212  1.00  0.00     0.029 A 
ATOM     48  C   UNL A   1      38.945  29.740  30.594  1.00  0.00     0.049 A 
ATOM     49  H   UNL A   1      40.961  30.088  30.157  1.00  0.00     0.167 HD
ATOM     50  C   UNL A   1      44.749  31.055  28.685  1.00  0.00     0.037 A 
ATOM     51  C   UNL A   1      38.588  30.831  31.320  1.00  0.00     0.037 A 
ATOM     52  C   UNL A   1      44.978  30.699  30.062  1.00  0.00     0.049 A 
ATOM     53  C   UNL A   1      39.810  31.364  31.975  1.00  0.00     0.074 A 
ATOM     54  C   UNL A   1      45.802  29.856  30.774  1.00  0.00     0.029 A 
ATOM     55  N   UNL A   1      43.958  31.067  30.896  1.00  0.00    -0.354 N 
ATOM     56  N   UNL A   1      40.482  30.727  32.897  1.00  0.00    -0.248 NA
ATOM     57  C   UNL A   1      40.466  32.550  31.429  1.00  0.00     0.031 C 
ATOM     58  C   UNL A   1      45.184  29.658  32.045  1.00  0.00     0.029 A 
ATOM     59  C   UNL A   1      44.004  30.395  32.088  1.00  0.00     0.049 A 
ATOM     60  H   UNL A   1      43.274  31.736  30.667  1.00  0.00     0.167 HD
ATOM     61  C   UNL A   1      41.773  31.188  32.757  1.00  0.00     0.074 A 
ATOM     62  C   UNL A   1      41.675  32.410  31.974  1.00  0.00     0.031 C 
ATOM     63  C   UNL A   1      42.841  30.366  32.951  1.00  0.00     0.037 A 
BRANCH  50  64
ATOM     64  C   UNL A   1      44.785  32.504  28.263  1.00  0.00     0.058 A 
ATOM     65  C   UNL A   1      46.027  33.077  27.926  1.00  0.00     0.135 A 
ATOM     66  C   UNL A   1      43.725  33.416  28.467  1.00  0.00     0.135 A 
ATOM     67  F   UNL A   1      47.108  32.303  27.738  1.00  0.00    -0.206 F 
ATOM     68  C   UNL A   1      46.213  34.457  27.844  1.00  0.00     0.059 A 
ATOM     69  C   UNL A   1      43.874  34.790  28.332  1.00  0.00     0.059 A 
ATOM     70  F   UNL A   1      42.522  33.032  28.910  1.00  0.00    -0.206 F 
ATOM     71  C   UNL A   1      45.130  35.304  28.056  1.00  0.00     0.060 A 
BRANCH  71  72
ATOM     72  S   UNL A   1      45.378  37.085  28.009  1.00  0.00     0.124 S 
ATOM     73  O   UNL A   1      44.021  37.573  28.231  1.00  0.00    -0.237 OA
ATOM     74  O   UNL A   1      46.318  37.287  29.107  1.00  0.00    -0.237 OA
ATOM     75  O   UNL A   1      45.924  37.312  26.675  1.00  0.00    -0.744 OA
ENDBRANCH  71  72
ENDBRANCH  50  64
BRANCH  51  76
ATOM     76  C   UNL A   1      37.308  31.592  31.349  1.00  0.00     0.058 A 
ATOM     77  C   UNL A   1      36.534  31.658  32.527  1.00  0.00     0.135 A 
ATOM     78  C   UNL A   1      36.985  32.524  30.347  1.00  0.00     0.135 A 
ATOM     79  F   UNL A   1      36.767  30.809  33.539  1.00  0.00    -0.206 F 
ATOM     80  C   UNL A   1      35.569  32.647  32.736  1.00  0.00     0.059 A 
ATOM     81  C   UNL A   1      36.015  33.513  30.527  1.00  0.00     0.059 A 
ATOM     82  F   UNL A   1      37.674  32.563  29.195  1.00  0.00    -0.206 F 
ATOM     83  C   UNL A   1      35.338  33.591  31.740  1.00  0.00     0.060 A 
BRANCH  83  84
ATOM     84  S   UNL A   1      34.246  34.989  32.091  1.00  0.00     0.124 S 
ATOM     85  O   UNL A   1      35.115  35.864  32.871  1.00  0.00    -0.237 OA
ATOM     86  O   UNL A   1      33.906  35.459  30.753  1.00  0.00    -0.237 OA
ATOM     87  O   UNL A   1      33.146  34.381  32.834  1.00  0.00    -0.744 OA
ENDBRANCH  83  84
ENDBRANCH  51  76
BRANCH  63  88
ATOM     88  C   UNL A   1      42.755  29.303  33.998  1.00  0.00     0.058 A 
ATOM     89  C   UNL A   1      43.001  29.481  35.367  1.00  0.00     0.135 A 
ATOM     90  C   UNL A   1      42.270  28.051  33.582  1.00  0.00     0.135 A 
ATOM     91  F   UNL A   1      43.420  30.663  35.846  1.00  0.00    -0.206 F 
ATOM     92  C   UNL A   1      42.758  28.455  36.285  1.00  0.00     0.059 A 
ATOM     93  C   UNL A   1      41.995  27.027  34.480  1.00  0.00     0.059 A 
ATOM     94  F   UNL A   1      41.998  27.832  32.285  1.00  0.00    -0.206 F 
ATOM     95  C   UNL A   1      42.237  27.238  35.833  1.00  0.00     0.060 A 
BRANCH  95  96
ATOM     96  S   UNL A   1      41.783  25.966  37.033  1.00  0.00     0.124 S 
ATOM     97  O   UNL A   1      40.443  26.382  37.433  1.00  0.00    -0.237 OA
ATOM     98  O   UNL A   1      41.860  24.743  36.239  1.00  0.00    -0.237 OA
ATOM     99  O   UNL A   1      42.808  26.089  38.068  1.00  0.00    -0.744 OA
ENDBRANCH  95  96
ENDBRANCH  63  88
ENDBRANCH  37  38
ENDBRANCH  30  32
ENDBRANCH  29  30
ENDBRANCH  28  29
ENDBRANCH   1  28
TORSDOF 18
ENDMDL
MODEL 3
REMARK VINA RESULT:     -12.8      2.815      4.916
REMARK SMILES COc1cc2c(CC(=O)OCCOC(=O)c3ccc(-c4c5nc(c(-c6c(F)cc(S(=O)(=O)[O-])cc6F)c6ccc([nH]6)c(-c6c(F)cc(S(=O)(=O)[O-])cc6F)c6nc(c(-c7c(F)cc(S(=O)(=O)[O-])cc7F)c7ccc4[nH]7)C=C6)C=C5)cc3)c(C)n(C(=O)c3ccc(Cl)cc3)c2cc1Cl
REMARK SMILES IDX 11 1 10 2 8 3 9 4 7 5 6 6 3 7 4 8 96 9 5 10 95 11 97 12
REMARK SMILES IDX 94 13 82 14 84 15 83 16 2 17 1 18 85 19 86 20 87 21 88 22
REMARK SMILES IDX 93 23 89 24 92 25 90 26 91 27 12 28 13 29 14 30 15 31 16 32
REMARK SMILES IDX 17 33 81 34 18 35 80 36 19 37 20 38 21 39 74 40 22 41 79 42
REMARK SMILES IDX 73 43 75 44 23 45 78 46 72 47 71 48 24 50 58 51 37 52 57 53
REMARK SMILES IDX 38 54 41 55 56 56 76 57 39 58 40 59 55 61 77 62 42 63 25 64
REMARK SMILES IDX 26 65 35 66 27 67 28 68 34 69 36 70 29 71 30 72 31 73 32 74
REMARK SMILES IDX 33 75 59 76 60 77 69 78 61 79 62 80 68 81 70 82 63 83 64 84
REMARK SMILES IDX 65 85 66 86 67 87 43 88 44 89 53 90 45 91 46 92 52 93 54 94
REMARK SMILES IDX 47 95 48 96 49 97 50 98 51 99
REMARK H PARENT 75 49 41 60
REMARK Flexibility Score: inf
ROOT
ATOM      1  C   UNL A   1      41.552  19.820  26.757  1.00  0.00     0.274 C 
ENDROOT
BRANCH   1   2
ATOM      2  O   UNL A   1      40.222  19.894  26.198  1.00  0.00    -0.462 OA
BRANCH   2   3
ATOM      3  C   UNL A   1      39.647  21.120  26.241  1.00  0.00     0.310 C 
ATOM      4  O   UNL A   1      39.886  21.960  27.106  1.00  0.00    -0.252 OA
BRANCH   3   5
ATOM      5  C   UNL A   1      38.631  21.393  25.169  1.00  0.00     0.160 C 
BRANCH   5   6
ATOM      6  C   UNL A   1      37.156  21.432  25.474  1.00  0.00    -0.008 A 
ATOM      7  C   UNL A   1      34.874  18.427  24.531  1.00  0.00     0.138 A 
ATOM      8  C   UNL A   1      36.080  19.126  24.766  1.00  0.00     0.058 A 
ATOM      9  C   UNL A   1      33.679  19.078  24.798  1.00  0.00     0.085 A 
ATOM     10  C   UNL A   1      36.126  20.462  25.240  1.00  0.00     0.008 A 
ATOM     11  C   UNL A   1      33.690  20.405  25.251  1.00  0.00     0.051 A 
ATOM     12  Cl  UNL A   1      32.106  18.355  24.725  1.00  0.00    -0.080 Cl
ATOM     13  C   UNL A   1      34.903  21.078  25.522  1.00  0.00     0.058 A 
ATOM     14  C   UNL A   1      36.518  22.601  25.875  1.00  0.00     0.028 A 
ATOM     15  N   UNL A   1      35.172  22.331  26.095  1.00  0.00    -0.280 N 
ATOM     16  C   UNL A   1      37.161  23.944  26.057  1.00  0.00     0.065 C 
BRANCH   7  17
ATOM     17  O   UNL A   1      35.075  17.147  24.094  1.00  0.00    -0.495 OA
ATOM     18  C   UNL A   1      34.746  16.049  24.935  1.00  0.00     0.278 C 
ENDBRANCH   7  17
BRANCH  15  19
ATOM     19  C   UNL A   1      34.247  23.160  26.787  1.00  0.00     0.262 C 
ATOM     20  O   UNL A   1      34.056  22.996  27.990  1.00  0.00    -0.268 OA
BRANCH  19  21
ATOM     21  C   UNL A   1      33.443  24.209  26.150  1.00  0.00     0.040 A 
ATOM     22  C   UNL A   1      34.069  25.336  25.606  1.00  0.00     0.015 A 
ATOM     23  C   UNL A   1      32.050  24.092  26.180  1.00  0.00     0.015 A 
ATOM     24  C   UNL A   1      33.281  26.392  25.146  1.00  0.00     0.021 A 
ATOM     25  C   UNL A   1      31.271  25.149  25.712  1.00  0.00     0.021 A 
ATOM     26  C   UNL A   1      31.889  26.298  25.211  1.00  0.00     0.041 A 
ATOM     27  Cl  UNL A   1      30.924  27.623  24.691  1.00  0.00    -0.084 Cl
ENDBRANCH  19  21
ENDBRANCH  15  19
ENDBRANCH   5   6
ENDBRANCH   3   5
ENDBRANCH   2   3
ENDBRANCH   1   2
BRANCH   1  28
ATOM     28  C   UNL A   1      42.560  19.380  25.692  1.00  0.00     0.275 C 
BRANCH  28  29
ATOM     29  O   UNL A   1      43.827  19.987  25.981  1.00  0.00    -0.458 OA
BRANCH  29  30
ATOM     30  C   UNL A   1      44.325  20.853  25.068  1.00  0.00     0.338 C 
ATOM     31  O   UNL A   1      44.709  20.597  23.939  1.00  0.00    -0.246 OA
BRANCH  30  32
ATOM     32  C   UNL A   1      44.001  22.197  25.576  1.00  0.00     0.060 A 
ATOM     33  C   UNL A   1      44.582  22.655  26.757  1.00  0.00     0.016 A 
ATOM     34  C   UNL A   1      42.951  22.904  24.976  1.00  0.00     0.016 A 
ATOM     35  C   UNL A   1      44.035  23.762  27.391  1.00  0.00     0.010 A 
ATOM     36  C   UNL A   1      42.378  23.986  25.635  1.00  0.00     0.010 A 
ATOM     37  C   UNL A   1      42.899  24.395  26.859  1.00  0.00    -0.014 A 
BRANCH  37  38
ATOM     38  C   UNL A   1      42.556  25.710  27.388  1.00  0.00     0.031 A 
ATOM     39  C   UNL A   1      43.541  26.711  26.933  1.00  0.00     0.074 A 
ATOM     40  C   UNL A   1      41.514  26.111  28.142  1.00  0.00     0.049 A 
ATOM     41  N   UNL A   1      44.624  27.045  27.548  1.00  0.00    -0.248 NA
ATOM     42  C   UNL A   1      43.434  27.236  25.564  1.00  0.00     0.031 C 
ATOM     43  C   UNL A   1      40.258  25.417  28.410  1.00  0.00     0.029 A 
ATOM     44  N   UNL A   1      41.362  27.305  28.800  1.00  0.00    -0.354 N 
ATOM     45  C   UNL A   1      45.177  28.048  26.772  1.00  0.00     0.074 A 
ATOM     46  C   UNL A   1      44.562  27.944  25.475  1.00  0.00     0.031 C 
ATOM     47  C   UNL A   1      39.398  26.274  29.018  1.00  0.00     0.029 A 
ATOM     48  C   UNL A   1      40.098  27.512  29.337  1.00  0.00     0.049 A 
ATOM     49  H   UNL A   1      42.090  27.962  28.886  1.00  0.00     0.167 HD
ATOM     50  C   UNL A   1      45.817  29.087  27.370  1.00  0.00     0.037 A 
ATOM     51  C   UNL A   1      39.669  28.615  30.004  1.00  0.00     0.037 A 
ATOM     52  C   UNL A   1      46.061  28.820  28.764  1.00  0.00     0.049 A 
ATOM     53  C   UNL A   1      40.853  29.259  30.632  1.00  0.00     0.074 A 
ATOM     54  C   UNL A   1      46.933  28.068  29.521  1.00  0.00     0.029 A 
ATOM     55  N   UNL A   1      45.016  29.166  29.576  1.00  0.00    -0.354 N 
ATOM     56  N   UNL A   1      41.559  28.714  31.587  1.00  0.00    -0.248 NA
ATOM     57  C   UNL A   1      41.435  30.452  30.025  1.00  0.00     0.031 C 
ATOM     58  C   UNL A   1      46.323  27.900  30.800  1.00  0.00     0.029 A 
ATOM     59  C   UNL A   1      45.098  28.562  30.802  1.00  0.00     0.049 A 
ATOM     60  H   UNL A   1      44.292  29.778  29.311  1.00  0.00     0.167 HD
ATOM     61  C   UNL A   1      42.819  29.247  31.425  1.00  0.00     0.074 A 
ATOM     62  C   UNL A   1      42.648  30.418  30.578  1.00  0.00     0.031 C 
ATOM     63  C   UNL A   1      43.936  28.506  31.663  1.00  0.00     0.037 A 
BRANCH  50  64
ATOM     64  C   UNL A   1      45.764  30.511  26.871  1.00  0.00     0.058 A 
ATOM     65  C   UNL A   1      46.967  31.239  26.781  1.00  0.00     0.135 A 
ATOM     66  C   UNL A   1      44.578  31.274  26.775  1.00  0.00     0.135 A 
ATOM     67  F   UNL A   1      48.151  30.615  26.887  1.00  0.00    -0.206 F 
ATOM     68  C   UNL A   1      46.990  32.626  26.651  1.00  0.00     0.059 A 
ATOM     69  C   UNL A   1      44.579  32.650  26.587  1.00  0.00     0.059 A 
ATOM     70  F   UNL A   1      43.364  30.742  26.965  1.00  0.00    -0.206 F 
ATOM     71  C   UNL A   1      45.788  33.323  26.561  1.00  0.00     0.060 A 
BRANCH  71  72
ATOM     72  S   UNL A   1      45.812  35.118  26.453  1.00  0.00     0.124 S 
ATOM     73  O   UNL A   1      44.401  35.414  26.228  1.00  0.00    -0.237 OA
ATOM     74  O   UNL A   1      46.345  35.491  27.760  1.00  0.00    -0.237 OA
ATOM     75  O   UNL A   1      46.702  35.373  25.325  1.00  0.00    -0.744 OA
ENDBRANCH  71  72
ENDBRANCH  50  64
BRANCH  51  76
ATOM     76  C   UNL A   1      38.344  29.294  29.992  1.00  0.00     0.058 A 
ATOM     77  C   UNL A   1      37.589  29.426  31.176  1.00  0.00     0.135 A 
ATOM     78  C   UNL A   1      37.945  30.104  28.912  1.00  0.00     0.135 A 
ATOM     79  F   UNL A   1      37.893  28.694  32.259  1.00  0.00    -0.206 F 
ATOM     80  C   UNL A   1      36.566  30.369  31.313  1.00  0.00     0.059 A 
ATOM     81  C   UNL A   1      36.917  31.044  29.021  1.00  0.00     0.059 A 
ATOM     82  F   UNL A   1      38.609  30.074  27.747  1.00  0.00    -0.206 F 
ATOM     83  C   UNL A   1      36.258  31.196  30.236  1.00  0.00     0.060 A 
BRANCH  83  84
ATOM     84  S   UNL A   1      35.084  32.551  30.479  1.00  0.00     0.124 S 
ATOM     85  O   UNL A   1      35.967  33.712  30.516  1.00  0.00    -0.237 OA
ATOM     86  O   UNL A   1      34.233  32.437  29.300  1.00  0.00    -0.237 OA
ATOM     87  O   UNL A   1      34.439  32.218  31.746  1.00  0.00    -0.744 OA
ENDBRANCH  83  84
ENDBRANCH  51  76
BRANCH  63  88
ATOM     88  C   UNL A   1      43.912  27.496  32.766  1.00  0.00     0.058 A 
ATOM     89  C   UNL A   1      43.840  27.783  34.136  1.00  0.00     0.135 A 
ATOM     90  C   UNL A   1      43.834  26.147  32.379  1.00  0.00     0.135 A 
ATOM     91  F   UNL A   1      43.859  29.050  34.579  1.00  0.00    -0.206 F 
ATOM     92  C   UNL A   1      43.682  26.765  35.081  1.00  0.00     0.059 A 
ATOM     93  C   UNL A   1      43.650  25.122  33.298  1.00  0.00     0.059 A 
ATOM     94  F   UNL A   1      43.878  25.818  31.077  1.00  0.00    -0.206 F 
ATOM     95  C   UNL A   1      43.570  25.439  34.650  1.00  0.00     0.060 A 
BRANCH  95  96
ATOM     96  S   UNL A   1      43.217  24.140  35.854  1.00  0.00     0.124 S 
ATOM     97  O   UNL A   1      41.803  24.358  36.141  1.00  0.00    -0.237 OA
ATOM     98  O   UNL A   1      43.535  22.925  35.109  1.00  0.00    -0.237 OA
ATOM     99  O   UNL A   1      44.129  24.438  36.957  1.00  0.00    -0.744 OA
ENDBRANCH  95  96
ENDBRANCH  63  88
ENDBRANCH  37  38
ENDBRANCH  30  32
ENDBRANCH  29  30
ENDBRANCH  28  29
ENDBRANCH   1  28
TORSDOF 18
ENDMDL
