MODEL 1
REMARK VINA RESULT:     -13.2      0.000      0.000
REMARK SMILES NC(=O)c1ccc(NC(=O)Cc2ccccc2C(=O)OCCOC(=O)c2ccc(-c3c4nc(c(-c5c(F)cc(S(=O)(=O)[O-])cc5F)c5ccc([nH]5)c(-c5c(F)cc(S(=O)(=O)[O-])cc5F)c5nc(c(-c6c(F)cc(S(=O)(=O)[O-])cc6F)c6ccc3[nH]6)C=C5)C=C4)cc2)cc1
REMARK SMILES IDX 21 1 20 2 18 3 19 4 17 5 12 6 13 7 14 8 16 9 15 10 11 11
REMARK SMILES IDX 9 12 8 13 10 15 7 16 4 17 5 18 93 19 6 20 92 21 2 22 1 23
REMARK SMILES IDX 3 26 22 27 23 28 24 29 25 30 26 31 27 32 91 33 28 34 90 35
REMARK SMILES IDX 29 36 30 37 31 38 84 39 32 40 89 41 83 42 85 43 33 44 88 45
REMARK SMILES IDX 82 46 81 47 34 49 68 50 47 51 67 52 48 53 51 54 66 55 86 56
REMARK SMILES IDX 49 57 50 58 65 60 87 61 52 62 35 63 36 64 45 65 37 66 38 67
REMARK SMILES IDX 44 68 46 69 39 70 40 71 41 72 42 73 43 74 69 75 70 76 79 77
REMARK SMILES IDX 71 78 72 79 78 80 80 81 73 82 74 83 75 84 76 85 77 86 53 87
REMARK SMILES IDX 54 88 63 89 55 90 56 91 62 92 64 93 57 94 58 95 59 96 60 97
REMARK SMILES IDX 61 98
REMARK H PARENT 8 14 1 24 1 25 85 48 51 59
REMARK Flexibility Score: inf
ROOT
ATOM      1  C   UNL A   1      35.310  21.910  25.604  1.00  0.00     0.275 C 
ENDROOT
BRANCH   1   2
ATOM      2  O   UNL A   1      33.728  21.916  25.071  1.00  0.00    -0.458 OA
BRANCH   2   3
ATOM      3  C   UNL A   1      32.788  21.632  24.060  1.00  0.00     0.338 C 
ATOM      4  O   UNL A   1      32.528  20.643  23.374  1.00  0.00    -0.246 OA
BRANCH   3   5
ATOM      5  C   UNL A   1      32.305  22.735  23.270  1.00  0.00     0.063 A 
ATOM      6  C   UNL A   1      31.292  23.443  23.878  1.00  0.00    -0.024 A 
ATOM      7  C   UNL A   1      30.903  24.659  23.304  1.00  0.00     0.005 A 
ATOM      8  C   UNL A   1      31.724  25.277  22.347  1.00  0.00     0.000 A 
ATOM      9  C   UNL A   1      33.198  23.398  22.400  1.00  0.00     0.016 A 
ATOM     10  C   UNL A   1      32.925  24.686  21.969  1.00  0.00     0.001 A 
BRANCH   6  11
ATOM     11  C   UNL A   1      30.805  22.921  25.207  1.00  0.00     0.136 C 
BRANCH  11  12
ATOM     12  C   UNL A   1      30.884  23.879  26.506  1.00  0.00     0.228 C 
ATOM     13  N   UNL A   1      31.370  25.180  26.849  1.00  0.00    -0.326 N 
ATOM     14  H   UNL A   1      31.339  25.117  27.831  1.00  0.00     0.169 HD
ATOM     15  O   UNL A   1      30.628  23.186  27.525  1.00  0.00    -0.274 OA
BRANCH  13  16
ATOM     16  C   UNL A   1      31.916  26.636  26.693  1.00  0.00     0.041 A 
ATOM     17  C   UNL A   1      33.500  29.018  27.074  1.00  0.00     0.039 A 
ATOM     18  C   UNL A   1      32.138  29.021  27.270  1.00  0.00     0.016 A 
ATOM     19  C   UNL A   1      34.026  27.960  26.376  1.00  0.00     0.016 A 
ATOM     20  C   UNL A   1      31.366  27.903  26.912  1.00  0.00     0.027 A 
ATOM     21  C   UNL A   1      33.224  26.818  26.200  1.00  0.00     0.027 A 
BRANCH  17  22
ATOM     22  C   UNL A   1      34.297  30.127  27.621  1.00  0.00     0.248 C 
ATOM     23  N   UNL A   1      35.395  29.811  28.361  1.00  0.00    -0.366 N 
ATOM     24  H   UNL A   1      35.954  30.527  28.743  1.00  0.00     0.159 HD
ATOM     25  H   UNL A   1      35.631  28.868  28.515  1.00  0.00     0.159 HD
ATOM     26  O   UNL A   1      33.975  31.285  27.410  1.00  0.00    -0.270 OA
ENDBRANCH  17  22
ENDBRANCH  13  16
ENDBRANCH  11  12
ENDBRANCH   6  11
ENDBRANCH   3   5
ENDBRANCH   2   3
ENDBRANCH   1   2
BRANCH   1  27
ATOM     27  C   UNL A   1      36.797  20.985  25.335  1.00  0.00     0.275 C 
BRANCH  27  28
ATOM     28  O   UNL A   1      38.209  21.608  25.239  1.00  0.00    -0.458 OA
BRANCH  28  29
ATOM     29  C   UNL A   1      39.297  21.528  26.120  1.00  0.00     0.338 C 
ATOM     30  O   UNL A   1      39.943  20.502  26.276  1.00  0.00    -0.246 OA
BRANCH  29  31
ATOM     31  C   UNL A   1      39.830  22.936  26.683  1.00  0.00     0.060 A 
ATOM     32  C   UNL A   1      40.897  23.107  27.582  1.00  0.00     0.016 A 
ATOM     33  C   UNL A   1      39.051  24.100  26.493  1.00  0.00     0.016 A 
ATOM     34  C   UNL A   1      41.089  24.282  28.365  1.00  0.00     0.010 A 
ATOM     35  C   UNL A   1      39.308  25.329  27.194  1.00  0.00     0.010 A 
ATOM     36  C   UNL A   1      40.342  25.450  28.142  1.00  0.00    -0.014 A 
BRANCH  36  37
ATOM     37  C   UNL A   1      40.920  26.800  28.529  1.00  0.00     0.031 A 
ATOM     38  C   UNL A   1      40.209  27.954  29.225  1.00  0.00     0.074 A 
ATOM     39  C   UNL A   1      42.206  27.012  28.165  1.00  0.00     0.049 A 
ATOM     40  N   UNL A   1      40.638  29.189  29.408  1.00  0.00    -0.248 NA
ATOM     41  C   UNL A   1      38.880  27.710  29.797  1.00  0.00     0.031 C 
ATOM     42  C   UNL A   1      43.065  26.011  27.528  1.00  0.00     0.029 A 
ATOM     43  N   UNL A   1      43.014  28.123  28.256  1.00  0.00    -0.354 N 
ATOM     44  C   UNL A   1      39.636  29.876  30.095  1.00  0.00     0.074 A 
ATOM     45  C   UNL A   1      38.572  28.906  30.302  1.00  0.00     0.031 C 
ATOM     46  C   UNL A   1      44.264  26.544  27.282  1.00  0.00     0.029 A 
ATOM     47  C   UNL A   1      44.244  27.950  27.665  1.00  0.00     0.049 A 
ATOM     48  H   UNL A   1      42.738  28.958  28.699  1.00  0.00     0.167 HD
ATOM     49  C   UNL A   1      39.601  31.177  30.509  1.00  0.00     0.037 A 
ATOM     50  C   UNL A   1      45.245  28.807  27.390  1.00  0.00     0.037 A 
ATOM     51  C   UNL A   1      40.663  32.156  30.334  1.00  0.00     0.049 A 
ATOM     52  C   UNL A   1      45.149  30.248  27.774  1.00  0.00     0.074 A 
ATOM     53  C   UNL A   1      40.692  33.481  30.759  1.00  0.00     0.029 A 
ATOM     54  N   UNL A   1      41.870  31.939  29.690  1.00  0.00    -0.354 N 
ATOM     55  N   UNL A   1      44.179  30.871  28.392  1.00  0.00    -0.248 NA
ATOM     56  C   UNL A   1      46.287  31.107  27.414  1.00  0.00     0.031 C 
ATOM     57  C   UNL A   1      41.886  34.072  30.327  1.00  0.00     0.029 A 
ATOM     58  C   UNL A   1      42.630  33.106  29.677  1.00  0.00     0.049 A 
ATOM     59  H   UNL A   1      42.152  31.081  29.297  1.00  0.00     0.167 HD
ATOM     60  C   UNL A   1      44.598  32.191  28.514  1.00  0.00     0.074 A 
ATOM     61  C   UNL A   1      45.912  32.276  27.915  1.00  0.00     0.031 C 
ATOM     62  C   UNL A   1      43.938  33.230  29.080  1.00  0.00     0.037 A 
BRANCH  49  63
ATOM     63  C   UNL A   1      38.344  31.689  31.187  1.00  0.00     0.058 A 
ATOM     64  C   UNL A   1      38.180  31.659  32.580  1.00  0.00     0.135 A 
ATOM     65  C   UNL A   1      37.352  32.347  30.435  1.00  0.00     0.135 A 
ATOM     66  F   UNL A   1      39.106  31.073  33.355  1.00  0.00    -0.206 F 
ATOM     67  C   UNL A   1      37.066  32.230  33.200  1.00  0.00     0.059 A 
ATOM     68  C   UNL A   1      36.244  32.945  31.034  1.00  0.00     0.059 A 
ATOM     69  F   UNL A   1      37.470  32.444  29.101  1.00  0.00    -0.206 F 
ATOM     70  C   UNL A   1      36.099  32.865  32.417  1.00  0.00     0.060 A 
BRANCH  70  71
ATOM     71  S   UNL A   1      34.656  33.595  33.229  1.00  0.00     0.124 S 
ATOM     72  O   UNL A   1      34.689  34.959  32.712  1.00  0.00    -0.237 OA
ATOM     73  O   UNL A   1      33.562  32.760  32.748  1.00  0.00    -0.237 OA
ATOM     74  O   UNL A   1      34.963  33.460  34.653  1.00  0.00    -0.744 OA
ENDBRANCH  70  71
ENDBRANCH  49  63
BRANCH  50  75
ATOM     75  C   UNL A   1      46.432  28.299  26.655  1.00  0.00     0.058 A 
ATOM     76  C   UNL A   1      46.377  28.066  25.276  1.00  0.00     0.135 A 
ATOM     77  C   UNL A   1      47.656  28.099  27.314  1.00  0.00     0.135 A 
ATOM     78  F   UNL A   1      45.224  28.237  24.611  1.00  0.00    -0.206 F 
ATOM     79  C   UNL A   1      47.498  27.649  24.570  1.00  0.00     0.059 A 
ATOM     80  C   UNL A   1      48.797  27.713  26.625  1.00  0.00     0.059 A 
ATOM     81  F   UNL A   1      47.757  28.332  28.633  1.00  0.00    -0.206 F 
ATOM     82  C   UNL A   1      48.705  27.484  25.253  1.00  0.00     0.060 A 
BRANCH  82  83
ATOM     83  S   UNL A   1      50.173  27.015  24.315  1.00  0.00     0.124 S 
ATOM     84  O   UNL A   1      50.772  26.013  25.188  1.00  0.00    -0.237 OA
ATOM     85  O   UNL A   1      49.598  26.515  23.069  1.00  0.00    -0.237 OA
ATOM     86  O   UNL A   1      50.908  28.271  24.195  1.00  0.00    -0.744 OA
ENDBRANCH  82  83
ENDBRANCH  50  75
BRANCH  62  87
ATOM     87  C   UNL A   1      44.641  34.563  29.106  1.00  0.00     0.058 A 
ATOM     88  C   UNL A   1      44.536  35.475  28.043  1.00  0.00     0.135 A 
ATOM     89  C   UNL A   1      45.438  34.934  30.201  1.00  0.00     0.135 A 
ATOM     90  F   UNL A   1      43.804  35.168  26.960  1.00  0.00    -0.206 F 
ATOM     91  C   UNL A   1      45.212  36.695  28.054  1.00  0.00     0.059 A 
ATOM     92  C   UNL A   1      46.106  36.157  30.244  1.00  0.00     0.059 A 
ATOM     93  F   UNL A   1      45.579  34.103  31.246  1.00  0.00    -0.206 F 
ATOM     94  C   UNL A   1      45.997  37.027  29.160  1.00  0.00     0.060 A 
BRANCH  94  95
ATOM     95  S   UNL A   1      46.854  38.618  29.172  1.00  0.00     0.124 S 
ATOM     96  O   UNL A   1      48.242  38.205  29.358  1.00  0.00    -0.237 OA
ATOM     97  O   UNL A   1      46.527  39.163  27.858  1.00  0.00    -0.237 OA
ATOM     98  O   UNL A   1      46.252  39.321  30.301  1.00  0.00    -0.744 OA
ENDBRANCH  94  95
ENDBRANCH  62  87
ENDBRANCH  36  37
ENDBRANCH  29  31
ENDBRANCH  28  29
ENDBRANCH  27  28
ENDBRANCH   1  27
TORSDOF 18
ENDMDL
MODEL 2
REMARK VINA RESULT:     -12.8      1.873      4.087
REMARK SMILES NC(=O)c1ccc(NC(=O)Cc2ccccc2C(=O)OCCOC(=O)c2ccc(-c3c4nc(c(-c5c(F)cc(S(=O)(=O)[O-])cc5F)c5ccc([nH]5)c(-c5c(F)cc(S(=O)(=O)[O-])cc5F)c5nc(c(-c6c(F)cc(S(=O)(=O)[O-])cc6F)c6ccc3[nH]6)C=C5)C=C4)cc2)cc1
REMARK SMILES IDX 21 1 20 2 18 3 19 4 17 5 12 6 13 7 14 8 16 9 15 10 11 11
REMARK SMILES IDX 9 12 8 13 10 15 7 16 4 17 5 18 93 19 6 20 92 21 2 22 1 23
REMARK SMILES IDX 3 26 22 27 23 28 24 29 25 30 26 31 27 32 91 33 28 34 90 35
REMARK SMILES IDX 29 36 30 37 31 38 84 39 32 40 89 41 83 42 85 43 33 44 88 45
REMARK SMILES IDX 82 46 81 47 34 49 68 50 47 51 67 52 48 53 51 54 66 55 86 56
REMARK SMILES IDX 49 57 50 58 65 60 87 61 52 62 35 63 36 64 45 65 37 66 38 67
REMARK SMILES IDX 44 68 46 69 39 70 40 71 41 72 42 73 43 74 69 75 70 76 79 77
REMARK SMILES IDX 71 78 72 79 78 80 80 81 73 82 74 83 75 84 76 85 77 86 53 87
REMARK SMILES IDX 54 88 63 89 55 90 56 91 62 92 64 93 57 94 58 95 59 96 60 97
REMARK SMILES IDX 61 98
REMARK H PARENT 8 14 1 24 1 25 85 48 51 59
REMARK Flexibility Score: inf
ROOT
ATOM      1  C   UNL A   1      35.693  22.415  25.957  1.00  0.00     0.275 C 
ENDROOT
BRANCH   1   2
ATOM      2  O   UNL A   1      34.391  23.247  25.328  1.00  0.00    -0.458 OA
BRANCH   2   3
ATOM      3  C   UNL A   1      33.861  24.104  24.342  1.00  0.00     0.338 C 
ATOM      4  O   UNL A   1      34.231  24.470  23.225  1.00  0.00    -0.246 OA
BRANCH   3   5
ATOM      5  C   UNL A   1      32.983  25.160  24.777  1.00  0.00     0.063 A 
ATOM      6  C   UNL A   1      31.658  24.788  24.820  1.00  0.00    -0.024 A 
ATOM      7  C   UNL A   1      30.751  25.659  25.436  1.00  0.00     0.005 A 
ATOM      8  C   UNL A   1      31.222  26.700  26.251  1.00  0.00     0.000 A 
ATOM      9  C   UNL A   1      33.470  26.125  25.684  1.00  0.00     0.016 A 
ATOM     10  C   UNL A   1      32.588  26.870  26.451  1.00  0.00     0.001 A 
BRANCH   6  11
ATOM     11  C   UNL A   1      31.329  23.394  24.344  1.00  0.00     0.136 C 
BRANCH  11  12
ATOM     12  C   UNL A   1      31.480  22.156  25.371  1.00  0.00     0.228 C 
ATOM     13  N   UNL A   1      32.005  20.826  25.376  1.00  0.00    -0.326 N 
ATOM     14  H   UNL A   1      31.604  20.491  26.210  1.00  0.00     0.169 HD
ATOM     15  O   UNL A   1      30.742  22.377  26.367  1.00  0.00    -0.274 OA
BRANCH  13  16
ATOM     16  C   UNL A   1      32.797  19.554  24.931  1.00  0.00     0.041 A 
ATOM     17  C   UNL A   1      34.151  17.007  25.016  1.00  0.00     0.039 A 
ATOM     18  C   UNL A   1      34.800  18.155  24.622  1.00  0.00     0.016 A 
ATOM     19  C   UNL A   1      32.780  17.045  25.039  1.00  0.00     0.016 A 
ATOM     20  C   UNL A   1      34.082  19.345  24.420  1.00  0.00     0.027 A 
ATOM     21  C   UNL A   1      32.150  18.303  24.987  1.00  0.00     0.027 A 
BRANCH  17  22
ATOM     22  C   UNL A   1      34.952  15.831  25.388  1.00  0.00     0.248 C 
ATOM     23  N   UNL A   1      36.248  16.038  25.751  1.00  0.00    -0.366 N 
ATOM     24  H   UNL A   1      36.816  15.275  26.007  1.00  0.00     0.159 HD
ATOM     25  H   UNL A   1      36.617  16.951  25.758  1.00  0.00     0.159 HD
ATOM     26  O   UNL A   1      34.461  14.714  25.367  1.00  0.00    -0.270 OA
ENDBRANCH  17  22
ENDBRANCH  13  16
ENDBRANCH  11  12
ENDBRANCH   6  11
ENDBRANCH   3   5
ENDBRANCH   2   3
ENDBRANCH   1   2
BRANCH   1  27
ATOM     27  C   UNL A   1      36.900  21.235  25.419  1.00  0.00     0.275 C 
BRANCH  27  28
ATOM     28  O   UNL A   1      38.405  21.542  25.243  1.00  0.00    -0.458 OA
BRANCH  28  29
ATOM     29  C   UNL A   1      39.457  21.480  26.168  1.00  0.00     0.338 C 
ATOM     30  O   UNL A   1      40.088  20.455  26.379  1.00  0.00    -0.246 OA
BRANCH  29  31
ATOM     31  C   UNL A   1      39.978  22.899  26.712  1.00  0.00     0.060 A 
ATOM     32  C   UNL A   1      41.045  23.091  27.607  1.00  0.00     0.016 A 
ATOM     33  C   UNL A   1      39.188  24.054  26.509  1.00  0.00     0.016 A 
ATOM     34  C   UNL A   1      41.228  24.278  28.374  1.00  0.00     0.010 A 
ATOM     35  C   UNL A   1      39.435  25.294  27.194  1.00  0.00     0.010 A 
ATOM     36  C   UNL A   1      40.470  25.436  28.138  1.00  0.00    -0.014 A 
BRANCH  36  37
ATOM     37  C   UNL A   1      41.037  26.797  28.506  1.00  0.00     0.031 A 
ATOM     38  C   UNL A   1      40.320  27.949  29.199  1.00  0.00     0.074 A 
ATOM     39  C   UNL A   1      42.317  27.019  28.128  1.00  0.00     0.049 A 
ATOM     40  N   UNL A   1      40.736  29.190  29.367  1.00  0.00    -0.248 NA
ATOM     41  C   UNL A   1      39.000  27.695  29.787  1.00  0.00     0.031 C 
ATOM     42  C   UNL A   1      43.180  26.023  27.491  1.00  0.00     0.029 A 
ATOM     43  N   UNL A   1      43.113  28.140  28.200  1.00  0.00    -0.354 N 
ATOM     44  C   UNL A   1      39.734  29.872  30.057  1.00  0.00     0.074 A 
ATOM     45  C   UNL A   1      38.683  28.892  30.284  1.00  0.00     0.031 C 
ATOM     46  C   UNL A   1      44.370  26.567  27.227  1.00  0.00     0.029 A 
ATOM     47  C   UNL A   1      44.338  27.976  27.598  1.00  0.00     0.049 A 
ATOM     48  H   UNL A   1      42.832  28.976  28.638  1.00  0.00     0.167 HD
ATOM     49  C   UNL A   1      39.688  31.177  30.460  1.00  0.00     0.037 A 
ATOM     50  C   UNL A   1      45.327  28.841  27.304  1.00  0.00     0.037 A 
ATOM     51  C   UNL A   1      40.737  32.166  30.264  1.00  0.00     0.049 A 
ATOM     52  C   UNL A   1      45.218  30.285  27.676  1.00  0.00     0.074 A 
ATOM     53  C   UNL A   1      40.756  33.495  30.677  1.00  0.00     0.029 A 
ATOM     54  N   UNL A   1      41.941  31.956  29.610  1.00  0.00    -0.354 N 
ATOM     55  N   UNL A   1      44.248  30.903  28.298  1.00  0.00    -0.248 NA
ATOM     56  C   UNL A   1      46.343  31.153  27.296  1.00  0.00     0.031 C 
ATOM     57  C   UNL A   1      41.938  34.096  30.227  1.00  0.00     0.029 A 
ATOM     58  C   UNL A   1      42.687  33.132  29.579  1.00  0.00     0.049 A 
ATOM     59  H   UNL A   1      42.228  31.098  29.222  1.00  0.00     0.167 HD
ATOM     60  C   UNL A   1      44.653  32.228  28.404  1.00  0.00     0.074 A 
ATOM     61  C   UNL A   1      45.960  32.323  27.790  1.00  0.00     0.031 C 
ATOM     62  C   UNL A   1      43.987  33.265  28.967  1.00  0.00     0.037 A 
BRANCH  49  63
ATOM     63  C   UNL A   1      38.433  31.680  31.145  1.00  0.00     0.058 A 
ATOM     64  C   UNL A   1      38.295  31.689  32.542  1.00  0.00     0.135 A 
ATOM     65  C   UNL A   1      37.413  32.294  30.393  1.00  0.00     0.135 A 
ATOM     66  F   UNL A   1      39.247  31.147  33.316  1.00  0.00    -0.206 F 
ATOM     67  C   UNL A   1      37.180  32.253  33.165  1.00  0.00     0.059 A 
ATOM     68  C   UNL A   1      36.302  32.885  30.995  1.00  0.00     0.059 A 
ATOM     69  F   UNL A   1      37.504  32.354  29.055  1.00  0.00    -0.206 F 
ATOM     70  C   UNL A   1      36.184  32.843  32.382  1.00  0.00     0.060 A 
BRANCH  70  71
ATOM     71  S   UNL A   1      34.741  33.565  33.200  1.00  0.00     0.124 S 
ATOM     72  O   UNL A   1      34.750  34.923  32.665  1.00  0.00    -0.237 OA
ATOM     73  O   UNL A   1      33.653  32.710  32.741  1.00  0.00    -0.237 OA
ATOM     74  O   UNL A   1      35.063  33.453  34.622  1.00  0.00    -0.744 OA
ENDBRANCH  70  71
ENDBRANCH  49  63
BRANCH  50  75
ATOM     75  C   UNL A   1      46.512  28.340  26.561  1.00  0.00     0.058 A 
ATOM     76  C   UNL A   1      46.440  28.073  25.189  1.00  0.00     0.135 A 
ATOM     77  C   UNL A   1      47.750  28.181  27.205  1.00  0.00     0.135 A 
ATOM     78  F   UNL A   1      45.272  28.204  24.541  1.00  0.00    -0.206 F 
ATOM     79  C   UNL A   1      47.558  27.662  24.475  1.00  0.00     0.059 A 
ATOM     80  C   UNL A   1      48.888  27.801  26.506  1.00  0.00     0.059 A 
ATOM     81  F   UNL A   1      47.868  28.448  28.516  1.00  0.00    -0.206 F 
ATOM     82  C   UNL A   1      48.779  27.537  25.142  1.00  0.00     0.060 A 
BRANCH  82  83
ATOM     83  S   UNL A   1      50.241  27.076  24.191  1.00  0.00     0.124 S 
ATOM     84  O   UNL A   1      49.649  26.674  22.920  1.00  0.00    -0.237 OA
ATOM     85  O   UNL A   1      51.005  28.320  24.175  1.00  0.00    -0.237 OA
ATOM     86  O   UNL A   1      50.830  26.000  24.984  1.00  0.00    -0.744 OA
ENDBRANCH  82  83
ENDBRANCH  50  75
BRANCH  62  87
ATOM     87  C   UNL A   1      44.675  34.607  28.973  1.00  0.00     0.058 A 
ATOM     88  C   UNL A   1      45.589  34.965  29.978  1.00  0.00     0.135 A 
ATOM     89  C   UNL A   1      44.415  35.551  27.967  1.00  0.00     0.135 A 
ATOM     90  F   UNL A   1      45.864  34.110  30.975  1.00  0.00    -0.206 F 
ATOM     91  C   UNL A   1      46.201  36.217  29.998  1.00  0.00     0.059 A 
ATOM     92  C   UNL A   1      45.031  36.802  27.955  1.00  0.00     0.059 A 
ATOM     93  F   UNL A   1      43.548  35.268  26.981  1.00  0.00    -0.206 F 
ATOM     94  C   UNL A   1      45.914  37.132  28.983  1.00  0.00     0.060 A 
BRANCH  94  95
ATOM     95  S   UNL A   1      46.727  38.745  29.010  1.00  0.00     0.124 S 
ATOM     96  O   UNL A   1      45.586  39.653  28.950  1.00  0.00    -0.237 OA
ATOM     97  O   UNL A   1      47.446  38.715  30.280  1.00  0.00    -0.237 OA
ATOM     98  O   UNL A   1      47.572  38.721  27.819  1.00  0.00    -0.744 OA
ENDBRANCH  94  95
ENDBRANCH  62  87
ENDBRANCH  36  37
ENDBRANCH  29  31
ENDBRANCH  28  29
ENDBRANCH  27  28
ENDBRANCH   1  27
TORSDOF 18
ENDMDL
MODEL 3
REMARK VINA RESULT:     -12.7      5.473      9.371
REMARK SMILES NC(=O)c1ccc(NC(=O)Cc2ccccc2C(=O)OCCOC(=O)c2ccc(-c3c4nc(c(-c5c(F)cc(S(=O)(=O)[O-])cc5F)c5ccc([nH]5)c(-c5c(F)cc(S(=O)(=O)[O-])cc5F)c5nc(c(-c6c(F)cc(S(=O)(=O)[O-])cc6F)c6ccc3[nH]6)C=C5)C=C4)cc2)cc1
REMARK SMILES IDX 21 1 20 2 18 3 19 4 17 5 12 6 13 7 14 8 16 9 15 10 11 11
REMARK SMILES IDX 9 12 8 13 10 15 7 16 4 17 5 18 93 19 6 20 92 21 2 22 1 23
REMARK SMILES IDX 3 26 22 27 23 28 24 29 25 30 26 31 27 32 91 33 28 34 90 35
REMARK SMILES IDX 29 36 30 37 31 38 84 39 32 40 89 41 83 42 85 43 33 44 88 45
REMARK SMILES IDX 82 46 81 47 34 49 68 50 47 51 67 52 48 53 51 54 66 55 86 56
REMARK SMILES IDX 49 57 50 58 65 60 87 61 52 62 35 63 36 64 45 65 37 66 38 67
REMARK SMILES IDX 44 68 46 69 39 70 40 71 41 72 42 73 43 74 69 75 70 76 79 77
REMARK SMILES IDX 71 78 72 79 78 80 80 81 73 82 74 83 75 84 76 85 77 86 53 87
REMARK SMILES IDX 54 88 63 89 55 90 56 91 62 92 64 93 57 94 58 95 59 96 60 97
REMARK SMILES IDX 61 98
REMARK H PARENT 8 14 1 24 1 25 85 48 51 59
REMARK Flexibility Score: inf
ROOT
ATOM      1  C   UNL A   1      36.497  23.401  26.169  1.00  0.00     0.275 C 
ENDROOT
BRANCH   1   2
ATOM      2  O   UNL A   1      35.095  22.512  26.346  1.00  0.00    -0.458 OA
BRANCH   2   3
ATOM      3  C   UNL A   1      34.096  21.698  25.776  1.00  0.00     0.338 C 
ATOM      4  O   UNL A   1      33.744  20.527  25.928  1.00  0.00    -0.246 OA
BRANCH   3   5
ATOM      5  C   UNL A   1      33.650  22.021  24.446  1.00  0.00     0.063 A 
ATOM      6  C   UNL A   1      32.340  22.443  24.393  1.00  0.00    -0.024 A 
ATOM      7  C   UNL A   1      31.873  22.991  23.193  1.00  0.00     0.005 A 
ATOM      8  C   UNL A   1      32.785  23.387  22.202  1.00  0.00     0.000 A 
ATOM      9  C   UNL A   1      34.584  22.520  23.513  1.00  0.00     0.016 A 
ATOM     10  C   UNL A   1      34.152  23.238  22.408  1.00  0.00     0.001 A 
BRANCH   6  11
ATOM     11  C   UNL A   1      31.571  22.427  25.692  1.00  0.00     0.136 C 
BRANCH  11  12
ATOM     12  C   UNL A   1      30.587  23.660  26.038  1.00  0.00     0.228 C 
ATOM     13  N   UNL A   1      30.083  24.840  25.405  1.00  0.00    -0.326 N 
ATOM     14  H   UNL A   1      29.711  25.305  26.188  1.00  0.00     0.169 HD
ATOM     15  O   UNL A   1      30.385  23.668  27.281  1.00  0.00    -0.274 OA
BRANCH  13  16
ATOM     16  C   UNL A   1      29.734  25.876  24.289  1.00  0.00     0.041 A 
ATOM     17  C   UNL A   1      29.756  28.267  22.673  1.00  0.00     0.039 A 
ATOM     18  C   UNL A   1      28.624  27.861  23.341  1.00  0.00     0.016 A 
ATOM     19  C   UNL A   1      30.756  27.340  22.523  1.00  0.00     0.016 A 
ATOM     20  C   UNL A   1      28.584  26.608  23.976  1.00  0.00     0.027 A 
ATOM     21  C   UNL A   1      30.711  26.181  23.320  1.00  0.00     0.027 A 
BRANCH  17  22
ATOM     22  C   UNL A   1      29.827  29.649  22.174  1.00  0.00     0.248 C 
ATOM     23  N   UNL A   1      31.010  30.071  21.648  1.00  0.00    -0.366 N 
ATOM     24  H   UNL A   1      31.096  30.989  21.303  1.00  0.00     0.159 HD
ATOM     25  H   UNL A   1      31.779  29.457  21.612  1.00  0.00     0.159 HD
ATOM     26  O   UNL A   1      28.853  30.381  22.234  1.00  0.00    -0.270 OA
ENDBRANCH  17  22
ENDBRANCH  13  16
ENDBRANCH  11  12
ENDBRANCH   6  11
ENDBRANCH   3   5
ENDBRANCH   2   3
ENDBRANCH   1   2
BRANCH   1  27
ATOM     27  C   UNL A   1      38.207  23.123  25.804  1.00  0.00     0.275 C 
BRANCH  27  28
ATOM     28  O   UNL A   1      39.324  23.024  26.868  1.00  0.00    -0.458 OA
BRANCH  28  29
ATOM     29  C   UNL A   1      40.558  23.685  26.952  1.00  0.00     0.338 C 
ATOM     30  O   UNL A   1      41.440  23.540  26.118  1.00  0.00    -0.246 OA
BRANCH  29  31
ATOM     31  C   UNL A   1      40.633  24.867  28.038  1.00  0.00     0.060 A 
ATOM     32  C   UNL A   1      39.531  25.543  28.590  1.00  0.00     0.016 A 
ATOM     33  C   UNL A   1      41.876  25.485  28.306  1.00  0.00     0.016 A 
ATOM     34  C   UNL A   1      39.621  26.819  29.218  1.00  0.00     0.010 A 
ATOM     35  C   UNL A   1      41.987  26.717  29.040  1.00  0.00     0.010 A 
ATOM     36  C   UNL A   1      40.859  27.408  29.521  1.00  0.00    -0.014 A 
BRANCH  36  37
ATOM     37  C   UNL A   1      40.958  28.409  30.660  1.00  0.00     0.031 A 
ATOM     38  C   UNL A   1      41.865  28.344  31.882  1.00  0.00     0.074 A 
ATOM     39  C   UNL A   1      40.101  29.455  30.596  1.00  0.00     0.049 A 
ATOM     40  N   UNL A   1      41.841  29.104  32.961  1.00  0.00    -0.248 NA
ATOM     41  C   UNL A   1      42.931  27.336  31.906  1.00  0.00     0.031 C 
ATOM     42  C   UNL A   1      39.185  29.711  29.482  1.00  0.00     0.029 A 
ATOM     43  N   UNL A   1      39.840  30.482  31.475  1.00  0.00    -0.354 N 
ATOM     44  C   UNL A   1      42.865  28.662  33.800  1.00  0.00     0.074 A 
ATOM     45  C   UNL A   1      43.500  27.562  33.091  1.00  0.00     0.031 C 
ATOM     46  C   UNL A   1      38.466  30.806  29.740  1.00  0.00     0.029 A 
ATOM     47  C   UNL A   1      38.804  31.291  31.072  1.00  0.00     0.049 A 
ATOM     48  H   UNL A   1      40.344  30.622  32.309  1.00  0.00     0.167 HD
ATOM     49  C   UNL A   1      43.238  29.119  35.032  1.00  0.00     0.037 A 
ATOM     50  C   UNL A   1      38.133  32.281  31.692  1.00  0.00     0.037 A 
ATOM     51  C   UNL A   1      42.633  30.232  35.747  1.00  0.00     0.049 A 
ATOM     52  C   UNL A   1      38.502  32.707  33.077  1.00  0.00     0.074 A 
ATOM     53  C   UNL A   1      42.989  30.757  36.986  1.00  0.00     0.029 A 
ATOM     54  N   UNL A   1      41.557  30.990  35.311  1.00  0.00    -0.354 N 
ATOM     55  N   UNL A   1      39.451  32.250  33.852  1.00  0.00    -0.248 NA
ATOM     56  C   UNL A   1      37.698  33.785  33.674  1.00  0.00     0.031 C 
ATOM     57  C   UNL A   1      42.102  31.788  37.318  1.00  0.00     0.029 A 
ATOM     58  C   UNL A   1      41.220  31.948  36.265  1.00  0.00     0.049 A 
ATOM     59  H   UNL A   1      41.097  30.869  34.449  1.00  0.00     0.167 HD
ATOM     60  C   UNL A   1      39.373  32.998  35.021  1.00  0.00     0.074 A 
ATOM     61  C   UNL A   1      38.291  33.943  34.850  1.00  0.00     0.031 C 
ATOM     62  C   UNL A   1      40.143  32.897  36.132  1.00  0.00     0.037 A 
BRANCH  49  63
ATOM     63  C   UNL A   1      44.359  28.405  35.761  1.00  0.00     0.058 A 
ATOM     64  C   UNL A   1      45.704  28.782  35.621  1.00  0.00     0.135 A 
ATOM     65  C   UNL A   1      44.063  27.420  36.724  1.00  0.00     0.135 A 
ATOM     66  F   UNL A   1      46.047  29.737  34.742  1.00  0.00    -0.206 F 
ATOM     67  C   UNL A   1      46.715  28.187  36.378  1.00  0.00     0.059 A 
ATOM     68  C   UNL A   1      45.054  26.830  37.508  1.00  0.00     0.059 A 
ATOM     69  F   UNL A   1      42.792  27.043  36.935  1.00  0.00    -0.206 F 
ATOM     70  C   UNL A   1      46.381  27.207  37.315  1.00  0.00     0.060 A 
BRANCH  70  71
ATOM     71  S   UNL A   1      47.700  26.438  38.286  1.00  0.00     0.124 S 
ATOM     72  O   UNL A   1      48.334  25.580  37.291  1.00  0.00    -0.237 OA
ATOM     73  O   UNL A   1      48.484  27.586  38.725  1.00  0.00    -0.237 OA
ATOM     74  O   UNL A   1      46.977  25.736  39.347  1.00  0.00    -0.744 OA
ENDBRANCH  70  71
ENDBRANCH  49  63
BRANCH  50  75
ATOM     75  C   UNL A   1      36.988  32.911  30.988  1.00  0.00     0.058 A 
ATOM     76  C   UNL A   1      37.196  33.870  29.991  1.00  0.00     0.135 A 
ATOM     77  C   UNL A   1      35.668  32.516  31.264  1.00  0.00     0.135 A 
ATOM     78  F   UNL A   1      38.442  34.280  29.704  1.00  0.00    -0.206 F 
ATOM     79  C   UNL A   1      36.134  34.421  29.286  1.00  0.00     0.059 A 
ATOM     80  C   UNL A   1      34.593  33.030  30.552  1.00  0.00     0.059 A 
ATOM     81  F   UNL A   1      35.425  31.583  32.198  1.00  0.00    -0.206 F 
ATOM     82  C   UNL A   1      34.837  33.988  29.568  1.00  0.00     0.060 A 
BRANCH  82  83
ATOM     83  S   UNL A   1      33.471  34.653  28.596  1.00  0.00     0.124 S 
ATOM     84  O   UNL A   1      34.105  35.788  27.937  1.00  0.00    -0.237 OA
ATOM     85  O   UNL A   1      33.125  33.525  27.736  1.00  0.00    -0.237 OA
ATOM     86  O   UNL A   1      32.471  34.986  29.608  1.00  0.00    -0.744 OA
ENDBRANCH  82  83
ENDBRANCH  50  75
BRANCH  62  87
ATOM     87  C   UNL A   1      39.861  33.862  37.257  1.00  0.00     0.058 A 
ATOM     88  C   UNL A   1      40.430  35.145  37.291  1.00  0.00     0.135 A 
ATOM     89  C   UNL A   1      39.017  33.498  38.319  1.00  0.00     0.135 A 
ATOM     90  F   UNL A   1      41.259  35.542  36.313  1.00  0.00    -0.206 F 
ATOM     91  C   UNL A   1      40.193  36.024  38.347  1.00  0.00     0.059 A 
ATOM     92  C   UNL A   1      38.748  34.368  39.375  1.00  0.00     0.059 A 
ATOM     93  F   UNL A   1      38.446  32.283  38.343  1.00  0.00    -0.206 F 
ATOM     94  C   UNL A   1      39.351  35.625  39.387  1.00  0.00     0.060 A 
BRANCH  94  95
ATOM     95  S   UNL A   1      39.037  36.779  40.742  1.00  0.00     0.124 S 
ATOM     96  O   UNL A   1      38.303  37.842  40.063  1.00  0.00    -0.237 OA
ATOM     97  O   UNL A   1      38.258  35.968  41.673  1.00  0.00    -0.237 OA
ATOM     98  O   UNL A   1      40.376  37.136  41.203  1.00  0.00    -0.744 OA
ENDBRANCH  94  95
ENDBRANCH  62  87
ENDBRANCH  36  37
ENDBRANCH  29  31
ENDBRANCH  28  29
ENDBRANCH  27  28
ENDBRANCH   1  27
TORSDOF 18
ENDMDL
