MODEL 1
REMARK VINA RESULT:     -12.4      0.000      0.000
REMARK SMILES Cc1ccccc1-n1nc(Cl)c(C(=O)OCCOC(=O)c2ccc(-c3c4nc(c(-c5c(F)cc(S(=O)(=O)[O-])cc5F)c5ccc([nH]5)c(-c5c(F)cc(S(=O)(=O)[O-])cc5F)c5nc(c(-c6c(F)cc(S(=O)(=O)[O-])cc6F)c6ccc3[nH]6)C=C5)C=C4)cc2)n1
REMARK SMILES IDX 17 1 16 2 15 3 13 4 14 5 12 6 8 7 9 8 87 9 10 10 11 11 7 12
REMARK SMILES IDX 1 13 2 14 3 15 4 16 6 17 5 18 18 19 19 20 20 21 21 22 22 23
REMARK SMILES IDX 86 24 23 25 85 26 24 27 25 28 26 29 79 30 27 31 84 32 78 33
REMARK SMILES IDX 80 34 28 35 83 36 77 37 76 38 29 40 63 41 42 42 62 43 43 44
REMARK SMILES IDX 46 45 61 46 81 47 44 48 45 49 60 51 82 52 47 53 30 54 31 55
REMARK SMILES IDX 40 56 32 57 33 58 39 59 41 60 34 61 35 62 36 63 37 64 38 65
REMARK SMILES IDX 64 66 65 67 74 68 66 69 67 70 73 71 75 72 68 73 69 74 70 75
REMARK SMILES IDX 71 76 72 77 48 78 49 79 58 80 50 81 51 82 57 83 59 84 52 85
REMARK SMILES IDX 53 86 54 87 55 88 56 89
REMARK H PARENT 80 39 46 50
REMARK Flexibility Score: inf
ROOT
ATOM      1  C   UNL A   1      34.474  29.447  27.178  1.00  0.00     0.275 C 
ENDROOT
BRANCH   1   2
ATOM      2  C   UNL A   1      33.437  28.312  27.023  1.00  0.00     0.275 C 
BRANCH   2   3
ATOM      3  O   UNL A   1      33.892  27.245  26.176  1.00  0.00    -0.457 OA
BRANCH   3   4
ATOM      4  C   UNL A   1      33.018  26.860  25.190  1.00  0.00     0.362 C 
ATOM      5  O   UNL A   1      31.802  26.973  25.280  1.00  0.00    -0.244 OA
BRANCH   4   6
ATOM      6  C   UNL A   1      33.611  26.019  24.177  1.00  0.00     0.209 A 
ATOM      7  N   UNL A   1      34.622  24.291  23.626  1.00  0.00    -0.149 N 
ATOM      8  N   UNL A   1      34.017  24.590  22.474  1.00  0.00    -0.135 NA
ATOM      9  N   UNL A   1      34.609  25.218  24.591  1.00  0.00    -0.139 NA
ATOM     10  C   UNL A   1      33.233  25.600  22.875  1.00  0.00     0.186 A 
ATOM     11  Cl  UNL A   1      31.951  26.000  21.863  1.00  0.00    -0.057 Cl
BRANCH   7  12
ATOM     12  C   UNL A   1      35.097  23.012  23.907  1.00  0.00     0.089 A 
ATOM     13  C   UNL A   1      32.735  22.192  24.517  1.00  0.00     0.047 C 
ATOM     14  C   UNL A   1      34.238  22.054  24.484  1.00  0.00    -0.023 A 
ATOM     15  C   UNL A   1      34.831  20.920  25.040  1.00  0.00     0.006 A 
ATOM     16  C   UNL A   1      36.217  20.744  24.977  1.00  0.00     0.000 A 
ATOM     17  C   UNL A   1      36.469  22.809  23.763  1.00  0.00     0.030 A 
ATOM     18  C   UNL A   1      37.030  21.670  24.319  1.00  0.00     0.002 A 
ENDBRANCH   7  12
ENDBRANCH   4   6
ENDBRANCH   3   4
ENDBRANCH   2   3
ENDBRANCH   1   2
BRANCH   1  19
ATOM     19  O   UNL A   1      35.465  29.409  28.235  1.00  0.00    -0.458 OA
BRANCH  19  20
ATOM     20  C   UNL A   1      36.592  30.146  28.082  1.00  0.00     0.338 C 
ATOM     21  O   UNL A   1      36.641  31.353  28.299  1.00  0.00    -0.246 OA
BRANCH  20  22
ATOM     22  C   UNL A   1      37.765  29.240  28.007  1.00  0.00     0.060 A 
ATOM     23  C   UNL A   1      38.860  29.622  27.224  1.00  0.00     0.016 A 
ATOM     24  C   UNL A   1      37.909  28.273  29.000  1.00  0.00     0.016 A 
ATOM     25  C   UNL A   1      40.134  29.161  27.516  1.00  0.00     0.010 A 
ATOM     26  C   UNL A   1      39.171  27.966  29.422  1.00  0.00     0.010 A 
ATOM     27  C   UNL A   1      40.272  28.367  28.649  1.00  0.00    -0.014 A 
BRANCH  27  28
ATOM     28  C   UNL A   1      41.453  27.572  28.923  1.00  0.00     0.031 A 
ATOM     29  C   UNL A   1      41.497  26.163  28.497  1.00  0.00     0.074 A 
ATOM     30  C   UNL A   1      42.402  28.388  29.440  1.00  0.00     0.049 A 
ATOM     31  N   UNL A   1      42.025  25.195  29.163  1.00  0.00    -0.248 NA
ATOM     32  C   UNL A   1      40.830  25.685  27.278  1.00  0.00     0.031 C 
ATOM     33  C   UNL A   1      43.827  28.274  29.647  1.00  0.00     0.029 A 
ATOM     34  N   UNL A   1      42.096  29.627  30.042  1.00  0.00    -0.354 N 
ATOM     35  C   UNL A   1      42.160  24.145  28.266  1.00  0.00     0.074 A 
ATOM     36  C   UNL A   1      41.189  24.396  27.237  1.00  0.00     0.031 C 
ATOM     37  C   UNL A   1      44.188  29.172  30.594  1.00  0.00     0.029 A 
ATOM     38  C   UNL A   1      42.973  29.823  31.092  1.00  0.00     0.049 A 
ATOM     39  H   UNL A   1      41.382  30.244  29.764  1.00  0.00     0.167 HD
ATOM     40  C   UNL A   1      43.305  23.395  28.283  1.00  0.00     0.037 A 
ATOM     41  C   UNL A   1      42.430  29.707  32.342  1.00  0.00     0.037 A 
ATOM     42  C   UNL A   1      44.215  23.988  29.261  1.00  0.00     0.049 A 
ATOM     43  C   UNL A   1      42.934  28.427  32.951  1.00  0.00     0.074 A 
ATOM     44  C   UNL A   1      45.201  24.946  29.088  1.00  0.00     0.029 A 
ATOM     45  N   UNL A   1      43.893  23.982  30.610  1.00  0.00    -0.354 N 
ATOM     46  N   UNL A   1      43.101  27.308  32.295  1.00  0.00    -0.248 NA
ATOM     47  C   UNL A   1      43.465  28.395  34.306  1.00  0.00     0.031 C 
ATOM     48  C   UNL A   1      45.413  25.574  30.340  1.00  0.00     0.029 A 
ATOM     49  C   UNL A   1      44.523  25.031  31.252  1.00  0.00     0.049 A 
ATOM     50  H   UNL A   1      43.302  23.325  31.046  1.00  0.00     0.167 HD
ATOM     51  C   UNL A   1      43.836  26.457  33.077  1.00  0.00     0.074 A 
ATOM     52  C   UNL A   1      44.018  27.173  34.331  1.00  0.00     0.031 C 
ATOM     53  C   UNL A   1      44.325  25.250  32.670  1.00  0.00     0.037 A 
BRANCH  40  54
ATOM     54  C   UNL A   1      43.787  22.456  27.186  1.00  0.00     0.058 A 
ATOM     55  C   UNL A   1      43.016  21.324  26.827  1.00  0.00     0.135 A 
ATOM     56  C   UNL A   1      44.975  22.610  26.440  1.00  0.00     0.135 A 
ATOM     57  F   UNL A   1      41.821  21.082  27.380  1.00  0.00    -0.206 F 
ATOM     58  C   UNL A   1      43.421  20.384  25.878  1.00  0.00     0.059 A 
ATOM     59  C   UNL A   1      45.416  21.664  25.497  1.00  0.00     0.059 A 
ATOM     60  F   UNL A   1      45.736  23.707  26.566  1.00  0.00    -0.206 F 
ATOM     61  C   UNL A   1      44.631  20.549  25.227  1.00  0.00     0.060 A 
BRANCH  61  62
ATOM     62  S   UNL A   1      45.117  19.313  24.006  1.00  0.00     0.124 S 
ATOM     63  O   UNL A   1      46.574  19.386  24.059  1.00  0.00    -0.237 OA
ATOM     64  O   UNL A   1      44.525  18.097  24.549  1.00  0.00    -0.237 OA
ATOM     65  O   UNL A   1      44.517  19.802  22.768  1.00  0.00    -0.744 OA
ENDBRANCH  61  62
ENDBRANCH  40  54
BRANCH  41  66
ATOM     66  C   UNL A   1      41.044  30.292  32.490  1.00  0.00     0.058 A 
ATOM     67  C   UNL A   1      40.914  31.701  32.470  1.00  0.00     0.135 A 
ATOM     68  C   UNL A   1      39.845  29.566  32.408  1.00  0.00     0.135 A 
ATOM     69  F   UNL A   1      42.009  32.477  32.561  1.00  0.00    -0.206 F 
ATOM     70  C   UNL A   1      39.697  32.350  32.269  1.00  0.00     0.059 A 
ATOM     71  C   UNL A   1      38.599  30.199  32.228  1.00  0.00     0.059 A 
ATOM     72  F   UNL A   1      39.865  28.226  32.420  1.00  0.00    -0.206 F 
ATOM     73  C   UNL A   1      38.540  31.592  32.128  1.00  0.00     0.060 A 
BRANCH  73  74
ATOM     74  S   UNL A   1      37.022  32.454  31.621  1.00  0.00     0.124 S 
ATOM     75  O   UNL A   1      36.695  33.220  32.817  1.00  0.00    -0.237 OA
ATOM     76  O   UNL A   1      37.491  33.236  30.479  1.00  0.00    -0.237 OA
ATOM     77  O   UNL A   1      36.111  31.361  31.303  1.00  0.00    -0.744 OA
ENDBRANCH  73  74
ENDBRANCH  41  66
BRANCH  53  78
ATOM     78  C   UNL A   1      44.786  24.188  33.623  1.00  0.00     0.058 A 
ATOM     79  C   UNL A   1      43.900  23.272  34.209  1.00  0.00     0.135 A 
ATOM     80  C   UNL A   1      46.163  23.959  33.850  1.00  0.00     0.135 A 
ATOM     81  F   UNL A   1      42.585  23.297  33.942  1.00  0.00    -0.206 F 
ATOM     82  C   UNL A   1      44.334  22.277  35.070  1.00  0.00     0.059 A 
ATOM     83  C   UNL A   1      46.624  22.918  34.642  1.00  0.00     0.059 A 
ATOM     84  F   UNL A   1      47.111  24.731  33.297  1.00  0.00    -0.206 F 
ATOM     85  C   UNL A   1      45.697  22.115  35.289  1.00  0.00     0.060 A 
BRANCH  85  86
ATOM     86  S   UNL A   1      46.249  20.838  36.421  1.00  0.00     0.124 S 
ATOM     87  O   UNL A   1      47.698  20.966  36.304  1.00  0.00    -0.237 OA
ATOM     88  O   UNL A   1      45.676  21.271  37.693  1.00  0.00    -0.237 OA
ATOM     89  O   UNL A   1      45.673  19.619  35.863  1.00  0.00    -0.744 OA
ENDBRANCH  85  86
ENDBRANCH  53  78
ENDBRANCH  27  28
ENDBRANCH  20  22
ENDBRANCH  19  20
ENDBRANCH   1  19
TORSDOF 15
ENDMDL
MODEL 2
REMARK VINA RESULT:     -12.3      1.874      3.306
REMARK SMILES Cc1ccccc1-n1nc(Cl)c(C(=O)OCCOC(=O)c2ccc(-c3c4nc(c(-c5c(F)cc(S(=O)(=O)[O-])cc5F)c5ccc([nH]5)c(-c5c(F)cc(S(=O)(=O)[O-])cc5F)c5nc(c(-c6c(F)cc(S(=O)(=O)[O-])cc6F)c6ccc3[nH]6)C=C5)C=C4)cc2)n1
REMARK SMILES IDX 17 1 16 2 15 3 13 4 14 5 12 6 8 7 9 8 87 9 10 10 11 11 7 12
REMARK SMILES IDX 1 13 2 14 3 15 4 16 6 17 5 18 18 19 19 20 20 21 21 22 22 23
REMARK SMILES IDX 86 24 23 25 85 26 24 27 25 28 26 29 79 30 27 31 84 32 78 33
REMARK SMILES IDX 80 34 28 35 83 36 77 37 76 38 29 40 63 41 42 42 62 43 43 44
REMARK SMILES IDX 46 45 61 46 81 47 44 48 45 49 60 51 82 52 47 53 30 54 31 55
REMARK SMILES IDX 40 56 32 57 33 58 39 59 41 60 34 61 35 62 36 63 37 64 38 65
REMARK SMILES IDX 64 66 65 67 74 68 66 69 67 70 73 71 75 72 68 73 69 74 70 75
REMARK SMILES IDX 71 76 72 77 48 78 49 79 58 80 50 81 51 82 57 83 59 84 52 85
REMARK SMILES IDX 53 86 54 87 55 88 56 89
REMARK H PARENT 80 39 46 50
REMARK Flexibility Score: inf
ROOT
ATOM      1  C   UNL A   1      34.801  29.237  27.408  1.00  0.00     0.275 C 
ENDROOT
BRANCH   1   2
ATOM      2  C   UNL A   1      34.100  28.721  26.131  1.00  0.00     0.275 C 
BRANCH   2   3
ATOM      3  O   UNL A   1      32.983  27.862  26.410  1.00  0.00    -0.457 OA
BRANCH   3   4
ATOM      4  C   UNL A   1      33.062  26.599  25.879  1.00  0.00     0.362 C 
ATOM      5  O   UNL A   1      34.092  25.938  25.851  1.00  0.00    -0.244 OA
BRANCH   4   6
ATOM      6  C   UNL A   1      31.924  26.231  25.069  1.00  0.00     0.209 A 
ATOM      7  N   UNL A   1      30.236  26.754  23.979  1.00  0.00    -0.149 N 
ATOM      8  N   UNL A   1      30.525  25.578  23.419  1.00  0.00    -0.135 NA
ATOM      9  N   UNL A   1      30.881  27.079  25.106  1.00  0.00    -0.139 NA
ATOM     10  C   UNL A   1      31.706  25.324  24.000  1.00  0.00     0.186 A 
ATOM     11  Cl  UNL A   1      32.670  24.162  23.261  1.00  0.00    -0.057 Cl
BRANCH   7  12
ATOM     12  C   UNL A   1      29.438  27.704  23.345  1.00  0.00     0.089 A 
ATOM     13  C   UNL A   1      31.504  28.930  22.422  1.00  0.00     0.047 C 
ATOM     14  C   UNL A   1      30.032  28.831  22.740  1.00  0.00    -0.023 A 
ATOM     15  C   UNL A   1      29.191  29.895  22.414  1.00  0.00     0.006 A 
ATOM     16  C   UNL A   1      27.815  29.808  22.651  1.00  0.00     0.000 A 
ATOM     17  C   UNL A   1      28.060  27.570  23.509  1.00  0.00     0.030 A 
ATOM     18  C   UNL A   1      27.248  28.642  23.171  1.00  0.00     0.002 A 
ENDBRANCH   7  12
ENDBRANCH   4   6
ENDBRANCH   3   4
ENDBRANCH   2   3
ENDBRANCH   1   2
BRANCH   1  19
ATOM     19  O   UNL A   1      35.874  30.207  27.325  1.00  0.00    -0.458 OA
BRANCH  19  20
ATOM     20  C   UNL A   1      36.693  30.348  28.397  1.00  0.00     0.338 C 
ATOM     21  O   UNL A   1      36.380  30.975  29.404  1.00  0.00    -0.246 OA
BRANCH  20  22
ATOM     22  C   UNL A   1      37.787  29.347  28.313  1.00  0.00     0.060 A 
ATOM     23  C   UNL A   1      38.733  29.471  27.291  1.00  0.00     0.016 A 
ATOM     24  C   UNL A   1      38.066  28.589  29.448  1.00  0.00     0.016 A 
ATOM     25  C   UNL A   1      40.017  28.971  27.450  1.00  0.00     0.010 A 
ATOM     26  C   UNL A   1      39.369  28.265  29.702  1.00  0.00     0.010 A 
ATOM     27  C   UNL A   1      40.324  28.409  28.684  1.00  0.00    -0.014 A 
BRANCH  27  28
ATOM     28  C   UNL A   1      41.496  27.587  28.912  1.00  0.00     0.031 A 
ATOM     29  C   UNL A   1      41.478  26.168  28.519  1.00  0.00     0.074 A 
ATOM     30  C   UNL A   1      42.495  28.387  29.356  1.00  0.00     0.049 A 
ATOM     31  N   UNL A   1      42.015  25.200  29.178  1.00  0.00    -0.248 NA
ATOM     32  C   UNL A   1      40.731  25.682  27.351  1.00  0.00     0.031 C 
ATOM     33  C   UNL A   1      43.925  28.237  29.487  1.00  0.00     0.029 A 
ATOM     34  N   UNL A   1      42.257  29.648  29.944  1.00  0.00    -0.354 N 
ATOM     35  C   UNL A   1      42.071  24.126  28.301  1.00  0.00     0.074 A 
ATOM     36  C   UNL A   1      41.051  24.382  27.322  1.00  0.00     0.031 C 
ATOM     37  C   UNL A   1      44.363  29.145  30.390  1.00  0.00     0.029 A 
ATOM     38  C   UNL A   1      43.196  29.842  30.938  1.00  0.00     0.049 A 
ATOM     39  H   UNL A   1      41.546  30.278  29.690  1.00  0.00     0.167 HD
ATOM     40  C   UNL A   1      43.194  23.345  28.273  1.00  0.00     0.037 A 
ATOM     41  C   UNL A   1      42.721  29.771  32.219  1.00  0.00     0.037 A 
ATOM     42  C   UNL A   1      44.173  23.933  29.185  1.00  0.00     0.049 A 
ATOM     43  C   UNL A   1      43.222  28.491  32.831  1.00  0.00     0.074 A 
ATOM     44  C   UNL A   1      45.174  24.858  28.935  1.00  0.00     0.029 A 
ATOM     45  N   UNL A   1      43.926  23.967  30.549  1.00  0.00    -0.354 N 
ATOM     46  N   UNL A   1      43.322  27.353  32.193  1.00  0.00    -0.248 NA
ATOM     47  C   UNL A   1      43.827  28.474  34.155  1.00  0.00     0.031 C 
ATOM     48  C   UNL A   1      45.472  25.508  30.157  1.00  0.00     0.029 A 
ATOM     49  C   UNL A   1      44.620  25.012  31.130  1.00  0.00     0.049 A 
ATOM     50  H   UNL A   1      43.343  23.338  31.033  1.00  0.00     0.167 HD
ATOM     51  C   UNL A   1      44.075  26.498  32.955  1.00  0.00     0.074 A 
ATOM     52  C   UNL A   1      44.347  27.238  34.179  1.00  0.00     0.031 C 
ATOM     53  C   UNL A   1      44.507  25.269  32.551  1.00  0.00     0.037 A 
BRANCH  40  54
ATOM     54  C   UNL A   1      43.588  22.368  27.175  1.00  0.00     0.058 A 
ATOM     55  C   UNL A   1      42.878  21.153  27.012  1.00  0.00     0.135 A 
ATOM     56  C   UNL A   1      44.631  22.559  26.244  1.00  0.00     0.135 A 
ATOM     57  F   UNL A   1      41.806  20.858  27.760  1.00  0.00    -0.206 F 
ATOM     58  C   UNL A   1      43.219  20.180  26.072  1.00  0.00     0.059 A 
ATOM     59  C   UNL A   1      45.009  21.583  25.304  1.00  0.00     0.059 A 
ATOM     60  F   UNL A   1      45.300  23.719  26.180  1.00  0.00    -0.206 F 
ATOM     61  C   UNL A   1      44.297  20.392  25.230  1.00  0.00     0.060 A 
BRANCH  61  62
ATOM     62  S   UNL A   1      44.703  19.110  24.027  1.00  0.00     0.124 S 
ATOM     63  O   UNL A   1      43.762  18.051  24.379  1.00  0.00    -0.237 OA
ATOM     64  O   UNL A   1      44.449  19.787  22.761  1.00  0.00    -0.237 OA
ATOM     65  O   UNL A   1      46.105  18.812  24.307  1.00  0.00    -0.744 OA
ENDBRANCH  61  62
ENDBRANCH  40  54
BRANCH  41  66
ATOM     66  C   UNL A   1      41.362  30.399  32.429  1.00  0.00     0.058 A 
ATOM     67  C   UNL A   1      40.342  29.597  32.995  1.00  0.00     0.135 A 
ATOM     68  C   UNL A   1      41.081  31.771  32.336  1.00  0.00     0.135 A 
ATOM     69  F   UNL A   1      40.518  28.268  33.108  1.00  0.00    -0.206 F 
ATOM     70  C   UNL A   1      39.170  30.126  33.535  1.00  0.00     0.059 A 
ATOM     71  C   UNL A   1      39.893  32.327  32.854  1.00  0.00     0.059 A 
ATOM     72  F   UNL A   1      41.985  32.613  31.815  1.00  0.00    -0.206 F 
ATOM     73  C   UNL A   1      38.958  31.499  33.480  1.00  0.00     0.060 A 
BRANCH  73  74
ATOM     74  S   UNL A   1      37.549  32.173  34.409  1.00  0.00     0.124 S 
ATOM     75  O   UNL A   1      36.432  31.880  33.520  1.00  0.00    -0.237 OA
ATOM     76  O   UNL A   1      37.600  31.386  35.640  1.00  0.00    -0.237 OA
ATOM     77  O   UNL A   1      37.891  33.583  34.551  1.00  0.00    -0.744 OA
ENDBRANCH  73  74
ENDBRANCH  41  66
BRANCH  53  78
ATOM     78  C   UNL A   1      44.991  24.217  33.503  1.00  0.00     0.058 A 
ATOM     79  C   UNL A   1      44.168  23.169  33.943  1.00  0.00     0.135 A 
ATOM     80  C   UNL A   1      46.354  24.140  33.876  1.00  0.00     0.135 A 
ATOM     81  F   UNL A   1      42.898  23.053  33.528  1.00  0.00    -0.206 F 
ATOM     82  C   UNL A   1      44.627  22.185  34.803  1.00  0.00     0.059 A 
ATOM     83  C   UNL A   1      46.852  23.118  34.669  1.00  0.00     0.059 A 
ATOM     84  F   UNL A   1      47.252  25.051  33.470  1.00  0.00    -0.206 F 
ATOM     85  C   UNL A   1      45.968  22.174  35.169  1.00  0.00     0.060 A 
BRANCH  85  86
ATOM     86  S   UNL A   1      46.550  20.909  36.300  1.00  0.00     0.124 S 
ATOM     87  O   UNL A   1      45.626  21.084  37.417  1.00  0.00    -0.237 OA
ATOM     88  O   UNL A   1      46.378  19.685  35.523  1.00  0.00    -0.237 OA
ATOM     89  O   UNL A   1      47.934  21.294  36.555  1.00  0.00    -0.744 OA
ENDBRANCH  85  86
ENDBRANCH  53  78
ENDBRANCH  27  28
ENDBRANCH  20  22
ENDBRANCH  19  20
ENDBRANCH   1  19
TORSDOF 15
ENDMDL
MODEL 3
REMARK VINA RESULT:     -12.3      1.185      2.107
REMARK SMILES Cc1ccccc1-n1nc(Cl)c(C(=O)OCCOC(=O)c2ccc(-c3c4nc(c(-c5c(F)cc(S(=O)(=O)[O-])cc5F)c5ccc([nH]5)c(-c5c(F)cc(S(=O)(=O)[O-])cc5F)c5nc(c(-c6c(F)cc(S(=O)(=O)[O-])cc6F)c6ccc3[nH]6)C=C5)C=C4)cc2)n1
REMARK SMILES IDX 17 1 16 2 15 3 13 4 14 5 12 6 8 7 9 8 87 9 10 10 11 11 7 12
REMARK SMILES IDX 1 13 2 14 3 15 4 16 6 17 5 18 18 19 19 20 20 21 21 22 22 23
REMARK SMILES IDX 86 24 23 25 85 26 24 27 25 28 26 29 79 30 27 31 84 32 78 33
REMARK SMILES IDX 80 34 28 35 83 36 77 37 76 38 29 40 63 41 42 42 62 43 43 44
REMARK SMILES IDX 46 45 61 46 81 47 44 48 45 49 60 51 82 52 47 53 30 54 31 55
REMARK SMILES IDX 40 56 32 57 33 58 39 59 41 60 34 61 35 62 36 63 37 64 38 65
REMARK SMILES IDX 64 66 65 67 74 68 66 69 67 70 73 71 75 72 68 73 69 74 70 75
REMARK SMILES IDX 71 76 72 77 48 78 49 79 58 80 50 81 51 82 57 83 59 84 52 85
REMARK SMILES IDX 53 86 54 87 55 88 56 89
REMARK H PARENT 80 39 46 50
REMARK Flexibility Score: inf
ROOT
ATOM      1  C   UNL A   1      34.757  30.238  27.241  1.00  0.00     0.275 C 
ENDROOT
BRANCH   1   2
ATOM      2  C   UNL A   1      33.293  29.744  27.223  1.00  0.00     0.275 C 
BRANCH   2   3
ATOM      3  O   UNL A   1      33.163  28.356  27.568  1.00  0.00    -0.457 OA
BRANCH   3   4
ATOM      4  C   UNL A   1      32.016  27.743  27.129  1.00  0.00     0.362 C 
ATOM      5  O   UNL A   1      31.009  27.619  27.813  1.00  0.00    -0.244 OA
BRANCH   4   6
ATOM      6  C   UNL A   1      32.189  26.974  25.919  1.00  0.00     0.209 A 
ATOM      7  N   UNL A   1      32.544  25.166  24.962  1.00  0.00    -0.149 N 
ATOM      8  N   UNL A   1      31.919  25.831  23.988  1.00  0.00    -0.135 NA
ATOM      9  N   UNL A   1      32.938  25.862  26.034  1.00  0.00    -0.139 NA
ATOM     10  C   UNL A   1      31.540  26.929  24.658  1.00  0.00     0.186 A 
ATOM     11  Cl  UNL A   1      30.326  27.854  23.954  1.00  0.00    -0.057 Cl
BRANCH   7  12
ATOM     12  C   UNL A   1      32.635  23.775  24.972  1.00  0.00     0.089 A 
ATOM     13  C   UNL A   1      34.806  23.834  23.593  1.00  0.00     0.047 C 
ATOM     14  C   UNL A   1      33.614  23.128  24.191  1.00  0.00    -0.023 A 
ATOM     15  C   UNL A   1      33.457  21.758  23.981  1.00  0.00     0.006 A 
ATOM     16  C   UNL A   1      32.388  21.070  24.565  1.00  0.00     0.000 A 
ATOM     17  C   UNL A   1      31.615  23.089  25.630  1.00  0.00     0.030 A 
ATOM     18  C   UNL A   1      31.486  21.726  25.407  1.00  0.00     0.002 A 
ENDBRANCH   7  12
ENDBRANCH   4   6
ENDBRANCH   3   4
ENDBRANCH   2   3
ENDBRANCH   1   2
BRANCH   1  19
ATOM     19  O   UNL A   1      35.677  29.800  28.272  1.00  0.00    -0.458 OA
BRANCH  19  20
ATOM     20  C   UNL A   1      36.883  30.413  28.356  1.00  0.00     0.338 C 
ATOM     21  O   UNL A   1      37.026  31.565  28.752  1.00  0.00    -0.246 OA
BRANCH  20  22
ATOM     22  C   UNL A   1      37.959  29.393  28.277  1.00  0.00     0.060 A 
ATOM     23  C   UNL A   1      38.921  29.508  27.269  1.00  0.00     0.016 A 
ATOM     24  C   UNL A   1      38.208  28.619  29.408  1.00  0.00     0.016 A 
ATOM     25  C   UNL A   1      40.192  28.982  27.440  1.00  0.00     0.010 A 
ATOM     26  C   UNL A   1      39.501  28.268  29.676  1.00  0.00     0.010 A 
ATOM     27  C   UNL A   1      40.473  28.403  28.672  1.00  0.00    -0.014 A 
BRANCH  27  28
ATOM     28  C   UNL A   1      41.625  27.556  28.908  1.00  0.00     0.031 A 
ATOM     29  C   UNL A   1      41.590  26.144  28.491  1.00  0.00     0.074 A 
ATOM     30  C   UNL A   1      42.630  28.331  29.384  1.00  0.00     0.049 A 
ATOM     31  N   UNL A   1      42.097  25.157  29.143  1.00  0.00    -0.248 NA
ATOM     32  C   UNL A   1      40.856  25.691  27.301  1.00  0.00     0.031 C 
ATOM     33  C   UNL A   1      44.055  28.153  29.539  1.00  0.00     0.029 A 
ATOM     34  N   UNL A   1      42.403  29.585  29.989  1.00  0.00    -0.354 N 
ATOM     35  C   UNL A   1      42.151  24.096  28.249  1.00  0.00     0.074 A 
ATOM     36  C   UNL A   1      41.154  24.387  27.255  1.00  0.00     0.031 C 
ATOM     37  C   UNL A   1      44.491  29.038  30.465  1.00  0.00     0.029 A 
ATOM     38  C   UNL A   1      43.326  29.747  31.003  1.00  0.00     0.049 A 
ATOM     39  H   UNL A   1      41.708  30.233  29.733  1.00  0.00     0.167 HD
ATOM     40  C   UNL A   1      43.260  23.296  28.229  1.00  0.00     0.037 A 
ATOM     41  C   UNL A   1      42.826  29.662  32.274  1.00  0.00     0.037 A 
ATOM     42  C   UNL A   1      44.232  23.851  29.168  1.00  0.00     0.049 A 
ATOM     43  C   UNL A   1      43.293  28.364  32.873  1.00  0.00     0.074 A 
ATOM     44  C   UNL A   1      45.253  24.762  28.952  1.00  0.00     0.029 A 
ATOM     45  N   UNL A   1      43.961  23.867  30.528  1.00  0.00    -0.354 N 
ATOM     46  N   UNL A   1      43.385  27.235  32.218  1.00  0.00    -0.248 NA
ATOM     47  C   UNL A   1      43.873  28.314  34.207  1.00  0.00     0.031 C 
ATOM     48  C   UNL A   1      45.541  25.386  30.191  1.00  0.00     0.029 A 
ATOM     49  C   UNL A   1      44.662  24.890  31.140  1.00  0.00     0.049 A 
ATOM     50  H   UNL A   1      43.357  23.240  30.991  1.00  0.00     0.167 HD
ATOM     51  C   UNL A   1      44.109  26.355  32.979  1.00  0.00     0.074 A 
ATOM     52  C   UNL A   1      44.370  27.069  34.220  1.00  0.00     0.031 C 
ATOM     53  C   UNL A   1      44.527  25.124  32.562  1.00  0.00     0.037 A 
BRANCH  40  54
ATOM     54  C   UNL A   1      43.658  22.330  27.121  1.00  0.00     0.058 A 
ATOM     55  C   UNL A   1      42.903  21.153  26.896  1.00  0.00     0.135 A 
ATOM     56  C   UNL A   1      44.747  22.498  26.240  1.00  0.00     0.135 A 
ATOM     57  F   UNL A   1      41.788  20.888  27.591  1.00  0.00    -0.206 F 
ATOM     58  C   UNL A   1      43.240  20.190  25.945  1.00  0.00     0.059 A 
ATOM     59  C   UNL A   1      45.121  21.530  25.291  1.00  0.00     0.059 A 
ATOM     60  F   UNL A   1      45.468  23.628  26.236  1.00  0.00    -0.206 F 
ATOM     61  C   UNL A   1      44.361  20.374  25.154  1.00  0.00     0.060 A 
BRANCH  61  62
ATOM     62  S   UNL A   1      44.762  19.107  23.935  1.00  0.00     0.124 S 
ATOM     63  O   UNL A   1      43.855  18.025  24.308  1.00  0.00    -0.237 OA
ATOM     64  O   UNL A   1      44.459  19.783  22.679  1.00  0.00    -0.237 OA
ATOM     65  O   UNL A   1      46.178  18.839  24.174  1.00  0.00    -0.744 OA
ENDBRANCH  61  62
ENDBRANCH  40  54
BRANCH  41  66
ATOM     66  C   UNL A   1      41.474  30.311  32.469  1.00  0.00     0.058 A 
ATOM     67  C   UNL A   1      40.416  29.504  32.949  1.00  0.00     0.135 A 
ATOM     68  C   UNL A   1      41.229  31.693  32.446  1.00  0.00     0.135 A 
ATOM     69  F   UNL A   1      40.557  28.167  32.990  1.00  0.00    -0.206 F 
ATOM     70  C   UNL A   1      39.236  30.030  33.474  1.00  0.00     0.059 A 
ATOM     71  C   UNL A   1      40.035  32.248  32.950  1.00  0.00     0.059 A 
ATOM     72  F   UNL A   1      42.171  32.540  32.008  1.00  0.00    -0.206 F 
ATOM     73  C   UNL A   1      39.058  31.408  33.492  1.00  0.00     0.060 A 
BRANCH  73  74
ATOM     74  S   UNL A   1      37.630  32.063  34.406  1.00  0.00     0.124 S 
ATOM     75  O   UNL A   1      36.527  31.756  33.504  1.00  0.00    -0.237 OA
ATOM     76  O   UNL A   1      37.677  31.276  35.637  1.00  0.00    -0.237 OA
ATOM     77  O   UNL A   1      37.951  33.478  34.552  1.00  0.00    -0.744 OA
ENDBRANCH  73  74
ENDBRANCH  41  66
BRANCH  53  78
ATOM     78  C   UNL A   1      44.974  24.048  33.505  1.00  0.00     0.058 A 
ATOM     79  C   UNL A   1      46.255  24.038  34.075  1.00  0.00     0.135 A 
ATOM     80  C   UNL A   1      44.064  23.080  33.993  1.00  0.00     0.135 A 
ATOM     81  F   UNL A   1      47.152  24.998  33.805  1.00  0.00    -0.206 F 
ATOM     82  C   UNL A   1      46.656  23.055  34.967  1.00  0.00     0.059 A 
ATOM     83  C   UNL A   1      44.420  22.139  34.946  1.00  0.00     0.059 A 
ATOM     84  F   UNL A   1      42.792  23.026  33.568  1.00  0.00    -0.206 F 
ATOM     85  C   UNL A   1      45.733  22.104  35.387  1.00  0.00     0.060 A 
BRANCH  85  86
ATOM     86  S   UNL A   1      46.265  20.822  36.526  1.00  0.00     0.124 S 
ATOM     87  O   UNL A   1      47.706  20.819  36.291  1.00  0.00    -0.237 OA
ATOM     88  O   UNL A   1      45.836  21.347  37.819  1.00  0.00    -0.237 OA
ATOM     89  O   UNL A   1      45.545  19.641  36.065  1.00  0.00    -0.744 OA
ENDBRANCH  85  86
ENDBRANCH  53  78
ENDBRANCH  27  28
ENDBRANCH  20  22
ENDBRANCH  19  20
ENDBRANCH   1  19
TORSDOF 15
ENDMDL
