MODEL 1
REMARK VINA RESULT:     -10.8      0.000      0.000
REMARK SMILES C[C@@H](Oc1cncc(C(=O)OCCOC(=O)c2ccc(-c3c4nc(c(-c5c(F)cc(S(=O)(=O)[O-])cc5F)c5ccc([nH]5)c(-c5c(F)cc(S(=O)(=O)[O-])cc5F)c5nc(c(-c6c(F)cc(S(=O)(=O)[O-])cc6F)c6ccc3[nH]6)C=C5)C=C4)cc2)n1)C(F)(F)F
REMARK SMILES IDX 12 1 11 2 9 3 10 4 8 5 4 6 5 7 83 8 6 9 7 10 3 11 2 12 1 13
REMARK SMILES IDX 84 14 85 15 86 16 87 17 13 18 14 19 15 20 16 21 17 22 18 23
REMARK SMILES IDX 82 24 19 25 81 26 20 27 21 28 22 29 75 30 23 31 80 32 74 33
REMARK SMILES IDX 76 34 24 35 79 36 73 37 72 38 25 40 59 41 38 42 58 43 39 44
REMARK SMILES IDX 42 45 57 46 77 47 40 48 41 49 56 51 78 52 43 53 26 54 27 55
REMARK SMILES IDX 36 56 28 57 29 58 35 59 37 60 30 61 31 62 32 63 33 64 34 65
REMARK SMILES IDX 60 66 61 67 70 68 62 69 63 70 69 71 71 72 64 73 65 74 66 75
REMARK SMILES IDX 67 76 68 77 44 78 45 79 54 80 46 81 47 82 53 83 55 84 48 85
REMARK SMILES IDX 49 86 50 87 51 88 52 89
REMARK H PARENT 76 39 42 50
REMARK Flexibility Score: inf
ROOT
ATOM      1  C   UNL A   1      40.485  20.876  26.158  1.00  0.00     0.275 C 
ENDROOT
BRANCH   1   2
ATOM      2  O   UNL A   1      41.845  20.595  26.554  1.00  0.00    -0.457 OA
BRANCH   2   3
ATOM      3  C   UNL A   1      42.421  19.553  25.898  1.00  0.00     0.358 C 
ATOM      4  O   UNL A   1      41.894  18.475  25.678  1.00  0.00    -0.244 OA
BRANCH   3   5
ATOM      5  C   UNL A   1      43.776  19.866  25.384  1.00  0.00     0.170 A 
ATOM      6  C   UNL A   1      45.635  21.183  25.253  1.00  0.00     0.233 A 
ATOM      7  C   UNL A   1      46.360  20.105  24.750  1.00  0.00     0.179 A 
ATOM      8  N   UNL A   1      44.324  21.100  25.580  1.00  0.00    -0.203 NA
ATOM      9  N   UNL A   1      45.805  18.905  24.499  1.00  0.00    -0.257 NA
ATOM     10  C   UNL A   1      44.506  18.804  24.857  1.00  0.00     0.147 A 
BRANCH   6  11
ATOM     11  O   UNL A   1      46.300  22.310  25.664  1.00  0.00    -0.464 OA
BRANCH  11  12
ATOM     12  C   UNL A   1      45.421  23.410  25.973  1.00  0.00     0.277 C 
ATOM     13  C   UNL A   1      45.641  24.572  24.999  1.00  0.00     0.063 C 
BRANCH  12  14
ATOM     14  C   UNL A   1      45.739  23.890  27.393  1.00  0.00     0.425 C 
ATOM     15  F   UNL A   1      45.276  23.011  28.316  1.00  0.00    -0.167 F 
ATOM     16  F   UNL A   1      47.068  24.015  27.598  1.00  0.00    -0.167 F 
ATOM     17  F   UNL A   1      45.165  25.087  27.658  1.00  0.00    -0.167 F 
ENDBRANCH  12  14
ENDBRANCH  11  12
ENDBRANCH   6  11
ENDBRANCH   3   5
ENDBRANCH   2   3
ENDBRANCH   1   2
BRANCH   1  18
ATOM     18  C   UNL A   1      40.048  22.286  26.558  1.00  0.00     0.275 C 
BRANCH  18  19
ATOM     19  O   UNL A   1      41.103  22.968  27.261  1.00  0.00    -0.458 OA
BRANCH  19  20
ATOM     20  C   UNL A   1      41.575  24.086  26.666  1.00  0.00     0.338 C 
ATOM     21  O   UNL A   1      42.166  24.159  25.597  1.00  0.00    -0.246 OA
BRANCH  20  22
ATOM     22  C   UNL A   1      41.251  25.282  27.464  1.00  0.00     0.060 A 
ATOM     23  C   UNL A   1      42.126  26.362  27.469  1.00  0.00     0.016 A 
ATOM     24  C   UNL A   1      40.173  25.261  28.349  1.00  0.00     0.016 A 
ATOM     25  C   UNL A   1      42.017  27.348  28.451  1.00  0.00     0.010 A 
ATOM     26  C   UNL A   1      39.989  26.321  29.246  1.00  0.00     0.010 A 
ATOM     27  C   UNL A   1      40.941  27.354  29.351  1.00  0.00    -0.014 A 
BRANCH  27  28
ATOM     28  C   UNL A   1      40.835  28.399  30.419  1.00  0.00     0.031 A 
ATOM     29  C   UNL A   1      41.803  28.408  31.582  1.00  0.00     0.074 A 
ATOM     30  C   UNL A   1      39.889  29.361  30.357  1.00  0.00     0.049 A 
ATOM     31  N   UNL A   1      41.752  29.092  32.698  1.00  0.00    -0.248 NA
ATOM     32  C   UNL A   1      42.969  27.516  31.488  1.00  0.00     0.031 C 
ATOM     33  C   UNL A   1      38.901  29.517  29.288  1.00  0.00     0.029 A 
ATOM     34  N   UNL A   1      39.610  30.403  31.210  1.00  0.00    -0.354 N 
ATOM     35  C   UNL A   1      42.828  28.658  33.466  1.00  0.00     0.074 A 
ATOM     36  C   UNL A   1      43.522  27.656  32.685  1.00  0.00     0.031 C 
ATOM     37  C   UNL A   1      38.171  30.618  29.514  1.00  0.00     0.029 A 
ATOM     38  C   UNL A   1      38.563  31.192  30.796  1.00  0.00     0.049 A 
ATOM     39  H   UNL A   1      40.114  30.569  32.039  1.00  0.00     0.167 HD
ATOM     40  C   UNL A   1      43.203  29.054  34.707  1.00  0.00     0.037 A 
ATOM     41  C   UNL A   1      37.946  32.232  31.393  1.00  0.00     0.037 A 
ATOM     42  C   UNL A   1      42.566  30.111  35.451  1.00  0.00     0.049 A 
ATOM     43  C   UNL A   1      38.386  32.666  32.760  1.00  0.00     0.074 A 
ATOM     44  C   UNL A   1      42.884  30.593  36.709  1.00  0.00     0.029 A 
ATOM     45  N   UNL A   1      41.500  30.871  34.993  1.00  0.00    -0.354 N 
ATOM     46  N   UNL A   1      39.348  32.181  33.507  1.00  0.00    -0.248 NA
ATOM     47  C   UNL A   1      37.636  33.768  33.380  1.00  0.00     0.031 C 
ATOM     48  C   UNL A   1      41.997  31.631  37.021  1.00  0.00     0.029 A 
ATOM     49  C   UNL A   1      41.149  31.816  35.943  1.00  0.00     0.049 A 
ATOM     50  H   UNL A   1      41.058  30.756  34.120  1.00  0.00     0.167 HD
ATOM     51  C   UNL A   1      39.320  32.917  34.685  1.00  0.00     0.074 A 
ATOM     52  C   UNL A   1      38.261  33.897  34.543  1.00  0.00     0.031 C 
ATOM     53  C   UNL A   1      40.093  32.785  35.790  1.00  0.00     0.037 A 
BRANCH  40  54
ATOM     54  C   UNL A   1      44.339  28.319  35.364  1.00  0.00     0.058 A 
ATOM     55  C   UNL A   1      45.672  28.742  35.248  1.00  0.00     0.135 A 
ATOM     56  C   UNL A   1      44.080  27.188  36.159  1.00  0.00     0.135 A 
ATOM     57  F   UNL A   1      45.978  29.807  34.489  1.00  0.00    -0.206 F 
ATOM     58  C   UNL A   1      46.711  28.057  35.873  1.00  0.00     0.059 A 
ATOM     59  C   UNL A   1      45.099  26.502  36.812  1.00  0.00     0.059 A 
ATOM     60  F   UNL A   1      42.823  26.742  36.308  1.00  0.00    -0.206 F 
ATOM     61  C   UNL A   1      46.414  26.935  36.650  1.00  0.00     0.060 A 
BRANCH  61  62
ATOM     62  S   UNL A   1      47.768  26.053  37.455  1.00  0.00     0.124 S 
ATOM     63  O   UNL A   1      47.675  24.741  36.825  1.00  0.00    -0.237 OA
ATOM     64  O   UNL A   1      48.931  26.852  37.084  1.00  0.00    -0.237 OA
ATOM     65  O   UNL A   1      47.409  26.097  38.870  1.00  0.00    -0.744 OA
ENDBRANCH  61  62
ENDBRANCH  40  54
BRANCH  41  66
ATOM     66  C   UNL A   1      36.807  32.902  30.708  1.00  0.00     0.058 A 
ATOM     67  C   UNL A   1      35.481  32.599  31.047  1.00  0.00     0.135 A 
ATOM     68  C   UNL A   1      37.026  33.884  29.729  1.00  0.00     0.135 A 
ATOM     69  F   UNL A   1      35.222  31.656  31.966  1.00  0.00    -0.206 F 
ATOM     70  C   UNL A   1      34.409  33.248  30.442  1.00  0.00     0.059 A 
ATOM     71  C   UNL A   1      35.972  34.566  29.130  1.00  0.00     0.059 A 
ATOM     72  F   UNL A   1      38.277  34.217  29.378  1.00  0.00    -0.206 F 
ATOM     73  C   UNL A   1      34.666  34.235  29.488  1.00  0.00     0.060 A 
BRANCH  73  74
ATOM     74  S   UNL A   1      33.278  35.135  28.763  1.00  0.00     0.124 S 
ATOM     75  O   UNL A   1      32.663  34.104  27.935  1.00  0.00    -0.237 OA
ATOM     76  O   UNL A   1      32.520  35.542  29.943  1.00  0.00    -0.237 OA
ATOM     77  O   UNL A   1      33.929  36.224  28.042  1.00  0.00    -0.744 OA
ENDBRANCH  73  74
ENDBRANCH  41  66
BRANCH  53  78
ATOM     78  C   UNL A   1      39.836  33.735  36.923  1.00  0.00     0.058 A 
ATOM     79  C   UNL A   1      38.957  33.407  37.968  1.00  0.00     0.135 A 
ATOM     80  C   UNL A   1      40.497  34.971  36.982  1.00  0.00     0.135 A 
ATOM     81  F   UNL A   1      38.296  32.238  37.952  1.00  0.00    -0.206 F 
ATOM     82  C   UNL A   1      38.724  34.284  39.021  1.00  0.00     0.059 A 
ATOM     83  C   UNL A   1      40.294  35.856  38.036  1.00  0.00     0.059 A 
ATOM     84  F   UNL A   1      41.352  35.327  36.011  1.00  0.00    -0.206 F 
ATOM     85  C   UNL A   1      39.395  35.507  39.045  1.00  0.00     0.060 A 
BRANCH  85  86
ATOM     86  S   UNL A   1      39.104  36.632  40.428  1.00  0.00     0.124 S 
ATOM     87  O   UNL A   1      38.540  37.793  39.749  1.00  0.00    -0.237 OA
ATOM     88  O   UNL A   1      38.176  35.873  41.262  1.00  0.00    -0.237 OA
ATOM     89  O   UNL A   1      40.436  36.820  40.996  1.00  0.00    -0.744 OA
ENDBRANCH  85  86
ENDBRANCH  53  78
ENDBRANCH  27  28
ENDBRANCH  20  22
ENDBRANCH  19  20
ENDBRANCH  18  19
ENDBRANCH   1  18
TORSDOF 17
ENDMDL
MODEL 2
REMARK VINA RESULT:     -10.7      3.194     12.348
REMARK SMILES C[C@@H](Oc1cncc(C(=O)OCCOC(=O)c2ccc(-c3c4nc(c(-c5c(F)cc(S(=O)(=O)[O-])cc5F)c5ccc([nH]5)c(-c5c(F)cc(S(=O)(=O)[O-])cc5F)c5nc(c(-c6c(F)cc(S(=O)(=O)[O-])cc6F)c6ccc3[nH]6)C=C5)C=C4)cc2)n1)C(F)(F)F
REMARK SMILES IDX 12 1 11 2 9 3 10 4 8 5 4 6 5 7 83 8 6 9 7 10 3 11 2 12 1 13
REMARK SMILES IDX 84 14 85 15 86 16 87 17 13 18 14 19 15 20 16 21 17 22 18 23
REMARK SMILES IDX 82 24 19 25 81 26 20 27 21 28 22 29 75 30 23 31 80 32 74 33
REMARK SMILES IDX 76 34 24 35 79 36 73 37 72 38 25 40 59 41 38 42 58 43 39 44
REMARK SMILES IDX 42 45 57 46 77 47 40 48 41 49 56 51 78 52 43 53 26 54 27 55
REMARK SMILES IDX 36 56 28 57 29 58 35 59 37 60 30 61 31 62 32 63 33 64 34 65
REMARK SMILES IDX 60 66 61 67 70 68 62 69 63 70 69 71 71 72 64 73 65 74 66 75
REMARK SMILES IDX 67 76 68 77 44 78 45 79 54 80 46 81 47 82 53 83 55 84 48 85
REMARK SMILES IDX 49 86 50 87 51 88 52 89
REMARK H PARENT 76 39 42 50
REMARK Flexibility Score: inf
ROOT
ATOM      1  C   UNL A   1      33.390  34.300  28.018  1.00  0.00     0.275 C 
ENDROOT
BRANCH   1   2
ATOM      2  O   UNL A   1      32.552  34.895  29.032  1.00  0.00    -0.457 OA
BRANCH   2   3
ATOM      3  C   UNL A   1      33.000  36.087  29.506  1.00  0.00     0.358 C 
ATOM      4  O   UNL A   1      33.149  37.103  28.845  1.00  0.00    -0.244 OA
BRANCH   3   5
ATOM      5  C   UNL A   1      33.235  36.081  30.970  1.00  0.00     0.170 A 
ATOM      6  C   UNL A   1      33.854  35.059  32.915  1.00  0.00     0.233 A 
ATOM      7  C   UNL A   1      34.041  36.307  33.507  1.00  0.00     0.179 A 
ATOM      8  N   UNL A   1      33.442  34.907  31.634  1.00  0.00    -0.203 NA
ATOM      9  N   UNL A   1      33.778  37.464  32.872  1.00  0.00    -0.257 NA
ATOM     10  C   UNL A   1      33.401  37.321  31.582  1.00  0.00     0.147 A 
BRANCH   6  11
ATOM     11  O   UNL A   1      34.322  33.936  33.546  1.00  0.00    -0.464 OA
BRANCH  11  12
ATOM     12  C   UNL A   1      35.638  33.541  33.107  1.00  0.00     0.277 C 
ATOM     13  C   UNL A   1      35.591  32.181  32.401  1.00  0.00     0.063 C 
BRANCH  12  14
ATOM     14  C   UNL A   1      36.537  33.425  34.341  1.00  0.00     0.425 C 
ATOM     15  F   UNL A   1      37.669  34.155  34.186  1.00  0.00    -0.167 F 
ATOM     16  F   UNL A   1      35.925  33.877  35.458  1.00  0.00    -0.167 F 
ATOM     17  F   UNL A   1      36.917  32.145  34.567  1.00  0.00    -0.167 F 
ENDBRANCH  12  14
ENDBRANCH  11  12
ENDBRANCH   6  11
ENDBRANCH   3   5
ENDBRANCH   2   3
ENDBRANCH   1   2
BRANCH   1  18
ATOM     18  C   UNL A   1      34.242  33.156  28.572  1.00  0.00     0.275 C 
BRANCH  18  19
ATOM     19  O   UNL A   1      34.753  32.337  27.503  1.00  0.00    -0.458 OA
BRANCH  19  20
ATOM     20  C   UNL A   1      34.531  31.009  27.628  1.00  0.00     0.338 C 
ATOM     21  O   UNL A   1      33.499  30.407  27.371  1.00  0.00    -0.246 OA
BRANCH  20  22
ATOM     22  C   UNL A   1      35.746  30.316  28.094  1.00  0.00     0.060 A 
ATOM     23  C   UNL A   1      35.747  29.695  29.338  1.00  0.00     0.016 A 
ATOM     24  C   UNL A   1      36.938  30.437  27.381  1.00  0.00     0.016 A 
ATOM     25  C   UNL A   1      36.953  29.329  29.937  1.00  0.00     0.010 A 
ATOM     26  C   UNL A   1      38.130  29.946  27.929  1.00  0.00     0.010 A 
ATOM     27  C   UNL A   1      38.167  29.435  29.240  1.00  0.00    -0.014 A 
BRANCH  27  28
ATOM     28  C   UNL A   1      39.464  29.063  29.890  1.00  0.00     0.031 A 
ATOM     29  C   UNL A   1      39.926  29.774  31.143  1.00  0.00     0.074 A 
ATOM     30  C   UNL A   1      40.235  28.076  29.385  1.00  0.00     0.049 A 
ATOM     31  N   UNL A   1      41.097  29.740  31.731  1.00  0.00    -0.248 NA
ATOM     32  C   UNL A   1      38.954  30.653  31.810  1.00  0.00     0.031 C 
ATOM     33  C   UNL A   1      39.920  27.268  28.205  1.00  0.00     0.029 A 
ATOM     34  N   UNL A   1      41.444  27.574  29.807  1.00  0.00    -0.354 N 
ATOM     35  C   UNL A   1      41.025  30.649  32.784  1.00  0.00     0.074 A 
ATOM     36  C   UNL A   1      39.692  31.211  32.760  1.00  0.00     0.031 C 
ATOM     37  C   UNL A   1      40.869  26.337  28.037  1.00  0.00     0.029 A 
ATOM     38  C   UNL A   1      41.918  26.545  29.029  1.00  0.00     0.049 A 
ATOM     39  H   UNL A   1      41.923  27.918  30.595  1.00  0.00     0.167 HD
ATOM     40  C   UNL A   1      41.981  30.985  33.685  1.00  0.00     0.037 A 
ATOM     41  C   UNL A   1      43.083  25.868  29.067  1.00  0.00     0.037 A 
ATOM     42  C   UNL A   1      43.279  30.364  33.763  1.00  0.00     0.049 A 
ATOM     43  C   UNL A   1      44.123  26.243  30.083  1.00  0.00     0.074 A 
ATOM     44  C   UNL A   1      44.308  30.627  34.651  1.00  0.00     0.029 A 
ATOM     45  N   UNL A   1      43.716  29.335  32.943  1.00  0.00    -0.354 N 
ATOM     46  N   UNL A   1      44.069  27.167  31.011  1.00  0.00    -0.248 NA
ATOM     47  C   UNL A   1      45.394  25.507  30.036  1.00  0.00     0.031 C 
ATOM     48  C   UNL A   1      45.376  29.772  34.355  1.00  0.00     0.029 A 
ATOM     49  C   UNL A   1      44.998  28.954  33.303  1.00  0.00     0.049 A 
ATOM     50  H   UNL A   1      43.192  28.934  32.212  1.00  0.00     0.167 HD
ATOM     51  C   UNL A   1      45.297  27.124  31.659  1.00  0.00     0.074 A 
ATOM     52  C   UNL A   1      46.066  26.067  31.033  1.00  0.00     0.031 C 
ATOM     53  C   UNL A   1      45.752  27.900  32.673  1.00  0.00     0.037 A 
BRANCH  40  54
ATOM     54  C   UNL A   1      41.676  32.102  34.645  1.00  0.00     0.058 A 
ATOM     55  C   UNL A   1      41.904  33.449  34.324  1.00  0.00     0.135 A 
ATOM     56  C   UNL A   1      41.108  31.817  35.899  1.00  0.00     0.135 A 
ATOM     57  F   UNL A   1      42.458  33.778  33.146  1.00  0.00    -0.206 F 
ATOM     58  C   UNL A   1      41.605  34.472  35.221  1.00  0.00     0.059 A 
ATOM     59  C   UNL A   1      40.779  32.823  36.801  1.00  0.00     0.059 A 
ATOM     60  F   UNL A   1      40.867  30.546  36.257  1.00  0.00    -0.206 F 
ATOM     61  C   UNL A   1      41.046  34.148  36.459  1.00  0.00     0.060 A 
BRANCH  61  62
ATOM     62  S   UNL A   1      40.663  35.481  37.615  1.00  0.00     0.124 S 
ATOM     63  O   UNL A   1      41.992  35.832  38.104  1.00  0.00    -0.237 OA
ATOM     64  O   UNL A   1      40.023  36.472  36.755  1.00  0.00    -0.237 OA
ATOM     65  O   UNL A   1      39.784  34.844  38.590  1.00  0.00    -0.744 OA
ENDBRANCH  61  62
ENDBRANCH  40  54
BRANCH  41  66
ATOM     66  C   UNL A   1      43.342  24.791  28.073  1.00  0.00     0.058 A 
ATOM     67  C   UNL A   1      43.984  25.069  26.858  1.00  0.00     0.135 A 
ATOM     68  C   UNL A   1      42.984  23.459  28.336  1.00  0.00     0.135 A 
ATOM     69  F   UNL A   1      44.332  26.329  26.556  1.00  0.00    -0.206 F 
ATOM     70  C   UNL A   1      44.266  24.064  25.938  1.00  0.00     0.059 A 
ATOM     71  C   UNL A   1      43.280  22.434  27.444  1.00  0.00     0.059 A 
ATOM     72  F   UNL A   1      42.377  23.141  29.489  1.00  0.00    -0.206 F 
ATOM     73  C   UNL A   1      43.915  22.747  26.244  1.00  0.00     0.060 A 
BRANCH  73  74
ATOM     74  S   UNL A   1      44.355  21.433  25.087  1.00  0.00     0.124 S 
ATOM     75  O   UNL A   1      44.193  22.106  23.805  1.00  0.00    -0.237 OA
ATOM     76  O   UNL A   1      45.728  21.121  25.475  1.00  0.00    -0.237 OA
ATOM     77  O   UNL A   1      43.379  20.389  25.384  1.00  0.00    -0.744 OA
ENDBRANCH  73  74
ENDBRANCH  41  66
BRANCH  53  78
ATOM     78  C   UNL A   1      47.136  27.620  33.181  1.00  0.00     0.058 A 
ATOM     79  C   UNL A   1      47.367  26.681  34.198  1.00  0.00     0.135 A 
ATOM     80  C   UNL A   1      48.247  28.274  32.625  1.00  0.00     0.135 A 
ATOM     81  F   UNL A   1      46.335  26.035  34.767  1.00  0.00    -0.206 F 
ATOM     82  C   UNL A   1      48.650  26.416  34.664  1.00  0.00     0.059 A 
ATOM     83  C   UNL A   1      49.540  28.011  33.061  1.00  0.00     0.059 A 
ATOM     84  F   UNL A   1      48.078  29.176  31.645  1.00  0.00    -0.206 F 
ATOM     85  C   UNL A   1      49.730  27.088  34.091  1.00  0.00     0.060 A 
BRANCH  85  86
ATOM     86  S   UNL A   1      51.396  26.723  34.686  1.00  0.00     0.124 S 
ATOM     87  O   UNL A   1      51.173  25.501  35.450  1.00  0.00    -0.237 OA
ATOM     88  O   UNL A   1      52.148  26.566  33.444  1.00  0.00    -0.237 OA
ATOM     89  O   UNL A   1      51.740  27.905  35.472  1.00  0.00    -0.744 OA
ENDBRANCH  85  86
ENDBRANCH  53  78
ENDBRANCH  27  28
ENDBRANCH  20  22
ENDBRANCH  19  20
ENDBRANCH  18  19
ENDBRANCH   1  18
TORSDOF 17
ENDMDL
MODEL 3
REMARK VINA RESULT:     -10.6      2.185      2.984
REMARK SMILES C[C@@H](Oc1cncc(C(=O)OCCOC(=O)c2ccc(-c3c4nc(c(-c5c(F)cc(S(=O)(=O)[O-])cc5F)c5ccc([nH]5)c(-c5c(F)cc(S(=O)(=O)[O-])cc5F)c5nc(c(-c6c(F)cc(S(=O)(=O)[O-])cc6F)c6ccc3[nH]6)C=C5)C=C4)cc2)n1)C(F)(F)F
REMARK SMILES IDX 12 1 11 2 9 3 10 4 8 5 4 6 5 7 83 8 6 9 7 10 3 11 2 12 1 13
REMARK SMILES IDX 84 14 85 15 86 16 87 17 13 18 14 19 15 20 16 21 17 22 18 23
REMARK SMILES IDX 82 24 19 25 81 26 20 27 21 28 22 29 75 30 23 31 80 32 74 33
REMARK SMILES IDX 76 34 24 35 79 36 73 37 72 38 25 40 59 41 38 42 58 43 39 44
REMARK SMILES IDX 42 45 57 46 77 47 40 48 41 49 56 51 78 52 43 53 26 54 27 55
REMARK SMILES IDX 36 56 28 57 29 58 35 59 37 60 30 61 31 62 32 63 33 64 34 65
REMARK SMILES IDX 60 66 61 67 70 68 62 69 63 70 69 71 71 72 64 73 65 74 66 75
REMARK SMILES IDX 67 76 68 77 44 78 45 79 54 80 46 81 47 82 53 83 55 84 48 85
REMARK SMILES IDX 49 86 50 87 51 88 52 89
REMARK H PARENT 76 39 42 50
REMARK Flexibility Score: inf
ROOT
ATOM      1  C   UNL A   1      40.887  19.850  26.397  1.00  0.00     0.275 C 
ENDROOT
BRANCH   1   2
ATOM      2  O   UNL A   1      42.163  19.383  26.888  1.00  0.00    -0.457 OA
BRANCH   2   3
ATOM      3  C   UNL A   1      42.913  18.718  25.971  1.00  0.00     0.358 C 
ATOM      4  O   UNL A   1      42.699  17.587  25.564  1.00  0.00    -0.244 OA
BRANCH   3   5
ATOM      5  C   UNL A   1      44.021  19.536  25.421  1.00  0.00     0.170 A 
ATOM      6  C   UNL A   1      45.279  21.437  25.330  1.00  0.00     0.233 A 
ATOM      7  C   UNL A   1      46.290  20.733  24.680  1.00  0.00     0.179 A 
ATOM      8  N   UNL A   1      44.114  20.864  25.716  1.00  0.00    -0.203 NA
ATOM      9  N   UNL A   1      46.173  19.438  24.334  1.00  0.00    -0.257 NA
ATOM     10  C   UNL A   1      45.029  18.850  24.748  1.00  0.00     0.147 A 
BRANCH   6  11
ATOM     11  O   UNL A   1      45.538  22.691  25.822  1.00  0.00    -0.464 OA
BRANCH  11  12
ATOM     12  C   UNL A   1      45.237  23.744  24.885  1.00  0.00     0.277 C 
ATOM     13  C   UNL A   1      46.277  24.867  24.976  1.00  0.00     0.063 C 
BRANCH  12  14
ATOM     14  C   UNL A   1      43.861  24.317  25.238  1.00  0.00     0.425 C 
ATOM     15  F   UNL A   1      43.756  25.607  24.835  1.00  0.00    -0.167 F 
ATOM     16  F   UNL A   1      42.860  23.633  24.641  1.00  0.00    -0.167 F 
ATOM     17  F   UNL A   1      43.637  24.297  26.573  1.00  0.00    -0.167 F 
ENDBRANCH  12  14
ENDBRANCH  11  12
ENDBRANCH   6  11
ENDBRANCH   3   5
ENDBRANCH   2   3
ENDBRANCH   1   2
BRANCH   1  18
ATOM     18  C   UNL A   1      40.448  21.149  27.076  1.00  0.00     0.275 C 
BRANCH  18  19
ATOM     19  O   UNL A   1      40.502  22.251  26.152  1.00  0.00    -0.458 OA
BRANCH  19  20
ATOM     20  C   UNL A   1      39.355  22.953  26.011  1.00  0.00     0.338 C 
ATOM     21  O   UNL A   1      38.347  22.604  25.413  1.00  0.00    -0.246 OA
BRANCH  20  22
ATOM     22  C   UNL A   1      39.435  24.239  26.727  1.00  0.00     0.060 A 
ATOM     23  C   UNL A   1      40.244  25.253  26.228  1.00  0.00     0.016 A 
ATOM     24  C   UNL A   1      38.854  24.375  27.987  1.00  0.00     0.016 A 
ATOM     25  C   UNL A   1      40.594  26.333  27.039  1.00  0.00     0.010 A 
ATOM     26  C   UNL A   1      39.101  25.526  28.747  1.00  0.00     0.010 A 
ATOM     27  C   UNL A   1      40.021  26.497  28.309  1.00  0.00    -0.014 A 
BRANCH  27  28
ATOM     28  C   UNL A   1      40.413  27.645  29.190  1.00  0.00     0.031 A 
ATOM     29  C   UNL A   1      41.735  27.630  29.925  1.00  0.00     0.074 A 
ATOM     30  C   UNL A   1      39.607  28.719  29.329  1.00  0.00     0.049 A 
ATOM     31  N   UNL A   1      42.160  28.419  30.881  1.00  0.00    -0.248 NA
ATOM     32  C   UNL A   1      42.695  26.579  29.554  1.00  0.00     0.031 C 
ATOM     33  C   UNL A   1      38.316  28.908  28.664  1.00  0.00     0.029 A 
ATOM     34  N   UNL A   1      39.759  29.867  30.071  1.00  0.00    -0.354 N 
ATOM     35  C   UNL A   1      43.396  27.914  31.276  1.00  0.00     0.074 A 
ATOM     36  C   UNL A   1      43.657  26.756  30.449  1.00  0.00     0.031 C 
ATOM     37  C   UNL A   1      37.828  30.117  28.975  1.00  0.00     0.029 A 
ATOM     38  C   UNL A   1      38.713  30.751  29.945  1.00  0.00     0.049 A 
ATOM     39  H   UNL A   1      40.545  30.040  30.639  1.00  0.00     0.167 HD
ATOM     40  C   UNL A   1      44.234  28.371  32.239  1.00  0.00     0.037 A 
ATOM     41  C   UNL A   1      38.459  31.919  30.568  1.00  0.00     0.037 A 
ATOM     42  C   UNL A   1      44.016  29.573  33.003  1.00  0.00     0.049 A 
ATOM     43  C   UNL A   1      39.408  32.417  31.619  1.00  0.00     0.074 A 
ATOM     44  C   UNL A   1      44.817  30.125  33.989  1.00  0.00     0.029 A 
ATOM     45  N   UNL A   1      42.935  30.427  32.846  1.00  0.00    -0.354 N 
ATOM     46  N   UNL A   1      40.525  31.877  32.041  1.00  0.00    -0.248 NA
ATOM     47  C   UNL A   1      39.045  33.667  32.302  1.00  0.00     0.031 C 
ATOM     48  C   UNL A   1      44.209  31.301  34.443  1.00  0.00     0.029 A 
ATOM     49  C   UNL A   1      43.047  31.499  33.717  1.00  0.00     0.049 A 
ATOM     50  H   UNL A   1      42.196  30.292  32.209  1.00  0.00     0.167 HD
ATOM     51  C   UNL A   1      40.999  32.719  33.039  1.00  0.00     0.074 A 
ATOM     52  C   UNL A   1      40.061  33.818  33.142  1.00  0.00     0.031 C 
ATOM     53  C   UNL A   1      42.107  32.586  33.810  1.00  0.00     0.037 A 
BRANCH  40  54
ATOM     54  C   UNL A   1      45.456  27.551  32.551  1.00  0.00     0.058 A 
ATOM     55  C   UNL A   1      46.673  27.734  31.878  1.00  0.00     0.135 A 
ATOM     56  C   UNL A   1      45.414  26.588  33.575  1.00  0.00     0.135 A 
ATOM     57  F   UNL A   1      46.766  28.630  30.881  1.00  0.00    -0.206 F 
ATOM     58  C   UNL A   1      47.798  26.975  32.188  1.00  0.00     0.059 A 
ATOM     59  C   UNL A   1      46.532  25.834  33.918  1.00  0.00     0.059 A 
ATOM     60  F   UNL A   1      44.276  26.374  34.253  1.00  0.00    -0.206 F 
ATOM     61  C   UNL A   1      47.716  26.024  33.208  1.00  0.00     0.060 A 
BRANCH  61  62
ATOM     62  S   UNL A   1      49.180  25.044  33.602  1.00  0.00     0.124 S 
ATOM     63  O   UNL A   1      48.580  23.782  34.021  1.00  0.00    -0.237 OA
ATOM     64  O   UNL A   1      49.893  25.014  32.329  1.00  0.00    -0.237 OA
ATOM     65  O   UNL A   1      49.829  25.812  34.660  1.00  0.00    -0.744 OA
ENDBRANCH  61  62
ENDBRANCH  40  54
BRANCH  41  66
ATOM     66  C   UNL A   1      37.219  32.673  30.240  1.00  0.00     0.058 A 
ATOM     67  C   UNL A   1      37.211  33.643  29.227  1.00  0.00     0.135 A 
ATOM     68  C   UNL A   1      36.013  32.413  30.910  1.00  0.00     0.135 A 
ATOM     69  F   UNL A   1      38.343  33.937  28.570  1.00  0.00    -0.206 F 
ATOM     70  C   UNL A   1      36.048  34.327  28.886  1.00  0.00     0.059 A 
ATOM     71  C   UNL A   1      34.833  33.064  30.567  1.00  0.00     0.059 A 
ATOM     72  F   UNL A   1      35.969  31.487  31.879  1.00  0.00    -0.206 F 
ATOM     73  C   UNL A   1      34.862  34.024  29.558  1.00  0.00     0.060 A 
BRANCH  73  74
ATOM     74  S   UNL A   1      33.336  34.853  29.058  1.00  0.00     0.124 S 
ATOM     75  O   UNL A   1      33.848  36.106  28.519  1.00  0.00    -0.237 OA
ATOM     76  O   UNL A   1      32.779  33.919  28.084  1.00  0.00    -0.237 OA
ATOM     77  O   UNL A   1      32.591  34.957  30.309  1.00  0.00    -0.744 OA
ENDBRANCH  73  74
ENDBRANCH  41  66
BRANCH  53  78
ATOM     78  C   UNL A   1      42.373  33.667  34.816  1.00  0.00     0.058 A 
ATOM     79  C   UNL A   1      43.068  34.836  34.469  1.00  0.00     0.135 A 
ATOM     80  C   UNL A   1      41.902  33.548  36.133  1.00  0.00     0.135 A 
ATOM     81  F   UNL A   1      43.545  34.993  33.224  1.00  0.00    -0.206 F 
ATOM     82  C   UNL A   1      43.309  35.840  35.401  1.00  0.00     0.059 A 
ATOM     83  C   UNL A   1      42.113  34.548  37.076  1.00  0.00     0.059 A 
ATOM     84  F   UNL A   1      41.225  32.452  36.511  1.00  0.00    -0.206 F 
ATOM     85  C   UNL A   1      42.830  35.686  36.702  1.00  0.00     0.060 A 
BRANCH  85  86
ATOM     86  S   UNL A   1      43.127  37.004  37.900  1.00  0.00     0.124 S 
ATOM     87  O   UNL A   1      41.777  37.266  38.389  1.00  0.00    -0.237 OA
ATOM     88  O   UNL A   1      44.033  36.368  38.852  1.00  0.00    -0.237 OA
ATOM     89  O   UNL A   1      43.722  38.066  37.093  1.00  0.00    -0.744 OA
ENDBRANCH  85  86
ENDBRANCH  53  78
ENDBRANCH  27  28
ENDBRANCH  20  22
ENDBRANCH  19  20
ENDBRANCH  18  19
ENDBRANCH   1  18
TORSDOF 17
ENDMDL
