MODEL 1
REMARK VINA RESULT:     -11.7      0.000      0.000
REMARK SMILES CCn1nc(C)c(Br)c1C[C@H](C(=O)OCCOC(=O)c1ccc(-c2c3nc(c(-c4c(F)cc(S(=O)(=O)[O-])cc4F)c4ccc([nH]4)c(-c4c(F)cc(S(=O)(=O)[O-])cc4F)c4nc(c(-c5c(F)cc(S(=O)(=O)[O-])cc5F)c5ccc2[nH]5)C=C4)C=C3)cc1)c1ccc(F)cc1
REMARK SMILES IDX 15 1 14 2 12 3 13 4 11 5 10 6 9 7 3 8 4 9 5 10 7 11 6 12
REMARK SMILES IDX 8 13 2 14 1 15 86 16 87 17 92 18 88 19 91 20 89 21 90 22
REMARK SMILES IDX 16 23 17 24 18 25 19 26 20 27 21 28 85 29 22 30 84 31 23 32
REMARK SMILES IDX 24 33 25 34 78 35 26 36 83 37 77 38 79 39 27 40 82 41 76 42
REMARK SMILES IDX 75 43 28 45 62 46 41 47 61 48 42 49 45 50 60 51 80 52 43 53
REMARK SMILES IDX 44 54 59 56 81 57 46 58 29 59 30 60 39 61 31 62 32 63 38 64
REMARK SMILES IDX 40 65 33 66 34 67 35 68 36 69 37 70 63 71 64 72 73 73 65 74
REMARK SMILES IDX 66 75 72 76 74 77 67 78 68 79 69 80 70 81 71 82 47 83 48 84
REMARK SMILES IDX 57 85 49 86 50 87 56 88 58 89 51 90 52 91 53 92 54 93 55 94
REMARK H PARENT 79 44 45 55
REMARK Flexibility Score: inf
ROOT
ATOM      1  C   UNL A   1      32.578  28.480  26.720  1.00  0.00     0.274 C 
ENDROOT
BRANCH   1   2
ATOM      2  O   UNL A   1      31.545  28.418  25.719  1.00  0.00    -0.462 OA
BRANCH   2   3
ATOM      3  C   UNL A   1      30.923  27.205  25.572  1.00  0.00     0.313 C 
ATOM      4  O   UNL A   1      30.603  26.478  26.506  1.00  0.00    -0.252 OA
BRANCH   3   5
ATOM      5  C   UNL A   1      30.734  26.886  24.090  1.00  0.00     0.135 C 
BRANCH   5   6
ATOM      6  C   UNL A   1      30.243  25.421  23.894  1.00  0.00     0.077 C 
BRANCH   6   7
ATOM      7  C   UNL A   1      31.356  24.417  23.801  1.00  0.00     0.054 A 
ATOM      8  N   UNL A   1      31.619  23.374  24.660  1.00  0.00    -0.268 N 
ATOM      9  N   UNL A   1      32.943  23.073  24.689  1.00  0.00    -0.177 NA
ATOM     10  C   UNL A   1      33.467  23.786  23.686  1.00  0.00     0.074 A 
ATOM     11  C   UNL A   1      32.449  24.419  22.954  1.00  0.00     0.062 A 
ATOM     12  C   UNL A   1      34.937  23.901  23.527  1.00  0.00     0.070 C 
ATOM     13  Br  UNL A   1      32.695  25.335  21.340  1.00  0.00    -0.047 Br
BRANCH   8  14
ATOM     14  C   UNL A   1      30.777  22.570  25.526  1.00  0.00     0.141 C 
ATOM     15  C   UNL A   1      30.484  23.049  26.934  1.00  0.00     0.029 C 
ENDBRANCH   8  14
ENDBRANCH   6   7
ENDBRANCH   5   6
BRANCH   5  16
ATOM     16  C   UNL A   1      29.924  27.946  23.335  1.00  0.00    -0.033 A 
ATOM     17  C   UNL A   1      28.517  27.931  23.412  1.00  0.00     0.007 A 
ATOM     18  C   UNL A   1      30.525  28.924  22.526  1.00  0.00     0.007 A 
ATOM     19  C   UNL A   1      27.746  28.879  22.731  1.00  0.00     0.039 A 
ATOM     20  C   UNL A   1      29.757  29.891  21.871  1.00  0.00     0.039 A 
ATOM     21  C   UNL A   1      28.375  29.862  21.980  1.00  0.00     0.123 A 
ATOM     22  F   UNL A   1      27.642  30.783  21.342  1.00  0.00    -0.207 F 
ENDBRANCH   5  16
ENDBRANCH   3   5
ENDBRANCH   2   3
ENDBRANCH   1   2
BRANCH   1  23
ATOM     23  C   UNL A   1      32.892  29.910  27.143  1.00  0.00     0.275 C 
BRANCH  23  24
ATOM     24  O   UNL A   1      34.263  30.233  26.926  1.00  0.00    -0.458 OA
BRANCH  24  25
ATOM     25  C   UNL A   1      34.748  31.186  27.754  1.00  0.00     0.338 C 
ATOM     26  O   UNL A   1      34.381  32.345  27.843  1.00  0.00    -0.246 OA
BRANCH  25  27
ATOM     27  C   UNL A   1      35.890  30.655  28.497  1.00  0.00     0.060 A 
ATOM     28  C   UNL A   1      36.664  31.568  29.218  1.00  0.00     0.016 A 
ATOM     29  C   UNL A   1      36.315  29.341  28.269  1.00  0.00     0.016 A 
ATOM     30  C   UNL A   1      37.946  31.219  29.577  1.00  0.00     0.010 A 
ATOM     31  C   UNL A   1      37.595  28.991  28.631  1.00  0.00     0.010 A 
ATOM     32  C   UNL A   1      38.423  29.962  29.206  1.00  0.00    -0.014 A 
BRANCH  32  33
ATOM     33  C   UNL A   1      39.825  29.672  29.439  1.00  0.00     0.031 A 
ATOM     34  C   UNL A   1      40.219  29.544  30.864  1.00  0.00     0.074 A 
ATOM     35  C   UNL A   1      40.642  29.392  28.406  1.00  0.00     0.049 A 
ATOM     36  N   UNL A   1      41.211  30.103  31.476  1.00  0.00    -0.248 NA
ATOM     37  C   UNL A   1      39.333  28.765  31.745  1.00  0.00     0.031 C 
ATOM     38  C   UNL A   1      40.275  29.263  26.991  1.00  0.00     0.029 A 
ATOM     39  N   UNL A   1      41.945  29.005  28.422  1.00  0.00    -0.354 N 
ATOM     40  C   UNL A   1      41.187  29.599  32.773  1.00  0.00     0.074 A 
ATOM     41  C   UNL A   1      39.940  28.896  32.921  1.00  0.00     0.031 C 
ATOM     42  C   UNL A   1      41.249  28.586  26.347  1.00  0.00     0.029 A 
ATOM     43  C   UNL A   1      42.332  28.319  27.278  1.00  0.00     0.049 A 
ATOM     44  H   UNL A   1      42.555  29.191  29.172  1.00  0.00     0.167 HD
ATOM     45  C   UNL A   1      42.284  29.619  33.577  1.00  0.00     0.037 A 
ATOM     46  C   UNL A   1      43.399  27.490  27.158  1.00  0.00     0.037 A 
ATOM     47  C   UNL A   1      43.249  30.591  33.141  1.00  0.00     0.049 A 
ATOM     48  C   UNL A   1      44.342  27.822  28.259  1.00  0.00     0.074 A 
ATOM     49  C   UNL A   1      43.216  31.960  32.957  1.00  0.00     0.029 A 
ATOM     50  N   UNL A   1      44.377  30.153  32.488  1.00  0.00    -0.354 N 
ATOM     51  N   UNL A   1      45.009  28.942  28.342  1.00  0.00    -0.248 NA
ATOM     52  C   UNL A   1      44.233  27.079  29.508  1.00  0.00     0.031 C 
ATOM     53  C   UNL A   1      44.048  32.208  31.828  1.00  0.00     0.029 A 
ATOM     54  C   UNL A   1      44.565  30.982  31.411  1.00  0.00     0.049 A 
ATOM     55  H   UNL A   1      44.942  29.390  32.746  1.00  0.00     0.167 HD
ATOM     56  C   UNL A   1      45.027  29.250  29.694  1.00  0.00     0.074 A 
ATOM     57  C   UNL A   1      44.639  28.016  30.369  1.00  0.00     0.031 C 
ATOM     58  C   UNL A   1      45.075  30.545  30.130  1.00  0.00     0.037 A 
BRANCH  45  59
ATOM     59  C   UNL A   1      42.608  28.527  34.563  1.00  0.00     0.058 A 
ATOM     60  C   UNL A   1      42.787  28.844  35.923  1.00  0.00     0.135 A 
ATOM     61  C   UNL A   1      43.026  27.234  34.174  1.00  0.00     0.135 A 
ATOM     62  F   UNL A   1      42.430  30.048  36.397  1.00  0.00    -0.206 F 
ATOM     63  C   UNL A   1      43.411  27.970  36.814  1.00  0.00     0.059 A 
ATOM     64  C   UNL A   1      43.598  26.327  35.057  1.00  0.00     0.059 A 
ATOM     65  F   UNL A   1      42.998  26.826  32.899  1.00  0.00    -0.206 F 
ATOM     66  C   UNL A   1      43.835  26.723  36.363  1.00  0.00     0.060 A 
BRANCH  66  67
ATOM     67  S   UNL A   1      44.781  25.653  37.459  1.00  0.00     0.124 S 
ATOM     68  O   UNL A   1      46.142  26.115  37.205  1.00  0.00    -0.237 OA
ATOM     69  O   UNL A   1      44.226  25.987  38.767  1.00  0.00    -0.237 OA
ATOM     70  O   UNL A   1      44.466  24.314  36.975  1.00  0.00    -0.744 OA
ENDBRANCH  66  67
ENDBRANCH  45  59
BRANCH  46  71
ATOM     71  C   UNL A   1      43.485  26.238  26.355  1.00  0.00     0.058 A 
ATOM     72  C   UNL A   1      44.555  26.021  25.467  1.00  0.00     0.135 A 
ATOM     73  C   UNL A   1      42.664  25.117  26.608  1.00  0.00     0.135 A 
ATOM     74  F   UNL A   1      45.411  27.015  25.186  1.00  0.00    -0.206 F 
ATOM     75  C   UNL A   1      44.819  24.766  24.904  1.00  0.00     0.059 A 
ATOM     76  C   UNL A   1      42.889  23.867  26.036  1.00  0.00     0.059 A 
ATOM     77  F   UNL A   1      41.663  25.165  27.498  1.00  0.00    -0.206 F 
ATOM     78  C   UNL A   1      43.986  23.691  25.207  1.00  0.00     0.060 A 
BRANCH  78  79
ATOM     79  S   UNL A   1      44.416  22.031  24.636  1.00  0.00     0.124 S 
ATOM     80  O   UNL A   1      44.414  22.200  23.187  1.00  0.00    -0.237 OA
ATOM     81  O   UNL A   1      45.722  21.821  25.254  1.00  0.00    -0.237 OA
ATOM     82  O   UNL A   1      43.341  21.200  25.170  1.00  0.00    -0.744 OA
ENDBRANCH  78  79
ENDBRANCH  46  71
BRANCH  58  83
ATOM     83  C   UNL A   1      45.405  31.622  29.128  1.00  0.00     0.058 A 
ATOM     84  C   UNL A   1      46.715  32.005  28.794  1.00  0.00     0.135 A 
ATOM     85  C   UNL A   1      44.364  32.172  28.364  1.00  0.00     0.135 A 
ATOM     86  F   UNL A   1      47.772  31.439  29.390  1.00  0.00    -0.206 F 
ATOM     87  C   UNL A   1      46.978  32.931  27.785  1.00  0.00     0.059 A 
ATOM     88  C   UNL A   1      44.606  33.074  27.329  1.00  0.00     0.059 A 
ATOM     89  F   UNL A   1      43.095  31.794  28.584  1.00  0.00    -0.206 F 
ATOM     90  C   UNL A   1      45.916  33.460  27.056  1.00  0.00     0.060 A 
BRANCH  90  91
ATOM     91  S   UNL A   1      46.269  34.591  25.691  1.00  0.00     0.124 S 
ATOM     92  O   UNL A   1      45.995  35.892  26.292  1.00  0.00    -0.237 OA
ATOM     93  O   UNL A   1      47.671  34.310  25.396  1.00  0.00    -0.237 OA
ATOM     94  O   UNL A   1      45.330  34.172  24.652  1.00  0.00    -0.744 OA
ENDBRANCH  90  91
ENDBRANCH  58  83
ENDBRANCH  32  33
ENDBRANCH  25  27
ENDBRANCH  24  25
ENDBRANCH  23  24
ENDBRANCH   1  23
TORSDOF 18
ENDMDL
MODEL 2
REMARK VINA RESULT:     -11.6      3.323      9.397
REMARK SMILES CCn1nc(C)c(Br)c1C[C@H](C(=O)OCCOC(=O)c1ccc(-c2c3nc(c(-c4c(F)cc(S(=O)(=O)[O-])cc4F)c4ccc([nH]4)c(-c4c(F)cc(S(=O)(=O)[O-])cc4F)c4nc(c(-c5c(F)cc(S(=O)(=O)[O-])cc5F)c5ccc2[nH]5)C=C4)C=C3)cc1)c1ccc(F)cc1
REMARK SMILES IDX 15 1 14 2 12 3 13 4 11 5 10 6 9 7 3 8 4 9 5 10 7 11 6 12
REMARK SMILES IDX 8 13 2 14 1 15 86 16 87 17 92 18 88 19 91 20 89 21 90 22
REMARK SMILES IDX 16 23 17 24 18 25 19 26 20 27 21 28 85 29 22 30 84 31 23 32
REMARK SMILES IDX 24 33 25 34 78 35 26 36 83 37 77 38 79 39 27 40 82 41 76 42
REMARK SMILES IDX 75 43 28 45 62 46 41 47 61 48 42 49 45 50 60 51 80 52 43 53
REMARK SMILES IDX 44 54 59 56 81 57 46 58 29 59 30 60 39 61 31 62 32 63 38 64
REMARK SMILES IDX 40 65 33 66 34 67 35 68 36 69 37 70 63 71 64 72 73 73 65 74
REMARK SMILES IDX 66 75 72 76 74 77 67 78 68 79 69 80 70 81 71 82 47 83 48 84
REMARK SMILES IDX 57 85 49 86 50 87 56 88 58 89 51 90 52 91 53 92 54 93 55 94
REMARK H PARENT 79 44 45 55
REMARK Flexibility Score: inf
ROOT
ATOM      1  C   UNL A   1      36.643  22.661  24.144  1.00  0.00     0.274 C 
ENDROOT
BRANCH   1   2
ATOM      2  O   UNL A   1      35.358  22.045  23.939  1.00  0.00    -0.462 OA
BRANCH   2   3
ATOM      3  C   UNL A   1      34.500  22.072  25.008  1.00  0.00     0.313 C 
ATOM      4  O   UNL A   1      34.762  22.594  26.087  1.00  0.00    -0.252 OA
BRANCH   3   5
ATOM      5  C   UNL A   1      33.211  21.327  24.669  1.00  0.00     0.135 C 
BRANCH   5   6
ATOM      6  C   UNL A   1      32.324  22.163  23.698  1.00  0.00     0.077 C 
BRANCH   6   7
ATOM      7  C   UNL A   1      31.827  23.450  24.289  1.00  0.00     0.054 A 
ATOM      8  N   UNL A   1      30.989  23.609  25.370  1.00  0.00    -0.268 N 
ATOM      9  N   UNL A   1      30.257  24.747  25.272  1.00  0.00    -0.177 NA
ATOM     10  C   UNL A   1      30.798  25.401  24.238  1.00  0.00     0.074 A 
ATOM     11  C   UNL A   1      31.947  24.733  23.786  1.00  0.00     0.062 A 
ATOM     12  C   UNL A   1      30.133  26.599  23.669  1.00  0.00     0.070 C 
ATOM     13  Br  UNL A   1      33.147  25.397  22.511  1.00  0.00    -0.047 Br
BRANCH   8  14
ATOM     14  C   UNL A   1      30.739  22.804  26.552  1.00  0.00     0.141 C 
ATOM     15  C   UNL A   1      29.377  22.861  27.216  1.00  0.00     0.029 C 
ENDBRANCH   8  14
ENDBRANCH   6   7
ENDBRANCH   5   6
BRANCH   5  16
ATOM     16  C   UNL A   1      33.440  19.872  24.246  1.00  0.00    -0.033 A 
ATOM     17  C   UNL A   1      34.555  19.170  24.746  1.00  0.00     0.007 A 
ATOM     18  C   UNL A   1      32.601  19.206  23.337  1.00  0.00     0.007 A 
ATOM     19  C   UNL A   1      34.799  17.843  24.376  1.00  0.00     0.039 A 
ATOM     20  C   UNL A   1      32.826  17.870  22.992  1.00  0.00     0.039 A 
ATOM     21  C   UNL A   1      33.921  17.200  23.515  1.00  0.00     0.123 A 
ATOM     22  F   UNL A   1      34.140  15.924  23.173  1.00  0.00    -0.207 F 
ENDBRANCH   5  16
ENDBRANCH   3   5
ENDBRANCH   2   3
ENDBRANCH   1   2
BRANCH   1  23
ATOM     23  C   UNL A   1      37.618  21.744  24.872  1.00  0.00     0.275 C 
BRANCH  23  24
ATOM     24  O   UNL A   1      38.000  22.280  26.136  1.00  0.00    -0.458 OA
BRANCH  24  25
ATOM     25  C   UNL A   1      39.317  22.153  26.418  1.00  0.00     0.338 C 
ATOM     26  O   UNL A   1      39.945  21.119  26.567  1.00  0.00    -0.246 OA
BRANCH  25  27
ATOM     27  C   UNL A   1      39.902  23.476  26.633  1.00  0.00     0.060 A 
ATOM     28  C   UNL A   1      41.226  23.525  27.078  1.00  0.00     0.016 A 
ATOM     29  C   UNL A   1      39.078  24.607  26.634  1.00  0.00     0.016 A 
ATOM     30  C   UNL A   1      41.683  24.673  27.684  1.00  0.00     0.010 A 
ATOM     31  C   UNL A   1      39.537  25.756  27.236  1.00  0.00     0.010 A 
ATOM     32  C   UNL A   1      40.805  25.747  27.828  1.00  0.00    -0.014 A 
BRANCH  32  33
ATOM     33  C   UNL A   1      41.244  26.883  28.615  1.00  0.00     0.031 A 
ATOM     34  C   UNL A   1      42.429  27.603  28.085  1.00  0.00     0.074 A 
ATOM     35  C   UNL A   1      40.509  27.312  29.658  1.00  0.00     0.049 A 
ATOM     36  N   UNL A   1      43.499  27.959  28.715  1.00  0.00    -0.248 NA
ATOM     37  C   UNL A   1      42.464  27.878  26.639  1.00  0.00     0.031 C 
ATOM     38  C   UNL A   1      39.204  26.802  30.097  1.00  0.00     0.029 A 
ATOM     39  N   UNL A   1      40.695  28.401  30.449  1.00  0.00    -0.354 N 
ATOM     40  C   UNL A   1      44.263  28.669  27.793  1.00  0.00     0.074 A 
ATOM     41  C   UNL A   1      43.648  28.470  26.507  1.00  0.00     0.031 C 
ATOM     42  C   UNL A   1      38.615  27.727  30.882  1.00  0.00     0.029 A 
ATOM     43  C   UNL A   1      39.532  28.840  31.069  1.00  0.00     0.049 A 
ATOM     44  H   UNL A   1      41.569  28.838  30.572  1.00  0.00     0.167 HD
ATOM     45  C   UNL A   1      45.233  29.542  28.176  1.00  0.00     0.037 A 
ATOM     46  C   UNL A   1      39.307  30.076  31.579  1.00  0.00     0.037 A 
ATOM     47  C   UNL A   1      45.677  29.291  29.520  1.00  0.00     0.049 A 
ATOM     48  C   UNL A   1      40.635  30.703  31.817  1.00  0.00     0.074 A 
ATOM     49  C   UNL A   1      46.243  28.203  30.156  1.00  0.00     0.029 A 
ATOM     50  N   UNL A   1      45.252  30.131  30.522  1.00  0.00    -0.354 N 
ATOM     51  N   UNL A   1      41.485  30.300  32.723  1.00  0.00    -0.248 NA
ATOM     52  C   UNL A   1      41.208  31.525  30.759  1.00  0.00     0.031 C 
ATOM     53  C   UNL A   1      45.714  28.223  31.478  1.00  0.00     0.029 A 
ATOM     54  C   UNL A   1      44.883  29.339  31.580  1.00  0.00     0.049 A 
ATOM     55  H   UNL A   1      45.218  31.114  30.486  1.00  0.00     0.167 HD
ATOM     56  C   UNL A   1      42.733  30.447  32.134  1.00  0.00     0.074 A 
ATOM     57  C   UNL A   1      42.508  31.310  30.979  1.00  0.00     0.031 C 
ATOM     58  C   UNL A   1      43.778  29.631  32.466  1.00  0.00     0.037 A 
BRANCH  45  59
ATOM     59  C   UNL A   1      45.537  30.818  27.436  1.00  0.00     0.058 A 
ATOM     60  C   UNL A   1      46.834  31.043  26.934  1.00  0.00     0.135 A 
ATOM     61  C   UNL A   1      44.682  31.944  27.451  1.00  0.00     0.135 A 
ATOM     62  F   UNL A   1      47.729  30.044  26.882  1.00  0.00    -0.206 F 
ATOM     63  C   UNL A   1      47.273  32.311  26.552  1.00  0.00     0.059 A 
ATOM     64  C   UNL A   1      45.082  33.203  27.022  1.00  0.00     0.059 A 
ATOM     65  F   UNL A   1      43.453  31.900  27.981  1.00  0.00    -0.206 F 
ATOM     66  C   UNL A   1      46.395  33.388  26.624  1.00  0.00     0.060 A 
BRANCH  66  67
ATOM     67  S   UNL A   1      46.996  35.052  26.287  1.00  0.00     0.124 S 
ATOM     68  O   UNL A   1      47.909  34.805  25.175  1.00  0.00    -0.237 OA
ATOM     69  O   UNL A   1      45.765  35.762  25.958  1.00  0.00    -0.237 OA
ATOM     70  O   UNL A   1      47.622  35.443  27.545  1.00  0.00    -0.744 OA
ENDBRANCH  66  67
ENDBRANCH  45  59
BRANCH  46  71
ATOM     71  C   UNL A   1      38.030  30.844  31.562  1.00  0.00     0.058 A 
ATOM     72  C   UNL A   1      37.313  31.083  32.749  1.00  0.00     0.135 A 
ATOM     73  C   UNL A   1      37.599  31.572  30.430  1.00  0.00     0.135 A 
ATOM     74  F   UNL A   1      37.665  30.462  33.885  1.00  0.00    -0.206 F 
ATOM     75  C   UNL A   1      36.269  32.013  32.820  1.00  0.00     0.059 A 
ATOM     76  C   UNL A   1      36.544  32.481  30.470  1.00  0.00     0.059 A 
ATOM     77  F   UNL A   1      38.248  31.502  29.260  1.00  0.00    -0.206 F 
ATOM     78  C   UNL A   1      35.902  32.719  31.675  1.00  0.00     0.060 A 
BRANCH  78  79
ATOM     79  S   UNL A   1      34.685  34.049  31.792  1.00  0.00     0.124 S 
ATOM     80  O   UNL A   1      33.605  33.407  32.532  1.00  0.00    -0.237 OA
ATOM     81  O   UNL A   1      35.425  35.083  32.508  1.00  0.00    -0.237 OA
ATOM     82  O   UNL A   1      34.387  34.359  30.396  1.00  0.00    -0.744 OA
ENDBRANCH  78  79
ENDBRANCH  46  71
BRANCH  58  83
ATOM     83  C   UNL A   1      43.642  28.761  33.690  1.00  0.00     0.058 A 
ATOM     84  C   UNL A   1      43.953  29.189  34.992  1.00  0.00     0.135 A 
ATOM     85  C   UNL A   1      43.025  27.507  33.560  1.00  0.00     0.135 A 
ATOM     86  F   UNL A   1      44.432  30.419  35.218  1.00  0.00    -0.206 F 
ATOM     87  C   UNL A   1      43.712  28.389  36.109  1.00  0.00     0.059 A 
ATOM     88  C   UNL A   1      42.745  26.705  34.664  1.00  0.00     0.059 A 
ATOM     89  F   UNL A   1      42.637  27.070  32.351  1.00  0.00    -0.206 F 
ATOM     90  C   UNL A   1      43.106  27.147  35.936  1.00  0.00     0.060 A 
BRANCH  90  91
ATOM     91  S   UNL A   1      42.716  26.153  37.393  1.00  0.00     0.124 S 
ATOM     92  O   UNL A   1      43.601  26.726  38.401  1.00  0.00    -0.237 OA
ATOM     93  O   UNL A   1      41.290  26.407  37.582  1.00  0.00    -0.237 OA
ATOM     94  O   UNL A   1      43.043  24.792  36.973  1.00  0.00    -0.744 OA
ENDBRANCH  90  91
ENDBRANCH  58  83
ENDBRANCH  32  33
ENDBRANCH  25  27
ENDBRANCH  24  25
ENDBRANCH  23  24
ENDBRANCH   1  23
TORSDOF 18
ENDMDL
MODEL 3
REMARK VINA RESULT:     -11.1      1.564      2.100
REMARK SMILES CCn1nc(C)c(Br)c1C[C@H](C(=O)OCCOC(=O)c1ccc(-c2c3nc(c(-c4c(F)cc(S(=O)(=O)[O-])cc4F)c4ccc([nH]4)c(-c4c(F)cc(S(=O)(=O)[O-])cc4F)c4nc(c(-c5c(F)cc(S(=O)(=O)[O-])cc5F)c5ccc2[nH]5)C=C4)C=C3)cc1)c1ccc(F)cc1
REMARK SMILES IDX 15 1 14 2 12 3 13 4 11 5 10 6 9 7 3 8 4 9 5 10 7 11 6 12
REMARK SMILES IDX 8 13 2 14 1 15 86 16 87 17 92 18 88 19 91 20 89 21 90 22
REMARK SMILES IDX 16 23 17 24 18 25 19 26 20 27 21 28 85 29 22 30 84 31 23 32
REMARK SMILES IDX 24 33 25 34 78 35 26 36 83 37 77 38 79 39 27 40 82 41 76 42
REMARK SMILES IDX 75 43 28 45 62 46 41 47 61 48 42 49 45 50 60 51 80 52 43 53
REMARK SMILES IDX 44 54 59 56 81 57 46 58 29 59 30 60 39 61 31 62 32 63 38 64
REMARK SMILES IDX 40 65 33 66 34 67 35 68 36 69 37 70 63 71 64 72 73 73 65 74
REMARK SMILES IDX 66 75 72 76 74 77 67 78 68 79 69 80 70 81 71 82 47 83 48 84
REMARK SMILES IDX 57 85 49 86 50 87 56 88 58 89 51 90 52 91 53 92 54 93 55 94
REMARK H PARENT 79 44 45 55
REMARK Flexibility Score: inf
ROOT
ATOM      1  C   UNL A   1      31.926  28.885  26.329  1.00  0.00     0.274 C 
ENDROOT
BRANCH   1   2
ATOM      2  O   UNL A   1      31.346  27.786  27.056  1.00  0.00    -0.462 OA
BRANCH   2   3
ATOM      3  C   UNL A   1      31.240  26.603  26.373  1.00  0.00     0.313 C 
ATOM      4  O   UNL A   1      30.217  25.927  26.323  1.00  0.00    -0.252 OA
BRANCH   3   5
ATOM      5  C   UNL A   1      32.579  26.240  25.734  1.00  0.00     0.135 C 
BRANCH   5   6
ATOM      6  C   UNL A   1      33.228  25.021  26.454  1.00  0.00     0.077 C 
BRANCH   6   7
ATOM      7  C   UNL A   1      33.377  23.810  25.579  1.00  0.00     0.054 A 
ATOM      8  N   UNL A   1      34.467  23.456  24.815  1.00  0.00    -0.268 N 
ATOM      9  N   UNL A   1      34.100  22.736  23.725  1.00  0.00    -0.177 NA
ATOM     10  C   UNL A   1      32.807  22.459  23.930  1.00  0.00     0.074 A 
ATOM     11  C   UNL A   1      32.413  22.891  25.207  1.00  0.00     0.062 A 
ATOM     12  C   UNL A   1      31.979  21.869  22.850  1.00  0.00     0.070 C 
ATOM     13  Br  UNL A   1      30.762  22.518  26.008  1.00  0.00    -0.047 Br
BRANCH   8  14
ATOM     14  C   UNL A   1      35.889  23.714  24.944  1.00  0.00     0.141 C 
ATOM     15  C   UNL A   1      36.823  23.313  23.819  1.00  0.00     0.029 C 
ENDBRANCH   8  14
ENDBRANCH   6   7
ENDBRANCH   5   6
BRANCH   5  16
ATOM     16  C   UNL A   1      32.516  26.132  24.206  1.00  0.00    -0.033 A 
ATOM     17  C   UNL A   1      31.325  25.703  23.588  1.00  0.00     0.007 A 
ATOM     18  C   UNL A   1      33.620  26.405  23.382  1.00  0.00     0.007 A 
ATOM     19  C   UNL A   1      31.234  25.586  22.196  1.00  0.00     0.039 A 
ATOM     20  C   UNL A   1      33.521  26.319  21.990  1.00  0.00     0.039 A 
ATOM     21  C   UNL A   1      32.329  25.912  21.409  1.00  0.00     0.123 A 
ATOM     22  F   UNL A   1      32.241  25.820  20.076  1.00  0.00    -0.207 F 
ENDBRANCH   5  16
ENDBRANCH   3   5
ENDBRANCH   2   3
ENDBRANCH   1   2
BRANCH   1  23
ATOM     23  C   UNL A   1      32.593  29.902  27.247  1.00  0.00     0.275 C 
BRANCH  23  24
ATOM     24  O   UNL A   1      33.998  29.973  27.019  1.00  0.00    -0.458 OA
BRANCH  24  25
ATOM     25  C   UNL A   1      34.593  31.067  27.547  1.00  0.00     0.338 C 
ATOM     26  O   UNL A   1      34.308  32.234  27.343  1.00  0.00    -0.246 OA
BRANCH  25  27
ATOM     27  C   UNL A   1      35.741  30.658  28.356  1.00  0.00     0.060 A 
ATOM     28  C   UNL A   1      36.557  31.672  28.864  1.00  0.00     0.016 A 
ATOM     29  C   UNL A   1      36.125  29.313  28.385  1.00  0.00     0.016 A 
ATOM     30  C   UNL A   1      37.839  31.362  29.257  1.00  0.00     0.010 A 
ATOM     31  C   UNL A   1      37.404  29.002  28.782  1.00  0.00     0.010 A 
ATOM     32  C   UNL A   1      38.273  30.041  29.134  1.00  0.00    -0.014 A 
BRANCH  32  33
ATOM     33  C   UNL A   1      39.672  29.760  29.390  1.00  0.00     0.031 A 
ATOM     34  C   UNL A   1      40.049  29.661  30.822  1.00  0.00     0.074 A 
ATOM     35  C   UNL A   1      40.503  29.463  28.372  1.00  0.00     0.049 A 
ATOM     36  N   UNL A   1      41.032  30.234  31.435  1.00  0.00    -0.248 NA
ATOM     37  C   UNL A   1      39.154  28.897  31.707  1.00  0.00     0.031 C 
ATOM     38  C   UNL A   1      40.153  29.305  26.956  1.00  0.00     0.029 A 
ATOM     39  N   UNL A   1      41.807  29.079  28.413  1.00  0.00    -0.354 N 
ATOM     40  C   UNL A   1      40.994  29.757  32.741  1.00  0.00     0.074 A 
ATOM     41  C   UNL A   1      39.747  29.052  32.888  1.00  0.00     0.031 C 
ATOM     42  C   UNL A   1      41.137  28.618  26.337  1.00  0.00     0.029 A 
ATOM     43  C   UNL A   1      42.210  28.373  27.287  1.00  0.00     0.049 A 
ATOM     44  H   UNL A   1      42.407  29.282  29.166  1.00  0.00     0.167 HD
ATOM     45  C   UNL A   1      42.080  29.795  33.558  1.00  0.00     0.037 A 
ATOM     46  C   UNL A   1      43.279  27.544  27.196  1.00  0.00     0.037 A 
ATOM     47  C   UNL A   1      43.048  30.761  33.114  1.00  0.00     0.049 A 
ATOM     48  C   UNL A   1      44.209  27.901  28.302  1.00  0.00     0.074 A 
ATOM     49  C   UNL A   1      43.014  32.126  32.903  1.00  0.00     0.029 A 
ATOM     50  N   UNL A   1      44.185  30.313  32.485  1.00  0.00    -0.354 N 
ATOM     51  N   UNL A   1      44.872  29.024  28.371  1.00  0.00    -0.248 NA
ATOM     52  C   UNL A   1      44.086  27.182  29.563  1.00  0.00     0.031 C 
ATOM     53  C   UNL A   1      43.859  32.354  31.781  1.00  0.00     0.029 A 
ATOM     54  C   UNL A   1      44.384  31.121  31.394  1.00  0.00     0.049 A 
ATOM     55  H   UNL A   1      44.749  29.557  32.764  1.00  0.00     0.167 HD
ATOM     56  C   UNL A   1      44.872  29.357  29.717  1.00  0.00     0.074 A 
ATOM     57  C   UNL A   1      44.479  28.136  30.411  1.00  0.00     0.031 C 
ATOM     58  C   UNL A   1      44.911  30.661  30.128  1.00  0.00     0.037 A 
BRANCH  45  59
ATOM     59  C   UNL A   1      42.395  28.723  34.569  1.00  0.00     0.058 A 
ATOM     60  C   UNL A   1      42.509  29.060  35.931  1.00  0.00     0.135 A 
ATOM     61  C   UNL A   1      42.867  27.439  34.213  1.00  0.00     0.135 A 
ATOM     62  F   UNL A   1      42.098  30.258  36.376  1.00  0.00    -0.206 F 
ATOM     63  C   UNL A   1      43.121  28.214  36.857  1.00  0.00     0.059 A 
ATOM     64  C   UNL A   1      43.427  26.558  35.129  1.00  0.00     0.059 A 
ATOM     65  F   UNL A   1      42.903  27.018  32.942  1.00  0.00    -0.206 F 
ATOM     66  C   UNL A   1      43.599  26.975  36.438  1.00  0.00     0.060 A 
BRANCH  66  67
ATOM     67  S   UNL A   1      44.529  25.945  37.585  1.00  0.00     0.124 S 
ATOM     68  O   UNL A   1      44.093  26.483  38.870  1.00  0.00    -0.237 OA
ATOM     69  O   UNL A   1      44.049  24.608  37.256  1.00  0.00    -0.237 OA
ATOM     70  O   UNL A   1      45.918  26.213  37.225  1.00  0.00    -0.744 OA
ENDBRANCH  66  67
ENDBRANCH  45  59
BRANCH  46  71
ATOM     71  C   UNL A   1      43.379  26.276  26.419  1.00  0.00     0.058 A 
ATOM     72  C   UNL A   1      44.449  26.055  25.531  1.00  0.00     0.135 A 
ATOM     73  C   UNL A   1      42.573  25.151  26.698  1.00  0.00     0.135 A 
ATOM     74  F   UNL A   1      45.290  27.055  25.226  1.00  0.00    -0.206 F 
ATOM     75  C   UNL A   1      44.726  24.792  24.992  1.00  0.00     0.059 A 
ATOM     76  C   UNL A   1      42.812  23.893  26.151  1.00  0.00     0.059 A 
ATOM     77  F   UNL A   1      41.576  25.204  27.591  1.00  0.00    -0.206 F 
ATOM     78  C   UNL A   1      43.908  23.713  25.321  1.00  0.00     0.060 A 
BRANCH  78  79
ATOM     79  S   UNL A   1      44.358  22.047  24.783  1.00  0.00     0.124 S 
ATOM     80  O   UNL A   1      43.256  21.251  25.312  1.00  0.00    -0.237 OA
ATOM     81  O   UNL A   1      44.403  22.194  23.332  1.00  0.00    -0.237 OA
ATOM     82  O   UNL A   1      45.653  21.824  25.421  1.00  0.00    -0.744 OA
ENDBRANCH  78  79
ENDBRANCH  46  71
BRANCH  58  83
ATOM     83  C   UNL A   1      45.251  31.719  29.109  1.00  0.00     0.058 A 
ATOM     84  C   UNL A   1      46.564  32.087  28.772  1.00  0.00     0.135 A 
ATOM     85  C   UNL A   1      44.216  32.265  28.334  1.00  0.00     0.135 A 
ATOM     86  F   UNL A   1      47.616  31.524  29.379  1.00  0.00    -0.206 F 
ATOM     87  C   UNL A   1      46.836  32.995  27.748  1.00  0.00     0.059 A 
ATOM     88  C   UNL A   1      44.465  33.147  27.285  1.00  0.00     0.059 A 
ATOM     89  F   UNL A   1      42.943  31.899  28.558  1.00  0.00    -0.206 F 
ATOM     90  C   UNL A   1      45.779  33.520  27.008  1.00  0.00     0.060 A 
BRANCH  90  91
ATOM     91  S   UNL A   1      46.142  34.625  25.626  1.00  0.00     0.124 S 
ATOM     92  O   UNL A   1      47.545  34.329  25.357  1.00  0.00    -0.237 OA
ATOM     93  O   UNL A   1      45.194  34.187  24.606  1.00  0.00    -0.237 OA
ATOM     94  O   UNL A   1      45.878  35.954  26.176  1.00  0.00    -0.744 OA
ENDBRANCH  90  91
ENDBRANCH  58  83
ENDBRANCH  32  33
ENDBRANCH  25  27
ENDBRANCH  24  25
ENDBRANCH  23  24
ENDBRANCH   1  23
TORSDOF 18
ENDMDL
