MODEL 1
REMARK VINA RESULT:     -11.4      0.000      0.000
REMARK SMILES O=C(Cc1ccc(F)c(F)c1)NC1(C(=O)OCCOC(=O)c2ccc(-c3c4nc(c(-c5c(F)cc(S(=O)(=O)[O-])cc5F)c5ccc([nH]5)c(-c5c(F)cc(S(=O)(=O)[O-])cc5F)c5nc(c(-c6c(F)cc(S(=O)(=O)[O-])cc6F)c6ccc3[nH]6)C=C5)C=C4)cc2)CCCC1
REMARK SMILES IDX 17 1 16 2 14 3 15 4 13 5 88 6 91 7 89 8 90 9 12 10 1 11 2 12
REMARK SMILES IDX 3 14 4 15 5 16 11 17 6 18 9 19 7 20 10 21 8 22 18 23 19 24
REMARK SMILES IDX 20 25 21 26 22 27 23 28 87 29 24 30 86 31 25 32 26 33 27 34
REMARK SMILES IDX 80 35 28 36 85 37 79 38 81 39 29 40 84 41 78 42 77 43 30 45
REMARK SMILES IDX 64 46 43 47 63 48 44 49 47 50 62 51 82 52 45 53 46 54 61 56
REMARK SMILES IDX 83 57 48 58 31 59 32 60 41 61 33 62 34 63 40 64 42 65 35 66
REMARK SMILES IDX 36 67 37 68 38 69 39 70 65 71 66 72 75 73 67 74 68 75 74 76
REMARK SMILES IDX 76 77 69 78 70 79 71 80 72 81 73 82 49 83 50 84 59 85 51 86
REMARK SMILES IDX 52 87 58 88 60 89 53 90 54 91 55 92 56 93 57 94
REMARK H PARENT 12 13 81 44 47 55
REMARK Flexibility Score: inf
ROOT
ATOM      1  C   UNL A   1      31.652  28.332  27.418  1.00  0.00     0.274 C 
ENDROOT
BRANCH   1   2
ATOM      2  O   UNL A   1      32.297  27.200  26.801  1.00  0.00    -0.460 OA
BRANCH   2   3
ATOM      3  C   UNL A   1      31.485  26.343  26.121  1.00  0.00     0.331 C 
ATOM      4  O   UNL A   1      30.867  25.435  26.663  1.00  0.00    -0.249 OA
BRANCH   3   5
ATOM      5  C   UNL A   1      31.455  26.614  24.584  1.00  0.00     0.138 C 
ATOM      6  C   UNL A   1      31.414  25.279  23.832  1.00  0.00     0.040 C 
ATOM      7  C   UNL A   1      32.744  27.251  24.040  1.00  0.00     0.040 C 
ATOM      8  C   UNL A   1      32.864  24.820  23.795  1.00  0.00     0.003 C 
ATOM      9  C   UNL A   1      33.696  26.095  23.727  1.00  0.00     0.003 C 
BRANCH   5  10
ATOM     10  N   UNL A   1      30.314  27.511  24.308  1.00  0.00    -0.340 N 
ATOM     11  O   UNL A   1      30.516  27.634  22.015  1.00  0.00    -0.275 OA
ATOM     12  C   UNL A   1      29.851  27.791  23.034  1.00  0.00     0.225 C 
ATOM     13  H   UNL A   1      29.859  27.932  25.073  1.00  0.00     0.164 HD
BRANCH  12  14
ATOM     14  C   UNL A   1      28.398  28.252  22.988  1.00  0.00     0.135 C 
BRANCH  14  15
ATOM     15  C   UNL A   1      28.296  29.720  22.629  1.00  0.00    -0.036 A 
ATOM     16  C   UNL A   1      28.500  30.706  23.608  1.00  0.00     0.007 A 
ATOM     17  C   UNL A   1      28.011  30.132  21.321  1.00  0.00     0.046 A 
ATOM     18  C   UNL A   1      28.410  32.067  23.311  1.00  0.00     0.043 A 
ATOM     19  C   UNL A   1      27.924  31.494  21.025  1.00  0.00     0.159 A 
ATOM     20  C   UNL A   1      28.124  32.455  22.012  1.00  0.00     0.158 A 
ATOM     21  F   UNL A   1      27.695  31.873  19.761  1.00  0.00    -0.204 F 
ATOM     22  F   UNL A   1      28.099  33.760  21.710  1.00  0.00    -0.204 F 
ENDBRANCH  14  15
ENDBRANCH  12  14
ENDBRANCH   5  10
ENDBRANCH   3   5
ENDBRANCH   2   3
ENDBRANCH   1   2
BRANCH   1  23
ATOM     23  C   UNL A   1      32.411  29.626  27.124  1.00  0.00     0.275 C 
BRANCH  23  24
ATOM     24  O   UNL A   1      33.832  29.456  27.293  1.00  0.00    -0.458 OA
BRANCH  24  25
ATOM     25  C   UNL A   1      34.471  30.461  27.940  1.00  0.00     0.338 C 
ATOM     26  O   UNL A   1      33.970  31.483  28.382  1.00  0.00    -0.246 OA
BRANCH  25  27
ATOM     27  C   UNL A   1      35.872  30.070  28.199  1.00  0.00     0.060 A 
ATOM     28  C   UNL A   1      36.225  29.718  29.508  1.00  0.00     0.016 A 
ATOM     29  C   UNL A   1      36.831  30.037  27.183  1.00  0.00     0.016 A 
ATOM     30  C   UNL A   1      37.514  29.255  29.790  1.00  0.00     0.010 A 
ATOM     31  C   UNL A   1      38.134  29.619  27.478  1.00  0.00     0.010 A 
ATOM     32  C   UNL A   1      38.482  29.211  28.778  1.00  0.00    -0.014 A 
BRANCH  32  33
ATOM     33  C   UNL A   1      39.899  28.880  29.091  1.00  0.00     0.031 A 
ATOM     34  C   UNL A   1      40.778  29.949  29.645  1.00  0.00     0.074 A 
ATOM     35  C   UNL A   1      40.409  27.650  28.888  1.00  0.00     0.049 A 
ATOM     36  N   UNL A   1      42.054  29.898  29.910  1.00  0.00    -0.248 NA
ATOM     37  C   UNL A   1      40.132  31.226  29.981  1.00  0.00     0.031 C 
ATOM     38  C   UNL A   1      39.618  26.496  28.514  1.00  0.00     0.029 A 
ATOM     39  N   UNL A   1      41.687  27.153  28.959  1.00  0.00    -0.354 N 
ATOM     40  C   UNL A   1      42.362  31.122  30.475  1.00  0.00     0.074 A 
ATOM     41  C   UNL A   1      41.147  31.908  30.488  1.00  0.00     0.031 C 
ATOM     42  C   UNL A   1      40.414  25.433  28.323  1.00  0.00     0.029 A 
ATOM     43  C   UNL A   1      41.792  25.842  28.538  1.00  0.00     0.049 A 
ATOM     44  H   UNL A   1      42.455  27.680  29.278  1.00  0.00     0.167 HD
ATOM     45  C   UNL A   1      43.558  31.545  30.943  1.00  0.00     0.037 A 
ATOM     46  C   UNL A   1      42.872  25.065  28.322  1.00  0.00     0.037 A 
ATOM     47  C   UNL A   1      44.773  30.783  30.849  1.00  0.00     0.049 A 
ATOM     48  C   UNL A   1      44.223  25.635  28.651  1.00  0.00     0.074 A 
ATOM     49  C   UNL A   1      46.053  31.162  31.209  1.00  0.00     0.029 A 
ATOM     50  N   UNL A   1      44.865  29.495  30.335  1.00  0.00    -0.354 N 
ATOM     51  N   UNL A   1      44.508  26.809  29.164  1.00  0.00    -0.248 NA
ATOM     52  C   UNL A   1      45.395  24.787  28.398  1.00  0.00     0.031 C 
ATOM     53  C   UNL A   1      46.926  30.127  30.859  1.00  0.00     0.029 A 
ATOM     54  C   UNL A   1      46.184  29.075  30.344  1.00  0.00     0.049 A 
ATOM     55  H   UNL A   1      44.103  28.960  30.015  1.00  0.00     0.167 HD
ATOM     56  C   UNL A   1      45.882  26.814  29.357  1.00  0.00     0.074 A 
ATOM     57  C   UNL A   1      46.375  25.536  28.887  1.00  0.00     0.031 C 
ATOM     58  C   UNL A   1      46.657  27.787  29.895  1.00  0.00     0.037 A 
BRANCH  45  59
ATOM     59  C   UNL A   1      43.593  32.925  31.523  1.00  0.00     0.058 A 
ATOM     60  C   UNL A   1      43.810  34.055  30.717  1.00  0.00     0.135 A 
ATOM     61  C   UNL A   1      43.460  33.114  32.906  1.00  0.00     0.135 A 
ATOM     62  F   UNL A   1      43.982  33.920  29.393  1.00  0.00    -0.206 F 
ATOM     63  C   UNL A   1      43.926  35.324  31.270  1.00  0.00     0.059 A 
ATOM     64  C   UNL A   1      43.548  34.377  33.478  1.00  0.00     0.059 A 
ATOM     65  F   UNL A   1      43.272  32.062  33.717  1.00  0.00    -0.206 F 
ATOM     66  C   UNL A   1      43.799  35.474  32.653  1.00  0.00     0.060 A 
BRANCH  66  67
ATOM     67  S   UNL A   1      43.987  37.122  33.361  1.00  0.00     0.124 S 
ATOM     68  O   UNL A   1      42.772  37.235  34.161  1.00  0.00    -0.237 OA
ATOM     69  O   UNL A   1      45.232  36.998  34.111  1.00  0.00    -0.237 OA
ATOM     70  O   UNL A   1      44.047  37.989  32.188  1.00  0.00    -0.744 OA
ENDBRANCH  66  67
ENDBRANCH  45  59
BRANCH  46  71
ATOM     71  C   UNL A   1      42.732  23.686  27.769  1.00  0.00     0.058 A 
ATOM     72  C   UNL A   1      42.630  23.460  26.389  1.00  0.00     0.135 A 
ATOM     73  C   UNL A   1      42.658  22.565  28.614  1.00  0.00     0.135 A 
ATOM     74  F   UNL A   1      42.688  24.493  25.535  1.00  0.00    -0.206 F 
ATOM     75  C   UNL A   1      42.424  22.183  25.867  1.00  0.00     0.059 A 
ATOM     76  C   UNL A   1      42.481  21.276  28.116  1.00  0.00     0.059 A 
ATOM     77  F   UNL A   1      42.754  22.718  29.945  1.00  0.00    -0.206 F 
ATOM     78  C   UNL A   1      42.345  21.097  26.740  1.00  0.00     0.060 A 
BRANCH  78  79
ATOM     79  S   UNL A   1      42.054  19.453  26.049  1.00  0.00     0.124 S 
ATOM     80  O   UNL A   1      42.448  18.593  27.158  1.00  0.00    -0.237 OA
ATOM     81  O   UNL A   1      40.625  19.493  25.751  1.00  0.00    -0.237 OA
ATOM     82  O   UNL A   1      42.932  19.415  24.883  1.00  0.00    -0.744 OA
ENDBRANCH  78  79
ENDBRANCH  46  71
BRANCH  58  83
ATOM     83  C   UNL A   1      48.117  27.491  30.075  1.00  0.00     0.058 A 
ATOM     84  C   UNL A   1      49.066  27.798  29.089  1.00  0.00     0.135 A 
ATOM     85  C   UNL A   1      48.578  26.978  31.299  1.00  0.00     0.135 A 
ATOM     86  F   UNL A   1      48.674  28.277  27.899  1.00  0.00    -0.206 F 
ATOM     87  C   UNL A   1      50.425  27.607  29.312  1.00  0.00     0.059 A 
ATOM     88  C   UNL A   1      49.933  26.807  31.554  1.00  0.00     0.059 A 
ATOM     89  F   UNL A   1      47.708  26.671  32.275  1.00  0.00    -0.206 F 
ATOM     90  C   UNL A   1      50.850  27.124  30.552  1.00  0.00     0.060 A 
BRANCH  90  91
ATOM     91  S   UNL A   1      52.621  26.970  30.859  1.00  0.00     0.124 S 
ATOM     92  O   UNL A   1      53.179  27.347  29.565  1.00  0.00    -0.237 OA
ATOM     93  O   UNL A   1      52.833  27.924  31.944  1.00  0.00    -0.237 OA
ATOM     94  O   UNL A   1      52.781  25.566  31.228  1.00  0.00    -0.744 OA
ENDBRANCH  90  91
ENDBRANCH  58  83
ENDBRANCH  32  33
ENDBRANCH  25  27
ENDBRANCH  24  25
ENDBRANCH  23  24
ENDBRANCH   1  23
TORSDOF 17
ENDMDL
MODEL 2
REMARK VINA RESULT:     -11.3      2.359      4.033
REMARK SMILES O=C(Cc1ccc(F)c(F)c1)NC1(C(=O)OCCOC(=O)c2ccc(-c3c4nc(c(-c5c(F)cc(S(=O)(=O)[O-])cc5F)c5ccc([nH]5)c(-c5c(F)cc(S(=O)(=O)[O-])cc5F)c5nc(c(-c6c(F)cc(S(=O)(=O)[O-])cc6F)c6ccc3[nH]6)C=C5)C=C4)cc2)CCCC1
REMARK SMILES IDX 17 1 16 2 14 3 15 4 13 5 88 6 91 7 89 8 90 9 12 10 1 11 2 12
REMARK SMILES IDX 3 14 4 15 5 16 11 17 6 18 9 19 7 20 10 21 8 22 18 23 19 24
REMARK SMILES IDX 20 25 21 26 22 27 23 28 87 29 24 30 86 31 25 32 26 33 27 34
REMARK SMILES IDX 80 35 28 36 85 37 79 38 81 39 29 40 84 41 78 42 77 43 30 45
REMARK SMILES IDX 64 46 43 47 63 48 44 49 47 50 62 51 82 52 45 53 46 54 61 56
REMARK SMILES IDX 83 57 48 58 31 59 32 60 41 61 33 62 34 63 40 64 42 65 35 66
REMARK SMILES IDX 36 67 37 68 38 69 39 70 65 71 66 72 75 73 67 74 68 75 74 76
REMARK SMILES IDX 76 77 69 78 70 79 71 80 72 81 73 82 49 83 50 84 59 85 51 86
REMARK SMILES IDX 52 87 58 88 60 89 53 90 54 91 55 92 56 93 57 94
REMARK H PARENT 12 13 81 44 47 55
REMARK Flexibility Score: inf
ROOT
ATOM      1  C   UNL A   1      33.624  28.044  25.384  1.00  0.00     0.274 C 
ENDROOT
BRANCH   1   2
ATOM      2  O   UNL A   1      32.691  27.645  24.361  1.00  0.00    -0.460 OA
BRANCH   2   3
ATOM      3  C   UNL A   1      32.006  26.490  24.589  1.00  0.00     0.331 C 
ATOM      4  O   UNL A   1      32.085  25.862  25.639  1.00  0.00    -0.249 OA
BRANCH   3   5
ATOM      5  C   UNL A   1      31.148  26.032  23.369  1.00  0.00     0.138 C 
ATOM      6  C   UNL A   1      31.047  27.178  22.357  1.00  0.00     0.040 C 
ATOM      7  C   UNL A   1      29.671  25.774  23.712  1.00  0.00     0.040 C 
ATOM      8  C   UNL A   1      29.936  28.066  22.897  1.00  0.00     0.003 C 
ATOM      9  C   UNL A   1      28.960  27.123  23.591  1.00  0.00     0.003 C 
BRANCH   5  10
ATOM     10  N   UNL A   1      31.748  24.792  22.837  1.00  0.00    -0.340 N 
ATOM     11  O   UNL A   1      33.638  25.703  21.882  1.00  0.00    -0.275 OA
ATOM     12  C   UNL A   1      33.022  24.727  22.299  1.00  0.00     0.225 C 
ATOM     13  H   UNL A   1      31.213  23.966  22.868  1.00  0.00     0.164 HD
BRANCH  12  14
ATOM     14  C   UNL A   1      33.641  23.333  22.330  1.00  0.00     0.135 C 
BRANCH  14  15
ATOM     15  C   UNL A   1      34.698  23.224  23.409  1.00  0.00    -0.036 A 
ATOM     16  C   UNL A   1      36.046  23.025  23.065  1.00  0.00     0.007 A 
ATOM     17  C   UNL A   1      34.370  23.330  24.766  1.00  0.00     0.046 A 
ATOM     18  C   UNL A   1      37.045  22.916  24.034  1.00  0.00     0.043 A 
ATOM     19  C   UNL A   1      35.370  23.223  25.734  1.00  0.00     0.159 A 
ATOM     20  C   UNL A   1      36.698  23.021  25.372  1.00  0.00     0.158 A 
ATOM     21  F   UNL A   1      35.045  23.372  27.025  1.00  0.00    -0.204 F 
ATOM     22  F   UNL A   1      37.662  22.980  26.301  1.00  0.00    -0.204 F 
ENDBRANCH  14  15
ENDBRANCH  12  14
ENDBRANCH   5  10
ENDBRANCH   3   5
ENDBRANCH   2   3
ENDBRANCH   1   2
BRANCH   1  23
ATOM     23  C   UNL A   1      33.234  29.394  25.990  1.00  0.00     0.275 C 
BRANCH  23  24
ATOM     24  O   UNL A   1      33.541  29.450  27.396  1.00  0.00    -0.458 OA
BRANCH  24  25
ATOM     25  C   UNL A   1      34.251  30.532  27.800  1.00  0.00     0.338 C 
ATOM     26  O   UNL A   1      33.813  31.647  28.038  1.00  0.00    -0.246 OA
BRANCH  25  27
ATOM     27  C   UNL A   1      35.644  30.132  28.087  1.00  0.00     0.060 A 
ATOM     28  C   UNL A   1      35.960  29.747  29.395  1.00  0.00     0.016 A 
ATOM     29  C   UNL A   1      36.629  30.121  27.096  1.00  0.00     0.016 A 
ATOM     30  C   UNL A   1      37.241  29.274  29.701  1.00  0.00     0.010 A 
ATOM     31  C   UNL A   1      37.923  29.693  27.415  1.00  0.00     0.010 A 
ATOM     32  C   UNL A   1      38.236  29.253  28.714  1.00  0.00    -0.014 A 
BRANCH  32  33
ATOM     33  C   UNL A   1      39.643  28.911  29.056  1.00  0.00     0.031 A 
ATOM     34  C   UNL A   1      40.513  29.967  29.649  1.00  0.00     0.074 A 
ATOM     35  C   UNL A   1      40.154  27.683  28.847  1.00  0.00     0.049 A 
ATOM     36  N   UNL A   1      41.781  29.907  29.944  1.00  0.00    -0.248 NA
ATOM     37  C   UNL A   1      39.862  31.242  29.988  1.00  0.00     0.031 C 
ATOM     38  C   UNL A   1      39.367  26.537  28.435  1.00  0.00     0.029 A 
ATOM     39  N   UNL A   1      41.427  27.179  28.941  1.00  0.00    -0.354 N 
ATOM     40  C   UNL A   1      42.080  31.122  30.536  1.00  0.00     0.074 A 
ATOM     41  C   UNL A   1      40.868  31.912  30.532  1.00  0.00     0.031 C 
ATOM     42  C   UNL A   1      40.164  25.474  28.247  1.00  0.00     0.029 A 
ATOM     43  C   UNL A   1      41.538  25.875  28.502  1.00  0.00     0.049 A 
ATOM     44  H   UNL A   1      42.189  27.698  29.287  1.00  0.00     0.167 HD
ATOM     45  C   UNL A   1      43.266  31.532  31.039  1.00  0.00     0.037 A 
ATOM     46  C   UNL A   1      42.619  25.097  28.301  1.00  0.00     0.037 A 
ATOM     47  C   UNL A   1      44.479  30.767  30.963  1.00  0.00     0.049 A 
ATOM     48  C   UNL A   1      43.964  25.656  28.672  1.00  0.00     0.074 A 
ATOM     49  C   UNL A   1      45.752  31.134  31.360  1.00  0.00     0.029 A 
ATOM     50  N   UNL A   1      44.579  29.486  30.432  1.00  0.00    -0.354 N 
ATOM     51  N   UNL A   1      44.241  26.820  29.210  1.00  0.00    -0.248 NA
ATOM     52  C   UNL A   1      45.139  24.807  28.434  1.00  0.00     0.031 C 
ATOM     53  C   UNL A   1      46.629  30.101  31.016  1.00  0.00     0.029 A 
ATOM     54  C   UNL A   1      45.896  29.061  30.466  1.00  0.00     0.049 A 
ATOM     55  H   UNL A   1      43.824  28.959  30.084  1.00  0.00     0.167 HD
ATOM     56  C   UNL A   1      45.610  26.817  29.436  1.00  0.00     0.074 A 
ATOM     57  C   UNL A   1      46.110  25.544  28.959  1.00  0.00     0.031 C 
ATOM     58  C   UNL A   1      46.375  27.778  30.009  1.00  0.00     0.037 A 
BRANCH  45  59
ATOM     59  C   UNL A   1      43.291  32.903  31.642  1.00  0.00     0.058 A 
ATOM     60  C   UNL A   1      43.631  34.033  30.881  1.00  0.00     0.135 A 
ATOM     61  C   UNL A   1      43.025  33.079  33.007  1.00  0.00     0.135 A 
ATOM     62  F   UNL A   1      43.932  33.908  29.579  1.00  0.00    -0.206 F 
ATOM     63  C   UNL A   1      43.736  35.290  31.463  1.00  0.00     0.059 A 
ATOM     64  C   UNL A   1      43.100  34.331  33.605  1.00  0.00     0.059 A 
ATOM     65  F   UNL A   1      42.717  32.025  33.778  1.00  0.00    -0.206 F 
ATOM     66  C   UNL A   1      43.473  35.428  32.827  1.00  0.00     0.060 A 
BRANCH  66  67
ATOM     67  S   UNL A   1      43.649  37.059  33.576  1.00  0.00     0.124 S 
ATOM     68  O   UNL A   1      44.906  36.911  34.303  1.00  0.00    -0.237 OA
ATOM     69  O   UNL A   1      43.689  37.934  32.410  1.00  0.00    -0.237 OA
ATOM     70  O   UNL A   1      42.456  37.180  34.408  1.00  0.00    -0.744 OA
ENDBRANCH  66  67
ENDBRANCH  45  59
BRANCH  46  71
ATOM     71  C   UNL A   1      42.488  23.727  27.723  1.00  0.00     0.058 A 
ATOM     72  C   UNL A   1      42.423  22.591  28.544  1.00  0.00     0.135 A 
ATOM     73  C   UNL A   1      42.462  23.520  26.333  1.00  0.00     0.135 A 
ATOM     74  F   UNL A   1      42.451  22.728  29.878  1.00  0.00    -0.206 F 
ATOM     75  C   UNL A   1      42.376  21.304  28.013  1.00  0.00     0.059 A 
ATOM     76  C   UNL A   1      42.386  22.244  25.778  1.00  0.00     0.059 A 
ATOM     77  F   UNL A   1      42.515  24.569  25.496  1.00  0.00    -0.206 F 
ATOM     78  C   UNL A   1      42.363  21.140  26.627  1.00  0.00     0.060 A 
BRANCH  78  79
ATOM     79  S   UNL A   1      42.325  19.462  25.956  1.00  0.00     0.124 S 
ATOM     80  O   UNL A   1      43.222  19.582  24.812  1.00  0.00    -0.237 OA
ATOM     81  O   UNL A   1      42.826  18.672  27.077  1.00  0.00    -0.237 OA
ATOM     82  O   UNL A   1      40.917  19.258  25.630  1.00  0.00    -0.744 OA
ENDBRANCH  78  79
ENDBRANCH  46  71
BRANCH  58  83
ATOM     83  C   UNL A   1      47.829  27.473  30.220  1.00  0.00     0.058 A 
ATOM     84  C   UNL A   1      48.803  27.791  29.263  1.00  0.00     0.135 A 
ATOM     85  C   UNL A   1      48.257  26.940  31.447  1.00  0.00     0.135 A 
ATOM     86  F   UNL A   1      48.442  28.290  28.071  1.00  0.00    -0.206 F 
ATOM     87  C   UNL A   1      50.155  27.591  29.516  1.00  0.00     0.059 A 
ATOM     88  C   UNL A   1      49.605  26.759  31.732  1.00  0.00     0.059 A 
ATOM     89  F   UNL A   1      47.363  26.621  32.396  1.00  0.00    -0.206 F 
ATOM     90  C   UNL A   1      50.548  27.088  30.758  1.00  0.00     0.060 A 
BRANCH  90  91
ATOM     91  S   UNL A   1      52.310  26.921  31.106  1.00  0.00     0.124 S 
ATOM     92  O   UNL A   1      52.898  27.746  30.057  1.00  0.00    -0.237 OA
ATOM     93  O   UNL A   1      52.411  27.452  32.463  1.00  0.00    -0.237 OA
ATOM     94  O   UNL A   1      52.547  25.485  30.983  1.00  0.00    -0.744 OA
ENDBRANCH  90  91
ENDBRANCH  58  83
ENDBRANCH  32  33
ENDBRANCH  25  27
ENDBRANCH  24  25
ENDBRANCH  23  24
ENDBRANCH   1  23
TORSDOF 17
ENDMDL
MODEL 3
REMARK VINA RESULT:     -11.2      4.417      9.818
REMARK SMILES O=C(Cc1ccc(F)c(F)c1)NC1(C(=O)OCCOC(=O)c2ccc(-c3c4nc(c(-c5c(F)cc(S(=O)(=O)[O-])cc5F)c5ccc([nH]5)c(-c5c(F)cc(S(=O)(=O)[O-])cc5F)c5nc(c(-c6c(F)cc(S(=O)(=O)[O-])cc6F)c6ccc3[nH]6)C=C5)C=C4)cc2)CCCC1
REMARK SMILES IDX 17 1 16 2 14 3 15 4 13 5 88 6 91 7 89 8 90 9 12 10 1 11 2 12
REMARK SMILES IDX 3 14 4 15 5 16 11 17 6 18 9 19 7 20 10 21 8 22 18 23 19 24
REMARK SMILES IDX 20 25 21 26 22 27 23 28 87 29 24 30 86 31 25 32 26 33 27 34
REMARK SMILES IDX 80 35 28 36 85 37 79 38 81 39 29 40 84 41 78 42 77 43 30 45
REMARK SMILES IDX 64 46 43 47 63 48 44 49 47 50 62 51 82 52 45 53 46 54 61 56
REMARK SMILES IDX 83 57 48 58 31 59 32 60 41 61 33 62 34 63 40 64 42 65 35 66
REMARK SMILES IDX 36 67 37 68 38 69 39 70 65 71 66 72 75 73 67 74 68 75 74 76
REMARK SMILES IDX 76 77 69 78 70 79 71 80 72 81 73 82 49 83 50 84 59 85 51 86
REMARK SMILES IDX 52 87 58 88 60 89 53 90 54 91 55 92 56 93 57 94
REMARK H PARENT 12 13 81 44 47 55
REMARK Flexibility Score: inf
ROOT
ATOM      1  C   UNL A   1      33.629  27.128  25.262  1.00  0.00     0.274 C 
ENDROOT
BRANCH   1   2
ATOM      2  O   UNL A   1      33.893  25.743  25.562  1.00  0.00    -0.460 OA
BRANCH   2   3
ATOM      3  C   UNL A   1      34.201  24.947  24.501  1.00  0.00     0.331 C 
ATOM      4  O   UNL A   1      34.073  25.306  23.336  1.00  0.00    -0.249 OA
BRANCH   3   5
ATOM      5  C   UNL A   1      34.694  23.527  24.920  1.00  0.00     0.138 C 
ATOM      6  C   UNL A   1      35.600  23.643  26.150  1.00  0.00     0.040 C 
ATOM      7  C   UNL A   1      35.629  22.867  23.893  1.00  0.00     0.040 C 
ATOM      8  C   UNL A   1      36.959  24.028  25.586  1.00  0.00     0.003 C 
ATOM      9  C   UNL A   1      37.041  23.355  24.221  1.00  0.00     0.003 C 
BRANCH   5  10
ATOM     10  N   UNL A   1      33.502  22.675  25.111  1.00  0.00    -0.340 N 
ATOM     11  O   UNL A   1      32.915  22.398  22.899  1.00  0.00    -0.275 OA
ATOM     12  C   UNL A   1      32.833  22.051  24.072  1.00  0.00     0.225 C 
ATOM     13  H   UNL A   1      33.166  22.545  26.027  1.00  0.00     0.164 HD
BRANCH  12  14
ATOM     14  C   UNL A   1      32.026  20.828  24.498  1.00  0.00     0.135 C 
BRANCH  14  15
ATOM     15  C   UNL A   1      32.700  19.544  24.064  1.00  0.00    -0.036 A 
ATOM     16  C   UNL A   1      32.137  18.755  23.046  1.00  0.00     0.007 A 
ATOM     17  C   UNL A   1      33.898  19.115  24.649  1.00  0.00     0.046 A 
ATOM     18  C   UNL A   1      32.731  17.564  22.626  1.00  0.00     0.043 A 
ATOM     19  C   UNL A   1      34.492  17.925  24.225  1.00  0.00     0.159 A 
ATOM     20  C   UNL A   1      33.915  17.156  23.220  1.00  0.00     0.158 A 
ATOM     21  F   UNL A   1      35.661  17.553  24.763  1.00  0.00    -0.204 F 
ATOM     22  F   UNL A   1      34.521  16.047  22.775  1.00  0.00    -0.204 F 
ENDBRANCH  14  15
ENDBRANCH  12  14
ENDBRANCH   5  10
ENDBRANCH   3   5
ENDBRANCH   2   3
ENDBRANCH   1   2
BRANCH   1  23
ATOM     23  C   UNL A   1      33.801  28.003  26.504  1.00  0.00     0.275 C 
BRANCH  23  24
ATOM     24  O   UNL A   1      34.193  29.345  26.156  1.00  0.00    -0.458 OA
BRANCH  24  25
ATOM     25  C   UNL A   1      34.361  30.197  27.196  1.00  0.00     0.338 C 
ATOM     26  O   UNL A   1      33.530  30.968  27.652  1.00  0.00    -0.246 OA
BRANCH  25  27
ATOM     27  C   UNL A   1      35.668  29.946  27.837  1.00  0.00     0.060 A 
ATOM     28  C   UNL A   1      35.677  29.561  29.183  1.00  0.00     0.016 A 
ATOM     29  C   UNL A   1      36.871  30.072  27.138  1.00  0.00     0.016 A 
ATOM     30  C   UNL A   1      36.880  29.225  29.813  1.00  0.00     0.010 A 
ATOM     31  C   UNL A   1      38.079  29.782  27.784  1.00  0.00     0.010 A 
ATOM     32  C   UNL A   1      38.092  29.342  29.119  1.00  0.00    -0.014 A 
BRANCH  32  33
ATOM     33  C   UNL A   1      39.392  29.148  29.817  1.00  0.00     0.031 A 
ATOM     34  C   UNL A   1      40.279  28.031  29.382  1.00  0.00     0.074 A 
ATOM     35  C   UNL A   1      39.790  29.946  30.826  1.00  0.00     0.049 A 
ATOM     36  N   UNL A   1      41.407  27.637  29.902  1.00  0.00    -0.248 NA
ATOM     37  C   UNL A   1      39.861  27.286  28.185  1.00  0.00     0.031 C 
ATOM     38  C   UNL A   1      39.098  31.155  31.225  1.00  0.00     0.029 A 
ATOM     39  N   UNL A   1      40.848  29.880  31.699  1.00  0.00    -0.354 N 
ATOM     40  C   UNL A   1      41.858  26.620  29.080  1.00  0.00     0.074 A 
ATOM     41  C   UNL A   1      40.866  26.435  28.042  1.00  0.00     0.031 C 
ATOM     42  C   UNL A   1      39.695  31.696  32.297  1.00  0.00     0.029 A 
ATOM     43  C   UNL A   1      40.811  30.848  32.683  1.00  0.00     0.049 A 
ATOM     44  H   UNL A   1      41.564  29.208  31.630  1.00  0.00     0.167 HD
ATOM     45  C   UNL A   1      43.002  25.908  29.187  1.00  0.00     0.037 A 
ATOM     46  C   UNL A   1      41.567  31.020  33.785  1.00  0.00     0.037 A 
ATOM     47  C   UNL A   1      43.938  26.049  30.268  1.00  0.00     0.049 A 
ATOM     48  C   UNL A   1      42.718  30.077  33.999  1.00  0.00     0.074 A 
ATOM     49  C   UNL A   1      45.080  25.310  30.517  1.00  0.00     0.029 A 
ATOM     50  N   UNL A   1      43.827  26.975  31.299  1.00  0.00    -0.354 N 
ATOM     51  N   UNL A   1      43.123  29.098  33.225  1.00  0.00    -0.248 NA
ATOM     52  C   UNL A   1      43.528  30.263  35.210  1.00  0.00     0.031 C 
ATOM     53  C   UNL A   1      45.627  25.749  31.726  1.00  0.00     0.029 A 
ATOM     54  C   UNL A   1      44.865  26.807  32.199  1.00  0.00     0.049 A 
ATOM     55  H   UNL A   1      43.116  27.651  31.376  1.00  0.00     0.167 HD
ATOM     56  C   UNL A   1      44.270  28.594  33.820  1.00  0.00     0.074 A 
ATOM     57  C   UNL A   1      44.486  29.363  35.030  1.00  0.00     0.031 C 
ATOM     58  C   UNL A   1      45.081  27.598  33.388  1.00  0.00     0.037 A 
BRANCH  45  59
ATOM     59  C   UNL A   1      43.240  24.871  28.133  1.00  0.00     0.058 A 
ATOM     60  C   UNL A   1      42.900  23.524  28.339  1.00  0.00     0.135 A 
ATOM     61  C   UNL A   1      43.861  25.220  26.926  1.00  0.00     0.135 A 
ATOM     62  F   UNL A   1      42.339  23.136  29.495  1.00  0.00    -0.206 F 
ATOM     63  C   UNL A   1      43.199  22.552  27.393  1.00  0.00     0.059 A 
ATOM     64  C   UNL A   1      44.147  24.268  25.955  1.00  0.00     0.059 A 
ATOM     65  F   UNL A   1      44.223  26.492  26.693  1.00  0.00    -0.206 F 
ATOM     66  C   UNL A   1      43.828  22.934  26.206  1.00  0.00     0.060 A 
BRANCH  66  67
ATOM     67  S   UNL A   1      44.242  21.655  25.003  1.00  0.00     0.124 S 
ATOM     68  O   UNL A   1      45.594  21.292  25.419  1.00  0.00    -0.237 OA
ATOM     69  O   UNL A   1      43.212  20.653  25.247  1.00  0.00    -0.237 OA
ATOM     70  O   UNL A   1      44.148  22.351  23.723  1.00  0.00    -0.744 OA
ENDBRANCH  66  67
ENDBRANCH  45  59
BRANCH  46  71
ATOM     71  C   UNL A   1      41.270  32.107  34.763  1.00  0.00     0.058 A 
ATOM     72  C   UNL A   1      40.340  31.924  35.797  1.00  0.00     0.135 A 
ATOM     73  C   UNL A   1      41.883  33.368  34.662  1.00  0.00     0.135 A 
ATOM     74  F   UNL A   1      39.719  30.743  35.938  1.00  0.00    -0.206 F 
ATOM     75  C   UNL A   1      40.000  32.956  36.670  1.00  0.00     0.059 A 
ATOM     76  C   UNL A   1      41.581  34.408  35.540  1.00  0.00     0.059 A 
ATOM     77  F   UNL A   1      42.785  33.601  33.696  1.00  0.00    -0.206 F 
ATOM     78  C   UNL A   1      40.622  34.198  36.529  1.00  0.00     0.060 A 
BRANCH  78  79
ATOM     79  S   UNL A   1      40.152  35.532  37.655  1.00  0.00     0.124 S 
ATOM     80  O   UNL A   1      39.051  34.922  38.390  1.00  0.00    -0.237 OA
ATOM     81  O   UNL A   1      41.383  35.744  38.411  1.00  0.00    -0.237 OA
ATOM     82  O   UNL A   1      39.779  36.619  36.755  1.00  0.00    -0.744 OA
ENDBRANCH  78  79
ENDBRANCH  46  71
BRANCH  58  83
ATOM     83  C   UNL A   1      46.322  27.317  34.183  1.00  0.00     0.058 A 
ATOM     84  C   UNL A   1      46.349  26.357  35.206  1.00  0.00     0.135 A 
ATOM     85  C   UNL A   1      47.525  27.957  33.846  1.00  0.00     0.135 A 
ATOM     86  F   UNL A   1      45.222  25.729  35.574  1.00  0.00    -0.206 F 
ATOM     87  C   UNL A   1      47.530  26.041  35.867  1.00  0.00     0.059 A 
ATOM     88  C   UNL A   1      48.722  27.635  34.473  1.00  0.00     0.059 A 
ATOM     89  F   UNL A   1      47.551  28.882  32.873  1.00  0.00    -0.206 F 
ATOM     90  C   UNL A   1      48.714  26.675  35.484  1.00  0.00     0.060 A 
BRANCH  90  91
ATOM     91  S   UNL A   1      50.255  26.186  36.286  1.00  0.00     0.124 S 
ATOM     92  O   UNL A   1      50.838  27.480  36.619  1.00  0.00    -0.237 OA
ATOM     93  O   UNL A   1      49.778  25.395  37.418  1.00  0.00    -0.237 OA
ATOM     94  O   UNL A   1      50.953  25.429  35.251  1.00  0.00    -0.744 OA
ENDBRANCH  90  91
ENDBRANCH  58  83
ENDBRANCH  32  33
ENDBRANCH  25  27
ENDBRANCH  24  25
ENDBRANCH  23  24
ENDBRANCH   1  23
TORSDOF 17
ENDMDL
