MODEL 1
REMARK VINA RESULT:     -11.3      0.000      0.000
REMARK SMILES O=C(Cc1cccn1-c1ccccc1F)OCCOC(=O)c1ccc(-c2c3nc(c(-c4c(F)cc(S(=O)(=O)[O-])cc4F)c4ccc([nH]4)c(-c4c(F)cc(S(=O)(=O)[O-])cc4F)c4nc(c(-c5c(F)cc(S(=O)(=O)[O-])cc5F)c5ccc2[nH]5)C=C4)C=C3)cc1
REMARK SMILES IDX 18 1 17 2 16 3 2 4 1 5 3 6 4 7 5 8 8 9 6 10 7 11 9 12 10 13
REMARK SMILES IDX 14 14 11 15 13 16 15 17 12 18 19 19 20 20 21 21 22 22 23 23
REMARK SMILES IDX 87 24 24 25 86 26 25 27 26 28 27 29 80 30 28 31 85 32 79 33
REMARK SMILES IDX 81 34 29 35 84 36 78 37 77 38 30 40 64 41 43 42 63 43 44 44
REMARK SMILES IDX 47 45 62 46 82 47 45 48 46 49 61 51 83 52 48 53 31 54 32 55
REMARK SMILES IDX 41 56 33 57 34 58 40 59 42 60 35 61 36 62 37 63 38 64 39 65
REMARK SMILES IDX 65 66 66 67 75 68 67 69 68 70 74 71 76 72 69 73 70 74 71 75
REMARK SMILES IDX 72 76 73 77 49 78 50 79 59 80 51 81 52 82 58 83 60 84 53 85
REMARK SMILES IDX 54 86 55 87 56 88 57 89
REMARK H PARENT 81 39 47 50
REMARK Flexibility Score: inf
ROOT
ATOM      1  C   UNL A   1      34.056  28.694  26.913  1.00  0.00     0.275 C 
ENDROOT
BRANCH   1   2
ATOM      2  C   UNL A   1      33.644  28.963  25.469  1.00  0.00     0.274 C 
BRANCH   2   3
ATOM      3  O   UNL A   1      33.675  27.824  24.593  1.00  0.00    -0.462 OA
BRANCH   3   4
ATOM      4  C   UNL A   1      33.679  27.887  23.235  1.00  0.00     0.311 C 
ATOM      5  O   UNL A   1      33.714  28.987  22.682  1.00  0.00    -0.252 OA
BRANCH   4   6
ATOM      6  C   UNL A   1      33.595  26.602  22.418  1.00  0.00     0.177 C 
BRANCH   6   7
ATOM      7  C   UNL A   1      32.609  25.629  22.994  1.00  0.00     0.034 A 
ATOM      8  C   UNL A   1      31.227  25.684  22.900  1.00  0.00     0.024 A 
ATOM      9  N   UNL A   1      32.934  24.470  23.689  1.00  0.00    -0.318 N 
ATOM     10  C   UNL A   1      30.705  24.501  23.460  1.00  0.00     0.020 A 
ATOM     11  C   UNL A   1      31.775  23.746  23.877  1.00  0.00     0.091 A 
BRANCH   9  12
ATOM     12  C   UNL A   1      34.213  24.009  24.077  1.00  0.00     0.081 A 
ATOM     13  C   UNL A   1      34.930  23.181  23.200  1.00  0.00     0.030 A 
ATOM     14  C   UNL A   1      34.794  24.432  25.272  1.00  0.00     0.147 A 
ATOM     15  C   UNL A   1      36.253  22.844  23.502  1.00  0.00     0.002 A 
ATOM     16  C   UNL A   1      36.097  24.056  25.591  1.00  0.00     0.041 A 
ATOM     17  F   UNL A   1      34.116  25.199  26.137  1.00  0.00    -0.205 F 
ATOM     18  C   UNL A   1      36.834  23.277  24.696  1.00  0.00     0.003 A 
ENDBRANCH   9  12
ENDBRANCH   6   7
ENDBRANCH   4   6
ENDBRANCH   3   4
ENDBRANCH   2   3
ENDBRANCH   1   2
BRANCH   1  19
ATOM     19  O   UNL A   1      35.467  28.712  27.096  1.00  0.00    -0.458 OA
BRANCH  19  20
ATOM     20  C   UNL A   1      35.915  29.832  27.713  1.00  0.00     0.338 C 
ATOM     21  O   UNL A   1      35.405  30.931  27.679  1.00  0.00    -0.246 OA
BRANCH  20  22
ATOM     22  C   UNL A   1      37.203  29.568  28.361  1.00  0.00     0.060 A 
ATOM     23  C   UNL A   1      38.331  29.740  27.554  1.00  0.00     0.016 A 
ATOM     24  C   UNL A   1      37.272  28.948  29.616  1.00  0.00     0.016 A 
ATOM     25  C   UNL A   1      39.504  29.127  27.924  1.00  0.00     0.010 A 
ATOM     26  C   UNL A   1      38.440  28.307  29.973  1.00  0.00     0.010 A 
ATOM     27  C   UNL A   1      39.528  28.363  29.097  1.00  0.00    -0.014 A 
BRANCH  27  28
ATOM     28  C   UNL A   1      40.801  27.727  29.443  1.00  0.00     0.031 A 
ATOM     29  C   UNL A   1      40.971  26.442  28.590  1.00  0.00     0.074 A 
ATOM     30  C   UNL A   1      41.474  28.328  30.481  1.00  0.00     0.049 A 
ATOM     31  N   UNL A   1      41.580  25.336  28.871  1.00  0.00    -0.248 NA
ATOM     32  C   UNL A   1      40.283  26.323  27.266  1.00  0.00     0.031 C 
ATOM     33  C   UNL A   1      41.101  29.622  31.121  1.00  0.00     0.029 A 
ATOM     34  N   UNL A   1      42.584  28.001  31.230  1.00  0.00    -0.354 N 
ATOM     35  C   UNL A   1      41.564  24.517  27.717  1.00  0.00     0.074 A 
ATOM     36  C   UNL A   1      40.646  25.122  26.807  1.00  0.00     0.031 C 
ATOM     37  C   UNL A   1      41.879  29.888  32.198  1.00  0.00     0.029 A 
ATOM     38  C   UNL A   1      42.853  28.829  32.366  1.00  0.00     0.049 A 
ATOM     39  H   UNL A   1      43.162  27.238  30.996  1.00  0.00     0.167 HD
ATOM     40  C   UNL A   1      42.416  23.460  27.555  1.00  0.00     0.037 A 
ATOM     41  C   UNL A   1      43.759  28.624  33.381  1.00  0.00     0.037 A 
ATOM     42  C   UNL A   1      43.217  23.331  28.725  1.00  0.00     0.049 A 
ATOM     43  C   UNL A   1      44.521  27.452  32.930  1.00  0.00     0.074 A 
ATOM     44  C   UNL A   1      42.894  22.893  29.983  1.00  0.00     0.029 A 
ATOM     45  N   UNL A   1      44.357  24.098  28.777  1.00  0.00    -0.354 N 
ATOM     46  N   UNL A   1      45.365  27.453  31.943  1.00  0.00    -0.248 NA
ATOM     47  C   UNL A   1      44.206  26.149  33.530  1.00  0.00     0.031 C 
ATOM     48  C   UNL A   1      43.526  23.844  30.804  1.00  0.00     0.029 A 
ATOM     49  C   UNL A   1      44.450  24.586  30.056  1.00  0.00     0.049 A 
ATOM     50  H   UNL A   1      44.986  24.264  28.038  1.00  0.00     0.167 HD
ATOM     51  C   UNL A   1      45.398  26.128  31.591  1.00  0.00     0.074 A 
ATOM     52  C   UNL A   1      44.959  25.378  32.753  1.00  0.00     0.031 C 
ATOM     53  C   UNL A   1      45.244  25.769  30.291  1.00  0.00     0.037 A 
BRANCH  40  54
ATOM     54  C   UNL A   1      42.801  22.603  26.382  1.00  0.00     0.058 A 
ATOM     55  C   UNL A   1      43.790  22.946  25.452  1.00  0.00     0.135 A 
ATOM     56  C   UNL A   1      42.419  21.236  26.414  1.00  0.00     0.135 A 
ATOM     57  F   UNL A   1      44.203  24.213  25.324  1.00  0.00    -0.206 F 
ATOM     58  C   UNL A   1      44.437  21.974  24.678  1.00  0.00     0.059 A 
ATOM     59  C   UNL A   1      43.078  20.251  25.688  1.00  0.00     0.059 A 
ATOM     60  F   UNL A   1      41.428  20.816  27.221  1.00  0.00    -0.206 F 
ATOM     61  C   UNL A   1      44.105  20.626  24.837  1.00  0.00     0.060 A 
BRANCH  61  62
ATOM     62  S   UNL A   1      45.070  19.362  23.981  1.00  0.00     0.124 S 
ATOM     63  O   UNL A   1      44.640  18.148  24.668  1.00  0.00    -0.237 OA
ATOM     64  O   UNL A   1      44.621  19.506  22.601  1.00  0.00    -0.237 OA
ATOM     65  O   UNL A   1      46.454  19.760  24.229  1.00  0.00    -0.744 OA
ENDBRANCH  61  62
ENDBRANCH  40  54
BRANCH  41  66
ATOM     66  C   UNL A   1      44.079  29.113  34.794  1.00  0.00     0.058 A 
ATOM     67  C   UNL A   1      43.063  29.046  35.799  1.00  0.00     0.135 A 
ATOM     68  C   UNL A   1      45.236  29.778  35.216  1.00  0.00     0.135 A 
ATOM     69  F   UNL A   1      41.982  28.266  35.661  1.00  0.00    -0.206 F 
ATOM     70  C   UNL A   1      43.068  29.794  36.972  1.00  0.00     0.059 A 
ATOM     71  C   UNL A   1      45.298  30.488  36.440  1.00  0.00     0.059 A 
ATOM     72  F   UNL A   1      46.342  29.774  34.460  1.00  0.00    -0.206 F 
ATOM     73  C   UNL A   1      44.173  30.567  37.262  1.00  0.00     0.060 A 
BRANCH  73  74
ATOM     74  S   UNL A   1      44.063  31.691  38.674  1.00  0.00     0.124 S 
ATOM     75  O   UNL A   1      45.008  31.080  39.604  1.00  0.00    -0.237 OA
ATOM     76  O   UNL A   1      44.482  32.969  38.104  1.00  0.00    -0.237 OA
ATOM     77  O   UNL A   1      42.659  31.611  39.062  1.00  0.00    -0.744 OA
ENDBRANCH  73  74
ENDBRANCH  41  66
BRANCH  53  78
ATOM     78  C   UNL A   1      45.646  26.813  29.261  1.00  0.00     0.058 A 
ATOM     79  C   UNL A   1      44.766  27.447  28.364  1.00  0.00     0.135 A 
ATOM     80  C   UNL A   1      46.981  27.242  29.201  1.00  0.00     0.135 A 
ATOM     81  F   UNL A   1      43.474  27.128  28.339  1.00  0.00    -0.206 F 
ATOM     82  C   UNL A   1      45.174  28.429  27.453  1.00  0.00     0.059 A 
ATOM     83  C   UNL A   1      47.419  28.223  28.302  1.00  0.00     0.059 A 
ATOM     84  F   UNL A   1      47.895  26.689  30.012  1.00  0.00    -0.206 F 
ATOM     85  C   UNL A   1      46.510  28.808  27.424  1.00  0.00     0.060 A 
BRANCH  85  86
ATOM     86  S   UNL A   1      47.051  30.017  26.191  1.00  0.00     0.124 S 
ATOM     87  O   UNL A   1      48.504  29.888  26.249  1.00  0.00    -0.237 OA
ATOM     88  O   UNL A   1      46.429  29.519  24.968  1.00  0.00    -0.237 OA
ATOM     89  O   UNL A   1      46.520  31.280  26.692  1.00  0.00    -0.744 OA
ENDBRANCH  85  86
ENDBRANCH  53  78
ENDBRANCH  27  28
ENDBRANCH  20  22
ENDBRANCH  19  20
ENDBRANCH   1  19
TORSDOF 16
ENDMDL
MODEL 2
REMARK VINA RESULT:     -11.3      3.707      9.946
REMARK SMILES O=C(Cc1cccn1-c1ccccc1F)OCCOC(=O)c1ccc(-c2c3nc(c(-c4c(F)cc(S(=O)(=O)[O-])cc4F)c4ccc([nH]4)c(-c4c(F)cc(S(=O)(=O)[O-])cc4F)c4nc(c(-c5c(F)cc(S(=O)(=O)[O-])cc5F)c5ccc2[nH]5)C=C4)C=C3)cc1
REMARK SMILES IDX 18 1 17 2 16 3 2 4 1 5 3 6 4 7 5 8 8 9 6 10 7 11 9 12 10 13
REMARK SMILES IDX 14 14 11 15 13 16 15 17 12 18 19 19 20 20 21 21 22 22 23 23
REMARK SMILES IDX 87 24 24 25 86 26 25 27 26 28 27 29 80 30 28 31 85 32 79 33
REMARK SMILES IDX 81 34 29 35 84 36 78 37 77 38 30 40 64 41 43 42 63 43 44 44
REMARK SMILES IDX 47 45 62 46 82 47 45 48 46 49 61 51 83 52 48 53 31 54 32 55
REMARK SMILES IDX 41 56 33 57 34 58 40 59 42 60 35 61 36 62 37 63 38 64 39 65
REMARK SMILES IDX 65 66 66 67 75 68 67 69 68 70 74 71 76 72 69 73 70 74 71 75
REMARK SMILES IDX 72 76 73 77 49 78 50 79 59 80 51 81 52 82 58 83 60 84 53 85
REMARK SMILES IDX 54 86 55 87 56 88 57 89
REMARK H PARENT 81 39 47 50
REMARK Flexibility Score: inf
ROOT
ATOM      1  C   UNL A   1      33.489  29.187  26.095  1.00  0.00     0.275 C 
ENDROOT
BRANCH   1   2
ATOM      2  C   UNL A   1      33.911  28.053  25.167  1.00  0.00     0.274 C 
BRANCH   2   3
ATOM      3  O   UNL A   1      32.839  27.378  24.486  1.00  0.00    -0.462 OA
BRANCH   3   4
ATOM      4  C   UNL A   1      32.347  27.730  23.269  1.00  0.00     0.311 C 
ATOM      5  O   UNL A   1      32.788  27.182  22.258  1.00  0.00    -0.252 OA
BRANCH   4   6
ATOM      6  C   UNL A   1      31.291  28.825  23.169  1.00  0.00     0.177 C 
BRANCH   6   7
ATOM      7  C   UNL A   1      29.897  28.278  23.259  1.00  0.00     0.034 A 
ATOM      8  C   UNL A   1      29.520  27.018  23.698  1.00  0.00     0.024 A 
ATOM      9  N   UNL A   1      28.737  28.977  22.950  1.00  0.00    -0.318 N 
ATOM     10  C   UNL A   1      28.112  26.978  23.749  1.00  0.00     0.020 A 
ATOM     11  C   UNL A   1      27.659  28.213  23.347  1.00  0.00     0.091 A 
BRANCH   9  12
ATOM     12  C   UNL A   1      28.613  30.280  22.416  1.00  0.00     0.081 A 
ATOM     13  C   UNL A   1      28.172  30.433  21.093  1.00  0.00     0.030 A 
ATOM     14  C   UNL A   1      28.843  31.403  23.211  1.00  0.00     0.147 A 
ATOM     15  C   UNL A   1      27.899  31.714  20.604  1.00  0.00     0.002 A 
ATOM     16  C   UNL A   1      28.614  32.680  22.705  1.00  0.00     0.041 A 
ATOM     17  F   UNL A   1      29.293  31.280  24.468  1.00  0.00    -0.205 F 
ATOM     18  C   UNL A   1      28.123  32.836  21.406  1.00  0.00     0.003 A 
ENDBRANCH   9  12
ENDBRANCH   6   7
ENDBRANCH   4   6
ENDBRANCH   3   4
ENDBRANCH   2   3
ENDBRANCH   1   2
BRANCH   1  19
ATOM     19  O   UNL A   1      34.079  29.090  27.387  1.00  0.00    -0.458 OA
BRANCH  19  20
ATOM     20  C   UNL A   1      34.278  30.292  27.978  1.00  0.00     0.338 C 
ATOM     21  O   UNL A   1      33.512  31.231  27.988  1.00  0.00    -0.246 OA
BRANCH  20  22
ATOM     22  C   UNL A   1      35.635  30.363  28.530  1.00  0.00     0.060 A 
ATOM     23  C   UNL A   1      36.632  30.754  27.633  1.00  0.00     0.016 A 
ATOM     24  C   UNL A   1      35.935  29.833  29.792  1.00  0.00     0.016 A 
ATOM     25  C   UNL A   1      37.939  30.446  27.926  1.00  0.00     0.010 A 
ATOM     26  C   UNL A   1      37.243  29.496  30.074  1.00  0.00     0.010 A 
ATOM     27  C   UNL A   1      38.222  29.762  29.114  1.00  0.00    -0.014 A 
BRANCH  27  28
ATOM     28  C   UNL A   1      39.630  29.454  29.376  1.00  0.00     0.031 A 
ATOM     29  C   UNL A   1      40.344  30.740  29.871  1.00  0.00     0.074 A 
ATOM     30  C   UNL A   1      40.007  28.177  29.031  1.00  0.00     0.049 A 
ATOM     31  N   UNL A   1      41.574  31.114  29.722  1.00  0.00    -0.248 NA
ATOM     32  C   UNL A   1      39.561  31.820  30.549  1.00  0.00     0.031 C 
ATOM     33  C   UNL A   1      39.084  27.087  28.602  1.00  0.00     0.029 A 
ATOM     34  N   UNL A   1      41.214  27.516  28.949  1.00  0.00    -0.354 N 
ATOM     35  C   UNL A   1      41.768  32.302  30.467  1.00  0.00     0.074 A 
ATOM     36  C   UNL A   1      40.468  32.754  30.847  1.00  0.00     0.031 C 
ATOM     37  C   UNL A   1      39.764  25.984  28.207  1.00  0.00     0.029 A 
ATOM     38  C   UNL A   1      41.187  26.213  28.357  1.00  0.00     0.049 A 
ATOM     39  H   UNL A   1      42.050  27.919  29.278  1.00  0.00     0.167 HD
ATOM     40  C   UNL A   1      43.008  32.753  30.820  1.00  0.00     0.037 A 
ATOM     41  C   UNL A   1      42.246  25.422  27.975  1.00  0.00     0.037 A 
ATOM     42  C   UNL A   1      43.989  31.878  30.273  1.00  0.00     0.049 A 
ATOM     43  C   UNL A   1      43.417  26.145  28.489  1.00  0.00     0.074 A 
ATOM     44  C   UNL A   1      44.407  31.703  28.980  1.00  0.00     0.029 A 
ATOM     45  N   UNL A   1      44.304  30.766  31.017  1.00  0.00    -0.354 N 
ATOM     46  N   UNL A   1      43.728  26.255  29.745  1.00  0.00    -0.248 NA
ATOM     47  C   UNL A   1      44.217  26.929  27.539  1.00  0.00     0.031 C 
ATOM     48  C   UNL A   1      44.465  30.303  28.867  1.00  0.00     0.029 A 
ATOM     49  C   UNL A   1      44.416  29.717  30.140  1.00  0.00     0.049 A 
ATOM     50  H   UNL A   1      44.427  30.728  31.994  1.00  0.00     0.167 HD
ATOM     51  C   UNL A   1      44.515  27.378  29.750  1.00  0.00     0.074 A 
ATOM     52  C   UNL A   1      45.027  27.534  28.402  1.00  0.00     0.031 C 
ATOM     53  C   UNL A   1      44.269  28.372  30.642  1.00  0.00     0.037 A 
BRANCH  40  54
ATOM     54  C   UNL A   1      43.503  33.791  31.787  1.00  0.00     0.058 A 
ATOM     55  C   UNL A   1      43.866  35.093  31.420  1.00  0.00     0.135 A 
ATOM     56  C   UNL A   1      43.251  33.577  33.168  1.00  0.00     0.135 A 
ATOM     57  F   UNL A   1      44.150  35.395  30.147  1.00  0.00    -0.206 F 
ATOM     58  C   UNL A   1      43.872  36.142  32.349  1.00  0.00     0.059 A 
ATOM     59  C   UNL A   1      43.209  34.610  34.096  1.00  0.00     0.059 A 
ATOM     60  F   UNL A   1      42.966  32.348  33.633  1.00  0.00    -0.206 F 
ATOM     61  C   UNL A   1      43.498  35.898  33.674  1.00  0.00     0.060 A 
BRANCH  61  62
ATOM     62  S   UNL A   1      43.322  37.282  34.821  1.00  0.00     0.124 S 
ATOM     63  O   UNL A   1      44.699  37.469  35.268  1.00  0.00    -0.237 OA
ATOM     64  O   UNL A   1      42.782  38.331  33.964  1.00  0.00    -0.237 OA
ATOM     65  O   UNL A   1      42.402  36.772  35.835  1.00  0.00    -0.744 OA
ENDBRANCH  61  62
ENDBRANCH  40  54
BRANCH  41  66
ATOM     66  C   UNL A   1      42.556  24.200  27.111  1.00  0.00     0.058 A 
ATOM     67  C   UNL A   1      42.926  22.974  27.748  1.00  0.00     0.135 A 
ATOM     68  C   UNL A   1      42.670  24.158  25.716  1.00  0.00     0.135 A 
ATOM     69  F   UNL A   1      42.676  22.748  29.045  1.00  0.00    -0.206 F 
ATOM     70  C   UNL A   1      43.604  21.935  27.119  1.00  0.00     0.059 A 
ATOM     71  C   UNL A   1      43.290  23.079  25.039  1.00  0.00     0.059 A 
ATOM     72  F   UNL A   1      42.198  25.159  24.961  1.00  0.00    -0.206 F 
ATOM     73  C   UNL A   1      43.838  22.020  25.763  1.00  0.00     0.060 A 
BRANCH  73  74
ATOM     74  S   UNL A   1      44.906  20.767  25.015  1.00  0.00     0.124 S 
ATOM     75  O   UNL A   1      44.326  19.537  25.549  1.00  0.00    -0.237 OA
ATOM     76  O   UNL A   1      44.708  20.983  23.585  1.00  0.00    -0.237 OA
ATOM     77  O   UNL A   1      46.232  21.106  25.520  1.00  0.00    -0.744 OA
ENDBRANCH  73  74
ENDBRANCH  41  66
BRANCH  53  78
ATOM     78  C   UNL A   1      43.576  27.953  31.929  1.00  0.00     0.058 A 
ATOM     79  C   UNL A   1      42.286  28.358  32.324  1.00  0.00     0.135 A 
ATOM     80  C   UNL A   1      44.218  27.056  32.797  1.00  0.00     0.135 A 
ATOM     81  F   UNL A   1      41.579  29.199  31.573  1.00  0.00    -0.206 F 
ATOM     82  C   UNL A   1      41.673  27.921  33.504  1.00  0.00     0.059 A 
ATOM     83  C   UNL A   1      43.630  26.601  33.984  1.00  0.00     0.059 A 
ATOM     84  F   UNL A   1      45.455  26.621  32.509  1.00  0.00    -0.206 F 
ATOM     85  C   UNL A   1      42.357  27.043  34.335  1.00  0.00     0.060 A 
BRANCH  85  86
ATOM     86  S   UNL A   1      41.597  26.545  35.900  1.00  0.00     0.124 S 
ATOM     87  O   UNL A   1      40.597  25.575  35.462  1.00  0.00    -0.237 OA
ATOM     88  O   UNL A   1      42.727  25.987  36.636  1.00  0.00    -0.237 OA
ATOM     89  O   UNL A   1      41.058  27.793  36.433  1.00  0.00    -0.744 OA
ENDBRANCH  85  86
ENDBRANCH  53  78
ENDBRANCH  27  28
ENDBRANCH  20  22
ENDBRANCH  19  20
ENDBRANCH   1  19
TORSDOF 16
ENDMDL
MODEL 3
REMARK VINA RESULT:     -11.3      1.240      1.863
REMARK SMILES O=C(Cc1cccn1-c1ccccc1F)OCCOC(=O)c1ccc(-c2c3nc(c(-c4c(F)cc(S(=O)(=O)[O-])cc4F)c4ccc([nH]4)c(-c4c(F)cc(S(=O)(=O)[O-])cc4F)c4nc(c(-c5c(F)cc(S(=O)(=O)[O-])cc5F)c5ccc2[nH]5)C=C4)C=C3)cc1
REMARK SMILES IDX 18 1 17 2 16 3 2 4 1 5 3 6 4 7 5 8 8 9 6 10 7 11 9 12 10 13
REMARK SMILES IDX 14 14 11 15 13 16 15 17 12 18 19 19 20 20 21 21 22 22 23 23
REMARK SMILES IDX 87 24 24 25 86 26 25 27 26 28 27 29 80 30 28 31 85 32 79 33
REMARK SMILES IDX 81 34 29 35 84 36 78 37 77 38 30 40 64 41 43 42 63 43 44 44
REMARK SMILES IDX 47 45 62 46 82 47 45 48 46 49 61 51 83 52 48 53 31 54 32 55
REMARK SMILES IDX 41 56 33 57 34 58 40 59 42 60 35 61 36 62 37 63 38 64 39 65
REMARK SMILES IDX 65 66 66 67 75 68 67 69 68 70 74 71 76 72 69 73 70 74 71 75
REMARK SMILES IDX 72 76 73 77 49 78 50 79 59 80 51 81 52 82 58 83 60 84 53 85
REMARK SMILES IDX 54 86 55 87 56 88 57 89
REMARK H PARENT 81 39 47 50
REMARK Flexibility Score: inf
ROOT
ATOM      1  C   UNL A   1      34.530  31.448  28.272  1.00  0.00     0.275 C 
ENDROOT
BRANCH   1   2
ATOM      2  C   UNL A   1      33.456  31.747  27.231  1.00  0.00     0.274 C 
BRANCH   2   3
ATOM      3  O   UNL A   1      32.268  30.942  27.316  1.00  0.00    -0.462 OA
BRANCH   3   4
ATOM      4  C   UNL A   1      32.111  29.724  26.733  1.00  0.00     0.311 C 
ATOM      5  O   UNL A   1      31.667  28.789  27.400  1.00  0.00    -0.252 OA
BRANCH   4   6
ATOM      6  C   UNL A   1      32.525  29.523  25.280  1.00  0.00     0.177 C 
BRANCH   6   7
ATOM      7  C   UNL A   1      31.446  28.870  24.469  1.00  0.00     0.034 A 
ATOM      8  C   UNL A   1      30.384  29.494  23.832  1.00  0.00     0.024 A 
ATOM      9  N   UNL A   1      31.361  27.511  24.186  1.00  0.00    -0.318 N 
ATOM     10  C   UNL A   1      29.698  28.523  23.074  1.00  0.00     0.020 A 
ATOM     11  C   UNL A   1      30.357  27.330  23.258  1.00  0.00     0.091 A 
BRANCH   9  12
ATOM     12  C   UNL A   1      32.189  26.465  24.653  1.00  0.00     0.081 A 
ATOM     13  C   UNL A   1      33.408  26.222  24.002  1.00  0.00     0.030 A 
ATOM     14  C   UNL A   1      31.847  25.736  25.791  1.00  0.00     0.147 A 
ATOM     15  C   UNL A   1      34.304  25.296  24.545  1.00  0.00     0.002 A 
ATOM     16  C   UNL A   1      32.722  24.781  26.303  1.00  0.00     0.041 A 
ATOM     17  F   UNL A   1      30.674  25.932  26.411  1.00  0.00    -0.205 F 
ATOM     18  C   UNL A   1      33.960  24.573  25.690  1.00  0.00     0.003 A 
ENDBRANCH   9  12
ENDBRANCH   6   7
ENDBRANCH   4   6
ENDBRANCH   3   4
ENDBRANCH   2   3
ENDBRANCH   1   2
BRANCH   1  19
ATOM     19  O   UNL A   1      35.790  31.132  27.688  1.00  0.00    -0.458 OA
BRANCH  19  20
ATOM     20  C   UNL A   1      36.063  29.805  27.686  1.00  0.00     0.338 C 
ATOM     21  O   UNL A   1      35.342  28.918  27.284  1.00  0.00    -0.246 OA
BRANCH  20  22
ATOM     22  C   UNL A   1      37.340  29.554  28.360  1.00  0.00     0.060 A 
ATOM     23  C   UNL A   1      38.484  29.763  27.585  1.00  0.00     0.016 A 
ATOM     24  C   UNL A   1      37.391  28.910  29.604  1.00  0.00     0.016 A 
ATOM     25  C   UNL A   1      39.659  29.166  27.972  1.00  0.00     0.010 A 
ATOM     26  C   UNL A   1      38.562  28.285  29.978  1.00  0.00     0.010 A 
ATOM     27  C   UNL A   1      39.669  28.380  29.130  1.00  0.00    -0.014 A 
BRANCH  27  28
ATOM     28  C   UNL A   1      40.946  27.762  29.495  1.00  0.00     0.031 A 
ATOM     29  C   UNL A   1      41.145  26.477  28.648  1.00  0.00     0.074 A 
ATOM     30  C   UNL A   1      41.595  28.373  30.542  1.00  0.00     0.049 A 
ATOM     31  N   UNL A   1      41.766  25.380  28.939  1.00  0.00    -0.248 NA
ATOM     32  C   UNL A   1      40.479  26.347  27.313  1.00  0.00     0.031 C 
ATOM     33  C   UNL A   1      41.196  29.663  31.174  1.00  0.00     0.029 A 
ATOM     34  N   UNL A   1      42.700  28.062  31.307  1.00  0.00    -0.354 N 
ATOM     35  C   UNL A   1      41.778  24.559  27.786  1.00  0.00     0.074 A 
ATOM     36  C   UNL A   1      40.864  25.151  26.862  1.00  0.00     0.031 C 
ATOM     37  C   UNL A   1      41.955  29.942  32.261  1.00  0.00     0.029 A 
ATOM     38  C   UNL A   1      42.940  28.896  32.445  1.00  0.00     0.049 A 
ATOM     39  H   UNL A   1      43.291  27.307  31.082  1.00  0.00     0.167 HD
ATOM     40  C   UNL A   1      42.646  23.514  27.638  1.00  0.00     0.037 A 
ATOM     41  C   UNL A   1      43.834  28.705  33.474  1.00  0.00     0.037 A 
ATOM     42  C   UNL A   1      43.431  23.398  28.820  1.00  0.00     0.049 A 
ATOM     43  C   UNL A   1      44.619  27.543  33.036  1.00  0.00     0.074 A 
ATOM     44  C   UNL A   1      43.097  22.958  30.074  1.00  0.00     0.029 A 
ATOM     45  N   UNL A   1      44.560  24.180  28.887  1.00  0.00    -0.354 N 
ATOM     46  N   UNL A   1      45.477  27.553  32.061  1.00  0.00    -0.248 NA
ATOM     47  C   UNL A   1      44.313  26.237  33.634  1.00  0.00     0.031 C 
ATOM     48  C   UNL A   1      43.704  23.918  30.903  1.00  0.00     0.029 A 
ATOM     49  C   UNL A   1      44.628  24.672  30.166  1.00  0.00     0.049 A 
ATOM     50  H   UNL A   1      45.198  24.354  28.157  1.00  0.00     0.167 HD
ATOM     51  C   UNL A   1      45.533  26.228  31.712  1.00  0.00     0.074 A 
ATOM     52  C   UNL A   1      45.087  25.474  32.869  1.00  0.00     0.031 C 
ATOM     53  C   UNL A   1      45.403  25.865  30.410  1.00  0.00     0.037 A 
BRANCH  40  54
ATOM     54  C   UNL A   1      43.059  22.660  26.473  1.00  0.00     0.058 A 
ATOM     55  C   UNL A   1      44.152  22.942  25.644  1.00  0.00     0.135 A 
ATOM     56  C   UNL A   1      42.562  21.331  26.423  1.00  0.00     0.135 A 
ATOM     57  F   UNL A   1      44.681  24.171  25.598  1.00  0.00    -0.206 F 
ATOM     58  C   UNL A   1      44.781  21.940  24.894  1.00  0.00     0.059 A 
ATOM     59  C   UNL A   1      43.196  20.314  25.721  1.00  0.00     0.059 A 
ATOM     60  F   UNL A   1      41.472  20.977  27.126  1.00  0.00    -0.206 F 
ATOM     61  C   UNL A   1      44.323  20.622  24.974  1.00  0.00     0.060 A 
BRANCH  61  62
ATOM     62  S   UNL A   1      45.250  19.303  24.159  1.00  0.00     0.124 S 
ATOM     63  O   UNL A   1      44.924  18.153  24.998  1.00  0.00    -0.237 OA
ATOM     64  O   UNL A   1      44.674  19.299  22.820  1.00  0.00    -0.237 OA
ATOM     65  O   UNL A   1      46.636  19.759  24.239  1.00  0.00    -0.744 OA
ENDBRANCH  61  62
ENDBRANCH  40  54
BRANCH  41  66
ATOM     66  C   UNL A   1      44.128  29.200  34.890  1.00  0.00     0.058 A 
ATOM     67  C   UNL A   1      43.046  29.335  35.816  1.00  0.00     0.135 A 
ATOM     68  C   UNL A   1      45.342  29.697  35.377  1.00  0.00     0.135 A 
ATOM     69  F   UNL A   1      41.868  28.726  35.623  1.00  0.00    -0.206 F 
ATOM     70  C   UNL A   1      43.087  30.125  36.962  1.00  0.00     0.059 A 
ATOM     71  C   UNL A   1      45.429  30.443  36.579  1.00  0.00     0.059 A 
ATOM     72  F   UNL A   1      46.484  29.489  34.707  1.00  0.00    -0.206 F 
ATOM     73  C   UNL A   1      44.276  30.730  37.309  1.00  0.00     0.060 A 
BRANCH  73  74
ATOM     74  S   UNL A   1      44.245  31.919  38.671  1.00  0.00     0.124 S 
ATOM     75  O   UNL A   1      43.054  31.492  39.400  1.00  0.00    -0.237 OA
ATOM     76  O   UNL A   1      45.516  31.671  39.347  1.00  0.00    -0.237 OA
ATOM     77  O   UNL A   1      44.139  33.206  37.994  1.00  0.00    -0.744 OA
ENDBRANCH  73  74
ENDBRANCH  41  66
BRANCH  53  78
ATOM     78  C   UNL A   1      45.805  26.914  29.385  1.00  0.00     0.058 A 
ATOM     79  C   UNL A   1      44.930  27.531  28.470  1.00  0.00     0.135 A 
ATOM     80  C   UNL A   1      47.133  27.365  29.346  1.00  0.00     0.135 A 
ATOM     81  F   UNL A   1      43.644  27.190  28.425  1.00  0.00    -0.206 F 
ATOM     82  C   UNL A   1      45.338  28.516  27.564  1.00  0.00     0.059 A 
ATOM     83  C   UNL A   1      47.571  28.350  28.451  1.00  0.00     0.059 A 
ATOM     84  F   UNL A   1      48.043  26.828  30.174  1.00  0.00    -0.206 F 
ATOM     85  C   UNL A   1      46.668  28.918  27.557  1.00  0.00     0.060 A 
BRANCH  85  86
ATOM     86  S   UNL A   1      47.210  30.132  26.330  1.00  0.00     0.124 S 
ATOM     87  O   UNL A   1      46.834  31.395  26.958  1.00  0.00    -0.237 OA
ATOM     88  O   UNL A   1      48.645  29.878  26.248  1.00  0.00    -0.237 OA
ATOM     89  O   UNL A   1      46.444  29.780  25.137  1.00  0.00    -0.744 OA
ENDBRANCH  85  86
ENDBRANCH  53  78
ENDBRANCH  27  28
ENDBRANCH  20  22
ENDBRANCH  19  20
ENDBRANCH   1  19
TORSDOF 16
ENDMDL
