MODEL 1
REMARK VINA RESULT:     -10.1      0.000      0.000
REMARK SMILES CC[C@](C)(NC(=O)CNC(=O)c1cccc(Cl)c1)C(=O)OCCOC(=O)c1ccc(-c2c3nc(c(-c4c(F)cc(S(=O)(=O)[O-])cc4F)c4ccc([nH]4)c(-c4c(F)cc(S(=O)(=O)[O-])cc4F)c4nc(c(-c5c(F)cc(S(=O)(=O)[O-])cc5F)c5ccc2[nH]5)C=C4)C=C3)cc1
REMARK SMILES IDX 22 1 21 2 19 3 20 4 3 5 4 6 2 7 1 8 5 9 6 10 7 12 8 13 9 14
REMARK SMILES IDX 10 15 11 17 12 18 13 19 18 20 14 21 16 22 15 23 17 24 23 25
REMARK SMILES IDX 24 26 25 27 26 28 27 29 28 30 92 31 29 32 91 33 30 34 31 35
REMARK SMILES IDX 32 36 85 37 33 38 90 39 84 40 86 41 34 42 89 43 83 44 82 45
REMARK SMILES IDX 35 47 69 48 48 49 68 50 49 51 52 52 67 53 87 54 50 55 51 56
REMARK SMILES IDX 66 58 88 59 53 60 36 61 37 62 46 63 38 64 39 65 45 66 47 67
REMARK SMILES IDX 40 68 41 69 42 70 43 71 44 72 70 73 71 74 80 75 72 76 73 77
REMARK SMILES IDX 79 78 81 79 74 80 75 81 76 82 77 83 78 84 54 85 55 86 64 87
REMARK SMILES IDX 56 88 57 89 63 90 65 91 58 92 59 93 60 94 61 95 62 96
REMARK H PARENT 5 11 9 16 86 46 52 57
REMARK Flexibility Score: inf
ROOT
ATOM      1  C   UNL A   1      41.498  21.087  26.355  1.00  0.00     0.274 C 
ENDROOT
BRANCH   1   2
ATOM      2  O   UNL A   1      42.551  22.173  26.117  1.00  0.00    -0.460 OA
BRANCH   2   3
ATOM      3  C   UNL A   1      43.455  22.414  25.069  1.00  0.00     0.331 C 
ATOM      4  O   UNL A   1      43.143  23.032  24.059  1.00  0.00    -0.249 OA
BRANCH   3   5
ATOM      5  C   UNL A   1      45.039  21.857  25.358  1.00  0.00     0.135 C 
ATOM      6  C   UNL A   1      46.294  22.492  24.666  1.00  0.00     0.047 C 
BRANCH   5   7
ATOM      7  C   UNL A   1      45.121  20.332  25.009  1.00  0.00     0.037 C 
ATOM      8  C   UNL A   1      46.534  19.710  24.935  1.00  0.00     0.007 C 
ENDBRANCH   5   7
BRANCH   5   9
ATOM      9  N   UNL A   1      45.240  22.083  26.774  1.00  0.00    -0.339 N 
ATOM     10  C   UNL A   1      45.413  23.332  27.280  1.00  0.00     0.240 C 
ATOM     11  H   UNL A   1      45.253  21.312  27.385  1.00  0.00     0.164 HD
ATOM     12  O   UNL A   1      45.556  23.467  28.495  1.00  0.00    -0.273 OA
BRANCH  10  13
ATOM     13  C   UNL A   1      45.320  24.563  26.324  1.00  0.00     0.216 C 
BRANCH  13  14
ATOM     14  N   UNL A   1      45.705  26.172  26.516  1.00  0.00    -0.343 N 
ATOM     15  C   UNL A   1      45.792  27.525  26.779  1.00  0.00     0.251 C 
ATOM     16  H   UNL A   1      46.604  26.098  26.121  1.00  0.00     0.164 HD
ATOM     17  O   UNL A   1      46.934  28.001  26.682  1.00  0.00    -0.269 OA
BRANCH  15  18
ATOM     18  C   UNL A   1      44.841  28.564  27.182  1.00  0.00     0.041 A 
ATOM     19  C   UNL A   1      43.519  28.651  26.727  1.00  0.00     0.014 A 
ATOM     20  C   UNL A   1      45.191  29.305  28.314  1.00  0.00     0.034 A 
ATOM     21  C   UNL A   1      42.694  29.705  27.141  1.00  0.00     0.002 A 
ATOM     22  C   UNL A   1      44.336  30.293  28.793  1.00  0.00     0.041 A 
ATOM     23  C   UNL A   1      43.122  30.550  28.161  1.00  0.00     0.020 A 
ATOM     24  Cl  UNL A   1      44.777  31.188  30.192  1.00  0.00    -0.084 Cl
ENDBRANCH  15  18
ENDBRANCH  13  14
ENDBRANCH  10  13
ENDBRANCH   5   9
ENDBRANCH   3   5
ENDBRANCH   2   3
ENDBRANCH   1   2
BRANCH   1  25
ATOM     25  C   UNL A   1      39.777  21.402  26.548  1.00  0.00     0.275 C 
BRANCH  25  26
ATOM     26  O   UNL A   1      38.887  22.132  25.526  1.00  0.00    -0.458 OA
BRANCH  26  27
ATOM     27  C   UNL A   1      38.448  23.460  25.638  1.00  0.00     0.338 C 
ATOM     28  O   UNL A   1      37.413  23.837  25.105  1.00  0.00    -0.246 OA
BRANCH  27  29
ATOM     29  C   UNL A   1      39.201  24.427  26.654  1.00  0.00     0.060 A 
ATOM     30  C   UNL A   1      38.886  24.574  28.026  1.00  0.00     0.016 A 
ATOM     31  C   UNL A   1      40.061  25.426  26.185  1.00  0.00     0.016 A 
ATOM     32  C   UNL A   1      39.340  25.587  28.875  1.00  0.00     0.010 A 
ATOM     33  C   UNL A   1      40.563  26.459  27.048  1.00  0.00     0.010 A 
ATOM     34  C   UNL A   1      40.190  26.561  28.405  1.00  0.00    -0.014 A 
BRANCH  34  35
ATOM     35  C   UNL A   1      40.481  27.718  29.311  1.00  0.00     0.031 A 
ATOM     36  C   UNL A   1      41.765  27.710  30.100  1.00  0.00     0.074 A 
ATOM     37  C   UNL A   1      39.717  28.836  29.328  1.00  0.00     0.049 A 
ATOM     38  N   UNL A   1      42.145  28.480  31.085  1.00  0.00    -0.248 NA
ATOM     39  C   UNL A   1      42.756  26.690  29.720  1.00  0.00     0.031 C 
ATOM     40  C   UNL A   1      38.536  29.076  28.492  1.00  0.00     0.029 A 
ATOM     41  N   UNL A   1      39.819  29.992  30.073  1.00  0.00    -0.354 N 
ATOM     42  C   UNL A   1      43.383  27.991  31.493  1.00  0.00     0.074 A 
ATOM     43  C   UNL A   1      43.692  26.863  30.642  1.00  0.00     0.031 C 
ATOM     44  C   UNL A   1      38.021  30.282  28.778  1.00  0.00     0.029 A 
ATOM     45  C   UNL A   1      38.773  30.871  29.879  1.00  0.00     0.049 A 
ATOM     46  H   UNL A   1      40.568  30.174  30.685  1.00  0.00     0.167 HD
ATOM     47  C   UNL A   1      44.180  28.441  32.492  1.00  0.00     0.037 A 
ATOM     48  C   UNL A   1      38.416  31.984  30.556  1.00  0.00     0.037 A 
ATOM     49  C   UNL A   1      43.874  29.596  33.296  1.00  0.00     0.049 A 
ATOM     50  C   UNL A   1      39.267  32.421  31.720  1.00  0.00     0.074 A 
ATOM     51  C   UNL A   1      44.579  30.116  34.366  1.00  0.00     0.029 A 
ATOM     52  N   UNL A   1      42.778  30.426  33.100  1.00  0.00    -0.354 N 
ATOM     53  N   UNL A   1      40.366  31.876  32.188  1.00  0.00    -0.248 NA
ATOM     54  C   UNL A   1      38.827  33.614  32.457  1.00  0.00     0.031 C 
ATOM     55  C   UNL A   1      43.889  31.236  34.842  1.00  0.00     0.029 A 
ATOM     56  C   UNL A   1      42.784  31.450  34.032  1.00  0.00     0.049 A 
ATOM     57  H   UNL A   1      42.096  30.305  32.400  1.00  0.00     0.167 HD
ATOM     58  C   UNL A   1      40.756  32.666  33.263  1.00  0.00     0.074 A 
ATOM     59  C   UNL A   1      39.792  33.744  33.357  1.00  0.00     0.031 C 
ATOM     60  C   UNL A   1      41.811  32.512  34.103  1.00  0.00     0.037 A 
BRANCH  47  61
ATOM     61  C   UNL A   1      45.422  27.648  32.803  1.00  0.00     0.058 A 
ATOM     62  C   UNL A   1      46.661  27.925  32.204  1.00  0.00     0.135 A 
ATOM     63  C   UNL A   1      45.370  26.595  33.733  1.00  0.00     0.135 A 
ATOM     64  F   UNL A   1      46.766  28.901  31.288  1.00  0.00    -0.206 F 
ATOM     65  C   UNL A   1      47.796  27.173  32.496  1.00  0.00     0.059 A 
ATOM     66  C   UNL A   1      46.498  25.850  34.063  1.00  0.00     0.059 A 
ATOM     67  F   UNL A   1      44.211  26.279  34.331  1.00  0.00    -0.206 F 
ATOM     68  C   UNL A   1      47.704  26.138  33.430  1.00  0.00     0.060 A 
BRANCH  68  69
ATOM     69  S   UNL A   1      49.191  25.186  33.805  1.00  0.00     0.124 S 
ATOM     70  O   UNL A   1      49.681  25.862  34.999  1.00  0.00    -0.237 OA
ATOM     71  O   UNL A   1      48.663  23.845  34.004  1.00  0.00    -0.237 OA
ATOM     72  O   UNL A   1      50.017  25.360  32.606  1.00  0.00    -0.744 OA
ENDBRANCH  68  69
ENDBRANCH  47  61
BRANCH  48  73
ATOM     73  C   UNL A   1      37.152  32.707  30.217  1.00  0.00     0.058 A 
ATOM     74  C   UNL A   1      35.938  32.410  30.853  1.00  0.00     0.135 A 
ATOM     75  C   UNL A   1      37.133  33.706  29.227  1.00  0.00     0.135 A 
ATOM     76  F   UNL A   1      35.889  31.451  31.792  1.00  0.00    -0.206 F 
ATOM     77  C   UNL A   1      34.753  33.064  30.517  1.00  0.00     0.059 A 
ATOM     78  C   UNL A   1      35.971  34.397  28.899  1.00  0.00     0.059 A 
ATOM     79  F   UNL A   1      38.262  34.034  28.581  1.00  0.00    -0.206 F 
ATOM     80  C   UNL A   1      34.782  34.061  29.542  1.00  0.00     0.060 A 
BRANCH  80  81
ATOM     81  S   UNL A   1      33.250  34.937  29.147  1.00  0.00     0.124 S 
ATOM     82  O   UNL A   1      32.669  34.072  28.129  1.00  0.00    -0.237 OA
ATOM     83  O   UNL A   1      32.569  34.958  30.436  1.00  0.00    -0.237 OA
ATOM     84  O   UNL A   1      33.721  36.239  28.674  1.00  0.00    -0.744 OA
ENDBRANCH  80  81
ENDBRANCH  48  73
BRANCH  60  85
ATOM     85  C   UNL A   1      41.992  33.562  35.166  1.00  0.00     0.058 A 
ATOM     86  C   UNL A   1      41.500  33.389  36.469  1.00  0.00     0.135 A 
ATOM     87  C   UNL A   1      42.675  34.753  34.876  1.00  0.00     0.135 A 
ATOM     88  F   UNL A   1      40.836  32.270  36.799  1.00  0.00    -0.206 F 
ATOM     89  C   UNL A   1      41.634  34.383  37.433  1.00  0.00     0.059 A 
ATOM     90  C   UNL A   1      42.852  35.746  35.833  1.00  0.00     0.059 A 
ATOM     91  F   UNL A   1      43.181  34.963  33.649  1.00  0.00    -0.206 F 
ATOM     92  C   UNL A   1      42.308  35.561  37.103  1.00  0.00     0.060 A 
BRANCH  92  93
ATOM     93  S   UNL A   1      42.467  36.848  38.357  1.00  0.00     0.124 S 
ATOM     94  O   UNL A   1      43.337  37.806  37.683  1.00  0.00    -0.237 OA
ATOM     95  O   UNL A   1      41.083  37.274  38.546  1.00  0.00    -0.237 OA
ATOM     96  O   UNL A   1      43.060  36.148  39.491  1.00  0.00    -0.744 OA
ENDBRANCH  92  93
ENDBRANCH  60  85
ENDBRANCH  34  35
ENDBRANCH  27  29
ENDBRANCH  26  27
ENDBRANCH  25  26
ENDBRANCH   1  25
TORSDOF 19
ENDMDL
MODEL 2
REMARK VINA RESULT:      -9.5      3.955     10.545
REMARK SMILES CC[C@](C)(NC(=O)CNC(=O)c1cccc(Cl)c1)C(=O)OCCOC(=O)c1ccc(-c2c3nc(c(-c4c(F)cc(S(=O)(=O)[O-])cc4F)c4ccc([nH]4)c(-c4c(F)cc(S(=O)(=O)[O-])cc4F)c4nc(c(-c5c(F)cc(S(=O)(=O)[O-])cc5F)c5ccc2[nH]5)C=C4)C=C3)cc1
REMARK SMILES IDX 22 1 21 2 19 3 20 4 3 5 4 6 2 7 1 8 5 9 6 10 7 12 8 13 9 14
REMARK SMILES IDX 10 15 11 17 12 18 13 19 18 20 14 21 16 22 15 23 17 24 23 25
REMARK SMILES IDX 24 26 25 27 26 28 27 29 28 30 92 31 29 32 91 33 30 34 31 35
REMARK SMILES IDX 32 36 85 37 33 38 90 39 84 40 86 41 34 42 89 43 83 44 82 45
REMARK SMILES IDX 35 47 69 48 48 49 68 50 49 51 52 52 67 53 87 54 50 55 51 56
REMARK SMILES IDX 66 58 88 59 53 60 36 61 37 62 46 63 38 64 39 65 45 66 47 67
REMARK SMILES IDX 40 68 41 69 42 70 43 71 44 72 70 73 71 74 80 75 72 76 73 77
REMARK SMILES IDX 79 78 81 79 74 80 75 81 76 82 77 83 78 84 54 85 55 86 64 87
REMARK SMILES IDX 56 88 57 89 63 90 65 91 58 92 59 93 60 94 61 95 62 96
REMARK H PARENT 5 11 9 16 86 46 52 57
REMARK Flexibility Score: inf
ROOT
ATOM      1  C   UNL A   1      31.477  28.575  25.668  1.00  0.00     0.274 C 
ENDROOT
BRANCH   1   2
ATOM      2  O   UNL A   1      31.015  27.123  25.817  1.00  0.00    -0.460 OA
BRANCH   2   3
ATOM      3  C   UNL A   1      30.438  26.208  24.921  1.00  0.00     0.331 C 
ATOM      4  O   UNL A   1      29.271  26.289  24.556  1.00  0.00    -0.249 OA
BRANCH   3   5
ATOM      5  C   UNL A   1      31.514  25.035  24.316  1.00  0.00     0.135 C 
ATOM      6  C   UNL A   1      31.025  23.763  23.539  1.00  0.00     0.047 C 
BRANCH   5   7
ATOM      7  C   UNL A   1      32.380  24.473  25.494  1.00  0.00     0.037 C 
ATOM      8  C   UNL A   1      31.913  23.143  26.129  1.00  0.00     0.007 C 
ENDBRANCH   5   7
BRANCH   5   9
ATOM      9  N   UNL A   1      32.329  25.761  23.364  1.00  0.00    -0.339 N 
ATOM     10  C   UNL A   1      33.287  25.141  22.625  1.00  0.00     0.240 C 
ATOM     11  H   UNL A   1      32.187  26.728  23.251  1.00  0.00     0.164 HD
ATOM     12  O   UNL A   1      33.934  25.804  21.814  1.00  0.00    -0.273 OA
BRANCH  10  13
ATOM     13  C   UNL A   1      33.466  23.595  22.748  1.00  0.00     0.216 C 
BRANCH  13  14
ATOM     14  N   UNL A   1      34.485  22.646  23.661  1.00  0.00    -0.343 N 
ATOM     15  C   UNL A   1      35.440  22.081  24.484  1.00  0.00     0.251 C 
ATOM     16  H   UNL A   1      34.060  21.794  23.415  1.00  0.00     0.164 HD
ATOM     17  O   UNL A   1      35.237  20.892  24.774  1.00  0.00    -0.269 OA
BRANCH  15  18
ATOM     18  C   UNL A   1      36.658  22.563  25.139  1.00  0.00     0.041 A 
ATOM     19  C   UNL A   1      36.761  23.779  25.828  1.00  0.00     0.014 A 
ATOM     20  C   UNL A   1      37.658  21.609  25.348  1.00  0.00     0.034 A 
ATOM     21  C   UNL A   1      37.981  24.174  26.391  1.00  0.00     0.002 A 
ATOM     22  C   UNL A   1      38.839  21.965  25.992  1.00  0.00     0.041 A 
ATOM     23  C   UNL A   1      39.037  23.268  26.444  1.00  0.00     0.020 A 
ATOM     24  Cl  UNL A   1      40.054  20.778  26.249  1.00  0.00    -0.084 Cl
ENDBRANCH  15  18
ENDBRANCH  13  14
ENDBRANCH  10  13
ENDBRANCH   5   9
ENDBRANCH   3   5
ENDBRANCH   2   3
ENDBRANCH   1   2
BRANCH   1  25
ATOM     25  C   UNL A   1      32.961  29.218  26.365  1.00  0.00     0.275 C 
BRANCH  25  26
ATOM     26  O   UNL A   1      33.035  30.347  27.409  1.00  0.00    -0.458 OA
BRANCH  26  27
ATOM     27  C   UNL A   1      34.184  31.093  27.713  1.00  0.00     0.338 C 
ATOM     28  O   UNL A   1      34.137  32.308  27.850  1.00  0.00    -0.246 OA
BRANCH  27  29
ATOM     29  C   UNL A   1      35.518  30.314  28.096  1.00  0.00     0.060 A 
ATOM     30  C   UNL A   1      35.764  29.678  29.336  1.00  0.00     0.016 A 
ATOM     31  C   UNL A   1      36.673  30.449  27.317  1.00  0.00     0.016 A 
ATOM     32  C   UNL A   1      37.001  29.221  29.800  1.00  0.00     0.010 A 
ATOM     33  C   UNL A   1      37.948  29.958  27.762  1.00  0.00     0.010 A 
ATOM     34  C   UNL A   1      38.128  29.352  29.024  1.00  0.00    -0.014 A 
BRANCH  34  35
ATOM     35  C   UNL A   1      39.445  29.019  29.657  1.00  0.00     0.031 A 
ATOM     36  C   UNL A   1      39.878  29.800  30.871  1.00  0.00     0.074 A 
ATOM     37  C   UNL A   1      40.179  27.947  29.279  1.00  0.00     0.049 A 
ATOM     38  N   UNL A   1      41.040  29.839  31.468  1.00  0.00    -0.248 NA
ATOM     39  C   UNL A   1      38.854  30.653  31.497  1.00  0.00     0.031 C 
ATOM     40  C   UNL A   1      39.812  26.984  28.235  1.00  0.00     0.029 A 
ATOM     41  N   UNL A   1      41.393  27.475  29.733  1.00  0.00    -0.354 N 
ATOM     42  C   UNL A   1      40.910  30.775  32.489  1.00  0.00     0.074 A 
ATOM     43  C   UNL A   1      39.554  31.273  32.435  1.00  0.00     0.031 C 
ATOM     44  C   UNL A   1      40.776  26.056  28.121  1.00  0.00     0.029 A 
ATOM     45  C   UNL A   1      41.875  26.400  29.013  1.00  0.00     0.049 A 
ATOM     46  H   UNL A   1      41.872  27.868  30.498  1.00  0.00     0.167 HD
ATOM     47  C   UNL A   1      41.843  31.184  33.382  1.00  0.00     0.037 A 
ATOM     48  C   UNL A   1      43.087  25.805  29.018  1.00  0.00     0.037 A 
ATOM     49  C   UNL A   1      43.175  30.639  33.447  1.00  0.00     0.049 A 
ATOM     50  C   UNL A   1      44.142  26.330  29.958  1.00  0.00     0.074 A 
ATOM     51  C   UNL A   1      44.221  31.008  34.275  1.00  0.00     0.029 A 
ATOM     52  N   UNL A   1      43.638  29.589  32.666  1.00  0.00    -0.354 N 
ATOM     53  N   UNL A   1      44.056  27.307  30.830  1.00  0.00    -0.248 NA
ATOM     54  C   UNL A   1      45.461  25.683  29.908  1.00  0.00     0.031 C 
ATOM     55  C   UNL A   1      45.326  30.209  33.966  1.00  0.00     0.029 A 
ATOM     56  C   UNL A   1      44.953  29.301  32.987  1.00  0.00     0.049 A 
ATOM     57  H   UNL A   1      43.107  29.118  31.983  1.00  0.00     0.167 HD
ATOM     58  C   UNL A   1      45.302  27.384  31.442  1.00  0.00     0.074 A 
ATOM     59  C   UNL A   1      46.114  26.333  30.861  1.00  0.00     0.031 C 
ATOM     60  C   UNL A   1      45.740  28.248  32.393  1.00  0.00     0.037 A 
BRANCH  47  61
ATOM     61  C   UNL A   1      41.472  32.307  34.314  1.00  0.00     0.058 A 
ATOM     62  C   UNL A   1      40.963  32.079  35.602  1.00  0.00     0.135 A 
ATOM     63  C   UNL A   1      41.642  33.643  33.910  1.00  0.00     0.135 A 
ATOM     64  F   UNL A   1      40.752  30.825  36.033  1.00  0.00    -0.206 F 
ATOM     65  C   UNL A   1      40.614  33.131  36.445  1.00  0.00     0.059 A 
ATOM     66  C   UNL A   1      41.329  34.710  34.747  1.00  0.00     0.059 A 
ATOM     67  F   UNL A   1      42.117  33.922  32.685  1.00  0.00    -0.206 F 
ATOM     68  C   UNL A   1      40.804  34.444  36.008  1.00  0.00     0.060 A 
BRANCH  68  69
ATOM     69  S   UNL A   1      40.359  35.793  37.122  1.00  0.00     0.124 S 
ATOM     70  O   UNL A   1      39.819  36.777  36.193  1.00  0.00    -0.237 OA
ATOM     71  O   UNL A   1      39.397  35.161  38.012  1.00  0.00    -0.237 OA
ATOM     72  O   UNL A   1      41.637  36.155  37.742  1.00  0.00    -0.744 OA
ENDBRANCH  68  69
ENDBRANCH  47  61
BRANCH  48  73
ATOM     73  C   UNL A   1      43.403  24.716  28.044  1.00  0.00     0.058 A 
ATOM     74  C   UNL A   1      44.036  24.980  26.821  1.00  0.00     0.135 A 
ATOM     75  C   UNL A   1      43.057  23.380  28.315  1.00  0.00     0.135 A 
ATOM     76  F   UNL A   1      44.373  26.239  26.497  1.00  0.00    -0.206 F 
ATOM     77  C   UNL A   1      44.305  23.968  25.900  1.00  0.00     0.059 A 
ATOM     78  C   UNL A   1      43.345  22.348  27.427  1.00  0.00     0.059 A 
ATOM     79  F   UNL A   1      42.447  23.064  29.468  1.00  0.00    -0.206 F 
ATOM     80  C   UNL A   1      43.960  22.653  26.215  1.00  0.00     0.060 A 
BRANCH  80  81
ATOM     81  S   UNL A   1      44.356  21.343  25.035  1.00  0.00     0.124 S 
ATOM     82  O   UNL A   1      44.250  22.047  23.765  1.00  0.00    -0.237 OA
ATOM     83  O   UNL A   1      45.701  20.956  25.445  1.00  0.00    -0.237 OA
ATOM     84  O   UNL A   1      43.320  20.341  25.288  1.00  0.00    -0.744 OA
ENDBRANCH  80  81
ENDBRANCH  48  73
BRANCH  60  85
ATOM     85  C   UNL A   1      47.149  28.058  32.887  1.00  0.00     0.058 A 
ATOM     86  C   UNL A   1      47.448  27.207  33.962  1.00  0.00     0.135 A 
ATOM     87  C   UNL A   1      48.213  28.731  32.266  1.00  0.00     0.135 A 
ATOM     88  F   UNL A   1      46.467  26.542  34.592  1.00  0.00    -0.206 F 
ATOM     89  C   UNL A   1      48.748  27.070  34.438  1.00  0.00     0.059 A 
ATOM     90  C   UNL A   1      49.525  28.583  32.704  1.00  0.00     0.059 A 
ATOM     91  F   UNL A   1      47.984  29.545  31.222  1.00  0.00    -0.206 F 
ATOM     92  C   UNL A   1      49.779  27.768  33.805  1.00  0.00     0.060 A 
BRANCH  92  93
ATOM     93  S   UNL A   1      51.459  27.592  34.438  1.00  0.00     0.124 S 
ATOM     94  O   UNL A   1      51.916  28.978  34.443  1.00  0.00    -0.237 OA
ATOM     95  O   UNL A   1      51.238  26.993  35.752  1.00  0.00    -0.237 OA
ATOM     96  O   UNL A   1      52.103  26.721  33.461  1.00  0.00    -0.744 OA
ENDBRANCH  92  93
ENDBRANCH  60  85
ENDBRANCH  34  35
ENDBRANCH  27  29
ENDBRANCH  26  27
ENDBRANCH  25  26
ENDBRANCH   1  25
TORSDOF 19
ENDMDL
MODEL 3
REMARK VINA RESULT:      -9.5      5.544     11.581
REMARK SMILES CC[C@](C)(NC(=O)CNC(=O)c1cccc(Cl)c1)C(=O)OCCOC(=O)c1ccc(-c2c3nc(c(-c4c(F)cc(S(=O)(=O)[O-])cc4F)c4ccc([nH]4)c(-c4c(F)cc(S(=O)(=O)[O-])cc4F)c4nc(c(-c5c(F)cc(S(=O)(=O)[O-])cc5F)c5ccc2[nH]5)C=C4)C=C3)cc1
REMARK SMILES IDX 22 1 21 2 19 3 20 4 3 5 4 6 2 7 1 8 5 9 6 10 7 12 8 13 9 14
REMARK SMILES IDX 10 15 11 17 12 18 13 19 18 20 14 21 16 22 15 23 17 24 23 25
REMARK SMILES IDX 24 26 25 27 26 28 27 29 28 30 92 31 29 32 91 33 30 34 31 35
REMARK SMILES IDX 32 36 85 37 33 38 90 39 84 40 86 41 34 42 89 43 83 44 82 45
REMARK SMILES IDX 35 47 69 48 48 49 68 50 49 51 52 52 67 53 87 54 50 55 51 56
REMARK SMILES IDX 66 58 88 59 53 60 36 61 37 62 46 63 38 64 39 65 45 66 47 67
REMARK SMILES IDX 40 68 41 69 42 70 43 71 44 72 70 73 71 74 80 75 72 76 73 77
REMARK SMILES IDX 79 78 81 79 74 80 75 81 76 82 77 83 78 84 54 85 55 86 64 87
REMARK SMILES IDX 56 88 57 89 63 90 65 91 58 92 59 93 60 94 61 95 62 96
REMARK H PARENT 5 11 9 16 86 46 52 57
REMARK Flexibility Score: inf
ROOT
ATOM      1  C   UNL A   1      38.541  21.320  25.732  1.00  0.00     0.274 C 
ENDROOT
BRANCH   1   2
ATOM      2  O   UNL A   1      37.188  21.810  25.207  1.00  0.00    -0.460 OA
BRANCH   2   3
ATOM      3  C   UNL A   1      35.928  21.199  25.098  1.00  0.00     0.331 C 
ATOM      4  O   UNL A   1      35.792  19.992  24.942  1.00  0.00    -0.249 OA
BRANCH   3   5
ATOM      5  C   UNL A   1      34.609  22.259  25.291  1.00  0.00     0.135 C 
ATOM      6  C   UNL A   1      34.788  23.762  25.698  1.00  0.00     0.047 C 
BRANCH   5   7
ATOM      7  C   UNL A   1      33.627  21.672  26.361  1.00  0.00     0.037 C 
ATOM      8  C   UNL A   1      33.757  22.219  27.800  1.00  0.00     0.007 C 
ENDBRANCH   5   7
BRANCH   5   9
ATOM      9  N   UNL A   1      33.994  22.300  23.980  1.00  0.00    -0.339 N 
ATOM     10  C   UNL A   1      32.652  22.443  23.826  1.00  0.00     0.240 C 
ATOM     11  H   UNL A   1      34.563  22.221  23.181  1.00  0.00     0.164 HD
ATOM     12  O   UNL A   1      32.186  22.496  22.687  1.00  0.00    -0.273 OA
BRANCH  10  13
ATOM     13  C   UNL A   1      31.754  22.642  25.087  1.00  0.00     0.216 C 
BRANCH  13  14
ATOM     14  N   UNL A   1      30.922  23.955  25.685  1.00  0.00    -0.343 N 
ATOM     15  C   UNL A   1      30.373  25.180  26.014  1.00  0.00     0.251 C 
ATOM     16  H   UNL A   1      30.380  23.437  26.321  1.00  0.00     0.164 HD
ATOM     17  O   UNL A   1      29.340  25.118  26.699  1.00  0.00    -0.269 OA
BRANCH  15  18
ATOM     18  C   UNL A   1      30.705  26.576  25.721  1.00  0.00     0.041 A 
ATOM     19  C   UNL A   1      31.515  27.385  26.528  1.00  0.00     0.014 A 
ATOM     20  C   UNL A   1      30.455  27.003  24.415  1.00  0.00     0.034 A 
ATOM     21  C   UNL A   1      31.747  28.724  26.186  1.00  0.00     0.002 A 
ATOM     22  C   UNL A   1      30.767  28.304  24.033  1.00  0.00     0.041 A 
ATOM     23  C   UNL A   1      31.340  29.192  24.940  1.00  0.00     0.020 A 
ATOM     24  Cl  UNL A   1      30.461  28.809  22.419  1.00  0.00    -0.084 Cl
ENDBRANCH  15  18
ENDBRANCH  13  14
ENDBRANCH  10  13
ENDBRANCH   5   9
ENDBRANCH   3   5
ENDBRANCH   2   3
ENDBRANCH   1   2
BRANCH   1  25
ATOM     25  C   UNL A   1      39.210  19.724  25.406  1.00  0.00     0.275 C 
BRANCH  25  26
ATOM     26  O   UNL A   1      40.495  19.154  26.034  1.00  0.00    -0.458 OA
BRANCH  26  27
ATOM     27  C   UNL A   1      41.780  19.693  25.877  1.00  0.00     0.338 C 
ATOM     28  O   UNL A   1      42.642  19.109  25.234  1.00  0.00    -0.246 OA
BRANCH  27  29
ATOM     29  C   UNL A   1      42.045  21.185  26.363  1.00  0.00     0.060 A 
ATOM     30  C   UNL A   1      42.240  22.298  25.512  1.00  0.00     0.016 A 
ATOM     31  C   UNL A   1      42.389  21.453  27.693  1.00  0.00     0.016 A 
ATOM     32  C   UNL A   1      42.729  23.552  25.889  1.00  0.00     0.010 A 
ATOM     33  C   UNL A   1      42.864  22.744  28.107  1.00  0.00     0.010 A 
ATOM     34  C   UNL A   1      43.058  23.807  27.200  1.00  0.00    -0.014 A 
BRANCH  34  35
ATOM     35  C   UNL A   1      43.754  25.100  27.498  1.00  0.00     0.031 A 
ATOM     36  C   UNL A   1      42.958  26.220  28.116  1.00  0.00     0.074 A 
ATOM     37  C   UNL A   1      45.095  25.244  27.382  1.00  0.00     0.049 A 
ATOM     38  N   UNL A   1      43.273  27.478  28.279  1.00  0.00    -0.248 NA
ATOM     39  C   UNL A   1      41.620  25.868  28.619  1.00  0.00     0.031 C 
ATOM     40  C   UNL A   1      46.035  24.198  26.965  1.00  0.00     0.029 A 
ATOM     41  N   UNL A   1      45.912  26.332  27.609  1.00  0.00    -0.354 N 
ATOM     42  C   UNL A   1      42.148  28.082  28.832  1.00  0.00     0.074 A 
ATOM     43  C   UNL A   1      41.147  27.050  28.983  1.00  0.00     0.031 C 
ATOM     44  C   UNL A   1      47.283  24.693  26.953  1.00  0.00     0.029 A 
ATOM     45  C   UNL A   1      47.232  26.115  27.271  1.00  0.00     0.049 A 
ATOM     46  H   UNL A   1      45.584  27.184  27.978  1.00  0.00     0.167 HD
ATOM     47  C   UNL A   1      41.971  29.381  29.173  1.00  0.00     0.037 A 
ATOM     48  C   UNL A   1      48.269  26.973  27.158  1.00  0.00     0.037 A 
ATOM     49  C   UNL A   1      43.000  30.383  29.057  1.00  0.00     0.049 A 
ATOM     50  C   UNL A   1      48.031  28.431  27.457  1.00  0.00     0.074 A 
ATOM     51  C   UNL A   1      42.921  31.738  29.324  1.00  0.00     0.029 A 
ATOM     52  N   UNL A   1      44.306  30.130  28.661  1.00  0.00    -0.354 N 
ATOM     53  N   UNL A   1      46.927  29.022  27.851  1.00  0.00    -0.248 NA
ATOM     54  C   UNL A   1      49.171  29.342  27.286  1.00  0.00     0.031 C 
ATOM     55  C   UNL A   1      44.168  32.310  29.050  1.00  0.00     0.029 A 
ATOM     56  C   UNL A   1      45.041  31.303  28.670  1.00  0.00     0.049 A 
ATOM     57  H   UNL A   1      44.659  29.245  28.410  1.00  0.00     0.167 HD
ATOM     58  C   UNL A   1      47.242  30.369  27.988  1.00  0.00     0.074 A 
ATOM     59  C   UNL A   1      48.649  30.500  27.664  1.00  0.00     0.031 C 
ATOM     60  C   UNL A   1      46.442  31.406  28.343  1.00  0.00     0.037 A 
BRANCH  47  61
ATOM     61  C   UNL A   1      40.602  29.798  29.644  1.00  0.00     0.058 A 
ATOM     62  C   UNL A   1      40.324  30.078  30.991  1.00  0.00     0.135 A 
ATOM     63  C   UNL A   1      39.550  29.930  28.721  1.00  0.00     0.135 A 
ATOM     64  F   UNL A   1      41.282  29.942  31.922  1.00  0.00    -0.206 F 
ATOM     65  C   UNL A   1      39.049  30.450  31.409  1.00  0.00     0.059 A 
ATOM     66  C   UNL A   1      38.276  30.331  29.112  1.00  0.00     0.059 A 
ATOM     67  F   UNL A   1      39.756  29.667  27.421  1.00  0.00    -0.206 F 
ATOM     68  C   UNL A   1      38.031  30.576  30.460  1.00  0.00     0.060 A 
BRANCH  68  69
ATOM     69  S   UNL A   1      36.390  31.074  31.022  1.00  0.00     0.124 S 
ATOM     70  O   UNL A   1      35.634  31.058  29.776  1.00  0.00    -0.237 OA
ATOM     71  O   UNL A   1      36.057  30.033  31.983  1.00  0.00    -0.237 OA
ATOM     72  O   UNL A   1      36.618  32.404  31.597  1.00  0.00    -0.744 OA
ENDBRANCH  68  69
ENDBRANCH  47  61
BRANCH  48  73
ATOM     73  C   UNL A   1      49.594  26.502  26.652  1.00  0.00     0.058 A 
ATOM     74  C   UNL A   1      50.541  25.911  27.502  1.00  0.00     0.135 A 
ATOM     75  C   UNL A   1      49.948  26.652  25.299  1.00  0.00     0.135 A 
ATOM     76  F   UNL A   1      50.269  25.759  28.808  1.00  0.00    -0.206 F 
ATOM     77  C   UNL A   1      51.789  25.497  27.037  1.00  0.00     0.059 A 
ATOM     78  C   UNL A   1      51.173  26.216  24.804  1.00  0.00     0.059 A 
ATOM     79  F   UNL A   1      49.086  27.212  24.437  1.00  0.00    -0.206 F 
ATOM     80  C   UNL A   1      52.093  25.649  25.683  1.00  0.00     0.060 A 
BRANCH  80  81
ATOM     81  S   UNL A   1      53.694  25.066  25.081  1.00  0.00     0.124 S 
ATOM     82  O   UNL A   1      53.573  23.626  25.264  1.00  0.00    -0.237 OA
ATOM     83  O   UNL A   1      53.694  25.540  23.702  1.00  0.00    -0.237 OA
ATOM     84  O   UNL A   1      54.648  25.735  25.966  1.00  0.00    -0.744 OA
ENDBRANCH  80  81
ENDBRANCH  48  73
BRANCH  60  85
ATOM     85  C   UNL A   1      47.089  32.762  28.436  1.00  0.00     0.058 A 
ATOM     86  C   UNL A   1      47.064  33.670  27.366  1.00  0.00     0.135 A 
ATOM     87  C   UNL A   1      47.735  33.158  29.618  1.00  0.00     0.135 A 
ATOM     88  F   UNL A   1      46.462  33.340  26.213  1.00  0.00    -0.206 F 
ATOM     89  C   UNL A   1      47.700  34.904  27.447  1.00  0.00     0.059 A 
ATOM     90  C   UNL A   1      48.349  34.401  29.733  1.00  0.00     0.059 A 
ATOM     91  F   UNL A   1      47.774  32.334  30.678  1.00  0.00    -0.206 F 
ATOM     92  C   UNL A   1      48.346  35.257  28.633  1.00  0.00     0.060 A 
BRANCH  92  93
ATOM     93  S   UNL A   1      49.179  36.855  28.723  1.00  0.00     0.124 S 
ATOM     94  O   UNL A   1      48.520  37.464  29.875  1.00  0.00    -0.237 OA
ATOM     95  O   UNL A   1      50.574  36.471  28.921  1.00  0.00    -0.237 OA
ATOM     96  O   UNL A   1      48.882  37.468  27.433  1.00  0.00    -0.744 OA
ENDBRANCH  92  93
ENDBRANCH  60  85
ENDBRANCH  34  35
ENDBRANCH  27  29
ENDBRANCH  26  27
ENDBRANCH  25  26
ENDBRANCH   1  25
TORSDOF 19
ENDMDL
