MODEL 1
REMARK VINA RESULT:     -10.5      0.000      0.000
REMARK SMILES CCCC1(CCC)CN(c2cncc(C(=O)OCCOC(=O)c3ccc(-c4c5nc(c(-c6c(F)cc(S(=O)(=O)[O-])cc6F)c6ccc([nH]6)c(-c6c(F)cc(S(=O)(=O)[O-])cc6F)c6nc(c(-c7c(F)cc(S(=O)(=O)[O-])cc7F)c7ccc4[nH]7)C=C6)C=C5)cc3)c2)C1
REMARK SMILES IDX 18 1 17 2 15 3 16 4 14 5 10 6 11 7 89 8 12 9 13 10 9 11 4 12
REMARK SMILES IDX 8 13 90 14 3 15 2 16 1 17 5 18 6 19 7 20 19 21 20 22 21 23
REMARK SMILES IDX 22 24 23 25 24 26 88 27 25 28 87 29 26 30 27 31 28 32 81 33
REMARK SMILES IDX 29 34 86 35 80 36 82 37 30 38 85 39 79 40 78 41 31 43 65 44
REMARK SMILES IDX 44 45 64 46 45 47 48 48 63 49 83 50 46 51 47 52 62 54 84 55
REMARK SMILES IDX 49 56 32 57 33 58 42 59 34 60 35 61 41 62 43 63 36 64 37 65
REMARK SMILES IDX 38 66 39 67 40 68 66 69 67 70 76 71 68 72 69 73 75 74 77 75
REMARK SMILES IDX 70 76 71 77 72 78 73 79 74 80 50 81 51 82 60 83 52 84 53 85
REMARK SMILES IDX 59 86 61 87 54 88 55 89 56 90 57 91 58 92
REMARK H PARENT 82 42 48 53
REMARK Flexibility Score: inf
ROOT
ATOM      1  C   UNL A   1      41.111  20.692  27.094  1.00  0.00     0.275 C 
ENDROOT
BRANCH   1   2
ATOM      2  O   UNL A   1      41.694  20.407  25.807  1.00  0.00    -0.458 OA
BRANCH   2   3
ATOM      3  C   UNL A   1      42.437  19.274  25.704  1.00  0.00     0.339 C 
ATOM      4  O   UNL A   1      42.034  18.130  25.770  1.00  0.00    -0.246 OA
BRANCH   3   5
ATOM      5  C   UNL A   1      43.835  19.630  25.392  1.00  0.00     0.080 A 
ATOM      6  C   UNL A   1      45.567  21.265  25.017  1.00  0.00     0.056 A 
ATOM      7  C   UNL A   1      46.400  20.217  24.640  1.00  0.00     0.136 A 
ATOM      8  C   UNL A   1      44.254  20.951  25.369  1.00  0.00     0.044 A 
ATOM      9  N   UNL A   1      46.043  18.914  24.705  1.00  0.00    -0.262 NA
ATOM     10  C   UNL A   1      44.779  18.651  25.117  1.00  0.00     0.126 A 
BRANCH   6  11
ATOM     11  N   UNL A   1      45.969  22.594  25.127  1.00  0.00    -0.369 N 
ATOM     12  C   UNL A   1      46.197  24.636  25.323  1.00  0.00     0.005 C 
ATOM     13  C   UNL A   1      46.422  23.370  26.227  1.00  0.00     0.125 C 
ATOM     14  C   UNL A   1      45.287  23.688  24.504  1.00  0.00     0.125 C 
BRANCH  12  15
ATOM     15  C   UNL A   1      45.508  25.695  26.197  1.00  0.00     0.010 C 
BRANCH  15  16
ATOM     16  C   UNL A   1      44.754  26.797  25.470  1.00  0.00    -0.003 C 
ATOM     17  C   UNL A   1      44.847  28.171  26.112  1.00  0.00     0.004 C 
ENDBRANCH  15  16
ENDBRANCH  12  15
BRANCH  12  18
ATOM     18  C   UNL A   1      47.519  25.054  24.630  1.00  0.00     0.010 C 
BRANCH  18  19
ATOM     19  C   UNL A   1      48.424  26.030  25.402  1.00  0.00    -0.003 C 
ATOM     20  C   UNL A   1      48.400  27.471  24.915  1.00  0.00     0.004 C 
ENDBRANCH  18  19
ENDBRANCH  12  18
ENDBRANCH   6  11
ENDBRANCH   3   5
ENDBRANCH   2   3
ENDBRANCH   1   2
BRANCH   1  21
ATOM     21  C   UNL A   1      40.397  22.045  27.097  1.00  0.00     0.275 C 
BRANCH  21  22
ATOM     22  O   UNL A   1      41.196  23.037  27.768  1.00  0.00    -0.458 OA
BRANCH  22  23
ATOM     23  C   UNL A   1      41.440  24.156  27.047  1.00  0.00     0.338 C 
ATOM     24  O   UNL A   1      41.744  24.224  25.868  1.00  0.00    -0.246 OA
BRANCH  23  25
ATOM     25  C   UNL A   1      41.139  25.351  27.850  1.00  0.00     0.060 A 
ATOM     26  C   UNL A   1      42.208  26.180  28.155  1.00  0.00     0.016 A 
ATOM     27  C   UNL A   1      39.907  25.557  28.459  1.00  0.00     0.016 A 
ATOM     28  C   UNL A   1      42.101  27.144  29.148  1.00  0.00     0.010 A 
ATOM     29  C   UNL A   1      39.764  26.612  29.375  1.00  0.00     0.010 A 
ATOM     30  C   UNL A   1      40.870  27.395  29.761  1.00  0.00    -0.014 A 
BRANCH  30  31
ATOM     31  C   UNL A   1      40.779  28.458  30.807  1.00  0.00     0.031 A 
ATOM     32  C   UNL A   1      41.709  28.451  31.995  1.00  0.00     0.074 A 
ATOM     33  C   UNL A   1      39.883  29.462  30.672  1.00  0.00     0.049 A 
ATOM     34  N   UNL A   1      41.700  29.217  33.056  1.00  0.00    -0.248 NA
ATOM     35  C   UNL A   1      42.782  27.443  32.001  1.00  0.00     0.031 C 
ATOM     36  C   UNL A   1      38.945  29.615  29.556  1.00  0.00     0.029 A 
ATOM     37  N   UNL A   1      39.620  30.551  31.467  1.00  0.00    -0.354 N 
ATOM     38  C   UNL A   1      42.719  28.749  33.879  1.00  0.00     0.074 A 
ATOM     39  C   UNL A   1      43.326  27.627  33.196  1.00  0.00     0.031 C 
ATOM     40  C   UNL A   1      38.246  30.748  29.714  1.00  0.00     0.029 A 
ATOM     41  C   UNL A   1      38.604  31.350  30.992  1.00  0.00     0.049 A 
ATOM     42  H   UNL A   1      40.111  30.742  32.299  1.00  0.00     0.167 HD
ATOM     43  C   UNL A   1      43.112  29.215  35.090  1.00  0.00     0.037 A 
ATOM     44  C   UNL A   1      37.985  32.414  31.538  1.00  0.00     0.037 A 
ATOM     45  C   UNL A   1      42.539  30.372  35.735  1.00  0.00     0.049 A 
ATOM     46  C   UNL A   1      38.421  32.894  32.892  1.00  0.00     0.074 A 
ATOM     47  C   UNL A   1      42.899  30.946  36.942  1.00  0.00     0.029 A 
ATOM     48  N   UNL A   1      41.495  31.132  35.229  1.00  0.00    -0.354 N 
ATOM     49  N   UNL A   1      39.376  32.426  33.662  1.00  0.00    -0.248 NA
ATOM     50  C   UNL A   1      37.691  34.033  33.461  1.00  0.00     0.031 C 
ATOM     51  C   UNL A   1      42.033  32.015  37.195  1.00  0.00     0.029 A 
ATOM     52  C   UNL A   1      41.176  32.150  36.115  1.00  0.00     0.049 A 
ATOM     53  H   UNL A   1      41.046  30.973  34.367  1.00  0.00     0.167 HD
ATOM     54  C   UNL A   1      39.368  33.224  34.800  1.00  0.00     0.074 A 
ATOM     55  C   UNL A   1      38.335  34.220  34.604  1.00  0.00     0.031 C 
ATOM     56  C   UNL A   1      40.142  33.135  35.911  1.00  0.00     0.037 A 
BRANCH  43  57
ATOM     57  C   UNL A   1      44.183  28.456  35.831  1.00  0.00     0.058 A 
ATOM     58  C   UNL A   1      45.548  28.749  35.693  1.00  0.00     0.135 A 
ATOM     59  C   UNL A   1      43.822  27.457  36.752  1.00  0.00     0.135 A 
ATOM     60  F   UNL A   1      45.954  29.685  34.819  1.00  0.00    -0.206 F 
ATOM     61  C   UNL A   1      46.517  28.068  36.425  1.00  0.00     0.059 A 
ATOM     62  C   UNL A   1      44.771  26.784  37.516  1.00  0.00     0.059 A 
ATOM     63  F   UNL A   1      42.531  27.132  36.926  1.00  0.00    -0.206 F 
ATOM     64  C   UNL A   1      46.119  27.090  37.338  1.00  0.00     0.060 A 
BRANCH  64  65
ATOM     65  S   UNL A   1      47.385  26.234  38.299  1.00  0.00     0.124 S 
ATOM     66  O   UNL A   1      46.585  25.261  39.036  1.00  0.00    -0.237 OA
ATOM     67  O   UNL A   1      48.248  25.685  37.257  1.00  0.00    -0.237 OA
ATOM     68  O   UNL A   1      47.980  27.296  39.105  1.00  0.00    -0.744 OA
ENDBRANCH  64  65
ENDBRANCH  43  57
BRANCH  44  69
ATOM     69  C   UNL A   1      36.842  33.055  30.828  1.00  0.00     0.058 A 
ATOM     70  C   UNL A   1      37.043  33.915  29.739  1.00  0.00     0.135 A 
ATOM     71  C   UNL A   1      35.516  32.812  31.228  1.00  0.00     0.135 A 
ATOM     72  F   UNL A   1      38.289  34.191  29.324  1.00  0.00    -0.206 F 
ATOM     73  C   UNL A   1      35.976  34.524  29.083  1.00  0.00     0.059 A 
ATOM     74  C   UNL A   1      34.433  33.378  30.565  1.00  0.00     0.059 A 
ATOM     75  F   UNL A   1      35.263  31.989  32.258  1.00  0.00    -0.206 F 
ATOM     76  C   UNL A   1      34.675  34.246  29.502  1.00  0.00     0.060 A 
BRANCH  76  77
ATOM     77  S   UNL A   1      33.295  35.009  28.621  1.00  0.00     0.124 S 
ATOM     78  O   UNL A   1      33.977  36.040  27.847  1.00  0.00    -0.237 OA
ATOM     79  O   UNL A   1      32.759  33.886  27.858  1.00  0.00    -0.237 OA
ATOM     80  O   UNL A   1      32.435  35.493  29.698  1.00  0.00    -0.744 OA
ENDBRANCH  76  77
ENDBRANCH  44  69
BRANCH  56  81
ATOM     81  C   UNL A   1      39.920  34.162  36.986  1.00  0.00     0.058 A 
ATOM     82  C   UNL A   1      39.112  33.899  38.106  1.00  0.00     0.135 A 
ATOM     83  C   UNL A   1      40.539  35.420  36.908  1.00  0.00     0.135 A 
ATOM     84  F   UNL A   1      38.490  32.716  38.227  1.00  0.00    -0.206 F 
ATOM     85  C   UNL A   1      38.899  34.859  39.089  1.00  0.00     0.059 A 
ATOM     86  C   UNL A   1      40.366  36.383  37.897  1.00  0.00     0.059 A 
ATOM     87  F   UNL A   1      41.329  35.721  35.865  1.00  0.00    -0.206 F 
ATOM     88  C   UNL A   1      39.531  36.099  38.975  1.00  0.00     0.060 A 
BRANCH  88  89
ATOM     89  S   UNL A   1      39.253  37.331  40.265  1.00  0.00     0.124 S 
ATOM     90  O   UNL A   1      38.527  36.554  41.263  1.00  0.00    -0.237 OA
ATOM     91  O   UNL A   1      40.615  37.714  40.627  1.00  0.00    -0.237 OA
ATOM     92  O   UNL A   1      38.477  38.365  39.586  1.00  0.00    -0.744 OA
ENDBRANCH  88  89
ENDBRANCH  56  81
ENDBRANCH  30  31
ENDBRANCH  23  25
ENDBRANCH  22  23
ENDBRANCH  21  22
ENDBRANCH   1  21
TORSDOF 19
ENDMDL
MODEL 2
REMARK VINA RESULT:     -10.2      2.923      3.610
REMARK SMILES CCCC1(CCC)CN(c2cncc(C(=O)OCCOC(=O)c3ccc(-c4c5nc(c(-c6c(F)cc(S(=O)(=O)[O-])cc6F)c6ccc([nH]6)c(-c6c(F)cc(S(=O)(=O)[O-])cc6F)c6nc(c(-c7c(F)cc(S(=O)(=O)[O-])cc7F)c7ccc4[nH]7)C=C6)C=C5)cc3)c2)C1
REMARK SMILES IDX 18 1 17 2 15 3 16 4 14 5 10 6 11 7 89 8 12 9 13 10 9 11 4 12
REMARK SMILES IDX 8 13 90 14 3 15 2 16 1 17 5 18 6 19 7 20 19 21 20 22 21 23
REMARK SMILES IDX 22 24 23 25 24 26 88 27 25 28 87 29 26 30 27 31 28 32 81 33
REMARK SMILES IDX 29 34 86 35 80 36 82 37 30 38 85 39 79 40 78 41 31 43 65 44
REMARK SMILES IDX 44 45 64 46 45 47 48 48 63 49 83 50 46 51 47 52 62 54 84 55
REMARK SMILES IDX 49 56 32 57 33 58 42 59 34 60 35 61 41 62 43 63 36 64 37 65
REMARK SMILES IDX 38 66 39 67 40 68 66 69 67 70 76 71 68 72 69 73 75 74 77 75
REMARK SMILES IDX 70 76 71 77 72 78 73 79 74 80 50 81 51 82 60 83 52 84 53 85
REMARK SMILES IDX 59 86 61 87 54 88 55 89 56 90 57 91 58 92
REMARK H PARENT 82 42 48 53
REMARK Flexibility Score: inf
ROOT
ATOM      1  C   UNL A   1      40.895  19.949  26.558  1.00  0.00     0.275 C 
ENDROOT
BRANCH   1   2
ATOM      2  O   UNL A   1      41.706  19.568  25.431  1.00  0.00    -0.458 OA
BRANCH   2   3
ATOM      3  C   UNL A   1      42.750  18.733  25.676  1.00  0.00     0.339 C 
ATOM      4  O   UNL A   1      42.688  17.562  25.989  1.00  0.00    -0.246 OA
BRANCH   3   5
ATOM      5  C   UNL A   1      44.018  19.440  25.405  1.00  0.00     0.080 A 
ATOM      6  C   UNL A   1      45.316  21.465  25.242  1.00  0.00     0.056 A 
ATOM      7  C   UNL A   1      46.352  20.695  24.723  1.00  0.00     0.136 A 
ATOM      8  C   UNL A   1      44.123  20.814  25.556  1.00  0.00     0.044 A 
ATOM      9  N   UNL A   1      46.305  19.347  24.616  1.00  0.00    -0.262 NA
ATOM     10  C   UNL A   1      45.149  18.749  24.997  1.00  0.00     0.126 A 
BRANCH   6  11
ATOM     11  N   UNL A   1      45.408  22.825  25.525  1.00  0.00    -0.369 N 
ATOM     12  C   UNL A   1      45.230  24.870  25.742  1.00  0.00     0.005 C 
ATOM     13  C   UNL A   1      44.991  23.602  26.639  1.00  0.00     0.125 C 
ATOM     14  C   UNL A   1      45.138  23.859  24.573  1.00  0.00     0.125 C 
BRANCH  12  15
ATOM     15  C   UNL A   1      44.032  25.807  25.962  1.00  0.00     0.010 C 
BRANCH  15  16
ATOM     16  C   UNL A   1      44.140  27.204  25.371  1.00  0.00    -0.003 C 
ATOM     17  C   UNL A   1      43.512  28.305  26.210  1.00  0.00     0.004 C 
ENDBRANCH  15  16
ENDBRANCH  12  15
BRANCH  12  18
ATOM     18  C   UNL A   1      46.639  25.464  26.000  1.00  0.00     0.010 C 
BRANCH  18  19
ATOM     19  C   UNL A   1      46.857  26.158  27.356  1.00  0.00    -0.003 C 
ATOM     20  C   UNL A   1      48.126  26.988  27.470  1.00  0.00     0.004 C 
ENDBRANCH  18  19
ENDBRANCH  12  18
ENDBRANCH   6  11
ENDBRANCH   3   5
ENDBRANCH   2   3
ENDBRANCH   1   2
BRANCH   1  21
ATOM     21  C   UNL A   1      39.733  20.849  26.133  1.00  0.00     0.275 C 
BRANCH  21  22
ATOM     22  O   UNL A   1      39.916  22.185  26.640  1.00  0.00    -0.458 OA
BRANCH  22  23
ATOM     23  C   UNL A   1      38.984  23.079  26.238  1.00  0.00     0.338 C 
ATOM     24  O   UNL A   1      38.046  22.882  25.484  1.00  0.00    -0.246 OA
BRANCH  23  25
ATOM     25  C   UNL A   1      39.153  24.347  26.964  1.00  0.00     0.060 A 
ATOM     26  C   UNL A   1      39.900  25.331  26.333  1.00  0.00     0.016 A 
ATOM     27  C   UNL A   1      38.777  24.508  28.293  1.00  0.00     0.016 A 
ATOM     28  C   UNL A   1      40.379  26.424  27.040  1.00  0.00     0.010 A 
ATOM     29  C   UNL A   1      39.159  25.675  28.976  1.00  0.00     0.010 A 
ATOM     30  C   UNL A   1      39.998  26.631  28.369  1.00  0.00    -0.014 A 
BRANCH  30  31
ATOM     31  C   UNL A   1      40.508  27.832  29.098  1.00  0.00     0.031 A 
ATOM     32  C   UNL A   1      41.916  27.862  29.641  1.00  0.00     0.074 A 
ATOM     33  C   UNL A   1      39.719  28.921  29.237  1.00  0.00     0.049 A 
ATOM     34  N   UNL A   1      42.489  28.764  30.397  1.00  0.00    -0.248 NA
ATOM     35  C   UNL A   1      42.789  26.727  29.305  1.00  0.00     0.031 C 
ATOM     36  C   UNL A   1      38.349  29.045  28.730  1.00  0.00     0.029 A 
ATOM     37  N   UNL A   1      39.954  30.137  29.832  1.00  0.00    -0.354 N 
ATOM     38  C   UNL A   1      43.763  28.279  30.676  1.00  0.00     0.074 A 
ATOM     39  C   UNL A   1      43.878  26.999  30.010  1.00  0.00     0.031 C 
ATOM     40  C   UNL A   1      37.885  30.274  28.995  1.00  0.00     0.029 A 
ATOM     41  C   UNL A   1      38.877  30.993  29.783  1.00  0.00     0.049 A 
ATOM     42  H   UNL A   1      40.812  30.373  30.256  1.00  0.00     0.167 HD
ATOM     43  C   UNL A   1      44.744  28.851  31.417  1.00  0.00     0.037 A 
ATOM     44  C   UNL A   1      38.678  32.199  30.350  1.00  0.00     0.037 A 
ATOM     45  C   UNL A   1      44.640  30.155  32.026  1.00  0.00     0.049 A 
ATOM     46  C   UNL A   1      39.771  32.799  31.187  1.00  0.00     0.074 A 
ATOM     47  C   UNL A   1      45.596  30.837  32.759  1.00  0.00     0.029 A 
ATOM     48  N   UNL A   1      43.521  30.974  31.972  1.00  0.00    -0.354 N 
ATOM     49  N   UNL A   1      40.963  32.316  31.453  1.00  0.00    -0.248 NA
ATOM     50  C   UNL A   1      39.493  34.096  31.814  1.00  0.00     0.031 C 
ATOM     51  C   UNL A   1      45.035  32.041  33.199  1.00  0.00     0.029 A 
ATOM     52  C   UNL A   1      43.752  32.140  32.686  1.00  0.00     0.049 A 
ATOM     53  H   UNL A   1      42.686  30.759  31.496  1.00  0.00     0.167 HD
ATOM     54  C   UNL A   1      41.579  33.259  32.267  1.00  0.00     0.074 A 
ATOM     55  C   UNL A   1      40.640  34.351  32.426  1.00  0.00     0.031 C 
ATOM     56  C   UNL A   1      42.808  33.220  32.839  1.00  0.00     0.037 A 
BRANCH  43  57
ATOM     57  C   UNL A   1      46.006  28.063  31.656  1.00  0.00     0.058 A 
ATOM     58  C   UNL A   1      47.173  28.259  30.901  1.00  0.00     0.135 A 
ATOM     59  C   UNL A   1      46.064  27.137  32.713  1.00  0.00     0.135 A 
ATOM     60  F   UNL A   1      47.175  29.119  29.869  1.00  0.00    -0.206 F 
ATOM     61  C   UNL A   1      48.343  27.553  31.171  1.00  0.00     0.059 A 
ATOM     62  C   UNL A   1      47.230  26.444  33.021  1.00  0.00     0.059 A 
ATOM     63  F   UNL A   1      44.978  26.908  33.469  1.00  0.00    -0.206 F 
ATOM     64  C   UNL A   1      48.363  26.651  32.237  1.00  0.00     0.060 A 
BRANCH  64  65
ATOM     65  S   UNL A   1      49.896  25.765  32.592  1.00  0.00     0.124 S 
ATOM     66  O   UNL A   1      49.627  25.240  33.927  1.00  0.00    -0.237 OA
ATOM     67  O   UNL A   1      49.938  24.776  31.520  1.00  0.00    -0.237 OA
ATOM     68  O   UNL A   1      50.918  26.805  32.521  1.00  0.00    -0.744 OA
ENDBRANCH  64  65
ENDBRANCH  43  57
BRANCH  44  69
ATOM     69  C   UNL A   1      37.365  32.886  30.196  1.00  0.00     0.058 A 
ATOM     70  C   UNL A   1      37.093  33.712  29.096  1.00  0.00     0.135 A 
ATOM     71  C   UNL A   1      36.348  32.723  31.153  1.00  0.00     0.135 A 
ATOM     72  F   UNL A   1      38.033  33.912  28.159  1.00  0.00    -0.206 F 
ATOM     73  C   UNL A   1      35.871  34.364  28.957  1.00  0.00     0.059 A 
ATOM     74  C   UNL A   1      35.106  33.333  31.017  1.00  0.00     0.059 A 
ATOM     75  F   UNL A   1      36.548  31.936  32.221  1.00  0.00    -0.206 F 
ATOM     76  C   UNL A   1      34.883  34.165  29.921  1.00  0.00     0.060 A 
BRANCH  76  77
ATOM     77  S   UNL A   1      33.286  34.983  29.713  1.00  0.00     0.124 S 
ATOM     78  O   UNL A   1      33.691  36.290  29.209  1.00  0.00    -0.237 OA
ATOM     79  O   UNL A   1      32.615  34.108  28.757  1.00  0.00    -0.237 OA
ATOM     80  O   UNL A   1      32.725  34.973  31.062  1.00  0.00    -0.744 OA
ENDBRANCH  76  77
ENDBRANCH  44  69
BRANCH  56  81
ATOM     81  C   UNL A   1      43.220  34.408  33.664  1.00  0.00     0.058 A 
ATOM     82  C   UNL A   1      43.919  35.490  33.104  1.00  0.00     0.135 A 
ATOM     83  C   UNL A   1      42.892  34.476  35.027  1.00  0.00     0.135 A 
ATOM     84  F   UNL A   1      44.265  35.474  31.807  1.00  0.00    -0.206 F 
ATOM     85  C   UNL A   1      44.310  36.580  33.876  1.00  0.00     0.059 A 
ATOM     86  C   UNL A   1      43.243  35.571  35.811  1.00  0.00     0.059 A 
ATOM     87  F   UNL A   1      42.216  33.474  35.612  1.00  0.00    -0.206 F 
ATOM     88  C   UNL A   1      43.967  36.610  35.229  1.00  0.00     0.060 A 
BRANCH  88  89
ATOM     89  S   UNL A   1      44.471  38.035  36.217  1.00  0.00     0.124 S 
ATOM     90  O   UNL A   1      45.909  37.817  36.336  1.00  0.00    -0.237 OA
ATOM     91  O   UNL A   1      44.067  39.157  35.373  1.00  0.00    -0.237 OA
ATOM     92  O   UNL A   1      43.707  37.881  37.451  1.00  0.00    -0.744 OA
ENDBRANCH  88  89
ENDBRANCH  56  81
ENDBRANCH  30  31
ENDBRANCH  23  25
ENDBRANCH  22  23
ENDBRANCH  21  22
ENDBRANCH   1  21
TORSDOF 19
ENDMDL
MODEL 3
REMARK VINA RESULT:     -10.1      3.914      6.351
REMARK SMILES CCCC1(CCC)CN(c2cncc(C(=O)OCCOC(=O)c3ccc(-c4c5nc(c(-c6c(F)cc(S(=O)(=O)[O-])cc6F)c6ccc([nH]6)c(-c6c(F)cc(S(=O)(=O)[O-])cc6F)c6nc(c(-c7c(F)cc(S(=O)(=O)[O-])cc7F)c7ccc4[nH]7)C=C6)C=C5)cc3)c2)C1
REMARK SMILES IDX 18 1 17 2 15 3 16 4 14 5 10 6 11 7 89 8 12 9 13 10 9 11 4 12
REMARK SMILES IDX 8 13 90 14 3 15 2 16 1 17 5 18 6 19 7 20 19 21 20 22 21 23
REMARK SMILES IDX 22 24 23 25 24 26 88 27 25 28 87 29 26 30 27 31 28 32 81 33
REMARK SMILES IDX 29 34 86 35 80 36 82 37 30 38 85 39 79 40 78 41 31 43 65 44
REMARK SMILES IDX 44 45 64 46 45 47 48 48 63 49 83 50 46 51 47 52 62 54 84 55
REMARK SMILES IDX 49 56 32 57 33 58 42 59 34 60 35 61 41 62 43 63 36 64 37 65
REMARK SMILES IDX 38 66 39 67 40 68 66 69 67 70 76 71 68 72 69 73 75 74 77 75
REMARK SMILES IDX 70 76 71 77 72 78 73 79 74 80 50 81 51 82 60 83 52 84 53 85
REMARK SMILES IDX 59 86 61 87 54 88 55 89 56 90 57 91 58 92
REMARK H PARENT 82 42 48 53
REMARK Flexibility Score: inf
ROOT
ATOM      1  C   UNL A   1      37.320  22.530  25.771  1.00  0.00     0.275 C 
ENDROOT
BRANCH   1   2
ATOM      2  O   UNL A   1      37.143  21.919  24.479  1.00  0.00    -0.458 OA
BRANCH   2   3
ATOM      3  C   UNL A   1      36.360  22.579  23.586  1.00  0.00     0.339 C 
ATOM      4  O   UNL A   1      36.685  22.975  22.485  1.00  0.00    -0.246 OA
BRANCH   3   5
ATOM      5  C   UNL A   1      34.983  22.668  24.112  1.00  0.00     0.080 A 
ATOM      6  C   UNL A   1      33.046  23.950  24.758  1.00  0.00     0.056 A 
ATOM      7  C   UNL A   1      32.499  22.772  25.255  1.00  0.00     0.136 A 
ATOM      8  C   UNL A   1      34.326  23.885  24.206  1.00  0.00     0.044 A 
ATOM      9  N   UNL A   1      33.087  21.560  25.129  1.00  0.00    -0.262 NA
ATOM     10  C   UNL A   1      34.300  21.534  24.525  1.00  0.00     0.126 A 
BRANCH   6  11
ATOM     11  N   UNL A   1      32.383  25.174  24.718  1.00  0.00    -0.369 N 
ATOM     12  C   UNL A   1      31.553  27.020  24.317  1.00  0.00     0.005 C 
ATOM     13  C   UNL A   1      31.052  25.532  24.374  1.00  0.00     0.125 C 
ATOM     14  C   UNL A   1      32.953  26.373  24.183  1.00  0.00     0.125 C 
BRANCH  12  15
ATOM     15  C   UNL A   1      30.942  27.651  23.056  1.00  0.00     0.010 C 
BRANCH  15  16
ATOM     16  C   UNL A   1      29.558  28.265  23.200  1.00  0.00    -0.003 C 
ATOM     17  C   UNL A   1      29.416  29.666  22.629  1.00  0.00     0.004 C 
ENDBRANCH  15  16
ENDBRANCH  12  15
BRANCH  12  18
ATOM     18  C   UNL A   1      31.278  27.741  25.662  1.00  0.00     0.010 C 
BRANCH  18  19
ATOM     19  C   UNL A   1      32.173  28.947  25.993  1.00  0.00    -0.003 C 
ATOM     20  C   UNL A   1      31.550  30.313  25.751  1.00  0.00     0.004 C 
ENDBRANCH  18  19
ENDBRANCH  12  18
ENDBRANCH   6  11
ENDBRANCH   3   5
ENDBRANCH   2   3
ENDBRANCH   1   2
BRANCH   1  21
ATOM     21  C   UNL A   1      38.795  22.817  26.057  1.00  0.00     0.275 C 
BRANCH  21  22
ATOM     22  O   UNL A   1      38.941  24.068  26.755  1.00  0.00    -0.458 OA
BRANCH  22  23
ATOM     23  C   UNL A   1      40.179  24.611  26.700  1.00  0.00     0.338 C 
ATOM     24  O   UNL A   1      40.985  24.523  25.789  1.00  0.00    -0.246 OA
BRANCH  23  25
ATOM     25  C   UNL A   1      40.399  25.486  27.861  1.00  0.00     0.060 A 
ATOM     26  C   UNL A   1      39.337  25.631  28.742  1.00  0.00     0.016 A 
ATOM     27  C   UNL A   1      41.521  26.297  27.989  1.00  0.00     0.016 A 
ATOM     28  C   UNL A   1      39.324  26.654  29.679  1.00  0.00     0.010 A 
ATOM     29  C   UNL A   1      41.561  27.253  29.017  1.00  0.00     0.010 A 
ATOM     30  C   UNL A   1      40.446  27.471  29.852  1.00  0.00    -0.014 A 
BRANCH  30  31
ATOM     31  C   UNL A   1      40.414  28.547  30.888  1.00  0.00     0.031 A 
ATOM     32  C   UNL A   1      41.367  28.520  32.057  1.00  0.00     0.074 A 
ATOM     33  C   UNL A   1      39.552  29.581  30.759  1.00  0.00     0.049 A 
ATOM     34  N   UNL A   1      41.406  29.297  33.110  1.00  0.00    -0.248 NA
ATOM     35  C   UNL A   1      42.403  27.474  32.054  1.00  0.00     0.031 C 
ATOM     36  C   UNL A   1      38.598  29.756  29.660  1.00  0.00     0.029 A 
ATOM     37  N   UNL A   1      39.344  30.688  31.546  1.00  0.00    -0.354 N 
ATOM     38  C   UNL A   1      42.424  28.802  33.917  1.00  0.00     0.074 A 
ATOM     39  C   UNL A   1      42.977  27.651  33.236  1.00  0.00     0.031 C 
ATOM     40  C   UNL A   1      37.943  30.915  29.818  1.00  0.00     0.029 A 
ATOM     41  C   UNL A   1      38.348  31.517  31.081  1.00  0.00     0.049 A 
ATOM     42  H   UNL A   1      39.858  30.870  32.366  1.00  0.00     0.167 HD
ATOM     43  C   UNL A   1      42.857  29.266  35.116  1.00  0.00     0.037 A 
ATOM     44  C   UNL A   1      37.778  32.609  31.626  1.00  0.00     0.037 A 
ATOM     45  C   UNL A   1      42.339  30.450  35.758  1.00  0.00     0.049 A 
ATOM     46  C   UNL A   1      38.258  33.087  32.967  1.00  0.00     0.074 A 
ATOM     47  C   UNL A   1      42.743  31.024  36.951  1.00  0.00     0.029 A 
ATOM     48  N   UNL A   1      41.312  31.242  35.263  1.00  0.00    -0.354 N 
ATOM     49  N   UNL A   1      39.211  32.594  33.723  1.00  0.00    -0.248 NA
ATOM     50  C   UNL A   1      37.581  34.258  33.537  1.00  0.00     0.031 C 
ATOM     51  C   UNL A   1      41.921  32.127  37.208  1.00  0.00     0.029 A 
ATOM     52  C   UNL A   1      41.048  32.280  36.143  1.00  0.00     0.049 A 
ATOM     53  H   UNL A   1      40.841  31.090  34.412  1.00  0.00     0.167 HD
ATOM     54  C   UNL A   1      39.254  33.404  34.852  1.00  0.00     0.074 A 
ATOM     55  C   UNL A   1      38.253  34.434  34.665  1.00  0.00     0.031 C 
ATOM     56  C   UNL A   1      40.046  33.299  35.948  1.00  0.00     0.037 A 
BRANCH  43  57
ATOM     57  C   UNL A   1      43.915  28.478  35.844  1.00  0.00     0.058 A 
ATOM     58  C   UNL A   1      45.285  28.745  35.705  1.00  0.00     0.135 A 
ATOM     59  C   UNL A   1      43.537  27.475  36.755  1.00  0.00     0.135 A 
ATOM     60  F   UNL A   1      45.708  29.682  34.840  1.00  0.00    -0.206 F 
ATOM     61  C   UNL A   1      46.242  28.035  36.426  1.00  0.00     0.059 A 
ATOM     62  C   UNL A   1      44.474  26.774  37.508  1.00  0.00     0.059 A 
ATOM     63  F   UNL A   1      42.240  27.175  36.929  1.00  0.00    -0.206 F 
ATOM     64  C   UNL A   1      45.827  27.055  37.329  1.00  0.00     0.060 A 
BRANCH  64  65
ATOM     65  S   UNL A   1      47.079  26.163  38.276  1.00  0.00     0.124 S 
ATOM     66  O   UNL A   1      48.240  27.034  38.120  1.00  0.00    -0.237 OA
ATOM     67  O   UNL A   1      46.490  26.126  39.611  1.00  0.00    -0.237 OA
ATOM     68  O   UNL A   1      47.168  24.873  37.598  1.00  0.00    -0.744 OA
ENDBRANCH  64  65
ENDBRANCH  43  57
BRANCH  44  69
ATOM     69  C   UNL A   1      36.645  33.283  30.932  1.00  0.00     0.058 A 
ATOM     70  C   UNL A   1      35.321  33.129  31.368  1.00  0.00     0.135 A 
ATOM     71  C   UNL A   1      36.869  34.103  29.812  1.00  0.00     0.135 A 
ATOM     72  F   UNL A   1      35.050  32.347  32.425  1.00  0.00    -0.206 F 
ATOM     73  C   UNL A   1      34.260  33.748  30.713  1.00  0.00     0.059 A 
ATOM     74  C   UNL A   1      35.830  34.762  29.165  1.00  0.00     0.059 A 
ATOM     75  F   UNL A   1      38.116  34.295  29.357  1.00  0.00    -0.206 F 
ATOM     76  C   UNL A   1      34.526  34.566  29.614  1.00  0.00     0.060 A 
BRANCH  76  77
ATOM     77  S   UNL A   1      33.148  35.397  28.794  1.00  0.00     0.124 S 
ATOM     78  O   UNL A   1      32.391  35.903  29.934  1.00  0.00    -0.237 OA
ATOM     79  O   UNL A   1      33.832  36.399  27.984  1.00  0.00    -0.237 OA
ATOM     80  O   UNL A   1      32.509  34.322  28.039  1.00  0.00    -0.744 OA
ENDBRANCH  76  77
ENDBRANCH  44  69
BRANCH  56  81
ATOM     81  C   UNL A   1      39.882  34.345  37.016  1.00  0.00     0.058 A 
ATOM     82  C   UNL A   1      40.606  35.549  36.990  1.00  0.00     0.135 A 
ATOM     83  C   UNL A   1      38.974  34.151  38.069  1.00  0.00     0.135 A 
ATOM     84  F   UNL A   1      41.493  35.784  36.010  1.00  0.00    -0.206 F 
ATOM     85  C   UNL A   1      40.460  36.506  37.989  1.00  0.00     0.059 A 
ATOM     86  C   UNL A   1      38.788  35.109  39.061  1.00  0.00     0.059 A 
ATOM     87  F   UNL A   1      38.249  33.023  38.139  1.00  0.00    -0.206 F 
ATOM     88  C   UNL A   1      39.548  36.276  39.021  1.00  0.00     0.060 A 
BRANCH  88  89
ATOM     89  S   UNL A   1      39.362  37.531  40.305  1.00  0.00     0.124 S 
ATOM     90  O   UNL A   1      40.694  38.126  40.330  1.00  0.00    -0.237 OA
ATOM     91  O   UNL A   1      38.300  38.375  39.763  1.00  0.00    -0.237 OA
ATOM     92  O   UNL A   1      38.997  36.757  41.487  1.00  0.00    -0.744 OA
ENDBRANCH  88  89
ENDBRANCH  56  81
ENDBRANCH  30  31
ENDBRANCH  23  25
ENDBRANCH  22  23
ENDBRANCH  21  22
ENDBRANCH   1  21
TORSDOF 19
ENDMDL
