MODEL 1
REMARK VINA RESULT:     -11.3      0.000      0.000
REMARK SMILES O=C(OCCOC(=O)[C@@H]1c2ccccc2C(=O)N(C2CCCC2)C12CCCCC2)c1ccc(-c2c3nc(c(-c4c(F)cc(S(=O)(=O)[O-])cc4F)c4ccc([nH]4)c(-c4c(F)cc(S(=O)(=O)[O-])cc4F)c4nc(c(-c5c(F)cc(S(=O)(=O)[O-])cc5F)c5ccc2[nH]5)C=C4)C=C3)cc1
REMARK SMILES IDX 4 1 3 2 2 3 1 4 30 5 31 6 95 7 32 8 94 9 33 10 34 11 35 12
REMARK SMILES IDX 88 13 36 14 93 15 87 16 89 17 37 18 92 19 86 20 85 21 38 23
REMARK SMILES IDX 72 24 51 25 71 26 52 27 55 28 70 29 90 30 53 31 54 32 69 34
REMARK SMILES IDX 91 35 56 36 39 37 40 38 49 39 41 40 42 41 48 42 50 43 43 44
REMARK SMILES IDX 44 45 45 46 46 47 47 48 73 49 74 50 83 51 75 52 76 53 82 54
REMARK SMILES IDX 84 55 77 56 78 57 79 58 80 59 81 60 57 61 58 62 67 63 59 64
REMARK SMILES IDX 60 65 66 66 68 67 61 68 62 69 63 70 64 71 65 72 5 73 6 74
REMARK SMILES IDX 7 75 8 76 9 77 10 78 24 79 11 80 15 81 18 82 25 83 29 84
REMARK SMILES IDX 12 85 14 86 16 87 26 88 28 89 13 90 17 91 27 92 19 93 20 94
REMARK SMILES IDX 23 95 21 96 22 97
REMARK H PARENT 89 22 55 33
REMARK Flexibility Score: inf
ROOT
ATOM      1  C   UNL A   1      33.578  28.020  26.215  1.00  0.00     0.275 C 
ENDROOT
BRANCH   1   2
ATOM      2  O   UNL A   1      34.356  28.652  27.233  1.00  0.00    -0.458 OA
BRANCH   2   3
ATOM      3  C   UNL A   1      34.178  29.977  27.317  1.00  0.00     0.338 C 
ATOM      4  O   UNL A   1      33.619  30.642  26.464  1.00  0.00    -0.246 OA
BRANCH   3   5
ATOM      5  C   UNL A   1      35.143  30.496  28.331  1.00  0.00     0.060 A 
ATOM      6  C   UNL A   1      36.169  31.295  27.870  1.00  0.00     0.016 A 
ATOM      7  C   UNL A   1      35.357  29.710  29.469  1.00  0.00     0.016 A 
ATOM      8  C   UNL A   1      37.466  30.918  28.176  1.00  0.00     0.010 A 
ATOM      9  C   UNL A   1      36.654  29.469  29.900  1.00  0.00     0.010 A 
ATOM     10  C   UNL A   1      37.725  29.897  29.099  1.00  0.00    -0.014 A 
BRANCH  10  11
ATOM     11  C   UNL A   1      39.253  29.413  29.303  1.00  0.00     0.031 A 
ATOM     12  C   UNL A   1      40.556  28.201  28.054  1.00  0.00     0.074 A 
ATOM     13  C   UNL A   1      39.417  30.052  30.656  1.00  0.00     0.049 A 
ATOM     14  N   UNL A   1      41.885  27.747  28.377  1.00  0.00    -0.248 NA
ATOM     15  C   UNL A   1      40.479  27.356  26.651  1.00  0.00     0.031 C 
ATOM     16  C   UNL A   1      38.580  31.081  31.353  1.00  0.00     0.029 A 
ATOM     17  N   UNL A   1      40.447  29.968  31.622  1.00  0.00    -0.354 N 
ATOM     18  C   UNL A   1      42.266  26.563  27.844  1.00  0.00     0.074 A 
ATOM     19  C   UNL A   1      41.474  26.454  26.655  1.00  0.00     0.031 C 
ATOM     20  C   UNL A   1      39.208  31.575  32.435  1.00  0.00     0.029 A 
ATOM     21  C   UNL A   1      40.378  30.780  32.702  1.00  0.00     0.049 A 
ATOM     22  H   UNL A   1      41.193  29.335  31.512  1.00  0.00     0.167 HD
ATOM     23  C   UNL A   1      43.116  25.658  28.420  1.00  0.00     0.037 A 
ATOM     24  C   UNL A   1      41.193  30.776  33.774  1.00  0.00     0.037 A 
ATOM     25  C   UNL A   1      43.703  25.670  29.787  1.00  0.00     0.049 A 
ATOM     26  C   UNL A   1      42.248  29.682  33.904  1.00  0.00     0.074 A 
ATOM     27  C   UNL A   1      44.489  24.667  30.352  1.00  0.00     0.029 A 
ATOM     28  N   UNL A   1      43.597  26.640  30.806  1.00  0.00    -0.354 N 
ATOM     29  N   UNL A   1      42.637  28.762  33.040  1.00  0.00    -0.248 NA
ATOM     30  C   UNL A   1      42.921  29.598  35.205  1.00  0.00     0.031 C 
ATOM     31  C   UNL A   1      44.737  24.955  31.700  1.00  0.00     0.029 A 
ATOM     32  C   UNL A   1      44.184  26.190  32.006  1.00  0.00     0.049 A 
ATOM     33  H   UNL A   1      43.169  27.520  30.693  1.00  0.00     0.167 HD
ATOM     34  C   UNL A   1      43.600  27.987  33.697  1.00  0.00     0.074 A 
ATOM     35  C   UNL A   1      43.755  28.587  35.015  1.00  0.00     0.031 C 
ATOM     36  C   UNL A   1      44.283  26.875  33.300  1.00  0.00     0.037 A 
BRANCH  23  37
ATOM     37  C   UNL A   1      43.471  24.480  27.552  1.00  0.00     0.058 A 
ATOM     38  C   UNL A   1      44.599  24.570  26.723  1.00  0.00     0.135 A 
ATOM     39  C   UNL A   1      42.797  23.248  27.612  1.00  0.00     0.135 A 
ATOM     40  F   UNL A   1      45.293  25.717  26.650  1.00  0.00    -0.206 F 
ATOM     41  C   UNL A   1      45.026  23.496  25.957  1.00  0.00     0.059 A 
ATOM     42  C   UNL A   1      43.226  22.146  26.872  1.00  0.00     0.059 A 
ATOM     43  F   UNL A   1      41.733  23.092  28.416  1.00  0.00    -0.206 F 
ATOM     44  C   UNL A   1      44.331  22.288  26.034  1.00  0.00     0.060 A 
BRANCH  44  45
ATOM     45  S   UNL A   1      44.902  20.924  25.001  1.00  0.00     0.124 S 
ATOM     46  O   UNL A   1      46.334  20.927  25.283  1.00  0.00    -0.237 OA
ATOM     47  O   UNL A   1      44.154  19.792  25.540  1.00  0.00    -0.237 OA
ATOM     48  O   UNL A   1      44.528  21.335  23.652  1.00  0.00    -0.744 OA
ENDBRANCH  44  45
ENDBRANCH  23  37
BRANCH  24  49
ATOM     49  C   UNL A   1      40.976  31.785  34.837  1.00  0.00     0.058 A 
ATOM     50  C   UNL A   1      41.701  32.985  34.854  1.00  0.00     0.135 A 
ATOM     51  C   UNL A   1      40.006  31.592  35.833  1.00  0.00     0.135 A 
ATOM     52  F   UNL A   1      42.658  33.207  33.941  1.00  0.00    -0.206 F 
ATOM     53  C   UNL A   1      41.464  33.961  35.816  1.00  0.00     0.059 A 
ATOM     54  C   UNL A   1      39.712  32.573  36.767  1.00  0.00     0.059 A 
ATOM     55  F   UNL A   1      39.296  30.454  35.878  1.00  0.00    -0.206 F 
ATOM     56  C   UNL A   1      40.456  33.749  36.759  1.00  0.00     0.060 A 
BRANCH  56  57
ATOM     57  S   UNL A   1      40.111  35.035  37.974  1.00  0.00     0.124 S 
ATOM     58  O   UNL A   1      41.397  35.147  38.650  1.00  0.00    -0.237 OA
ATOM     59  O   UNL A   1      39.730  36.162  37.129  1.00  0.00    -0.237 OA
ATOM     60  O   UNL A   1      39.028  34.463  38.767  1.00  0.00    -0.744 OA
ENDBRANCH  56  57
ENDBRANCH  24  49
BRANCH  36  61
ATOM     61  C   UNL A   1      45.253  26.280  34.339  1.00  0.00     0.058 A 
ATOM     62  C   UNL A   1      46.624  26.611  34.396  1.00  0.00     0.135 A 
ATOM     63  C   UNL A   1      44.795  25.349  35.289  1.00  0.00     0.135 A 
ATOM     64  F   UNL A   1      47.144  27.486  33.520  1.00  0.00    -0.206 F 
ATOM     65  C   UNL A   1      47.499  26.011  35.310  1.00  0.00     0.059 A 
ATOM     66  C   UNL A   1      45.644  24.762  36.233  1.00  0.00     0.059 A 
ATOM     67  F   UNL A   1      43.502  24.988  35.304  1.00  0.00    -0.206 F 
ATOM     68  C   UNL A   1      47.000  25.085  36.225  1.00  0.00     0.060 A 
BRANCH  68  69
ATOM     69  S   UNL A   1      48.140  24.313  37.403  1.00  0.00     0.124 S 
ATOM     70  O   UNL A   1      47.294  23.293  38.016  1.00  0.00    -0.237 OA
ATOM     71  O   UNL A   1      49.200  23.815  36.532  1.00  0.00    -0.237 OA
ATOM     72  O   UNL A   1      48.524  25.415  38.281  1.00  0.00    -0.744 OA
ENDBRANCH  68  69
ENDBRANCH  36  61
ENDBRANCH  10  11
ENDBRANCH   3   5
ENDBRANCH   2   3
ENDBRANCH   1   2
BRANCH   1  73
ATOM     73  C   UNL A   1      32.799  26.692  26.501  1.00  0.00     0.274 C 
BRANCH  73  74
ATOM     74  O   UNL A   1      33.561  25.453  26.546  1.00  0.00    -0.462 OA
BRANCH  74  75
ATOM     75  C   UNL A   1      34.214  25.072  25.409  1.00  0.00     0.315 C 
ATOM     76  O   UNL A   1      34.446  25.863  24.494  1.00  0.00    -0.251 OA
BRANCH  75  77
ATOM     77  C   UNL A   1      34.580  23.570  25.284  1.00  0.00     0.156 C 
ATOM     78  C   UNL A   1      36.077  23.179  25.595  1.00  0.00    -0.019 A 
ATOM     79  C   UNL A   1      33.645  22.607  24.292  1.00  0.00     0.061 C 
ATOM     80  C   UNL A   1      37.365  24.349  26.125  1.00  0.00     0.005 A 
ATOM     81  C   UNL A   1      36.466  21.461  25.424  1.00  0.00     0.044 A 
ATOM     82  N   UNL A   1      34.011  21.074  24.704  1.00  0.00    -0.329 N 
ATOM     83  C   UNL A   1      33.685  22.580  22.715  1.00  0.00     0.030 C 
ATOM     84  C   UNL A   1      32.117  22.946  24.540  1.00  0.00     0.030 C 
ATOM     85  C   UNL A   1      39.067  23.828  26.437  1.00  0.00     0.000 A 
ATOM     86  C   UNL A   1      38.161  20.852  25.751  1.00  0.00     0.014 A 
ATOM     87  C   UNL A   1      35.354  20.582  24.974  1.00  0.00     0.254 C 
ATOM     88  C   UNL A   1      32.874  23.476  21.757  1.00  0.00     0.002 C 
ATOM     89  C   UNL A   1      31.474  24.132  23.793  1.00  0.00     0.002 C 
ATOM     90  C   UNL A   1      39.512  22.083  26.257  1.00  0.00     0.001 A 
ATOM     91  O   UNL A   1      35.652  19.392  24.888  1.00  0.00    -0.269 OA
ATOM     92  C   UNL A   1      31.609  24.119  22.283  1.00  0.00     0.000 C 
BRANCH  82  93
ATOM     93  C   UNL A   1      32.999  19.962  24.636  1.00  0.00     0.086 C 
ATOM     94  C   UNL A   1      32.966  19.185  23.323  1.00  0.00     0.025 C 
ATOM     95  C   UNL A   1      32.903  18.902  25.750  1.00  0.00     0.025 C 
ATOM     96  C   UNL A   1      32.153  17.931  23.629  1.00  0.00     0.002 C 
ATOM     97  C   UNL A   1      32.232  17.683  25.129  1.00  0.00     0.002 C 
ENDBRANCH  82  93
ENDBRANCH  75  77
ENDBRANCH  74  75
ENDBRANCH  73  74
ENDBRANCH   1  73
TORSDOF 15
ENDMDL
MODEL 2
REMARK VINA RESULT:     -11.2      7.584     13.329
REMARK SMILES O=C(OCCOC(=O)[C@@H]1c2ccccc2C(=O)N(C2CCCC2)C12CCCCC2)c1ccc(-c2c3nc(c(-c4c(F)cc(S(=O)(=O)[O-])cc4F)c4ccc([nH]4)c(-c4c(F)cc(S(=O)(=O)[O-])cc4F)c4nc(c(-c5c(F)cc(S(=O)(=O)[O-])cc5F)c5ccc2[nH]5)C=C4)C=C3)cc1
REMARK SMILES IDX 4 1 3 2 2 3 1 4 30 5 31 6 95 7 32 8 94 9 33 10 34 11 35 12
REMARK SMILES IDX 88 13 36 14 93 15 87 16 89 17 37 18 92 19 86 20 85 21 38 23
REMARK SMILES IDX 72 24 51 25 71 26 52 27 55 28 70 29 90 30 53 31 54 32 69 34
REMARK SMILES IDX 91 35 56 36 39 37 40 38 49 39 41 40 42 41 48 42 50 43 43 44
REMARK SMILES IDX 44 45 45 46 46 47 47 48 73 49 74 50 83 51 75 52 76 53 82 54
REMARK SMILES IDX 84 55 77 56 78 57 79 58 80 59 81 60 57 61 58 62 67 63 59 64
REMARK SMILES IDX 60 65 66 66 68 67 61 68 62 69 63 70 64 71 65 72 5 73 6 74
REMARK SMILES IDX 7 75 8 76 9 77 10 78 24 79 11 80 15 81 18 82 25 83 29 84
REMARK SMILES IDX 12 85 14 86 16 87 26 88 28 89 13 90 17 91 27 92 19 93 20 94
REMARK SMILES IDX 23 95 21 96 22 97
REMARK H PARENT 89 22 55 33
REMARK Flexibility Score: inf
ROOT
ATOM      1  C   UNL A   1      48.117  39.240  27.759  1.00  0.00     0.275 C 
ENDROOT
BRANCH   1   2
ATOM      2  O   UNL A   1      47.027  38.396  27.381  1.00  0.00    -0.458 OA
BRANCH   2   3
ATOM      3  C   UNL A   1      47.393  37.162  27.011  1.00  0.00     0.338 C 
ATOM      4  O   UNL A   1      48.256  36.928  26.185  1.00  0.00    -0.246 OA
BRANCH   3   5
ATOM      5  C   UNL A   1      46.295  36.231  27.408  1.00  0.00     0.060 A 
ATOM      6  C   UNL A   1      46.275  35.806  28.719  1.00  0.00     0.016 A 
ATOM      7  C   UNL A   1      45.783  35.388  26.415  1.00  0.00     0.016 A 
ATOM      8  C   UNL A   1      46.271  34.441  28.953  1.00  0.00     0.010 A 
ATOM      9  C   UNL A   1      45.601  34.041  26.690  1.00  0.00     0.010 A 
ATOM     10  C   UNL A   1      46.070  33.527  27.910  1.00  0.00    -0.014 A 
BRANCH  10  11
ATOM     11  C   UNL A   1      46.218  31.950  28.228  1.00  0.00     0.031 A 
ATOM     12  C   UNL A   1      47.950  30.637  28.212  1.00  0.00     0.074 A 
ATOM     13  C   UNL A   1      44.752  31.727  28.484  1.00  0.00     0.049 A 
ATOM     14  N   UNL A   1      47.955  29.211  28.424  1.00  0.00    -0.248 NA
ATOM     15  C   UNL A   1      49.546  30.708  27.843  1.00  0.00     0.031 C 
ATOM     16  C   UNL A   1      43.646  32.709  28.728  1.00  0.00     0.029 A 
ATOM     17  N   UNL A   1      43.995  30.548  28.682  1.00  0.00    -0.354 N 
ATOM     18  C   UNL A   1      48.914  28.507  27.779  1.00  0.00     0.074 A 
ATOM     19  C   UNL A   1      49.972  29.457  27.601  1.00  0.00     0.031 C 
ATOM     20  C   UNL A   1      42.532  32.097  29.170  1.00  0.00     0.029 A 
ATOM     21  C   UNL A   1      42.695  30.674  29.035  1.00  0.00     0.049 A 
ATOM     22  H   UNL A   1      44.404  29.660  28.566  1.00  0.00     0.167 HD
ATOM     23  C   UNL A   1      48.796  27.227  27.312  1.00  0.00     0.037 A 
ATOM     24  C   UNL A   1      41.790  29.685  29.163  1.00  0.00     0.037 A 
ATOM     25  C   UNL A   1      47.587  26.362  27.261  1.00  0.00     0.049 A 
ATOM     26  C   UNL A   1      42.175  28.265  28.759  1.00  0.00     0.074 A 
ATOM     27  C   UNL A   1      47.506  25.095  26.684  1.00  0.00     0.029 A 
ATOM     28  N   UNL A   1      46.283  26.604  27.742  1.00  0.00    -0.354 N 
ATOM     29  N   UNL A   1      43.347  27.759  28.423  1.00  0.00    -0.248 NA
ATOM     30  C   UNL A   1      41.070  27.302  28.690  1.00  0.00     0.031 C 
ATOM     31  C   UNL A   1      46.179  24.647  26.695  1.00  0.00     0.029 A 
ATOM     32  C   UNL A   1      45.393  25.581  27.354  1.00  0.00     0.049 A 
ATOM     33  H   UNL A   1      46.026  27.388  28.279  1.00  0.00     0.167 HD
ATOM     34  C   UNL A   1      43.118  26.417  28.099  1.00  0.00     0.074 A 
ATOM     35  C   UNL A   1      41.698  26.193  28.327  1.00  0.00     0.031 C 
ATOM     36  C   UNL A   1      43.959  25.449  27.630  1.00  0.00     0.037 A 
BRANCH  23  37
ATOM     37  C   UNL A   1      50.062  26.638  26.747  1.00  0.00     0.058 A 
ATOM     38  C   UNL A   1      50.368  26.868  25.398  1.00  0.00     0.135 A 
ATOM     39  C   UNL A   1      51.014  25.964  27.532  1.00  0.00     0.135 A 
ATOM     40  F   UNL A   1      49.504  27.531  24.614  1.00  0.00    -0.206 F 
ATOM     41  C   UNL A   1      51.555  26.420  24.836  1.00  0.00     0.059 A 
ATOM     42  C   UNL A   1      52.226  25.529  26.993  1.00  0.00     0.059 A 
ATOM     43  F   UNL A   1      50.791  25.747  28.838  1.00  0.00    -0.206 F 
ATOM     44  C   UNL A   1      52.476  25.748  25.639  1.00  0.00     0.060 A 
BRANCH  44  45
ATOM     45  S   UNL A   1      53.994  25.158  24.863  1.00  0.00     0.124 S 
ATOM     46  O   UNL A   1      55.010  25.790  25.698  1.00  0.00    -0.237 OA
ATOM     47  O   UNL A   1      53.871  23.710  25.001  1.00  0.00    -0.237 OA
ATOM     48  O   UNL A   1      53.901  25.666  23.498  1.00  0.00    -0.744 OA
ENDBRANCH  44  45
ENDBRANCH  23  37
BRANCH  24  49
ATOM     49  C   UNL A   1      40.419  30.029  29.607  1.00  0.00     0.058 A 
ATOM     50  C   UNL A   1      40.148  30.333  30.949  1.00  0.00     0.135 A 
ATOM     51  C   UNL A   1      39.358  30.107  28.691  1.00  0.00     0.135 A 
ATOM     52  F   UNL A   1      41.121  30.247  31.868  1.00  0.00    -0.206 F 
ATOM     53  C   UNL A   1      38.876  30.710  31.364  1.00  0.00     0.059 A 
ATOM     54  C   UNL A   1      38.095  30.535  29.071  1.00  0.00     0.059 A 
ATOM     55  F   UNL A   1      39.554  29.807  27.398  1.00  0.00    -0.206 F 
ATOM     56  C   UNL A   1      37.860  30.822  30.412  1.00  0.00     0.060 A 
BRANCH  56  57
ATOM     57  S   UNL A   1      36.224  31.363  30.938  1.00  0.00     0.124 S 
ATOM     58  O   UNL A   1      35.466  31.241  29.699  1.00  0.00    -0.237 OA
ATOM     59  O   UNL A   1      35.902  30.397  31.984  1.00  0.00    -0.237 OA
ATOM     60  O   UNL A   1      36.456  32.726  31.405  1.00  0.00    -0.744 OA
ENDBRANCH  56  57
ENDBRANCH  24  49
BRANCH  36  61
ATOM     61  C   UNL A   1      43.313  24.078  27.358  1.00  0.00     0.058 A 
ATOM     62  C   UNL A   1      43.090  23.114  28.365  1.00  0.00     0.135 A 
ATOM     63  C   UNL A   1      42.919  23.722  26.055  1.00  0.00     0.135 A 
ATOM     64  F   UNL A   1      43.445  23.370  29.635  1.00  0.00    -0.206 F 
ATOM     65  C   UNL A   1      42.558  21.849  28.084  1.00  0.00     0.059 A 
ATOM     66  C   UNL A   1      42.353  22.478  25.757  1.00  0.00     0.059 A 
ATOM     67  F   UNL A   1      43.090  24.588  25.045  1.00  0.00    -0.206 F 
ATOM     68  C   UNL A   1      42.193  21.539  26.774  1.00  0.00     0.060 A 
BRANCH  68  69
ATOM     69  S   UNL A   1      41.505  19.900  26.419  1.00  0.00     0.124 S 
ATOM     70  O   UNL A   1      41.749  19.195  27.673  1.00  0.00    -0.237 OA
ATOM     71  O   UNL A   1      40.109  20.205  26.126  1.00  0.00    -0.237 OA
ATOM     72  O   UNL A   1      42.293  19.438  25.280  1.00  0.00    -0.744 OA
ENDBRANCH  68  69
ENDBRANCH  36  61
ENDBRANCH  10  11
ENDBRANCH   3   5
ENDBRANCH   2   3
ENDBRANCH   1   2
BRANCH   1  73
ATOM     73  C   UNL A   1      47.882  40.742  28.133  1.00  0.00     0.274 C 
BRANCH  73  74
ATOM     74  O   UNL A   1      46.978  41.519  27.297  1.00  0.00    -0.462 OA
BRANCH  74  75
ATOM     75  C   UNL A   1      45.795  41.918  27.849  1.00  0.00     0.315 C 
ATOM     76  O   UNL A   1      45.751  42.681  28.814  1.00  0.00    -0.251 OA
BRANCH  75  77
ATOM     77  C   UNL A   1      44.503  41.300  27.254  1.00  0.00     0.156 C 
ATOM     78  C   UNL A   1      43.868  42.045  26.016  1.00  0.00    -0.019 A 
ATOM     79  C   UNL A   1      43.556  40.344  28.240  1.00  0.00     0.061 C 
ATOM     80  C   UNL A   1      44.566  43.530  25.230  1.00  0.00     0.005 A 
ATOM     81  C   UNL A   1      42.384  41.327  25.374  1.00  0.00     0.044 A 
ATOM     82  N   UNL A   1      42.558  39.538  27.236  1.00  0.00    -0.329 N 
ATOM     83  C   UNL A   1      42.592  40.852  29.381  1.00  0.00     0.030 C 
ATOM     84  C   UNL A   1      44.494  39.367  29.064  1.00  0.00     0.030 C 
ATOM     85  C   UNL A   1      43.764  44.344  23.830  1.00  0.00     0.000 A 
ATOM     86  C   UNL A   1      41.529  42.076  23.939  1.00  0.00     0.014 A 
ATOM     87  C   UNL A   1      41.881  40.123  26.088  1.00  0.00     0.254 C 
ATOM     88  C   UNL A   1      42.966  41.116  30.854  1.00  0.00     0.002 C 
ATOM     89  C   UNL A   1      45.142  39.865  30.371  1.00  0.00     0.002 C 
ATOM     90  C   UNL A   1      42.236  43.651  23.153  1.00  0.00     0.001 A 
ATOM     91  O   UNL A   1      40.861  39.635  25.602  1.00  0.00    -0.269 OA
ATOM     92  C   UNL A   1      44.194  40.430  31.411  1.00  0.00     0.000 C 
BRANCH  82  93
ATOM     93  C   UNL A   1      42.075  38.143  27.534  1.00  0.00     0.086 C 
ATOM     94  C   UNL A   1      42.536  37.068  26.554  1.00  0.00     0.025 C 
ATOM     95  C   UNL A   1      42.236  37.526  28.936  1.00  0.00     0.025 C 
ATOM     96  C   UNL A   1      42.236  35.745  27.252  1.00  0.00     0.002 C 
ATOM     97  C   UNL A   1      42.186  36.014  28.750  1.00  0.00     0.002 C 
ENDBRANCH  82  93
ENDBRANCH  75  77
ENDBRANCH  74  75
ENDBRANCH  73  74
ENDBRANCH   1  73
TORSDOF 15
ENDMDL
MODEL 3
REMARK VINA RESULT:     -10.9      4.937     12.036
REMARK SMILES O=C(OCCOC(=O)[C@@H]1c2ccccc2C(=O)N(C2CCCC2)C12CCCCC2)c1ccc(-c2c3nc(c(-c4c(F)cc(S(=O)(=O)[O-])cc4F)c4ccc([nH]4)c(-c4c(F)cc(S(=O)(=O)[O-])cc4F)c4nc(c(-c5c(F)cc(S(=O)(=O)[O-])cc5F)c5ccc2[nH]5)C=C4)C=C3)cc1
REMARK SMILES IDX 4 1 3 2 2 3 1 4 30 5 31 6 95 7 32 8 94 9 33 10 34 11 35 12
REMARK SMILES IDX 88 13 36 14 93 15 87 16 89 17 37 18 92 19 86 20 85 21 38 23
REMARK SMILES IDX 72 24 51 25 71 26 52 27 55 28 70 29 90 30 53 31 54 32 69 34
REMARK SMILES IDX 91 35 56 36 39 37 40 38 49 39 41 40 42 41 48 42 50 43 43 44
REMARK SMILES IDX 44 45 45 46 46 47 47 48 73 49 74 50 83 51 75 52 76 53 82 54
REMARK SMILES IDX 84 55 77 56 78 57 79 58 80 59 81 60 57 61 58 62 67 63 59 64
REMARK SMILES IDX 60 65 66 66 68 67 61 68 62 69 63 70 64 71 65 72 5 73 6 74
REMARK SMILES IDX 7 75 8 76 9 77 10 78 24 79 11 80 15 81 18 82 25 83 29 84
REMARK SMILES IDX 12 85 14 86 16 87 26 88 28 89 13 90 17 91 27 92 19 93 20 94
REMARK SMILES IDX 23 95 21 96 22 97
REMARK H PARENT 89 22 55 33
REMARK Flexibility Score: inf
ROOT
ATOM      1  C   UNL A   1      46.133  25.590  25.746  1.00  0.00     0.275 C 
ENDROOT
BRANCH   1   2
ATOM      2  O   UNL A   1      44.877  25.095  26.214  1.00  0.00    -0.458 OA
BRANCH   2   3
ATOM      3  C   UNL A   1      44.100  24.577  25.254  1.00  0.00     0.338 C 
ATOM      4  O   UNL A   1      44.528  24.086  24.225  1.00  0.00    -0.246 OA
BRANCH   3   5
ATOM      5  C   UNL A   1      42.723  25.119  25.451  1.00  0.00     0.060 A 
ATOM      6  C   UNL A   1      42.566  26.485  25.355  1.00  0.00     0.016 A 
ATOM      7  C   UNL A   1      41.867  24.397  26.291  1.00  0.00     0.016 A 
ATOM      8  C   UNL A   1      41.985  27.144  26.426  1.00  0.00     0.010 A 
ATOM      9  C   UNL A   1      41.135  25.067  27.260  1.00  0.00     0.010 A 
ATOM     10  C   UNL A   1      41.379  26.434  27.471  1.00  0.00    -0.014 A 
BRANCH  10  11
ATOM     11  C   UNL A   1      40.848  27.258  28.755  1.00  0.00     0.031 A 
ATOM     12  C   UNL A   1      38.986  28.322  29.111  1.00  0.00     0.074 A 
ATOM     13  C   UNL A   1      42.100  27.062  29.566  1.00  0.00     0.049 A 
ATOM     14  N   UNL A   1      38.649  29.109  30.271  1.00  0.00    -0.248 NA
ATOM     15  C   UNL A   1      37.617  28.715  28.299  1.00  0.00     0.031 C 
ATOM     16  C   UNL A   1      43.246  26.115  29.374  1.00  0.00     0.029 A 
ATOM     17  N   UNL A   1      42.527  27.617  30.796  1.00  0.00    -0.354 N 
ATOM     18  C   UNL A   1      37.813  30.154  30.070  1.00  0.00     0.074 A 
ATOM     19  C   UNL A   1      37.057  29.768  28.917  1.00  0.00     0.031 C 
ATOM     20  C   UNL A   1      44.040  26.076  30.459  1.00  0.00     0.029 A 
ATOM     21  C   UNL A   1      43.660  27.136  31.356  1.00  0.00     0.049 A 
ATOM     22  H   UNL A   1      42.012  28.334  31.232  1.00  0.00     0.167 HD
ATOM     23  C   UNL A   1      37.823  31.336  30.759  1.00  0.00     0.037 A 
ATOM     24  C   UNL A   1      44.282  27.600  32.456  1.00  0.00     0.037 A 
ATOM     25  C   UNL A   1      38.807  31.820  31.765  1.00  0.00     0.049 A 
ATOM     26  C   UNL A   1      43.777  28.881  33.114  1.00  0.00     0.074 A 
ATOM     27  C   UNL A   1      38.816  33.078  32.365  1.00  0.00     0.029 A 
ATOM     28  N   UNL A   1      39.928  31.166  32.318  1.00  0.00    -0.354 N 
ATOM     29  N   UNL A   1      42.686  29.588  32.882  1.00  0.00    -0.248 NA
ATOM     30  C   UNL A   1      44.649  29.454  34.144  1.00  0.00     0.031 C 
ATOM     31  C   UNL A   1      39.970  33.228  33.145  1.00  0.00     0.029 A 
ATOM     32  C   UNL A   1      40.683  32.038  33.129  1.00  0.00     0.049 A 
ATOM     33  H   UNL A   1      40.154  30.221  32.159  1.00  0.00     0.167 HD
ATOM     34  C   UNL A   1      42.744  30.694  33.739  1.00  0.00     0.074 A 
ATOM     35  C   UNL A   1      43.962  30.523  34.519  1.00  0.00     0.031 C 
ATOM     36  C   UNL A   1      41.917  31.770  33.875  1.00  0.00     0.037 A 
BRANCH  23  37
ATOM     37  C   UNL A   1      36.698  32.278  30.420  1.00  0.00     0.058 A 
ATOM     38  C   UNL A   1      36.815  33.083  29.277  1.00  0.00     0.135 A 
ATOM     39  C   UNL A   1      35.482  32.310  31.124  1.00  0.00     0.135 A 
ATOM     40  F   UNL A   1      37.946  33.068  28.555  1.00  0.00    -0.206 F 
ATOM     41  C   UNL A   1      35.784  33.915  28.865  1.00  0.00     0.059 A 
ATOM     42  C   UNL A   1      34.422  33.118  30.711  1.00  0.00     0.059 A 
ATOM     43  F   UNL A   1      35.299  31.533  32.204  1.00  0.00    -0.206 F 
ATOM     44  C   UNL A   1      34.593  33.929  29.590  1.00  0.00     0.060 A 
BRANCH  44  45
ATOM     45  S   UNL A   1      33.287  35.045  29.037  1.00  0.00     0.124 S 
ATOM     46  O   UNL A   1      32.536  35.246  30.273  1.00  0.00    -0.237 OA
ATOM     47  O   UNL A   1      34.044  36.198  28.562  1.00  0.00    -0.237 OA
ATOM     48  O   UNL A   1      32.598  34.280  28.003  1.00  0.00    -0.744 OA
ENDBRANCH  44  45
ENDBRANCH  23  37
BRANCH  24  49
ATOM     49  C   UNL A   1      45.496  26.900  32.937  1.00  0.00     0.058 A 
ATOM     50  C   UNL A   1      45.410  25.878  33.893  1.00  0.00     0.135 A 
ATOM     51  C   UNL A   1      46.764  27.204  32.416  1.00  0.00     0.135 A 
ATOM     52  F   UNL A   1      44.226  25.567  34.441  1.00  0.00    -0.206 F 
ATOM     53  C   UNL A   1      46.537  25.178  34.309  1.00  0.00     0.059 A 
ATOM     54  C   UNL A   1      47.892  26.482  32.773  1.00  0.00     0.059 A 
ATOM     55  F   UNL A   1      46.909  28.186  31.513  1.00  0.00    -0.206 F 
ATOM     56  C   UNL A   1      47.771  25.479  33.729  1.00  0.00     0.060 A 
BRANCH  56  57
ATOM     57  S   UNL A   1      49.225  24.537  34.227  1.00  0.00     0.124 S 
ATOM     58  O   UNL A   1      49.608  25.224  35.454  1.00  0.00    -0.237 OA
ATOM     59  O   UNL A   1      48.679  23.193  34.388  1.00  0.00    -0.237 OA
ATOM     60  O   UNL A   1      50.134  24.705  33.098  1.00  0.00    -0.744 OA
ENDBRANCH  56  57
ENDBRANCH  24  49
BRANCH  36  61
ATOM     61  C   UNL A   1      42.345  32.813  34.925  1.00  0.00     0.058 A 
ATOM     62  C   UNL A   1      41.835  32.839  36.242  1.00  0.00     0.135 A 
ATOM     63  C   UNL A   1      43.279  33.812  34.597  1.00  0.00     0.135 A 
ATOM     64  F   UNL A   1      40.932  31.926  36.634  1.00  0.00    -0.206 F 
ATOM     65  C   UNL A   1      42.192  33.834  37.161  1.00  0.00     0.059 A 
ATOM     66  C   UNL A   1      43.677  34.795  35.510  1.00  0.00     0.059 A 
ATOM     67  F   UNL A   1      43.816  33.848  33.368  1.00  0.00    -0.206 F 
ATOM     68  C   UNL A   1      43.114  34.811  36.785  1.00  0.00     0.060 A 
BRANCH  68  69
ATOM     69  S   UNL A   1      43.570  36.094  37.980  1.00  0.00     0.124 S 
ATOM     70  O   UNL A   1      43.776  37.251  37.115  1.00  0.00    -0.237 OA
ATOM     71  O   UNL A   1      42.394  36.150  38.842  1.00  0.00    -0.237 OA
ATOM     72  O   UNL A   1      44.777  35.563  38.609  1.00  0.00    -0.744 OA
ENDBRANCH  68  69
ENDBRANCH  36  61
ENDBRANCH  10  11
ENDBRANCH   3   5
ENDBRANCH   2   3
ENDBRANCH   1   2
BRANCH   1  73
ATOM     73  C   UNL A   1      46.410  27.127  25.646  1.00  0.00     0.274 C 
BRANCH  73  74
ATOM     74  O   UNL A   1      45.494  28.029  26.330  1.00  0.00    -0.462 OA
BRANCH  74  75
ATOM     75  C   UNL A   1      45.972  28.717  27.408  1.00  0.00     0.315 C 
ATOM     76  O   UNL A   1      45.967  28.236  28.542  1.00  0.00    -0.251 OA
BRANCH  75  77
ATOM     77  C   UNL A   1      46.447  30.171  27.154  1.00  0.00     0.156 C 
ATOM     78  C   UNL A   1      48.006  30.399  27.065  1.00  0.00    -0.019 A 
ATOM     79  C   UNL A   1      45.435  31.423  27.591  1.00  0.00     0.061 C 
ATOM     80  C   UNL A   1      49.255  29.083  27.194  1.00  0.00     0.005 A 
ATOM     81  C   UNL A   1      48.516  32.072  26.795  1.00  0.00     0.044 A 
ATOM     82  N   UNL A   1      46.017  32.739  26.829  1.00  0.00    -0.329 N 
ATOM     83  C   UNL A   1      45.173  31.938  29.060  1.00  0.00     0.030 C 
ATOM     84  C   UNL A   1      43.957  31.071  27.138  1.00  0.00     0.030 C 
ATOM     85  C   UNL A   1      51.027  29.428  27.109  1.00  0.00     0.000 A 
ATOM     86  C   UNL A   1      50.292  32.496  26.668  1.00  0.00     0.014 A 
ATOM     87  C   UNL A   1      47.427  33.081  26.715  1.00  0.00     0.254 C 
ATOM     88  C   UNL A   1      44.111  31.411  30.046  1.00  0.00     0.002 C 
ATOM     89  C   UNL A   1      43.073  30.197  28.050  1.00  0.00     0.002 C 
ATOM     90  C   UNL A   1      51.593  31.128  26.851  1.00  0.00     0.001 A 
ATOM     91  O   UNL A   1      47.814  34.229  26.504  1.00  0.00    -0.269 OA
ATOM     92  C   UNL A   1      42.916  30.675  29.481  1.00  0.00     0.000 C 
BRANCH  82  93
ATOM     93  C   UNL A   1      45.120  33.848  26.345  1.00  0.00     0.086 C 
ATOM     94  C   UNL A   1      44.216  33.493  25.168  1.00  0.00     0.025 C 
ATOM     95  C   UNL A   1      44.235  34.643  27.325  1.00  0.00     0.025 C 
ATOM     96  C   UNL A   1      43.187  34.617  25.109  1.00  0.00     0.002 C 
ATOM     97  C   UNL A   1      43.104  35.240  26.497  1.00  0.00     0.002 C 
ENDBRANCH  82  93
ENDBRANCH  75  77
ENDBRANCH  74  75
ENDBRANCH  73  74
ENDBRANCH   1  73
TORSDOF 15
ENDMDL
