MODEL 1
REMARK VINA RESULT:     -11.5      0.000      0.000
REMARK SMILES COc1ccc(NC(=O)N2CC[C@@H](C(=O)OCCOC(=O)c3ccc(-c4c5nc(c(-c6c(F)cc(S(=O)(=O)[O-])cc6F)c6ccc([nH]6)c(-c6c(F)cc(S(=O)(=O)[O-])cc6F)c6nc(c(-c7c(F)cc(S(=O)(=O)[O-])cc7F)c7ccc4[nH]7)C=C6)C=C5)cc3)[C@H]2C)cc1F
REMARK SMILES IDX 17 1 16 2 14 3 15 4 13 5 10 6 11 7 88 8 12 9 89 10 8 11 7 12
REMARK SMILES IDX 9 14 6 15 3 16 4 17 91 18 5 19 90 20 92 21 2 22 1 23 18 24
REMARK SMILES IDX 19 25 20 26 21 27 22 28 23 29 87 30 24 31 86 32 25 33 26 34
REMARK SMILES IDX 27 35 80 36 28 37 85 38 79 39 81 40 29 41 84 42 78 43 77 44
REMARK SMILES IDX 30 46 64 47 43 48 63 49 44 50 47 51 62 52 82 53 45 54 46 55
REMARK SMILES IDX 61 57 83 58 48 59 31 60 32 61 41 62 33 63 34 64 40 65 42 66
REMARK SMILES IDX 35 67 36 68 37 69 38 70 39 71 65 72 66 73 75 74 67 75 68 76
REMARK SMILES IDX 74 77 76 78 69 79 70 80 71 81 72 82 73 83 49 84 50 85 59 86
REMARK SMILES IDX 51 87 52 88 58 89 60 90 53 91 54 92 55 93 56 94 57 95
REMARK H PARENT 7 13 81 45 47 56
REMARK Flexibility Score: inf
ROOT
ATOM      1  C   UNL A   1      32.840  29.894  27.385  1.00  0.00     0.274 C 
ENDROOT
BRANCH   1   2
ATOM      2  O   UNL A   1      32.727  29.109  26.179  1.00  0.00    -0.462 OA
BRANCH   2   3
ATOM      3  C   UNL A   1      31.876  28.053  26.245  1.00  0.00     0.311 C 
ATOM      4  O   UNL A   1      31.590  27.459  27.278  1.00  0.00    -0.252 OA
BRANCH   3   5
ATOM      5  C   UNL A   1      31.333  27.624  24.902  1.00  0.00     0.123 C 
ATOM      6  N   UNL A   1      31.678  26.038  23.140  1.00  0.00    -0.321 N 
ATOM      7  C   UNL A   1      30.325  25.899  23.639  1.00  0.00     0.122 C 
ATOM      8  C   UNL A   1      32.279  27.259  23.726  1.00  0.00     0.098 C 
ATOM      9  C   UNL A   1      30.407  26.420  25.053  1.00  0.00     0.039 C 
ATOM     10  C   UNL A   1      33.770  27.208  24.024  1.00  0.00     0.032 C 
BRANCH   6  11
ATOM     11  C   UNL A   1      31.905  25.647  21.840  1.00  0.00     0.322 C 
ATOM     12  N   UNL A   1      32.715  24.579  21.603  1.00  0.00    -0.308 N 
ATOM     13  H   UNL A   1      33.140  24.573  20.715  1.00  0.00     0.171 HD
ATOM     14  O   UNL A   1      31.406  26.237  20.881  1.00  0.00    -0.248 OA
BRANCH  12  15
ATOM     15  C   UNL A   1      33.046  23.485  22.418  1.00  0.00     0.046 A 
ATOM     16  C   UNL A   1      33.659  21.527  24.326  1.00  0.00     0.154 A 
ATOM     17  C   UNL A   1      32.521  21.395  23.534  1.00  0.00     0.052 A 
ATOM     18  C   UNL A   1      34.550  22.569  24.064  1.00  0.00     0.167 A 
ATOM     19  C   UNL A   1      32.218  22.369  22.580  1.00  0.00     0.030 A 
ATOM     20  C   UNL A   1      34.258  23.538  23.108  1.00  0.00     0.069 A 
ATOM     21  F   UNL A   1      35.699  22.679  24.748  1.00  0.00    -0.203 F 
BRANCH  16  22
ATOM     22  O   UNL A   1      33.808  20.597  25.319  1.00  0.00    -0.494 OA
ATOM     23  C   UNL A   1      33.906  19.258  24.830  1.00  0.00     0.278 C 
ENDBRANCH  16  22
ENDBRANCH  12  15
ENDBRANCH   6  11
ENDBRANCH   3   5
ENDBRANCH   2   3
ENDBRANCH   1   2
BRANCH   1  24
ATOM     24  C   UNL A   1      34.202  30.591  27.428  1.00  0.00     0.275 C 
BRANCH  24  25
ATOM     25  O   UNL A   1      35.131  29.742  28.120  1.00  0.00    -0.458 OA
BRANCH  25  26
ATOM     26  C   UNL A   1      35.909  30.342  29.049  1.00  0.00     0.338 C 
ATOM     27  O   UNL A   1      35.550  31.126  29.909  1.00  0.00    -0.246 OA
BRANCH  26  28
ATOM     28  C   UNL A   1      37.304  29.897  28.844  1.00  0.00     0.060 A 
ATOM     29  C   UNL A   1      38.123  29.601  29.939  1.00  0.00     0.016 A 
ATOM     30  C   UNL A   1      37.805  29.803  27.547  1.00  0.00     0.016 A 
ATOM     31  C   UNL A   1      39.448  29.214  29.739  1.00  0.00     0.010 A 
ATOM     32  C   UNL A   1      39.120  29.371  27.345  1.00  0.00     0.010 A 
ATOM     33  C   UNL A   1      39.955  29.082  28.439  1.00  0.00    -0.014 A 
BRANCH  33  34
ATOM     34  C   UNL A   1      41.365  28.671  28.221  1.00  0.00     0.031 A 
ATOM     35  C   UNL A   1      42.468  29.688  28.323  1.00  0.00     0.074 A 
ATOM     36  C   UNL A   1      41.657  27.387  27.935  1.00  0.00     0.049 A 
ATOM     37  N   UNL A   1      43.744  29.552  28.072  1.00  0.00    -0.248 NA
ATOM     38  C   UNL A   1      42.081  31.039  28.763  1.00  0.00     0.031 C 
ATOM     39  C   UNL A   1      40.680  26.300  27.839  1.00  0.00     0.029 A 
ATOM     40  N   UNL A   1      42.859  26.778  27.673  1.00  0.00    -0.354 N 
ATOM     41  C   UNL A   1      44.311  30.800  28.301  1.00  0.00     0.074 A 
ATOM     42  C   UNL A   1      43.236  31.687  28.694  1.00  0.00     0.031 C 
ATOM     43  C   UNL A   1      41.325  25.155  27.560  1.00  0.00     0.029 A 
ATOM     44  C   UNL A   1      42.750  25.433  27.408  1.00  0.00     0.049 A 
ATOM     45  H   UNL A   1      43.718  27.259  27.677  1.00  0.00     0.167 HD
ATOM     46  C   UNL A   1      45.609  31.170  28.199  1.00  0.00     0.037 A 
ATOM     47  C   UNL A   1      43.688  24.531  27.059  1.00  0.00     0.037 A 
ATOM     48  C   UNL A   1      46.678  30.279  27.828  1.00  0.00     0.049 A 
ATOM     49  C   UNL A   1      45.116  24.974  26.909  1.00  0.00     0.074 A 
ATOM     50  C   UNL A   1      48.029  30.558  27.704  1.00  0.00     0.029 A 
ATOM     51  N   UNL A   1      46.520  28.934  27.527  1.00  0.00    -0.354 N 
ATOM     52  N   UNL A   1      45.632  26.166  27.099  1.00  0.00    -0.248 NA
ATOM     53  C   UNL A   1      46.089  23.958  26.484  1.00  0.00     0.031 C 
ATOM     54  C   UNL A   1      48.682  29.390  27.298  1.00  0.00     0.029 A 
ATOM     55  C   UNL A   1      47.745  28.373  27.203  1.00  0.00     0.049 A 
ATOM     56  H   UNL A   1      45.664  28.449  27.542  1.00  0.00     0.167 HD
ATOM     57  C   UNL A   1      46.987  26.043  26.817  1.00  0.00     0.074 A 
ATOM     58  C   UNL A   1      47.217  24.655  26.466  1.00  0.00     0.031 C 
ATOM     59  C   UNL A   1      47.953  26.994  26.840  1.00  0.00     0.037 A 
BRANCH  46  60
ATOM     60  C   UNL A   1      45.949  32.606  28.480  1.00  0.00     0.058 A 
ATOM     61  C   UNL A   1      46.278  33.017  29.781  1.00  0.00     0.135 A 
ATOM     62  C   UNL A   1      45.909  33.582  27.473  1.00  0.00     0.135 A 
ATOM     63  F   UNL A   1      46.341  32.122  30.779  1.00  0.00    -0.206 F 
ATOM     64  C   UNL A   1      46.545  34.351  30.077  1.00  0.00     0.059 A 
ATOM     65  C   UNL A   1      46.193  34.919  27.742  1.00  0.00     0.059 A 
ATOM     66  F   UNL A   1      45.625  33.236  26.208  1.00  0.00    -0.206 F 
ATOM     67  C   UNL A   1      46.498  35.295  29.050  1.00  0.00     0.060 A 
BRANCH  67  68
ATOM     68  S   UNL A   1      46.890  37.014  29.440  1.00  0.00     0.124 S 
ATOM     69  O   UNL A   1      45.723  37.714  28.912  1.00  0.00    -0.237 OA
ATOM     70  O   UNL A   1      47.009  36.982  30.894  1.00  0.00    -0.237 OA
ATOM     71  O   UNL A   1      48.141  37.245  28.724  1.00  0.00    -0.744 OA
ENDBRANCH  67  68
ENDBRANCH  46  60
BRANCH  47  72
ATOM     72  C   UNL A   1      43.296  23.116  26.822  1.00  0.00     0.058 A 
ATOM     73  C   UNL A   1      43.004  22.253  27.889  1.00  0.00     0.135 A 
ATOM     74  C   UNL A   1      43.249  22.591  25.522  1.00  0.00     0.135 A 
ATOM     75  F   UNL A   1      43.036  22.708  29.151  1.00  0.00    -0.206 F 
ATOM     76  C   UNL A   1      42.714  20.910  27.679  1.00  0.00     0.059 A 
ATOM     77  C   UNL A   1      42.939  21.255  25.285  1.00  0.00     0.059 A 
ATOM     78  F   UNL A   1      43.502  23.384  24.470  1.00  0.00    -0.206 F 
ATOM     79  C   UNL A   1      42.695  20.417  26.373  1.00  0.00     0.060 A 
BRANCH  79  80
ATOM     80  S   UNL A   1      42.347  18.663  26.120  1.00  0.00     0.124 S 
ATOM     81  O   UNL A   1      43.281  18.335  25.048  1.00  0.00    -0.237 OA
ATOM     82  O   UNL A   1      42.656  18.095  27.428  1.00  0.00    -0.237 OA
ATOM     83  O   UNL A   1      40.935  18.650  25.751  1.00  0.00    -0.744 OA
ENDBRANCH  79  80
ENDBRANCH  47  72
BRANCH  59  84
ATOM     84  C   UNL A   1      49.345  26.572  26.469  1.00  0.00     0.058 A 
ATOM     85  C   UNL A   1      49.826  26.756  25.163  1.00  0.00     0.135 A 
ATOM     86  C   UNL A   1      50.186  25.937  27.396  1.00  0.00     0.135 A 
ATOM     87  F   UNL A   1      49.059  27.355  24.238  1.00  0.00    -0.206 F 
ATOM     88  C   UNL A   1      51.090  26.317  24.786  1.00  0.00     0.059 A 
ATOM     89  C   UNL A   1      51.463  25.507  27.046  1.00  0.00     0.059 A 
ATOM     90  F   UNL A   1      49.776  25.749  28.661  1.00  0.00    -0.206 F 
ATOM     91  C   UNL A   1      51.900  25.689  25.734  1.00  0.00     0.060 A 
BRANCH  91  92
ATOM     92  S   UNL A   1      53.552  25.151  25.241  1.00  0.00     0.124 S 
ATOM     93  O   UNL A   1      53.446  23.703  25.377  1.00  0.00    -0.237 OA
ATOM     94  O   UNL A   1      53.648  25.655  23.874  1.00  0.00    -0.237 OA
ATOM     95  O   UNL A   1      54.424  25.811  26.207  1.00  0.00    -0.744 OA
ENDBRANCH  91  92
ENDBRANCH  59  84
ENDBRANCH  33  34
ENDBRANCH  26  28
ENDBRANCH  25  26
ENDBRANCH  24  25
ENDBRANCH   1  24
TORSDOF 17
ENDMDL
MODEL 2
REMARK VINA RESULT:     -11.4      6.846     12.157
REMARK SMILES COc1ccc(NC(=O)N2CC[C@@H](C(=O)OCCOC(=O)c3ccc(-c4c5nc(c(-c6c(F)cc(S(=O)(=O)[O-])cc6F)c6ccc([nH]6)c(-c6c(F)cc(S(=O)(=O)[O-])cc6F)c6nc(c(-c7c(F)cc(S(=O)(=O)[O-])cc7F)c7ccc4[nH]7)C=C6)C=C5)cc3)[C@H]2C)cc1F
REMARK SMILES IDX 17 1 16 2 14 3 15 4 13 5 10 6 11 7 88 8 12 9 89 10 8 11 7 12
REMARK SMILES IDX 9 14 6 15 3 16 4 17 91 18 5 19 90 20 92 21 2 22 1 23 18 24
REMARK SMILES IDX 19 25 20 26 21 27 22 28 23 29 87 30 24 31 86 32 25 33 26 34
REMARK SMILES IDX 27 35 80 36 28 37 85 38 79 39 81 40 29 41 84 42 78 43 77 44
REMARK SMILES IDX 30 46 64 47 43 48 63 49 44 50 47 51 62 52 82 53 45 54 46 55
REMARK SMILES IDX 61 57 83 58 48 59 31 60 32 61 41 62 33 63 34 64 40 65 42 66
REMARK SMILES IDX 35 67 36 68 37 69 38 70 39 71 65 72 66 73 75 74 67 75 68 76
REMARK SMILES IDX 74 77 76 78 69 79 70 80 71 81 72 82 73 83 49 84 50 85 59 86
REMARK SMILES IDX 51 87 52 88 58 89 60 90 53 91 54 92 55 93 56 94 57 95
REMARK H PARENT 7 13 81 45 47 56
REMARK Flexibility Score: inf
ROOT
ATOM      1  C   UNL A   1      37.307  23.326  24.678  1.00  0.00     0.274 C 
ENDROOT
BRANCH   1   2
ATOM      2  O   UNL A   1      36.139  22.480  24.755  1.00  0.00    -0.462 OA
BRANCH   2   3
ATOM      3  C   UNL A   1      35.073  22.887  24.020  1.00  0.00     0.311 C 
ATOM      4  O   UNL A   1      35.154  23.421  22.920  1.00  0.00    -0.252 OA
BRANCH   3   5
ATOM      5  C   UNL A   1      33.744  22.668  24.704  1.00  0.00     0.123 C 
ATOM      6  N   UNL A   1      31.807  23.834  25.494  1.00  0.00    -0.321 N 
ATOM      7  C   UNL A   1      31.390  22.823  24.543  1.00  0.00     0.122 C 
ATOM      8  C   UNL A   1      33.238  23.627  25.815  1.00  0.00     0.098 C 
ATOM      9  C   UNL A   1      32.612  22.615  23.681  1.00  0.00     0.039 C 
ATOM     10  C   UNL A   1      34.064  24.876  26.083  1.00  0.00     0.032 C 
BRANCH   6  11
ATOM     11  C   UNL A   1      30.881  24.221  26.437  1.00  0.00     0.322 C 
ATOM     12  N   UNL A   1      30.524  25.533  26.513  1.00  0.00    -0.308 N 
ATOM     13  H   UNL A   1      30.184  25.817  27.392  1.00  0.00     0.171 HD
ATOM     14  O   UNL A   1      30.369  23.421  27.220  1.00  0.00    -0.248 OA
BRANCH  12  15
ATOM     15  C   UNL A   1      30.564  26.548  25.544  1.00  0.00     0.046 A 
ATOM     16  C   UNL A   1      30.975  28.451  23.529  1.00  0.00     0.154 A 
ATOM     17  C   UNL A   1      29.980  27.488  23.385  1.00  0.00     0.052 A 
ATOM     18  C   UNL A   1      31.665  28.536  24.739  1.00  0.00     0.167 A 
ATOM     19  C   UNL A   1      29.772  26.541  24.392  1.00  0.00     0.030 A 
ATOM     20  C   UNL A   1      31.457  27.601  25.750  1.00  0.00     0.069 A 
ATOM     21  F   UNL A   1      32.570  29.504  24.947  1.00  0.00    -0.203 F 
BRANCH  16  22
ATOM     22  O   UNL A   1      31.193  29.254  22.442  1.00  0.00    -0.494 OA
ATOM     23  C   UNL A   1      29.990  29.772  21.871  1.00  0.00     0.278 C 
ENDBRANCH  16  22
ENDBRANCH  12  15
ENDBRANCH   6  11
ENDBRANCH   3   5
ENDBRANCH   2   3
ENDBRANCH   1   2
BRANCH   1  24
ATOM     24  C   UNL A   1      38.170  23.138  25.928  1.00  0.00     0.275 C 
BRANCH  24  25
ATOM     25  O   UNL A   1      38.533  24.432  26.435  1.00  0.00    -0.458 OA
BRANCH  25  26
ATOM     26  C   UNL A   1      39.817  24.579  26.830  1.00  0.00     0.338 C 
ATOM     27  O   UNL A   1      40.786  23.973  26.409  1.00  0.00    -0.246 OA
BRANCH  26  28
ATOM     28  C   UNL A   1      39.862  25.608  27.890  1.00  0.00     0.060 A 
ATOM     29  C   UNL A   1      38.936  25.590  28.938  1.00  0.00     0.016 A 
ATOM     30  C   UNL A   1      40.822  26.617  27.819  1.00  0.00     0.016 A 
ATOM     31  C   UNL A   1      38.964  26.584  29.916  1.00  0.00     0.010 A 
ATOM     32  C   UNL A   1      40.878  27.587  28.825  1.00  0.00     0.010 A 
ATOM     33  C   UNL A   1      39.944  27.584  29.877  1.00  0.00    -0.014 A 
BRANCH  33  34
ATOM     34  C   UNL A   1      39.978  28.645  30.915  1.00  0.00     0.031 A 
ATOM     35  C   UNL A   1      40.960  28.554  32.050  1.00  0.00     0.074 A 
ATOM     36  C   UNL A   1      39.132  29.691  30.838  1.00  0.00     0.049 A 
ATOM     37  N   UNL A   1      41.081  29.320  33.103  1.00  0.00    -0.248 NA
ATOM     38  C   UNL A   1      41.933  27.450  31.994  1.00  0.00     0.031 C 
ATOM     39  C   UNL A   1      38.155  29.910  29.770  1.00  0.00     0.029 A 
ATOM     40  N   UNL A   1      38.959  30.768  31.673  1.00  0.00    -0.354 N 
ATOM     41  C   UNL A   1      42.125  28.783  33.846  1.00  0.00     0.074 A 
ATOM     42  C   UNL A   1      42.594  27.614  33.132  1.00  0.00     0.031 C 
ATOM     43  C   UNL A   1      37.500  31.060  30.004  1.00  0.00     0.029 A 
ATOM     44  C   UNL A   1      37.973  31.632  31.261  1.00  0.00     0.049 A 
ATOM     45  H   UNL A   1      39.492  30.907  32.489  1.00  0.00     0.167 HD
ATOM     46  C   UNL A   1      42.649  29.228  35.012  1.00  0.00     0.037 A 
ATOM     47  C   UNL A   1      37.489  32.748  31.841  1.00  0.00     0.037 A 
ATOM     48  C   UNL A   1      42.194  30.404  35.707  1.00  0.00     0.049 A 
ATOM     49  C   UNL A   1      38.056  33.199  33.158  1.00  0.00     0.074 A 
ATOM     50  C   UNL A   1      42.666  30.941  36.893  1.00  0.00     0.029 A 
ATOM     51  N   UNL A   1      41.165  31.231  35.278  1.00  0.00    -0.354 N 
ATOM     52  N   UNL A   1      39.023  32.662  33.864  1.00  0.00    -0.248 NA
ATOM     53  C   UNL A   1      37.460  34.396  33.766  1.00  0.00     0.031 C 
ATOM     54  C   UNL A   1      41.903  32.074  37.196  1.00  0.00     0.029 A 
ATOM     55  C   UNL A   1      40.978  32.264  36.182  1.00  0.00     0.049 A 
ATOM     56  H   UNL A   1      40.645  31.102  34.452  1.00  0.00     0.167 HD
ATOM     57  C   UNL A   1      39.151  33.455  34.998  1.00  0.00     0.074 A 
ATOM     58  C   UNL A   1      38.179  34.523  34.874  1.00  0.00     0.031 C 
ATOM     59  C   UNL A   1      39.994  33.309  36.051  1.00  0.00     0.037 A 
BRANCH  46  60
ATOM     60  C   UNL A   1      43.768  28.434  35.622  1.00  0.00     0.058 A 
ATOM     61  C   UNL A   1      43.496  27.432  36.566  1.00  0.00     0.135 A 
ATOM     62  C   UNL A   1      45.111  28.692  35.306  1.00  0.00     0.135 A 
ATOM     63  F   UNL A   1      42.229  27.138  36.897  1.00  0.00    -0.206 F 
ATOM     64  C   UNL A   1      44.519  26.718  37.185  1.00  0.00     0.059 A 
ATOM     65  C   UNL A   1      46.150  27.976  35.897  1.00  0.00     0.059 A 
ATOM     66  F   UNL A   1      45.423  29.622  34.391  1.00  0.00    -0.206 F 
ATOM     67  C   UNL A   1      45.843  27.000  36.845  1.00  0.00     0.060 A 
BRANCH  67  68
ATOM     68  S   UNL A   1      47.157  26.037  37.623  1.00  0.00     0.124 S 
ATOM     69  O   UNL A   1      46.842  26.187  39.039  1.00  0.00    -0.237 OA
ATOM     70  O   UNL A   1      46.941  24.707  37.061  1.00  0.00    -0.237 OA
ATOM     71  O   UNL A   1      48.375  26.704  37.173  1.00  0.00    -0.744 OA
ENDBRANCH  67  68
ENDBRANCH  46  60
BRANCH  47  72
ATOM     72  C   UNL A   1      36.399  33.509  31.176  1.00  0.00     0.058 A 
ATOM     73  C   UNL A   1      35.093  33.509  31.689  1.00  0.00     0.135 A 
ATOM     74  C   UNL A   1      36.636  34.216  29.988  1.00  0.00     0.135 A 
ATOM     75  F   UNL A   1      34.815  32.846  32.823  1.00  0.00    -0.206 F 
ATOM     76  C   UNL A   1      34.052  34.153  31.031  1.00  0.00     0.059 A 
ATOM     77  C   UNL A   1      35.614  34.888  29.322  1.00  0.00     0.059 A 
ATOM     78  F   UNL A   1      37.873  34.261  29.471  1.00  0.00    -0.206 F 
ATOM     79  C   UNL A   1      34.321  34.831  29.840  1.00  0.00     0.060 A 
BRANCH  79  80
ATOM     80  S   UNL A   1      32.952  35.636  28.981  1.00  0.00     0.124 S 
ATOM     81  O   UNL A   1      32.108  36.045  30.100  1.00  0.00    -0.237 OA
ATOM     82  O   UNL A   1      33.627  36.714  28.267  1.00  0.00    -0.237 OA
ATOM     83  O   UNL A   1      32.410  34.573  28.140  1.00  0.00    -0.744 OA
ENDBRANCH  79  80
ENDBRANCH  47  72
BRANCH  59  84
ATOM     84  C   UNL A   1      39.898  34.321  37.156  1.00  0.00     0.058 A 
ATOM     85  C   UNL A   1      39.070  34.093  38.266  1.00  0.00     0.135 A 
ATOM     86  C   UNL A   1      40.588  35.541  37.089  1.00  0.00     0.135 A 
ATOM     87  F   UNL A   1      38.385  32.943  38.375  1.00  0.00    -0.206 F 
ATOM     88  C   UNL A   1      38.923  35.045  39.269  1.00  0.00     0.059 A 
ATOM     89  C   UNL A   1      40.472  36.499  38.091  1.00  0.00     0.059 A 
ATOM     90  F   UNL A   1      41.402  35.799  36.053  1.00  0.00    -0.206 F 
ATOM     91  C   UNL A   1      39.625  36.247  39.171  1.00  0.00     0.060 A 
BRANCH  91  92
ATOM     92  S   UNL A   1      39.450  37.462  40.495  1.00  0.00     0.124 S 
ATOM     93  O   UNL A   1      40.757  38.110  40.480  1.00  0.00    -0.237 OA
ATOM     94  O   UNL A   1      38.332  38.276  40.025  1.00  0.00    -0.237 OA
ATOM     95  O   UNL A   1      39.167  36.643  41.669  1.00  0.00    -0.744 OA
ENDBRANCH  91  92
ENDBRANCH  59  84
ENDBRANCH  33  34
ENDBRANCH  26  28
ENDBRANCH  25  26
ENDBRANCH  24  25
ENDBRANCH   1  24
TORSDOF 17
ENDMDL
MODEL 3
REMARK VINA RESULT:     -11.2      6.648     12.042
REMARK SMILES COc1ccc(NC(=O)N2CC[C@@H](C(=O)OCCOC(=O)c3ccc(-c4c5nc(c(-c6c(F)cc(S(=O)(=O)[O-])cc6F)c6ccc([nH]6)c(-c6c(F)cc(S(=O)(=O)[O-])cc6F)c6nc(c(-c7c(F)cc(S(=O)(=O)[O-])cc7F)c7ccc4[nH]7)C=C6)C=C5)cc3)[C@H]2C)cc1F
REMARK SMILES IDX 17 1 16 2 14 3 15 4 13 5 10 6 11 7 88 8 12 9 89 10 8 11 7 12
REMARK SMILES IDX 9 14 6 15 3 16 4 17 91 18 5 19 90 20 92 21 2 22 1 23 18 24
REMARK SMILES IDX 19 25 20 26 21 27 22 28 23 29 87 30 24 31 86 32 25 33 26 34
REMARK SMILES IDX 27 35 80 36 28 37 85 38 79 39 81 40 29 41 84 42 78 43 77 44
REMARK SMILES IDX 30 46 64 47 43 48 63 49 44 50 47 51 62 52 82 53 45 54 46 55
REMARK SMILES IDX 61 57 83 58 48 59 31 60 32 61 41 62 33 63 34 64 40 65 42 66
REMARK SMILES IDX 35 67 36 68 37 69 38 70 39 71 65 72 66 73 75 74 67 75 68 76
REMARK SMILES IDX 74 77 76 78 69 79 70 80 71 81 72 82 73 83 49 84 50 85 59 86
REMARK SMILES IDX 51 87 52 88 58 89 60 90 53 91 54 92 55 93 56 94 57 95
REMARK H PARENT 7 13 81 45 47 56
REMARK Flexibility Score: inf
ROOT
ATOM      1  C   UNL A   1      37.936  22.510  25.240  1.00  0.00     0.274 C 
ENDROOT
BRANCH   1   2
ATOM      2  O   UNL A   1      36.632  23.061  25.525  1.00  0.00    -0.462 OA
BRANCH   2   3
ATOM      3  C   UNL A   1      35.599  22.183  25.461  1.00  0.00     0.311 C 
ATOM      4  O   UNL A   1      35.559  21.117  26.064  1.00  0.00    -0.252 OA
BRANCH   3   5
ATOM      5  C   UNL A   1      34.493  22.612  24.526  1.00  0.00     0.123 C 
ATOM      6  N   UNL A   1      32.794  24.277  24.242  1.00  0.00    -0.321 N 
ATOM      7  C   UNL A   1      33.666  24.293  23.084  1.00  0.00     0.122 C 
ATOM      8  C   UNL A   1      33.117  23.090  25.066  1.00  0.00     0.098 C 
ATOM      9  C   UNL A   1      34.967  23.734  23.606  1.00  0.00     0.039 C 
ATOM     10  C   UNL A   1      32.979  23.248  26.572  1.00  0.00     0.032 C 
BRANCH   6  11
ATOM     11  C   UNL A   1      31.506  24.728  24.057  1.00  0.00     0.322 C 
ATOM     12  N   UNL A   1      31.117  25.882  24.666  1.00  0.00    -0.308 N 
ATOM     13  H   UNL A   1      30.147  25.958  24.822  1.00  0.00     0.171 HD
ATOM     14  O   UNL A   1      30.691  24.118  23.366  1.00  0.00    -0.248 OA
BRANCH  12  15
ATOM     15  C   UNL A   1      31.870  26.980  25.110  1.00  0.00     0.046 A 
ATOM     16  C   UNL A   1      33.115  29.217  26.248  1.00  0.00     0.154 A 
ATOM     17  C   UNL A   1      33.732  27.970  26.310  1.00  0.00     0.052 A 
ATOM     18  C   UNL A   1      31.944  29.358  25.502  1.00  0.00     0.167 A 
ATOM     19  C   UNL A   1      33.113  26.856  25.739  1.00  0.00     0.030 A 
ATOM     20  C   UNL A   1      31.327  28.252  24.923  1.00  0.00     0.069 A 
ATOM     21  F   UNL A   1      31.367  30.559  25.348  1.00  0.00    -0.203 F 
BRANCH  16  22
ATOM     22  O   UNL A   1      33.728  30.224  26.944  1.00  0.00    -0.494 OA
ATOM     23  C   UNL A   1      34.998  29.848  27.481  1.00  0.00     0.278 C 
ENDBRANCH  16  22
ENDBRANCH  12  15
ENDBRANCH   6  11
ENDBRANCH   3   5
ENDBRANCH   2   3
ENDBRANCH   1   2
BRANCH   1  24
ATOM     24  C   UNL A   1      38.889  22.796  26.403  1.00  0.00     0.275 C 
BRANCH  24  25
ATOM     25  O   UNL A   1      39.250  24.186  26.369  1.00  0.00    -0.458 OA
BRANCH  25  26
ATOM     26  C   UNL A   1      40.522  24.480  26.722  1.00  0.00     0.338 C 
ATOM     27  O   UNL A   1      41.537  23.945  26.314  1.00  0.00    -0.246 OA
BRANCH  26  28
ATOM     28  C   UNL A   1      40.487  25.573  27.717  1.00  0.00     0.060 A 
ATOM     29  C   UNL A   1      41.531  26.502  27.790  1.00  0.00     0.016 A 
ATOM     30  C   UNL A   1      39.415  25.652  28.604  1.00  0.00     0.016 A 
ATOM     31  C   UNL A   1      41.506  27.510  28.752  1.00  0.00     0.010 A 
ATOM     32  C   UNL A   1      39.369  26.691  29.540  1.00  0.00     0.010 A 
ATOM     33  C   UNL A   1      40.419  27.623  29.628  1.00  0.00    -0.014 A 
BRANCH  33  34
ATOM     34  C   UNL A   1      40.389  28.694  30.656  1.00  0.00     0.031 A 
ATOM     35  C   UNL A   1      41.376  28.674  31.790  1.00  0.00     0.074 A 
ATOM     36  C   UNL A   1      39.480  29.685  30.570  1.00  0.00     0.049 A 
ATOM     37  N   UNL A   1      41.450  29.456  32.835  1.00  0.00    -0.248 NA
ATOM     38  C   UNL A   1      42.414  27.631  31.744  1.00  0.00     0.031 C 
ATOM     39  C   UNL A   1      38.490  29.833  29.502  1.00  0.00     0.029 A 
ATOM     40  N   UNL A   1      39.242  30.757  31.395  1.00  0.00    -0.354 N 
ATOM     41  C   UNL A   1      42.526  28.992  33.582  1.00  0.00     0.074 A 
ATOM     42  C   UNL A   1      43.065  27.846  32.879  1.00  0.00     0.031 C 
ATOM     43  C   UNL A   1      37.766  30.943  29.726  1.00  0.00     0.029 A 
ATOM     44  C   UNL A   1      38.204  31.555  30.977  1.00  0.00     0.049 A 
ATOM     45  H   UNL A   1      39.767  30.936  32.209  1.00  0.00     0.167 HD
ATOM     46  C   UNL A   1      43.023  29.479  34.743  1.00  0.00     0.037 A 
ATOM     47  C   UNL A   1      37.653  32.645  31.547  1.00  0.00     0.037 A 
ATOM     48  C   UNL A   1      42.497  30.632  35.427  1.00  0.00     0.049 A 
ATOM     49  C   UNL A   1      38.193  33.142  32.859  1.00  0.00     0.074 A 
ATOM     50  C   UNL A   1      42.937  31.208  36.607  1.00  0.00     0.029 A 
ATOM     51  N   UNL A   1      41.419  31.389  34.992  1.00  0.00    -0.354 N 
ATOM     52  N   UNL A   1      39.192  32.673  33.568  1.00  0.00    -0.248 NA
ATOM     53  C   UNL A   1      37.525  34.307  33.456  1.00  0.00     0.031 C 
ATOM     54  C   UNL A   1      42.106  32.295  36.901  1.00  0.00     0.029 A 
ATOM     55  C   UNL A   1      41.170  32.418  35.886  1.00  0.00     0.049 A 
ATOM     56  H   UNL A   1      40.907  31.221  34.168  1.00  0.00     0.167 HD
ATOM     57  C   UNL A   1      39.273  33.483  34.694  1.00  0.00     0.074 A 
ATOM     58  C   UNL A   1      38.237  34.488  34.561  1.00  0.00     0.031 C 
ATOM     59  C   UNL A   1      40.124  33.399  35.747  1.00  0.00     0.037 A 
BRANCH  46  60
ATOM     60  C   UNL A   1      44.190  28.761  35.358  1.00  0.00     0.058 A 
ATOM     61  C   UNL A   1      43.981  27.749  36.308  1.00  0.00     0.135 A 
ATOM     62  C   UNL A   1      45.514  29.102  35.042  1.00  0.00     0.135 A 
ATOM     63  F   UNL A   1      42.734  27.377  36.639  1.00  0.00    -0.206 F 
ATOM     64  C   UNL A   1      45.046  27.105  36.932  1.00  0.00     0.059 A 
ATOM     65  C   UNL A   1      46.595  28.457  35.639  1.00  0.00     0.059 A 
ATOM     66  F   UNL A   1      45.767  30.045  34.123  1.00  0.00    -0.206 F 
ATOM     67  C   UNL A   1      46.350  27.469  36.592  1.00  0.00     0.060 A 
BRANCH  67  68
ATOM     68  S   UNL A   1      47.721  26.595  37.377  1.00  0.00     0.124 S 
ATOM     69  O   UNL A   1      48.344  25.929  36.237  1.00  0.00    -0.237 OA
ATOM     70  O   UNL A   1      48.485  27.688  37.970  1.00  0.00    -0.237 OA
ATOM     71  O   UNL A   1      47.057  25.717  38.335  1.00  0.00    -0.744 OA
ENDBRANCH  67  68
ENDBRANCH  46  60
BRANCH  47  72
ATOM     72  C   UNL A   1      36.518  33.331  30.876  1.00  0.00     0.058 A 
ATOM     73  C   UNL A   1      36.724  34.164  29.766  1.00  0.00     0.135 A 
ATOM     74  C   UNL A   1      35.209  33.201  31.363  1.00  0.00     0.135 A 
ATOM     75  F   UNL A   1      37.959  34.323  29.263  1.00  0.00    -0.206 F 
ATOM     76  C   UNL A   1      35.680  34.871  29.182  1.00  0.00     0.059 A 
ATOM     77  C   UNL A   1      34.142  33.881  30.782  1.00  0.00     0.059 A 
ATOM     78  F   UNL A   1      34.961  32.400  32.410  1.00  0.00    -0.206 F 
ATOM     79  C   UNL A   1      34.393  34.732  29.705  1.00  0.00     0.060 A 
BRANCH  79  80
ATOM     80  S   UNL A   1      33.052  35.681  28.955  1.00  0.00     0.124 S 
ATOM     81  O   UNL A   1      32.301  36.102  30.134  1.00  0.00    -0.237 OA
ATOM     82  O   UNL A   1      33.775  36.735  28.253  1.00  0.00    -0.237 OA
ATOM     83  O   UNL A   1      32.384  34.704  28.100  1.00  0.00    -0.744 OA
ENDBRANCH  79  80
ENDBRANCH  47  72
BRANCH  59  84
ATOM     84  C   UNL A   1      39.967  34.414  36.842  1.00  0.00     0.058 A 
ATOM     85  C   UNL A   1      39.073  34.193  37.901  1.00  0.00     0.135 A 
ATOM     86  C   UNL A   1      40.667  35.630  36.815  1.00  0.00     0.135 A 
ATOM     87  F   UNL A   1      38.377  33.046  37.971  1.00  0.00    -0.206 F 
ATOM     88  C   UNL A   1      38.871  35.147  38.892  1.00  0.00     0.059 A 
ATOM     89  C   UNL A   1      40.495  36.591  37.806  1.00  0.00     0.059 A 
ATOM     90  F   UNL A   1      41.542  35.882  35.828  1.00  0.00    -0.206 F 
ATOM     91  C   UNL A   1      39.584  36.346  38.834  1.00  0.00     0.060 A 
BRANCH  91  92
ATOM     92  S   UNL A   1      39.336  37.565  40.143  1.00  0.00     0.124 S 
ATOM     93  O   UNL A   1      38.233  38.355  39.609  1.00  0.00    -0.237 OA
ATOM     94  O   UNL A   1      39.016  36.725  41.294  1.00  0.00    -0.237 OA
ATOM     95  O   UNL A   1      40.623  38.248  40.215  1.00  0.00    -0.744 OA
ENDBRANCH  91  92
ENDBRANCH  59  84
ENDBRANCH  33  34
ENDBRANCH  26  28
ENDBRANCH  25  26
ENDBRANCH  24  25
ENDBRANCH   1  24
TORSDOF 17
ENDMDL
