MODEL 1
REMARK VINA RESULT:     -11.8      0.000      0.000
REMARK SMILES C[C@H]1CN(C(=O)N2CC[NH+]([C@@H](C)C(=O)OCCOC(=O)c3ccc(-c4c5nc(c(-c6c(F)cc(S(=O)(=O)[O-])cc6F)c6ccc([nH]6)c(-c6c(F)cc(S(=O)(=O)[O-])cc6F)c6nc(c(-c7c(F)cc(S(=O)(=O)[O-])cc7F)c7ccc4[nH]7)C=C6)C=C5)cc3)CC2)C[C@@H]1C
REMARK SMILES IDX 17 1 16 2 15 3 13 4 14 5 11 6 12 7 10 8 1 9 2 10 3 11 90 12
REMARK SMILES IDX 4 13 89 14 91 15 5 16 6 17 7 18 8 19 88 20 9 21 87 22 18 24
REMARK SMILES IDX 19 25 20 26 21 27 22 28 86 29 23 30 85 31 24 32 25 33 26 34
REMARK SMILES IDX 79 35 27 36 84 37 78 38 80 39 28 40 83 41 77 42 76 43 29 45
REMARK SMILES IDX 63 46 42 47 62 48 43 49 46 50 61 51 81 52 44 53 45 54 60 56
REMARK SMILES IDX 82 57 47 58 30 59 31 60 40 61 32 62 33 63 39 64 41 65 34 66
REMARK SMILES IDX 35 67 36 68 37 69 38 70 64 71 65 72 74 73 66 74 67 75 73 76
REMARK SMILES IDX 75 77 68 78 69 79 70 80 71 81 72 82 48 83 49 84 58 85 50 86
REMARK SMILES IDX 51 87 57 88 59 89 52 90 53 91 54 92 55 93 56 94
REMARK H PARENT 10 23 80 44 46 55
REMARK Flexibility Score: inf
ROOT
ATOM      1  C   UNL A   1      40.473  22.305  26.958  1.00  0.00     0.275 C 
ENDROOT
BRANCH   1   2
ATOM      2  C   UNL A   1      39.655  21.329  26.112  1.00  0.00     0.274 C 
BRANCH   2   3
ATOM      3  O   UNL A   1      38.341  21.853  25.848  1.00  0.00    -0.458 OA
BRANCH   3   4
ATOM      4  C   UNL A   1      37.455  21.031  25.233  1.00  0.00     0.364 C 
ATOM      5  O   UNL A   1      37.782  20.029  24.604  1.00  0.00    -0.245 OA
BRANCH   4   6
ATOM      6  C   UNL A   1      35.983  21.497  25.320  1.00  0.00     0.292 C 
ATOM      7  C   UNL A   1      35.072  20.329  24.962  1.00  0.00     0.088 C 
BRANCH   6   8
ATOM      8  N   UNL A   1      35.707  22.825  24.719  1.00  0.00    -0.321 N 
ATOM      9  C   UNL A   1      31.799  28.744  26.310  1.00  0.00     0.010 C 
ATOM     10  C   UNL A   1      32.017  28.181  24.903  1.00  0.00     0.010 C 
ATOM     11  C   UNL A   1      32.689  26.806  24.950  1.00  0.00     0.125 C 
ATOM     12  C   UNL A   1      30.683  27.888  24.192  1.00  0.00     0.010 C 
ATOM     13  N   UNL A   1      31.597  25.840  24.927  1.00  0.00    -0.324 N 
ATOM     14  C   UNL A   1      30.316  26.500  24.726  1.00  0.00     0.125 C 
ATOM     15  C   UNL A   1      30.851  27.856  22.669  1.00  0.00     0.010 C 
ATOM     16  C   UNL A   1      31.722  24.492  24.681  1.00  0.00     0.320 C 
ATOM     17  O   UNL A   1      30.772  23.801  24.315  1.00  0.00    -0.248 OA
ATOM     18  N   UNL A   1      33.002  23.987  24.727  1.00  0.00    -0.313 N 
ATOM     19  C   UNL A   1      33.340  22.948  23.773  1.00  0.00     0.183 C 
ATOM     20  C   UNL A   1      33.776  23.953  25.966  1.00  0.00     0.183 C 
ATOM     21  C   UNL A   1      34.852  22.897  23.522  1.00  0.00     0.284 C 
ATOM     22  C   UNL A   1      35.293  23.858  25.695  1.00  0.00     0.284 C 
ATOM     23  H   UNL A   1      36.642  23.031  24.370  1.00  0.00     0.348 HD
ENDBRANCH   6   8
ENDBRANCH   4   6
ENDBRANCH   3   4
ENDBRANCH   2   3
ENDBRANCH   1   2
BRANCH   1  24
ATOM     24  O   UNL A   1      40.023  23.657  26.768  1.00  0.00    -0.458 OA
BRANCH  24  25
ATOM     25  C   UNL A   1      41.001  24.583  26.647  1.00  0.00     0.338 C 
ATOM     26  O   UNL A   1      41.879  24.628  25.795  1.00  0.00    -0.246 OA
BRANCH  25  27
ATOM     27  C   UNL A   1      40.792  25.640  27.647  1.00  0.00     0.060 A 
ATOM     28  C   UNL A   1      41.733  26.669  27.730  1.00  0.00     0.016 A 
ATOM     29  C   UNL A   1      39.707  25.598  28.526  1.00  0.00     0.016 A 
ATOM     30  C   UNL A   1      41.589  27.673  28.684  1.00  0.00     0.010 A 
ATOM     31  C   UNL A   1      39.572  26.599  29.493  1.00  0.00     0.010 A 
ATOM     32  C   UNL A   1      40.513  27.639  29.581  1.00  0.00    -0.014 A 
BRANCH  32  33
ATOM     33  C   UNL A   1      40.416  28.655  30.656  1.00  0.00     0.031 A 
ATOM     34  C   UNL A   1      41.334  28.567  31.842  1.00  0.00     0.074 A 
ATOM     35  C   UNL A   1      39.525  29.658  30.559  1.00  0.00     0.049 A 
ATOM     36  N   UNL A   1      41.363  29.304  32.922  1.00  0.00    -0.248 NA
ATOM     37  C   UNL A   1      42.354  27.508  31.806  1.00  0.00     0.031 C 
ATOM     38  C   UNL A   1      38.619  29.876  29.430  1.00  0.00     0.029 A 
ATOM     39  N   UNL A   1      39.235  30.683  31.423  1.00  0.00    -0.354 N 
ATOM     40  C   UNL A   1      42.385  28.783  33.708  1.00  0.00     0.074 A 
ATOM     41  C   UNL A   1      42.947  27.663  32.982  1.00  0.00     0.031 C 
ATOM     42  C   UNL A   1      37.878  30.970  29.670  1.00  0.00     0.029 A 
ATOM     43  C   UNL A   1      38.221  31.502  30.987  1.00  0.00     0.049 A 
ATOM     44  H   UNL A   1      39.708  30.819  32.277  1.00  0.00     0.167 HD
ATOM     45  C   UNL A   1      42.812  29.203  34.923  1.00  0.00     0.037 A 
ATOM     46  C   UNL A   1      37.624  32.548  31.591  1.00  0.00     0.037 A 
ATOM     47  C   UNL A   1      42.259  30.329  35.628  1.00  0.00     0.049 A 
ATOM     48  C   UNL A   1      38.078  32.957  32.967  1.00  0.00     0.074 A 
ATOM     49  C   UNL A   1      42.637  30.849  36.854  1.00  0.00     0.029 A 
ATOM     50  N   UNL A   1      41.206  31.109  35.172  1.00  0.00    -0.354 N 
ATOM     51  N   UNL A   1      39.042  32.455  33.701  1.00  0.00    -0.248 NA
ATOM     52  C   UNL A   1      37.354  34.068  33.602  1.00  0.00     0.031 C 
ATOM     53  C   UNL A   1      41.787  31.918  37.157  1.00  0.00     0.029 A 
ATOM     54  C   UNL A   1      40.905  32.091  36.102  1.00  0.00     0.049 A 
ATOM     55  H   UNL A   1      40.740  30.983  34.314  1.00  0.00     0.167 HD
ATOM     56  C   UNL A   1      39.055  33.200  34.875  1.00  0.00     0.074 A 
ATOM     57  C   UNL A   1      38.007  34.194  34.750  1.00  0.00     0.031 C 
ATOM     58  C   UNL A   1      39.861  33.074  35.958  1.00  0.00     0.037 A 
BRANCH  45  59
ATOM     59  C   UNL A   1      43.905  28.410  35.583  1.00  0.00     0.058 A 
ATOM     60  C   UNL A   1      43.628  27.357  36.469  1.00  0.00     0.135 A 
ATOM     61  C   UNL A   1      45.252  28.701  35.310  1.00  0.00     0.135 A 
ATOM     62  F   UNL A   1      42.358  27.050  36.779  1.00  0.00    -0.206 F 
ATOM     63  C   UNL A   1      44.649  26.640  37.086  1.00  0.00     0.059 A 
ATOM     64  C   UNL A   1      46.287  27.982  35.897  1.00  0.00     0.059 A 
ATOM     65  F   UNL A   1      45.570  29.699  34.471  1.00  0.00    -0.206 F 
ATOM     66  C   UNL A   1      45.977  26.965  36.798  1.00  0.00     0.060 A 
BRANCH  66  67
ATOM     67  S   UNL A   1      47.292  26.036  37.614  1.00  0.00     0.124 S 
ATOM     68  O   UNL A   1      48.282  25.935  36.545  1.00  0.00    -0.237 OA
ATOM     69  O   UNL A   1      47.650  26.907  38.728  1.00  0.00    -0.237 OA
ATOM     70  O   UNL A   1      46.642  24.782  37.986  1.00  0.00    -0.744 OA
ENDBRANCH  66  67
ENDBRANCH  45  59
BRANCH  46  71
ATOM     71  C   UNL A   1      36.520  33.270  30.906  1.00  0.00     0.058 A 
ATOM     72  C   UNL A   1      35.190  33.114  31.322  1.00  0.00     0.135 A 
ATOM     73  C   UNL A   1      36.772  34.136  29.831  1.00  0.00     0.135 A 
ATOM     74  F   UNL A   1      34.897  32.286  32.336  1.00  0.00    -0.206 F 
ATOM     75  C   UNL A   1      34.147  33.788  30.694  1.00  0.00     0.059 A 
ATOM     76  C   UNL A   1      35.749  34.839  29.202  1.00  0.00     0.059 A 
ATOM     77  F   UNL A   1      38.029  34.325  29.400  1.00  0.00    -0.206 F 
ATOM     78  C   UNL A   1      34.438  34.652  29.636  1.00  0.00     0.060 A 
BRANCH  78  79
ATOM     79  S   UNL A   1      33.086  35.567  28.865  1.00  0.00     0.124 S 
ATOM     80  O   UNL A   1      33.812  36.581  28.108  1.00  0.00    -0.237 OA
ATOM     81  O   UNL A   1      32.424  34.534  28.074  1.00  0.00    -0.237 OA
ATOM     82  O   UNL A   1      32.320  36.059  30.007  1.00  0.00    -0.744 OA
ENDBRANCH  78  79
ENDBRANCH  46  71
BRANCH  58  83
ATOM     83  C   UNL A   1      39.663  34.052  37.082  1.00  0.00     0.058 A 
ATOM     84  C   UNL A   1      38.867  33.742  38.195  1.00  0.00     0.135 A 
ATOM     85  C   UNL A   1      40.319  35.293  37.068  1.00  0.00     0.135 A 
ATOM     86  F   UNL A   1      38.212  32.572  38.252  1.00  0.00    -0.206 F 
ATOM     87  C   UNL A   1      38.713  34.637  39.249  1.00  0.00     0.059 A 
ATOM     88  C   UNL A   1      40.198  36.194  38.121  1.00  0.00     0.059 A 
ATOM     89  F   UNL A   1      41.101  35.633  36.030  1.00  0.00    -0.206 F 
ATOM     90  C   UNL A   1      39.384  35.861  39.202  1.00  0.00     0.060 A 
BRANCH  90  91
ATOM     91  S   UNL A   1      39.209  37.001  40.592  1.00  0.00     0.124 S 
ATOM     92  O   UNL A   1      38.286  37.989  40.045  1.00  0.00    -0.237 OA
ATOM     93  O   UNL A   1      38.668  36.140  41.640  1.00  0.00    -0.237 OA
ATOM     94  O   UNL A   1      40.572  37.472  40.818  1.00  0.00    -0.744 OA
ENDBRANCH  90  91
ENDBRANCH  58  83
ENDBRANCH  32  33
ENDBRANCH  25  27
ENDBRANCH  24  25
ENDBRANCH   1  24
TORSDOF 15
ENDMDL
MODEL 2
REMARK VINA RESULT:     -11.8      0.837      1.701
REMARK SMILES C[C@H]1CN(C(=O)N2CC[NH+]([C@@H](C)C(=O)OCCOC(=O)c3ccc(-c4c5nc(c(-c6c(F)cc(S(=O)(=O)[O-])cc6F)c6ccc([nH]6)c(-c6c(F)cc(S(=O)(=O)[O-])cc6F)c6nc(c(-c7c(F)cc(S(=O)(=O)[O-])cc7F)c7ccc4[nH]7)C=C6)C=C5)cc3)CC2)C[C@@H]1C
REMARK SMILES IDX 17 1 16 2 15 3 13 4 14 5 11 6 12 7 10 8 1 9 2 10 3 11 90 12
REMARK SMILES IDX 4 13 89 14 91 15 5 16 6 17 7 18 8 19 88 20 9 21 87 22 18 24
REMARK SMILES IDX 19 25 20 26 21 27 22 28 86 29 23 30 85 31 24 32 25 33 26 34
REMARK SMILES IDX 79 35 27 36 84 37 78 38 80 39 28 40 83 41 77 42 76 43 29 45
REMARK SMILES IDX 63 46 42 47 62 48 43 49 46 50 61 51 81 52 44 53 45 54 60 56
REMARK SMILES IDX 82 57 47 58 30 59 31 60 40 61 32 62 33 63 39 64 41 65 34 66
REMARK SMILES IDX 35 67 36 68 37 69 38 70 64 71 65 72 74 73 66 74 67 75 73 76
REMARK SMILES IDX 75 77 68 78 69 79 70 80 71 81 72 82 48 83 49 84 58 85 50 86
REMARK SMILES IDX 51 87 57 88 59 89 52 90 53 91 54 92 55 93 56 94
REMARK H PARENT 10 23 80 44 46 55
REMARK Flexibility Score: inf
ROOT
ATOM      1  C   UNL A   1      40.206  22.186  26.944  1.00  0.00     0.275 C 
ENDROOT
BRANCH   1   2
ATOM      2  C   UNL A   1      39.189  21.452  26.070  1.00  0.00     0.274 C 
BRANCH   2   3
ATOM      3  O   UNL A   1      37.920  22.131  26.076  1.00  0.00    -0.458 OA
BRANCH   3   4
ATOM      4  C   UNL A   1      36.992  21.724  25.174  1.00  0.00     0.364 C 
ATOM      5  O   UNL A   1      37.244  21.505  23.993  1.00  0.00    -0.245 OA
BRANCH   4   6
ATOM      6  C   UNL A   1      35.555  21.629  25.734  1.00  0.00     0.292 C 
ATOM      7  C   UNL A   1      34.791  20.559  24.961  1.00  0.00     0.088 C 
BRANCH   6   8
ATOM      8  N   UNL A   1      34.891  22.931  25.991  1.00  0.00    -0.321 N 
ATOM      9  C   UNL A   1      28.854  26.399  23.901  1.00  0.00     0.010 C 
ATOM     10  C   UNL A   1      30.207  27.064  24.171  1.00  0.00     0.010 C 
ATOM     11  C   UNL A   1      31.312  26.022  24.365  1.00  0.00     0.125 C 
ATOM     12  C   UNL A   1      30.701  27.868  22.955  1.00  0.00     0.010 C 
ATOM     13  N   UNL A   1      31.912  25.845  23.048  1.00  0.00    -0.324 N 
ATOM     14  C   UNL A   1      31.365  26.793  22.090  1.00  0.00     0.125 C 
ATOM     15  C   UNL A   1      31.718  28.940  23.362  1.00  0.00     0.010 C 
ATOM     16  C   UNL A   1      33.109  25.217  22.789  1.00  0.00     0.320 C 
ATOM     17  O   UNL A   1      33.738  25.409  21.748  1.00  0.00    -0.248 OA
ATOM     18  N   UNL A   1      33.637  24.475  23.821  1.00  0.00    -0.313 N 
ATOM     19  C   UNL A   1      35.079  24.488  23.977  1.00  0.00     0.183 C 
ATOM     20  C   UNL A   1      32.979  23.271  24.322  1.00  0.00     0.183 C 
ATOM     21  C   UNL A   1      35.482  24.153  25.419  1.00  0.00     0.284 C 
ATOM     22  C   UNL A   1      33.429  22.923  25.757  1.00  0.00     0.284 C 
ATOM     23  H   UNL A   1      35.084  23.005  26.989  1.00  0.00     0.348 HD
ENDBRANCH   6   8
ENDBRANCH   4   6
ENDBRANCH   3   4
ENDBRANCH   2   3
ENDBRANCH   1   2
BRANCH   1  24
ATOM     24  O   UNL A   1      39.874  23.580  27.064  1.00  0.00    -0.458 OA
BRANCH  24  25
ATOM     25  C   UNL A   1      40.911  24.437  26.930  1.00  0.00     0.338 C 
ATOM     26  O   UNL A   1      41.810  24.390  26.100  1.00  0.00    -0.246 OA
BRANCH  25  27
ATOM     27  C   UNL A   1      40.745  25.547  27.878  1.00  0.00     0.060 A 
ATOM     28  C   UNL A   1      41.788  26.468  28.008  1.00  0.00     0.016 A 
ATOM     29  C   UNL A   1      39.598  25.658  28.667  1.00  0.00     0.016 A 
ATOM     30  C   UNL A   1      41.684  27.518  28.917  1.00  0.00     0.010 A 
ATOM     31  C   UNL A   1      39.502  26.704  29.591  1.00  0.00     0.010 A 
ATOM     32  C   UNL A   1      40.545  27.636  29.725  1.00  0.00    -0.014 A 
BRANCH  32  33
ATOM     33  C   UNL A   1      40.480  28.696  30.759  1.00  0.00     0.031 A 
ATOM     34  C   UNL A   1      41.433  28.658  31.919  1.00  0.00     0.074 A 
ATOM     35  C   UNL A   1      39.586  29.696  30.646  1.00  0.00     0.049 A 
ATOM     36  N   UNL A   1      41.495  29.439  32.966  1.00  0.00    -0.248 NA
ATOM     37  C   UNL A   1      42.452  27.597  31.897  1.00  0.00     0.031 C 
ATOM     38  C   UNL A   1      38.646  29.867  29.538  1.00  0.00     0.029 A 
ATOM     39  N   UNL A   1      39.322  30.756  31.476  1.00  0.00    -0.354 N 
ATOM     40  C   UNL A   1      42.540  28.951  33.742  1.00  0.00     0.074 A 
ATOM     41  C   UNL A   1      43.080  27.801  33.047  1.00  0.00     0.031 C 
ATOM     42  C   UNL A   1      37.913  30.971  29.754  1.00  0.00     0.029 A 
ATOM     43  C   UNL A   1      38.296  31.558  31.035  1.00  0.00     0.049 A 
ATOM     44  H   UNL A   1      39.821  30.927  32.308  1.00  0.00     0.167 HD
ATOM     45  C   UNL A   1      43.003  29.421  34.925  1.00  0.00     0.037 A 
ATOM     46  C   UNL A   1      37.716  32.628  31.613  1.00  0.00     0.037 A 
ATOM     47  C   UNL A   1      42.471  30.577  35.598  1.00  0.00     0.049 A 
ATOM     48  C   UNL A   1      38.211  33.095  32.956  1.00  0.00     0.074 A 
ATOM     49  C   UNL A   1      42.886  31.147  36.789  1.00  0.00     0.029 A 
ATOM     50  N   UNL A   1      41.405  31.337  35.142  1.00  0.00    -0.354 N 
ATOM     51  N   UNL A   1      39.197  32.623  33.682  1.00  0.00    -0.248 NA
ATOM     52  C   UNL A   1      37.507  34.231  33.566  1.00  0.00     0.031 C 
ATOM     53  C   UNL A   1      42.046  32.229  37.073  1.00  0.00     0.029 A 
ATOM     54  C   UNL A   1      41.132  32.358  36.038  1.00  0.00     0.049 A 
ATOM     55  H   UNL A   1      40.913  31.176  34.304  1.00  0.00     0.167 HD
ATOM     56  C   UNL A   1      39.245  33.416  34.822  1.00  0.00     0.074 A 
ATOM     57  C   UNL A   1      38.194  34.405  34.687  1.00  0.00     0.031 C 
ATOM     58  C   UNL A   1      40.083  33.335  35.885  1.00  0.00     0.037 A 
BRANCH  45  59
ATOM     59  C   UNL A   1      44.116  28.656  35.585  1.00  0.00     0.058 A 
ATOM     60  C   UNL A   1      45.466  28.943  35.334  1.00  0.00     0.135 A 
ATOM     61  C   UNL A   1      43.823  27.628  36.496  1.00  0.00     0.135 A 
ATOM     62  F   UNL A   1      45.801  29.904  34.457  1.00  0.00    -0.206 F 
ATOM     63  C   UNL A   1      46.488  28.217  35.940  1.00  0.00     0.059 A 
ATOM     64  C   UNL A   1      44.827  26.906  37.131  1.00  0.00     0.059 A 
ATOM     65  F   UNL A   1      42.547  27.313  36.771  1.00  0.00    -0.206 F 
ATOM     66  C   UNL A   1      46.158  27.196  36.833  1.00  0.00     0.060 A 
BRANCH  66  67
ATOM     67  S   UNL A   1      47.491  26.254  37.603  1.00  0.00     0.124 S 
ATOM     68  O   UNL A   1      47.186  26.426  39.020  1.00  0.00    -0.237 OA
ATOM     69  O   UNL A   1      47.280  24.913  37.068  1.00  0.00    -0.237 OA
ATOM     70  O   UNL A   1      48.698  26.929  37.135  1.00  0.00    -0.744 OA
ENDBRANCH  66  67
ENDBRANCH  45  59
BRANCH  46  71
ATOM     71  C   UNL A   1      36.592  33.322  30.932  1.00  0.00     0.058 A 
ATOM     72  C   UNL A   1      35.275  33.186  31.393  1.00  0.00     0.135 A 
ATOM     73  C   UNL A   1      36.812  34.143  29.815  1.00  0.00     0.135 A 
ATOM     74  F   UNL A   1      35.013  32.401  32.450  1.00  0.00    -0.206 F 
ATOM     75  C   UNL A   1      34.214  33.834  30.770  1.00  0.00     0.059 A 
ATOM     76  C   UNL A   1      35.770  34.820  29.188  1.00  0.00     0.059 A 
ATOM     77  F   UNL A   1      38.055  34.312  29.339  1.00  0.00    -0.206 F 
ATOM     78  C   UNL A   1      34.473  34.652  29.668  1.00  0.00     0.060 A 
BRANCH  78  79
ATOM     79  S   UNL A   1      33.097  35.535  28.900  1.00  0.00     0.124 S 
ATOM     80  O   UNL A   1      33.798  36.564  28.139  1.00  0.00    -0.237 OA
ATOM     81  O   UNL A   1      32.456  34.486  28.114  1.00  0.00    -0.237 OA
ATOM     82  O   UNL A   1      32.325  36.011  30.044  1.00  0.00    -0.744 OA
ENDBRANCH  78  79
ENDBRANCH  46  71
BRANCH  58  83
ATOM     83  C   UNL A   1      39.920  34.360  36.972  1.00  0.00     0.058 A 
ATOM     84  C   UNL A   1      40.588  35.593  36.926  1.00  0.00     0.135 A 
ATOM     85  C   UNL A   1      39.045  34.125  38.045  1.00  0.00     0.135 A 
ATOM     86  F   UNL A   1      41.441  35.862  35.926  1.00  0.00    -0.206 F 
ATOM     87  C   UNL A   1      40.408  36.553  37.917  1.00  0.00     0.059 A 
ATOM     88  C   UNL A   1      38.832  35.080  39.034  1.00  0.00     0.059 A 
ATOM     89  F   UNL A   1      38.374  32.965  38.128  1.00  0.00    -0.206 F 
ATOM     90  C   UNL A   1      39.527  36.287  38.967  1.00  0.00     0.060 A 
BRANCH  90  91
ATOM     91  S   UNL A   1      39.271  37.553  40.228  1.00  0.00     0.124 S 
ATOM     92  O   UNL A   1      38.243  38.382  39.609  1.00  0.00    -0.237 OA
ATOM     93  O   UNL A   1      38.841  36.767  41.381  1.00  0.00    -0.237 OA
ATOM     94  O   UNL A   1      40.586  38.174  40.357  1.00  0.00    -0.744 OA
ENDBRANCH  90  91
ENDBRANCH  58  83
ENDBRANCH  32  33
ENDBRANCH  25  27
ENDBRANCH  24  25
ENDBRANCH   1  24
TORSDOF 15
ENDMDL
MODEL 3
REMARK VINA RESULT:     -11.7      5.096     12.214
REMARK SMILES C[C@H]1CN(C(=O)N2CC[NH+]([C@@H](C)C(=O)OCCOC(=O)c3ccc(-c4c5nc(c(-c6c(F)cc(S(=O)(=O)[O-])cc6F)c6ccc([nH]6)c(-c6c(F)cc(S(=O)(=O)[O-])cc6F)c6nc(c(-c7c(F)cc(S(=O)(=O)[O-])cc7F)c7ccc4[nH]7)C=C6)C=C5)cc3)CC2)C[C@@H]1C
REMARK SMILES IDX 17 1 16 2 15 3 13 4 14 5 11 6 12 7 10 8 1 9 2 10 3 11 90 12
REMARK SMILES IDX 4 13 89 14 91 15 5 16 6 17 7 18 8 19 88 20 9 21 87 22 18 24
REMARK SMILES IDX 19 25 20 26 21 27 22 28 86 29 23 30 85 31 24 32 25 33 26 34
REMARK SMILES IDX 79 35 27 36 84 37 78 38 80 39 28 40 83 41 77 42 76 43 29 45
REMARK SMILES IDX 63 46 42 47 62 48 43 49 46 50 61 51 81 52 44 53 45 54 60 56
REMARK SMILES IDX 82 57 47 58 30 59 31 60 40 61 32 62 33 63 39 64 41 65 34 66
REMARK SMILES IDX 35 67 36 68 37 69 38 70 64 71 65 72 74 73 66 74 67 75 73 76
REMARK SMILES IDX 75 77 68 78 69 79 70 80 71 81 72 82 48 83 49 84 58 85 50 86
REMARK SMILES IDX 51 87 57 88 59 89 52 90 53 91 54 92 55 93 56 94
REMARK H PARENT 10 23 80 44 46 55
REMARK Flexibility Score: inf
ROOT
ATOM      1  C   UNL A   1      34.304  32.614  27.866  1.00  0.00     0.275 C 
ENDROOT
BRANCH   1   2
ATOM      2  C   UNL A   1      33.180  33.647  27.937  1.00  0.00     0.274 C 
BRANCH   2   3
ATOM      3  O   UNL A   1      32.858  33.964  29.303  1.00  0.00    -0.458 OA
BRANCH   3   4
ATOM      4  C   UNL A   1      33.479  35.035  29.857  1.00  0.00     0.364 C 
ATOM      5  O   UNL A   1      33.640  36.103  29.272  1.00  0.00    -0.245 OA
BRANCH   4   6
ATOM      6  C   UNL A   1      34.045  34.786  31.273  1.00  0.00     0.292 C 
ATOM      7  C   UNL A   1      33.501  35.851  32.219  1.00  0.00     0.088 C 
BRANCH   6   8
ATOM      8  N   UNL A   1      35.491  34.461  31.325  1.00  0.00    -0.321 N 
ATOM      9  C   UNL A   1      39.669  28.751  32.995  1.00  0.00     0.010 C 
ATOM     10  C   UNL A   1      40.012  30.214  33.290  1.00  0.00     0.010 C 
ATOM     11  C   UNL A   1      38.819  31.133  33.019  1.00  0.00     0.125 C 
ATOM     12  C   UNL A   1      40.292  30.445  34.786  1.00  0.00     0.010 C 
ATOM     13  N   UNL A   1      38.135  31.268  34.299  1.00  0.00    -0.324 N 
ATOM     14  C   UNL A   1      38.887  30.626  35.366  1.00  0.00     0.125 C 
ATOM     15  C   UNL A   1      41.138  31.704  35.015  1.00  0.00     0.010 C 
ATOM     16  C   UNL A   1      37.175  32.207  34.603  1.00  0.00     0.320 C 
ATOM     17  O   UNL A   1      36.902  32.515  35.763  1.00  0.00    -0.248 OA
ATOM     18  N   UNL A   1      36.640  32.889  33.534  1.00  0.00    -0.313 N 
ATOM     19  C   UNL A   1      36.326  34.291  33.731  1.00  0.00     0.183 C 
ATOM     20  C   UNL A   1      35.832  32.220  32.516  1.00  0.00     0.183 C 
ATOM     21  C   UNL A   1      36.312  35.049  32.398  1.00  0.00     0.284 C 
ATOM     22  C   UNL A   1      35.794  33.017  31.195  1.00  0.00     0.284 C 
ATOM     23  H   UNL A   1      35.788  34.956  30.485  1.00  0.00     0.348 HD
ENDBRANCH   6   8
ENDBRANCH   4   6
ENDBRANCH   3   4
ENDBRANCH   2   3
ENDBRANCH   1   2
BRANCH   1  24
ATOM     24  O   UNL A   1      33.907  31.375  28.478  1.00  0.00    -0.458 OA
BRANCH  24  25
ATOM     25  C   UNL A   1      34.340  30.255  27.856  1.00  0.00     0.338 C 
ATOM     26  O   UNL A   1      33.719  29.563  27.059  1.00  0.00    -0.246 OA
BRANCH  25  27
ATOM     27  C   UNL A   1      35.755  30.035  28.187  1.00  0.00     0.060 A 
ATOM     28  C   UNL A   1      36.699  30.153  27.164  1.00  0.00     0.016 A 
ATOM     29  C   UNL A   1      36.147  29.670  29.476  1.00  0.00     0.016 A 
ATOM     30  C   UNL A   1      38.047  29.922  27.427  1.00  0.00     0.010 A 
ATOM     31  C   UNL A   1      37.499  29.423  29.736  1.00  0.00     0.010 A 
ATOM     32  C   UNL A   1      38.456  29.543  28.713  1.00  0.00    -0.014 A 
BRANCH  32  33
ATOM     33  C   UNL A   1      39.876  29.204  28.966  1.00  0.00     0.031 A 
ATOM     34  C   UNL A   1      40.790  30.238  29.558  1.00  0.00     0.074 A 
ATOM     35  C   UNL A   1      40.337  27.971  28.685  1.00  0.00     0.049 A 
ATOM     36  N   UNL A   1      42.076  30.173  29.787  1.00  0.00    -0.248 NA
ATOM     37  C   UNL A   1      40.172  31.517  29.943  1.00  0.00     0.031 C 
ATOM     38  C   UNL A   1      39.531  26.869  28.157  1.00  0.00     0.029 A 
ATOM     39  N   UNL A   1      41.596  27.438  28.803  1.00  0.00    -0.354 N 
ATOM     40  C   UNL A   1      42.429  31.408  30.318  1.00  0.00     0.074 A 
ATOM     41  C   UNL A   1      41.222  32.206  30.370  1.00  0.00     0.031 C 
ATOM     42  C   UNL A   1      40.316  25.790  28.003  1.00  0.00     0.029 A 
ATOM     43  C   UNL A   1      41.686  26.136  28.375  1.00  0.00     0.049 A 
ATOM     44  H   UNL A   1      42.362  27.942  29.162  1.00  0.00     0.167 HD
ATOM     45  C   UNL A   1      43.649  31.835  30.722  1.00  0.00     0.037 A 
ATOM     46  C   UNL A   1      42.755  25.323  28.272  1.00  0.00     0.037 A 
ATOM     47  C   UNL A   1      44.840  31.028  30.684  1.00  0.00     0.049 A 
ATOM     48  C   UNL A   1      44.111  25.842  28.673  1.00  0.00     0.074 A 
ATOM     49  C   UNL A   1      46.120  31.361  31.092  1.00  0.00     0.029 A 
ATOM     50  N   UNL A   1      44.900  29.728  30.204  1.00  0.00    -0.354 N 
ATOM     51  N   UNL A   1      44.433  27.013  29.169  1.00  0.00    -0.248 NA
ATOM     52  C   UNL A   1      45.252  24.933  28.488  1.00  0.00     0.031 C 
ATOM     53  C   UNL A   1      46.961  30.275  30.823  1.00  0.00     0.029 A 
ATOM     54  C   UNL A   1      46.198  29.251  30.284  1.00  0.00     0.049 A 
ATOM     55  H   UNL A   1      44.132  29.218  29.857  1.00  0.00     0.167 HD
ATOM     56  C   UNL A   1      45.807  26.975  29.375  1.00  0.00     0.074 A 
ATOM     57  C   UNL A   1      46.256  25.662  28.958  1.00  0.00     0.031 C 
ATOM     58  C   UNL A   1      46.625  27.939  29.866  1.00  0.00     0.037 A 
BRANCH  45  59
ATOM     59  C   UNL A   1      43.761  33.255  31.202  1.00  0.00     0.058 A 
ATOM     60  C   UNL A   1      43.840  34.337  30.312  1.00  0.00     0.135 A 
ATOM     61  C   UNL A   1      43.773  33.537  32.578  1.00  0.00     0.135 A 
ATOM     62  F   UNL A   1      43.851  34.122  28.986  1.00  0.00    -0.206 F 
ATOM     63  C   UNL A   1      43.958  35.646  30.768  1.00  0.00     0.059 A 
ATOM     64  C   UNL A   1      43.867  34.839  33.057  1.00  0.00     0.059 A 
ATOM     65  F   UNL A   1      43.701  32.538  33.472  1.00  0.00    -0.206 F 
ATOM     66  C   UNL A   1      43.977  35.887  32.144  1.00  0.00     0.060 A 
BRANCH  66  67
ATOM     67  S   UNL A   1      44.143  37.588  32.724  1.00  0.00     0.124 S 
ATOM     68  O   UNL A   1      45.466  37.556  33.342  1.00  0.00    -0.237 OA
ATOM     69  O   UNL A   1      44.041  38.355  31.486  1.00  0.00    -0.237 OA
ATOM     70  O   UNL A   1      43.023  37.743  33.648  1.00  0.00    -0.744 OA
ENDBRANCH  66  67
ENDBRANCH  45  59
BRANCH  46  71
ATOM     71  C   UNL A   1      42.591  23.940  27.753  1.00  0.00     0.058 A 
ATOM     72  C   UNL A   1      42.583  23.685  26.374  1.00  0.00     0.135 A 
ATOM     73  C   UNL A   1      42.450  22.848  28.621  1.00  0.00     0.135 A 
ATOM     74  F   UNL A   1      42.701  24.699  25.503  1.00  0.00    -0.206 F 
ATOM     75  C   UNL A   1      42.436  22.395  25.873  1.00  0.00     0.059 A 
ATOM     76  C   UNL A   1      42.325  21.546  28.145  1.00  0.00     0.059 A 
ATOM     77  F   UNL A   1      42.459  23.039  29.949  1.00  0.00    -0.206 F 
ATOM     78  C   UNL A   1      42.311  21.331  26.768  1.00  0.00     0.060 A 
BRANCH  78  79
ATOM     79  S   UNL A   1      42.179  19.654  26.111  1.00  0.00     0.124 S 
ATOM     80  O   UNL A   1      40.754  19.567  25.812  1.00  0.00    -0.237 OA
ATOM     81  O   UNL A   1      43.071  19.703  24.957  1.00  0.00    -0.237 OA
ATOM     82  O   UNL A   1      42.645  18.823  27.217  1.00  0.00    -0.744 OA
ENDBRANCH  78  79
ENDBRANCH  46  71
BRANCH  58  83
ATOM     83  C   UNL A   1      48.082  27.601  30.008  1.00  0.00     0.058 A 
ATOM     84  C   UNL A   1      48.602  27.074  31.201  1.00  0.00     0.135 A 
ATOM     85  C   UNL A   1      48.957  27.757  28.922  1.00  0.00     0.135 A 
ATOM     86  F   UNL A   1      47.808  26.914  32.271  1.00  0.00    -0.206 F 
ATOM     87  C   UNL A   1      49.945  26.731  31.318  1.00  0.00     0.059 A 
ATOM     88  C   UNL A   1      50.299  27.399  29.009  1.00  0.00     0.059 A 
ATOM     89  F   UNL A   1      48.506  28.247  27.756  1.00  0.00    -0.206 F 
ATOM     90  C   UNL A   1      50.785  26.897  30.214  1.00  0.00     0.060 A 
BRANCH  90  91
ATOM     91  S   UNL A   1      52.519  26.414  30.363  1.00  0.00     0.124 S 
ATOM     92  O   UNL A   1      52.425  25.247  31.234  1.00  0.00    -0.237 OA
ATOM     93  O   UNL A   1      52.891  26.142  28.978  1.00  0.00    -0.237 OA
ATOM     94  O   UNL A   1      53.149  27.590  30.955  1.00  0.00    -0.744 OA
ENDBRANCH  90  91
ENDBRANCH  58  83
ENDBRANCH  32  33
ENDBRANCH  25  27
ENDBRANCH  24  25
ENDBRANCH   1  24
TORSDOF 15
ENDMDL
