MODEL 1
REMARK VINA RESULT:     -13.2      0.000      0.000
REMARK SMILES C[C@@H](C(=O)OCCOC(=O)c1ccc(-c2c3nc(c(-c4c(F)cc(S(=O)(=O)[O-])cc4F)c4ccc([nH]4)c(-c4c(F)cc(S(=O)(=O)[O-])cc4F)c4nc(c(-c5c(F)cc(S(=O)(=O)[O-])cc5F)c5ccc2[nH]5)C=C4)C=C3)cc1)c1ccc(C[C@H]2CCC[C@@H]2O)cc1-c1ccc(O)cc1
REMARK SMILES IDX 6 1 5 2 3 3 4 4 2 5 1 6 77 7 78 8 89 9 79 10 88 11 80 12
REMARK SMILES IDX 90 13 91 14 96 15 92 16 95 17 93 18 94 19 81 21 82 22 83 23
REMARK SMILES IDX 86 24 84 25 85 26 87 27 7 29 8 30 9 31 10 32 11 33 12 34
REMARK SMILES IDX 76 35 13 36 75 37 14 38 15 39 16 40 69 41 17 42 74 43 68 44
REMARK SMILES IDX 70 45 18 46 73 47 67 48 66 49 19 51 53 52 32 53 52 54 33 55
REMARK SMILES IDX 36 56 51 57 71 58 34 59 35 60 50 62 72 63 37 64 20 65 21 66
REMARK SMILES IDX 30 67 22 68 23 69 29 70 31 71 24 72 25 73 26 74 27 75 28 76
REMARK SMILES IDX 54 77 55 78 64 79 56 80 57 81 63 82 65 83 58 84 59 85 60 86
REMARK SMILES IDX 61 87 62 88 38 89 39 90 48 91 40 92 41 93 47 94 49 95 42 96
REMARK SMILES IDX 43 97 44 98 45 99 46 100
REMARK H PARENT 94 20 87 28 70 50 36 61
REMARK Flexibility Score: inf
ROOT
ATOM      1  C   UNL A   1      33.671  31.092  27.384  1.00  0.00     0.274 C 
ENDROOT
BRANCH   1   2
ATOM      2  O   UNL A   1      32.404  30.695  26.814  1.00  0.00    -0.462 OA
BRANCH   2   3
ATOM      3  C   UNL A   1      32.489  29.652  25.937  1.00  0.00     0.313 C 
ATOM      4  O   UNL A   1      33.277  29.681  25.004  1.00  0.00    -0.252 OA
BRANCH   3   5
ATOM      5  C   UNL A   1      31.488  28.509  26.225  1.00  0.00     0.127 C 
ATOM      6  C   UNL A   1      31.474  28.254  27.748  1.00  0.00     0.025 C 
BRANCH   5   7
ATOM      7  C   UNL A   1      31.782  27.225  25.408  1.00  0.00    -0.026 A 
ATOM      8  C   UNL A   1      32.653  26.247  25.959  1.00  0.00     0.005 A 
ATOM      9  C   UNL A   1      31.318  27.022  24.077  1.00  0.00    -0.014 A 
ATOM     10  C   UNL A   1      33.208  25.237  25.185  1.00  0.00     0.004 A 
ATOM     11  C   UNL A   1      31.888  25.990  23.321  1.00  0.00     0.012 A 
ATOM     12  C   UNL A   1      32.903  25.192  23.837  1.00  0.00    -0.047 A 
BRANCH   9  13
ATOM     13  C   UNL A   1      30.356  27.846  23.329  1.00  0.00    -0.018 A 
ATOM     14  C   UNL A   1      30.788  28.946  22.577  1.00  0.00     0.012 A 
ATOM     15  C   UNL A   1      28.973  27.701  23.536  1.00  0.00     0.012 A 
ATOM     16  C   UNL A   1      29.862  29.794  21.959  1.00  0.00     0.047 A 
ATOM     17  C   UNL A   1      28.044  28.499  22.874  1.00  0.00     0.047 A 
ATOM     18  C   UNL A   1      28.501  29.534  22.074  1.00  0.00     0.115 A 
BRANCH  18  19
ATOM     19  O   UNL A   1      27.631  30.329  21.391  1.00  0.00    -0.508 OA
ATOM     20  H   UNL A   1      27.794  30.538  20.492  1.00  0.00     0.293 HD
ENDBRANCH  18  19
ENDBRANCH   9  13
BRANCH  12  21
ATOM     21  C   UNL A   1      33.752  24.434  22.890  1.00  0.00     0.041 C 
BRANCH  21  22
ATOM     22  C   UNL A   1      34.700  23.270  23.418  1.00  0.00     0.022 C 
ATOM     23  C   UNL A   1      36.746  23.254  23.793  1.00  0.00     0.007 C 
ATOM     24  C   UNL A   1      33.931  21.708  24.387  1.00  0.00     0.117 C 
ATOM     25  C   UNL A   1      37.235  21.444  24.544  1.00  0.00     0.003 C 
ATOM     26  C   UNL A   1      35.486  20.494  24.984  1.00  0.00     0.032 C 
BRANCH  24  27
ATOM     27  O   UNL A   1      32.789  21.290  23.650  1.00  0.00    -0.393 OA
ATOM     28  H   UNL A   1      32.451  20.461  24.021  1.00  0.00     0.210 HD
ENDBRANCH  24  27
ENDBRANCH  21  22
ENDBRANCH  12  21
ENDBRANCH   5   7
ENDBRANCH   3   5
ENDBRANCH   2   3
ENDBRANCH   1   2
BRANCH   1  29
ATOM     29  C   UNL A   1      33.645  32.498  27.998  1.00  0.00     0.275 C 
BRANCH  29  30
ATOM     30  O   UNL A   1      34.931  32.880  28.515  1.00  0.00    -0.458 OA
BRANCH  30  31
ATOM     31  C   UNL A   1      35.289  32.326  29.698  1.00  0.00     0.338 C 
ATOM     32  O   UNL A   1      34.658  32.327  30.740  1.00  0.00    -0.246 OA
BRANCH  31  33
ATOM     33  C   UNL A   1      36.569  31.626  29.530  1.00  0.00     0.060 A 
ATOM     34  C   UNL A   1      37.703  32.139  30.095  1.00  0.00     0.016 A 
ATOM     35  C   UNL A   1      36.699  30.439  28.872  1.00  0.00     0.016 A 
ATOM     36  C   UNL A   1      38.984  31.546  29.929  1.00  0.00     0.010 A 
ATOM     37  C   UNL A   1      38.002  29.863  28.734  1.00  0.00     0.010 A 
ATOM     38  C   UNL A   1      39.450  30.385  29.105  1.00  0.00    -0.014 A 
BRANCH  38  39
ATOM     39  C   UNL A   1      41.389  29.589  28.721  1.00  0.00     0.031 A 
ATOM     40  C   UNL A   1      43.012  30.489  28.744  1.00  0.00     0.074 A 
ATOM     41  C   UNL A   1      41.965  28.196  28.495  1.00  0.00     0.049 A 
ATOM     42  N   UNL A   1      44.165  30.197  28.133  1.00  0.00    -0.248 NA
ATOM     43  C   UNL A   1      43.154  31.878  29.375  1.00  0.00     0.031 C 
ATOM     44  C   UNL A   1      41.304  26.870  28.904  1.00  0.00     0.029 A 
ATOM     45  N   UNL A   1      43.143  27.638  27.964  1.00  0.00    -0.354 N 
ATOM     46  C   UNL A   1      45.004  31.339  28.263  1.00  0.00     0.074 A 
ATOM     47  C   UNL A   1      44.217  32.391  28.812  1.00  0.00     0.031 C 
ATOM     48  C   UNL A   1      41.895  25.804  28.402  1.00  0.00     0.029 A 
ATOM     49  C   UNL A   1      43.084  26.244  27.741  1.00  0.00     0.049 A 
ATOM     50  H   UNL A   1      43.944  28.176  27.764  1.00  0.00     0.167 HD
ATOM     51  C   UNL A   1      46.325  31.591  28.064  1.00  0.00     0.037 A 
ATOM     52  C   UNL A   1      43.833  25.276  27.166  1.00  0.00     0.037 A 
ATOM     53  C   UNL A   1      47.287  30.632  27.643  1.00  0.00     0.049 A 
ATOM     54  C   UNL A   1      45.243  25.568  26.850  1.00  0.00     0.074 A 
ATOM     55  C   UNL A   1      48.642  30.816  27.431  1.00  0.00     0.029 A 
ATOM     56  N   UNL A   1      47.006  29.302  27.419  1.00  0.00    -0.354 N 
ATOM     57  N   UNL A   1      45.871  26.701  26.990  1.00  0.00    -0.248 NA
ATOM     58  C   UNL A   1      46.076  24.439  26.422  1.00  0.00     0.031 C 
ATOM     59  C   UNL A   1      49.185  29.586  27.056  1.00  0.00     0.029 A 
ATOM     60  C   UNL A   1      48.168  28.648  27.058  1.00  0.00     0.049 A 
ATOM     61  H   UNL A   1      46.119  28.884  27.503  1.00  0.00     0.167 HD
ATOM     62  C   UNL A   1      47.194  26.410  26.725  1.00  0.00     0.074 A 
ATOM     63  C   UNL A   1      47.276  24.999  26.414  1.00  0.00     0.031 C 
ATOM     64  C   UNL A   1      48.246  27.252  26.759  1.00  0.00     0.037 A 
BRANCH  51  65
ATOM     65  C   UNL A   1      46.813  33.009  28.357  1.00  0.00     0.058 A 
ATOM     66  C   UNL A   1      46.800  34.016  27.370  1.00  0.00     0.135 A 
ATOM     67  C   UNL A   1      47.429  33.315  29.582  1.00  0.00     0.135 A 
ATOM     68  F   UNL A   1      46.253  33.775  26.168  1.00  0.00    -0.206 F 
ATOM     69  C   UNL A   1      47.461  35.230  27.554  1.00  0.00     0.059 A 
ATOM     70  C   UNL A   1      48.064  34.539  29.800  1.00  0.00     0.059 A 
ATOM     71  F   UNL A   1      47.469  32.402  30.565  1.00  0.00    -0.206 F 
ATOM     72  C   UNL A   1      48.110  35.472  28.765  1.00  0.00     0.060 A 
BRANCH  72  73
ATOM     73  S   UNL A   1      49.053  37.004  28.959  1.00  0.00     0.124 S 
ATOM     74  O   UNL A   1      48.620  37.447  30.280  1.00  0.00    -0.237 OA
ATOM     75  O   UNL A   1      50.434  36.543  28.870  1.00  0.00    -0.237 OA
ATOM     76  O   UNL A   1      48.598  37.825  27.841  1.00  0.00    -0.744 OA
ENDBRANCH  72  73
ENDBRANCH  51  65
BRANCH  52  77
ATOM     77  C   UNL A   1      43.274  23.881  26.990  1.00  0.00     0.058 A 
ATOM     78  C   UNL A   1      42.729  23.438  25.772  1.00  0.00     0.135 A 
ATOM     79  C   UNL A   1      43.371  22.931  28.025  1.00  0.00     0.135 A 
ATOM     80  F   UNL A   1      42.639  24.283  24.734  1.00  0.00    -0.206 F 
ATOM     81  C   UNL A   1      42.280  22.127  25.594  1.00  0.00     0.059 A 
ATOM     82  C   UNL A   1      42.946  21.611  27.866  1.00  0.00     0.059 A 
ATOM     83  F   UNL A   1      43.925  23.276  29.199  1.00  0.00    -0.206 F 
ATOM     84  C   UNL A   1      42.391  21.219  26.649  1.00  0.00     0.060 A 
BRANCH  84  85
ATOM     85  S   UNL A   1      41.841  19.514  26.394  1.00  0.00     0.124 S 
ATOM     86  O   UNL A   1      40.405  19.692  26.203  1.00  0.00    -0.237 OA
ATOM     87  O   UNL A   1      42.597  19.120  25.209  1.00  0.00    -0.237 OA
ATOM     88  O   UNL A   1      42.233  18.843  27.630  1.00  0.00    -0.744 OA
ENDBRANCH  84  85
ENDBRANCH  52  77
BRANCH  64  89
ATOM     89  C   UNL A   1      49.578  26.677  26.447  1.00  0.00     0.058 A 
ATOM     90  C   UNL A   1      50.084  26.728  25.143  1.00  0.00     0.135 A 
ATOM     91  C   UNL A   1      50.372  26.136  27.466  1.00  0.00     0.135 A 
ATOM     92  F   UNL A   1      49.338  27.228  24.145  1.00  0.00    -0.206 F 
ATOM     93  C   UNL A   1      51.350  26.251  24.853  1.00  0.00     0.059 A 
ATOM     94  C   UNL A   1      51.652  25.676  27.201  1.00  0.00     0.059 A 
ATOM     95  F   UNL A   1      49.913  26.073  28.726  1.00  0.00    -0.206 F 
ATOM     96  C   UNL A   1      52.129  25.736  25.891  1.00  0.00     0.060 A 
BRANCH  96  97
ATOM     97  S   UNL A   1      53.802  25.192  25.511  1.00  0.00     0.124 S 
ATOM     98  O   UNL A   1      53.546  23.957  24.777  1.00  0.00    -0.237 OA
ATOM     99  O   UNL A   1      54.319  26.306  24.721  1.00  0.00    -0.237 OA
ATOM    100  O   UNL A   1      54.411  25.031  26.828  1.00  0.00    -0.744 OA
ENDBRANCH  96  97
ENDBRANCH  64  89
ENDBRANCH  38  39
ENDBRANCH  31  33
ENDBRANCH  30  31
ENDBRANCH  29  30
ENDBRANCH   1  29
TORSDOF 20
ENDMDL
MODEL 2
REMARK VINA RESULT:     -13.1      6.478     12.247
REMARK SMILES C[C@@H](C(=O)OCCOC(=O)c1ccc(-c2c3nc(c(-c4c(F)cc(S(=O)(=O)[O-])cc4F)c4ccc([nH]4)c(-c4c(F)cc(S(=O)(=O)[O-])cc4F)c4nc(c(-c5c(F)cc(S(=O)(=O)[O-])cc5F)c5ccc2[nH]5)C=C4)C=C3)cc1)c1ccc(C[C@H]2CCC[C@@H]2O)cc1-c1ccc(O)cc1
REMARK SMILES IDX 6 1 5 2 3 3 4 4 2 5 1 6 77 7 78 8 89 9 79 10 88 11 80 12
REMARK SMILES IDX 90 13 91 14 96 15 92 16 95 17 93 18 94 19 81 21 82 22 83 23
REMARK SMILES IDX 86 24 84 25 85 26 87 27 7 29 8 30 9 31 10 32 11 33 12 34
REMARK SMILES IDX 76 35 13 36 75 37 14 38 15 39 16 40 69 41 17 42 74 43 68 44
REMARK SMILES IDX 70 45 18 46 73 47 67 48 66 49 19 51 53 52 32 53 52 54 33 55
REMARK SMILES IDX 36 56 51 57 71 58 34 59 35 60 50 62 72 63 37 64 20 65 21 66
REMARK SMILES IDX 30 67 22 68 23 69 29 70 31 71 24 72 25 73 26 74 27 75 28 76
REMARK SMILES IDX 54 77 55 78 64 79 56 80 57 81 63 82 65 83 58 84 59 85 60 86
REMARK SMILES IDX 61 87 62 88 38 89 39 90 48 91 40 92 41 93 47 94 49 95 42 96
REMARK SMILES IDX 43 97 44 98 45 99 46 100
REMARK H PARENT 94 20 87 28 70 50 36 61
REMARK Flexibility Score: inf
ROOT
ATOM      1  C   UNL A   1      38.376  22.174  26.099  1.00  0.00     0.274 C 
ENDROOT
BRANCH   1   2
ATOM      2  O   UNL A   1      37.230  21.458  25.588  1.00  0.00    -0.462 OA
BRANCH   2   3
ATOM      3  C   UNL A   1      36.098  22.216  25.484  1.00  0.00     0.313 C 
ATOM      4  O   UNL A   1      35.629  22.777  26.462  1.00  0.00    -0.252 OA
BRANCH   3   5
ATOM      5  C   UNL A   1      35.490  22.240  24.063  1.00  0.00     0.127 C 
ATOM      6  C   UNL A   1      36.521  22.879  23.108  1.00  0.00     0.025 C 
BRANCH   5   7
ATOM      7  C   UNL A   1      34.110  22.942  24.006  1.00  0.00    -0.026 A 
ATOM      8  C   UNL A   1      34.065  24.354  23.850  1.00  0.00     0.005 A 
ATOM      9  C   UNL A   1      32.876  22.262  24.222  1.00  0.00    -0.014 A 
ATOM     10  C   UNL A   1      32.911  25.085  24.098  1.00  0.00     0.004 A 
ATOM     11  C   UNL A   1      31.726  23.024  24.460  1.00  0.00     0.012 A 
ATOM     12  C   UNL A   1      31.777  24.412  24.515  1.00  0.00    -0.047 A 
BRANCH   9  13
ATOM     13  C   UNL A   1      32.662  20.811  24.330  1.00  0.00    -0.018 A 
ATOM     14  C   UNL A   1      32.934  20.134  25.526  1.00  0.00     0.012 A 
ATOM     15  C   UNL A   1      32.410  20.035  23.186  1.00  0.00     0.012 A 
ATOM     16  C   UNL A   1      32.838  18.740  25.593  1.00  0.00     0.047 A 
ATOM     17  C   UNL A   1      32.248  18.654  23.257  1.00  0.00     0.047 A 
ATOM     18  C   UNL A   1      32.448  18.018  24.471  1.00  0.00     0.115 A 
BRANCH  18  19
ATOM     19  O   UNL A   1      32.283  16.672  24.594  1.00  0.00    -0.508 OA
ATOM     20  H   UNL A   1      31.569  16.246  24.161  1.00  0.00     0.293 HD
ENDBRANCH  18  19
ENDBRANCH   9  13
BRANCH  12  21
ATOM     21  C   UNL A   1      30.669  25.131  25.184  1.00  0.00     0.041 C 
BRANCH  21  22
ATOM     22  C   UNL A   1      30.262  26.595  24.711  1.00  0.00     0.022 C 
ATOM     23  C   UNL A   1      31.386  28.341  24.587  1.00  0.00     0.007 C 
ATOM     24  C   UNL A   1      28.652  26.873  23.571  1.00  0.00     0.117 C 
ATOM     25  C   UNL A   1      30.217  29.789  23.802  1.00  0.00     0.003 C 
ATOM     26  C   UNL A   1      28.535  28.876  23.101  1.00  0.00     0.032 C 
BRANCH  24  27
ATOM     27  O   UNL A   1      27.608  26.092  24.139  1.00  0.00    -0.393 OA
ATOM     28  H   UNL A   1      26.798  26.624  24.190  1.00  0.00     0.210 HD
ENDBRANCH  24  27
ENDBRANCH  21  22
ENDBRANCH  12  21
ENDBRANCH   5   7
ENDBRANCH   3   5
ENDBRANCH   2   3
ENDBRANCH   1   2
BRANCH   1  29
ATOM     29  C   UNL A   1      39.691  21.397  25.952  1.00  0.00     0.275 C 
BRANCH  29  30
ATOM     30  O   UNL A   1      40.705  21.887  26.844  1.00  0.00    -0.458 OA
BRANCH  30  31
ATOM     31  C   UNL A   1      41.517  22.854  26.354  1.00  0.00     0.338 C 
ATOM     32  O   UNL A   1      42.213  22.802  25.355  1.00  0.00    -0.246 OA
BRANCH  31  33
ATOM     33  C   UNL A   1      41.386  24.057  27.186  1.00  0.00     0.060 A 
ATOM     34  C   UNL A   1      42.423  24.443  27.989  1.00  0.00     0.016 A 
ATOM     35  C   UNL A   1      40.289  24.865  27.176  1.00  0.00     0.016 A 
ATOM     36  C   UNL A   1      42.348  25.563  28.860  1.00  0.00     0.010 A 
ATOM     37  C   UNL A   1      40.251  25.991  28.057  1.00  0.00     0.010 A 
ATOM     38  C   UNL A   1      41.221  26.487  29.206  1.00  0.00    -0.014 A 
BRANCH  38  39
ATOM     39  C   UNL A   1      41.050  28.065  30.629  1.00  0.00     0.031 A 
ATOM     40  C   UNL A   1      42.100  28.360  32.131  1.00  0.00     0.074 A 
ATOM     41  C   UNL A   1      40.222  29.341  30.740  1.00  0.00     0.049 A 
ATOM     42  N   UNL A   1      41.823  29.031  33.254  1.00  0.00    -0.248 NA
ATOM     43  C   UNL A   1      43.443  27.649  32.327  1.00  0.00     0.031 C 
ATOM     44  C   UNL A   1      39.530  30.070  29.579  1.00  0.00     0.029 A 
ATOM     45  N   UNL A   1      39.854  30.248  31.751  1.00  0.00    -0.354 N 
ATOM     46  C   UNL A   1      42.858  28.730  34.182  1.00  0.00     0.074 A 
ATOM     47  C   UNL A   1      43.656  27.695  33.616  1.00  0.00     0.031 C 
ATOM     48  C   UNL A   1      38.699  31.017  29.966  1.00  0.00     0.029 A 
ATOM     49  C   UNL A   1      38.835  31.155  31.382  1.00  0.00     0.049 A 
ATOM     50  H   UNL A   1      40.271  30.250  32.643  1.00  0.00     0.167 HD
ATOM     51  C   UNL A   1      43.264  29.245  35.373  1.00  0.00     0.037 A 
ATOM     52  C   UNL A   1      38.056  32.097  31.961  1.00  0.00     0.037 A 
ATOM     53  C   UNL A   1      42.670  30.359  36.028  1.00  0.00     0.049 A 
ATOM     54  C   UNL A   1      38.426  32.594  33.299  1.00  0.00     0.074 A 
ATOM     55  C   UNL A   1      43.035  30.940  37.229  1.00  0.00     0.029 A 
ATOM     56  N   UNL A   1      41.622  31.090  35.513  1.00  0.00    -0.354 N 
ATOM     57  N   UNL A   1      39.400  32.180  34.060  1.00  0.00    -0.248 NA
ATOM     58  C   UNL A   1      37.686  33.755  33.806  1.00  0.00     0.031 C 
ATOM     59  C   UNL A   1      42.186  32.024  37.454  1.00  0.00     0.029 A 
ATOM     60  C   UNL A   1      41.316  32.118  36.383  1.00  0.00     0.049 A 
ATOM     61  H   UNL A   1      41.164  30.908  34.661  1.00  0.00     0.167 HD
ATOM     62  C   UNL A   1      39.432  33.070  35.114  1.00  0.00     0.074 A 
ATOM     63  C   UNL A   1      38.381  34.041  34.896  1.00  0.00     0.031 C 
ATOM     64  C   UNL A   1      40.282  33.080  36.160  1.00  0.00     0.037 A 
BRANCH  51  65
ATOM     65  C   UNL A   1      44.480  28.595  36.033  1.00  0.00     0.058 A 
ATOM     66  C   UNL A   1      44.343  27.558  36.978  1.00  0.00     0.135 A 
ATOM     67  C   UNL A   1      45.769  29.114  35.827  1.00  0.00     0.135 A 
ATOM     68  F   UNL A   1      43.133  27.041  37.242  1.00  0.00    -0.206 F 
ATOM     69  C   UNL A   1      45.418  27.130  37.757  1.00  0.00     0.059 A 
ATOM     70  C   UNL A   1      46.866  28.674  36.569  1.00  0.00     0.059 A 
ATOM     71  F   UNL A   1      45.966  30.098  34.936  1.00  0.00    -0.206 F 
ATOM     72  C   UNL A   1      46.671  27.712  37.560  1.00  0.00     0.060 A 
BRANCH  72  73
ATOM     73  S   UNL A   1      48.038  27.229  38.643  1.00  0.00     0.124 S 
ATOM     74  O   UNL A   1      47.416  26.180  39.445  1.00  0.00    -0.237 OA
ATOM     75  O   UNL A   1      49.052  26.780  37.695  1.00  0.00    -0.237 OA
ATOM     76  O   UNL A   1      48.356  28.460  39.358  1.00  0.00    -0.744 OA
ENDBRANCH  72  73
ENDBRANCH  51  65
BRANCH  52  77
ATOM     77  C   UNL A   1      36.920  32.730  31.189  1.00  0.00     0.058 A 
ATOM     78  C   UNL A   1      35.589  32.297  31.320  1.00  0.00     0.135 A 
ATOM     79  C   UNL A   1      37.144  33.856  30.373  1.00  0.00     0.135 A 
ATOM     80  F   UNL A   1      35.302  31.250  32.109  1.00  0.00    -0.206 F 
ATOM     81  C   UNL A   1      34.535  32.931  30.659  1.00  0.00     0.059 A 
ATOM     82  C   UNL A   1      36.105  34.518  29.717  1.00  0.00     0.059 A 
ATOM     83  F   UNL A   1      38.385  34.350  30.242  1.00  0.00    -0.206 F 
ATOM     84  C   UNL A   1      34.802  34.042  29.856  1.00  0.00     0.060 A 
BRANCH  84  85
ATOM     85  S   UNL A   1      33.422  34.878  29.035  1.00  0.00     0.124 S 
ATOM     86  O   UNL A   1      32.560  35.206  30.166  1.00  0.00    -0.237 OA
ATOM     87  O   UNL A   1      34.086  36.007  28.391  1.00  0.00    -0.237 OA
ATOM     88  O   UNL A   1      32.906  33.862  28.124  1.00  0.00    -0.744 OA
ENDBRANCH  84  85
ENDBRANCH  52  77
BRANCH  64  89
ATOM     89  C   UNL A   1      40.111  34.166  37.156  1.00  0.00     0.058 A 
ATOM     90  C   UNL A   1      40.753  35.397  36.978  1.00  0.00     0.135 A 
ATOM     91  C   UNL A   1      39.254  33.996  38.251  1.00  0.00     0.135 A 
ATOM     92  F   UNL A   1      41.591  35.583  35.946  1.00  0.00    -0.206 F 
ATOM     93  C   UNL A   1      40.552  36.438  37.868  1.00  0.00     0.059 A 
ATOM     94  C   UNL A   1      39.019  35.033  39.139  1.00  0.00     0.059 A 
ATOM     95  F   UNL A   1      38.625  32.826  38.447  1.00  0.00    -0.206 F 
ATOM     96  C   UNL A   1      39.676  36.248  38.939  1.00  0.00     0.060 A 
BRANCH  96  97
ATOM     97  S   UNL A   1      39.366  37.636  40.042  1.00  0.00     0.124 S 
ATOM     98  O   UNL A   1      38.280  38.320  39.349  1.00  0.00    -0.237 OA
ATOM     99  O   UNL A   1      39.003  36.968  41.289  1.00  0.00    -0.237 OA
ATOM    100  O   UNL A   1      40.644  38.340  40.064  1.00  0.00    -0.744 OA
ENDBRANCH  96  97
ENDBRANCH  64  89
ENDBRANCH  38  39
ENDBRANCH  31  33
ENDBRANCH  30  31
ENDBRANCH  29  30
ENDBRANCH   1  29
TORSDOF 20
ENDMDL
MODEL 3
REMARK VINA RESULT:     -12.9      0.565      8.102
REMARK SMILES C[C@@H](C(=O)OCCOC(=O)c1ccc(-c2c3nc(c(-c4c(F)cc(S(=O)(=O)[O-])cc4F)c4ccc([nH]4)c(-c4c(F)cc(S(=O)(=O)[O-])cc4F)c4nc(c(-c5c(F)cc(S(=O)(=O)[O-])cc5F)c5ccc2[nH]5)C=C4)C=C3)cc1)c1ccc(C[C@H]2CCC[C@@H]2O)cc1-c1ccc(O)cc1
REMARK SMILES IDX 6 1 5 2 3 3 4 4 2 5 1 6 77 7 78 8 89 9 79 10 88 11 80 12
REMARK SMILES IDX 90 13 91 14 96 15 92 16 95 17 93 18 94 19 81 21 82 22 83 23
REMARK SMILES IDX 86 24 84 25 85 26 87 27 7 29 8 30 9 31 10 32 11 33 12 34
REMARK SMILES IDX 76 35 13 36 75 37 14 38 15 39 16 40 69 41 17 42 74 43 68 44
REMARK SMILES IDX 70 45 18 46 73 47 67 48 66 49 19 51 53 52 32 53 52 54 33 55
REMARK SMILES IDX 36 56 51 57 71 58 34 59 35 60 50 62 72 63 37 64 20 65 21 66
REMARK SMILES IDX 30 67 22 68 23 69 29 70 31 71 24 72 25 73 26 74 27 75 28 76
REMARK SMILES IDX 54 77 55 78 64 79 56 80 57 81 63 82 65 83 58 84 59 85 60 86
REMARK SMILES IDX 61 87 62 88 38 89 39 90 48 91 40 92 41 93 47 94 49 95 42 96
REMARK SMILES IDX 43 97 44 98 45 99 46 100
REMARK H PARENT 94 20 87 28 70 50 36 61
REMARK Flexibility Score: inf
ROOT
ATOM      1  C   UNL A   1      34.243  31.084  27.349  1.00  0.00     0.274 C 
ENDROOT
BRANCH   1   2
ATOM      2  O   UNL A   1      32.913  30.559  27.149  1.00  0.00    -0.462 OA
BRANCH   2   3
ATOM      3  C   UNL A   1      32.806  29.688  26.102  1.00  0.00     0.313 C 
ATOM      4  O   UNL A   1      33.513  29.809  25.113  1.00  0.00    -0.252 OA
BRANCH   3   5
ATOM      5  C   UNL A   1      31.709  28.615  26.290  1.00  0.00     0.127 C 
ATOM      6  C   UNL A   1      31.528  28.371  27.804  1.00  0.00     0.025 C 
BRANCH   5   7
ATOM      7  C   UNL A   1      31.997  27.310  25.506  1.00  0.00    -0.026 A 
ATOM      8  C   UNL A   1      32.915  26.371  26.051  1.00  0.00     0.005 A 
ATOM      9  C   UNL A   1      31.480  27.049  24.204  1.00  0.00    -0.014 A 
ATOM     10  C   UNL A   1      33.459  25.347  25.289  1.00  0.00     0.004 A 
ATOM     11  C   UNL A   1      32.041  26.004  23.460  1.00  0.00     0.012 A 
ATOM     12  C   UNL A   1      33.096  25.247  23.958  1.00  0.00    -0.047 A 
BRANCH   9  13
ATOM     13  C   UNL A   1      30.468  27.824  23.472  1.00  0.00    -0.018 A 
ATOM     14  C   UNL A   1      30.823  28.980  22.764  1.00  0.00     0.012 A 
ATOM     15  C   UNL A   1      29.098  27.568  23.653  1.00  0.00     0.012 A 
ATOM     16  C   UNL A   1      29.843  29.777  22.164  1.00  0.00     0.047 A 
ATOM     17  C   UNL A   1      28.118  28.316  23.006  1.00  0.00     0.047 A 
ATOM     18  C   UNL A   1      28.504  29.411  22.249  1.00  0.00     0.115 A 
BRANCH  18  19
ATOM     19  O   UNL A   1      27.585  30.162  21.582  1.00  0.00    -0.508 OA
ATOM     20  H   UNL A   1      26.771  30.381  21.994  1.00  0.00     0.293 HD
ENDBRANCH  18  19
ENDBRANCH   9  13
BRANCH  12  21
ATOM     21  C   UNL A   1      33.921  24.474  23.001  1.00  0.00     0.041 C 
BRANCH  21  22
ATOM     22  C   UNL A   1      34.814  23.260  23.510  1.00  0.00     0.022 C 
ATOM     23  C   UNL A   1      36.843  23.165  23.956  1.00  0.00     0.007 C 
ATOM     24  C   UNL A   1      33.965  21.683  24.382  1.00  0.00     0.117 C 
ATOM     25  C   UNL A   1      37.252  21.310  24.644  1.00  0.00     0.003 C 
ATOM     26  C   UNL A   1      35.461  20.396  24.979  1.00  0.00     0.032 C 
BRANCH  24  27
ATOM     27  O   UNL A   1      32.839  21.332  23.587  1.00  0.00    -0.393 OA
ATOM     28  H   UNL A   1      32.451  22.135  23.205  1.00  0.00     0.210 HD
ENDBRANCH  24  27
ENDBRANCH  21  22
ENDBRANCH  12  21
ENDBRANCH   5   7
ENDBRANCH   3   5
ENDBRANCH   2   3
ENDBRANCH   1   2
BRANCH   1  29
ATOM     29  C   UNL A   1      34.326  32.113  28.483  1.00  0.00     0.275 C 
BRANCH  29  30
ATOM     30  O   UNL A   1      34.695  31.506  29.732  1.00  0.00    -0.458 OA
BRANCH  30  31
ATOM     31  C   UNL A   1      35.641  32.151  30.455  1.00  0.00     0.338 C 
ATOM     32  O   UNL A   1      35.473  33.037  31.274  1.00  0.00    -0.246 OA
BRANCH  31  33
ATOM     33  C   UNL A   1      36.953  31.561  30.160  1.00  0.00     0.060 A 
ATOM     34  C   UNL A   1      38.081  32.326  30.267  1.00  0.00     0.016 A 
ATOM     35  C   UNL A   1      37.134  30.253  29.824  1.00  0.00     0.016 A 
ATOM     36  C   UNL A   1      39.377  31.839  29.945  1.00  0.00     0.010 A 
ATOM     37  C   UNL A   1      38.454  29.792  29.518  1.00  0.00     0.010 A 
ATOM     38  C   UNL A   1      39.841  30.540  29.363  1.00  0.00    -0.014 A 
BRANCH  38  39
ATOM     39  C   UNL A   1      41.758  29.861  28.727  1.00  0.00     0.031 A 
ATOM     40  C   UNL A   1      42.220  28.169  28.116  1.00  0.00     0.074 A 
ATOM     41  C   UNL A   1      43.111  30.514  28.470  1.00  0.00     0.049 A 
ATOM     42  N   UNL A   1      43.407  27.555  28.102  1.00  0.00    -0.248 NA
ATOM     43  C   UNL A   1      41.158  27.148  27.695  1.00  0.00     0.031 C 
ATOM     44  C   UNL A   1      43.355  32.009  28.211  1.00  0.00     0.029 A 
ATOM     45  N   UNL A   1      44.450  30.101  28.336  1.00  0.00    -0.354 N 
ATOM     46  C   UNL A   1      43.165  26.191  27.780  1.00  0.00     0.074 A 
ATOM     47  C   UNL A   1      41.755  25.989  27.796  1.00  0.00     0.031 C 
ATOM     48  C   UNL A   1      44.627  32.353  28.239  1.00  0.00     0.029 A 
ATOM     49  C   UNL A   1      45.393  31.152  28.358  1.00  0.00     0.049 A 
ATOM     50  H   UNL A   1      44.707  29.155  28.235  1.00  0.00     0.167 HD
ATOM     51  C   UNL A   1      43.939  25.138  27.406  1.00  0.00     0.037 A 
ATOM     52  C   UNL A   1      46.736  31.310  28.395  1.00  0.00     0.037 A 
ATOM     53  C   UNL A   1      45.347  25.184  27.213  1.00  0.00     0.049 A 
ATOM     54  C   UNL A   1      47.592  30.149  28.091  1.00  0.00     0.074 A 
ATOM     55  C   UNL A   1      46.192  24.160  26.825  1.00  0.00     0.029 A 
ATOM     56  N   UNL A   1      46.108  26.325  27.344  1.00  0.00    -0.354 N 
ATOM     57  N   UNL A   1      47.216  28.924  27.852  1.00  0.00    -0.248 NA
ATOM     58  C   UNL A   1      49.029  30.403  27.937  1.00  0.00     0.031 C 
ATOM     59  C   UNL A   1      47.483  24.682  26.738  1.00  0.00     0.029 A 
ATOM     60  C   UNL A   1      47.425  26.028  27.053  1.00  0.00     0.049 A 
ATOM     61  H   UNL A   1      45.767  27.212  27.603  1.00  0.00     0.167 HD
ATOM     62  C   UNL A   1      48.364  28.269  27.457  1.00  0.00     0.074 A 
ATOM     63  C   UNL A   1      49.447  29.228  27.491  1.00  0.00     0.031 C 
ATOM     64  C   UNL A   1      48.491  26.980  27.081  1.00  0.00     0.037 A 
BRANCH  51  65
ATOM     65  C   UNL A   1      43.226  23.814  27.135  1.00  0.00     0.058 A 
ATOM     66  C   UNL A   1      42.930  22.905  28.172  1.00  0.00     0.135 A 
ATOM     67  C   UNL A   1      42.974  23.393  25.818  1.00  0.00     0.135 A 
ATOM     68  F   UNL A   1      43.176  23.237  29.450  1.00  0.00    -0.206 F 
ATOM     69  C   UNL A   1      42.504  21.604  27.907  1.00  0.00     0.059 A 
ATOM     70  C   UNL A   1      42.512  22.107  25.533  1.00  0.00     0.059 A 
ATOM     71  F   UNL A   1      43.229  24.213  24.787  1.00  0.00    -0.206 F 
ATOM     72  C   UNL A   1      42.321  21.207  26.582  1.00  0.00     0.060 A 
BRANCH  72  73
ATOM     73  S   UNL A   1      41.870  19.489  26.240  1.00  0.00     0.124 S 
ATOM     74  O   UNL A   1      42.645  19.219  25.032  1.00  0.00    -0.237 OA
ATOM     75  O   UNL A   1      42.317  18.796  27.443  1.00  0.00    -0.237 OA
ATOM     76  O   UNL A   1      40.424  19.549  26.057  1.00  0.00    -0.744 OA
ENDBRANCH  72  73
ENDBRANCH  51  65
BRANCH  52  77
ATOM     77  C   UNL A   1      47.339  32.683  28.598  1.00  0.00     0.058 A 
ATOM     78  C   UNL A   1      47.714  33.159  29.866  1.00  0.00     0.135 A 
ATOM     79  C   UNL A   1      47.642  33.505  27.495  1.00  0.00     0.135 A 
ATOM     80  F   UNL A   1      47.486  32.409  30.955  1.00  0.00    -0.206 F 
ATOM     81  C   UNL A   1      48.336  34.398  30.038  1.00  0.00     0.059 A 
ATOM     82  C   UNL A   1      48.279  34.739  27.640  1.00  0.00     0.059 A 
ATOM     83  F   UNL A   1      47.353  33.089  26.252  1.00  0.00    -0.206 F 
ATOM     84  C   UNL A   1      48.613  35.183  28.917  1.00  0.00     0.060 A 
BRANCH  84  85
ATOM     85  S   UNL A   1      49.454  36.770  29.150  1.00  0.00     0.124 S 
ATOM     86  O   UNL A   1      50.852  36.391  28.983  1.00  0.00    -0.237 OA
ATOM     87  O   UNL A   1      48.880  37.582  28.081  1.00  0.00    -0.237 OA
ATOM     88  O   UNL A   1      49.065  37.163  30.502  1.00  0.00    -0.744 OA
ENDBRANCH  84  85
ENDBRANCH  52  77
BRANCH  64  89
ATOM     89  C   UNL A   1      49.846  26.526  26.683  1.00  0.00     0.058 A 
ATOM     90  C   UNL A   1      50.681  25.891  27.610  1.00  0.00     0.135 A 
ATOM     91  C   UNL A   1      50.280  26.668  25.359  1.00  0.00     0.135 A 
ATOM     92  F   UNL A   1      50.296  25.755  28.888  1.00  0.00    -0.206 F 
ATOM     93  C   UNL A   1      51.921  25.408  27.234  1.00  0.00     0.059 A 
ATOM     94  C   UNL A   1      51.509  26.169  24.956  1.00  0.00     0.059 A 
ATOM     95  F   UNL A   1      49.501  27.273  24.449  1.00  0.00    -0.206 F 
ATOM     96  C   UNL A   1      52.321  25.544  25.902  1.00  0.00     0.060 A 
BRANCH  96  97
ATOM     97  S   UNL A   1      53.904  24.840  25.412  1.00  0.00     0.124 S 
ATOM     98  O   UNL A   1      54.702  25.054  26.615  1.00  0.00    -0.237 OA
ATOM     99  O   UNL A   1      53.551  23.453  25.122  1.00  0.00    -0.237 OA
ATOM    100  O   UNL A   1      54.283  25.640  24.251  1.00  0.00    -0.744 OA
ENDBRANCH  96  97
ENDBRANCH  64  89
ENDBRANCH  38  39
ENDBRANCH  31  33
ENDBRANCH  30  31
ENDBRANCH  29  30
ENDBRANCH   1  29
TORSDOF 20
ENDMDL
