MODEL 1
REMARK VINA RESULT:     -10.8      0.000      0.000
REMARK SMILES CCCCCCNC(=O)Oc1cccc(-c2ccc([C@@H](C)C(=O)OCCOC(=O)c3ccc(-c4c5nc(c(-c6c(F)cc(S(=O)(=O)[O-])cc6F)c6ccc([nH]6)c(-c6c(F)cc(S(=O)(=O)[O-])cc6F)c6nc(c(-c7c(F)cc(S(=O)(=O)[O-])cc7F)c7ccc4[nH]7)C=C6)C=C5)cc3)cc2O)c1
REMARK SMILES IDX 20 1 21 2 19 3 16 4 17 5 97 6 18 7 96 8 15 9 11 10 12 11
REMARK SMILES IDX 99 12 13 13 14 14 10 15 8 16 7 17 9 19 6 20 5 21 4 22 3 23
REMARK SMILES IDX 2 24 1 25 98 26 22 28 23 29 24 30 25 31 26 32 27 33 28 34
REMARK SMILES IDX 29 35 30 36 31 37 95 38 32 39 94 40 33 41 34 42 35 43 88 44
REMARK SMILES IDX 36 45 93 46 87 47 89 48 37 49 92 50 86 51 85 52 38 54 72 55
REMARK SMILES IDX 51 56 71 57 52 58 55 59 70 60 90 61 53 62 54 63 69 65 91 66
REMARK SMILES IDX 56 67 39 68 40 69 49 70 41 71 42 72 48 73 50 74 43 75 44 76
REMARK SMILES IDX 45 77 46 78 47 79 73 80 74 81 83 82 75 83 76 84 82 85 84 86
REMARK SMILES IDX 77 87 78 88 79 89 80 90 81 91 57 92 58 93 67 94 59 95 60 96
REMARK SMILES IDX 66 97 68 98 61 99 62 100 63 101 64 102 65 103
REMARK H PARENT 7 18 98 27 89 53 55 64
REMARK Flexibility Score: inf
ROOT
ATOM      1  C   UNL A   1      36.320  20.534  25.330  1.00  0.00     0.126 C 
ATOM      2  C   UNL A   1      35.918  19.111  24.946  1.00  0.00     0.025 C 
ENDROOT
BRANCH   1   3
ATOM      3  C   UNL A   1      35.486  21.583  24.611  1.00  0.00    -0.030 A 
ATOM      4  C   UNL A   1      33.865  23.521  23.286  1.00  0.00     0.024 A 
ATOM      5  C   UNL A   1      35.265  23.641  23.332  1.00  0.00     0.013 A 
ATOM      6  C   UNL A   1      33.296  22.401  23.911  1.00  0.00     0.123 A 
ATOM      7  C   UNL A   1      36.063  22.686  23.972  1.00  0.00     0.005 A 
ATOM      8  C   UNL A   1      34.088  21.452  24.563  1.00  0.00     0.051 A 
BRANCH   4   9
ATOM      9  C   UNL A   1      33.078  24.543  22.575  1.00  0.00    -0.011 A 
ATOM     10  C   UNL A   1      31.582  26.451  22.554  1.00  0.00     0.133 A 
ATOM     11  C   UNL A   1      31.576  26.466  21.161  1.00  0.00     0.047 A 
ATOM     12  C   UNL A   1      32.318  25.501  23.266  1.00  0.00     0.056 A 
ATOM     13  C   UNL A   1      32.335  25.530  20.465  1.00  0.00     0.004 A 
ATOM     14  C   UNL A   1      33.076  24.577  21.167  1.00  0.00     0.009 A 
BRANCH  10  15
ATOM     15  O   UNL A   1      30.718  27.351  23.198  1.00  0.00    -0.410 OA
BRANCH  15  16
ATOM     16  C   UNL A   1      30.735  28.679  22.799  1.00  0.00     0.412 C 
ATOM     17  N   UNL A   1      31.352  29.501  23.702  1.00  0.00    -0.321 N 
ATOM     18  H   UNL A   1      31.423  30.452  23.452  1.00  0.00     0.167 HD
ATOM     19  O   UNL A   1      30.241  29.127  21.772  1.00  0.00    -0.224 OA
BRANCH  17  20
ATOM     20  C   UNL A   1      31.912  29.127  24.986  1.00  0.00     0.119 C 
BRANCH  20  21
ATOM     21  C   UNL A   1      31.876  30.270  25.997  1.00  0.00     0.021 C 
BRANCH  21  22
ATOM     22  C   UNL A   1      32.740  30.059  27.247  1.00  0.00     0.002 C 
BRANCH  22  23
ATOM     23  C   UNL A   1      33.659  31.226  27.626  1.00  0.00    -0.000 C 
BRANCH  23  24
ATOM     24  C   UNL A   1      35.120  30.856  27.899  1.00  0.00    -0.003 C 
ATOM     25  C   UNL A   1      35.494  29.468  27.402  1.00  0.00     0.004 C 
ENDBRANCH  23  24
ENDBRANCH  22  23
ENDBRANCH  21  22
ENDBRANCH  20  21
ENDBRANCH  17  20
ENDBRANCH  15  16
ENDBRANCH  10  15
ENDBRANCH   4   9
BRANCH   6  26
ATOM     26  O   UNL A   1      31.953  22.137  23.903  1.00  0.00    -0.507 OA
ATOM     27  H   UNL A   1      31.650  21.251  23.856  1.00  0.00     0.293 HD
ENDBRANCH   6  26
ENDBRANCH   1   3
BRANCH   1  28
ATOM     28  C   UNL A   1      37.833  20.689  25.223  1.00  0.00     0.313 C 
ATOM     29  O   UNL A   1      38.534  19.866  24.640  1.00  0.00    -0.252 OA
BRANCH  28  30
ATOM     30  O   UNL A   1      38.309  21.838  25.771  1.00  0.00    -0.462 OA
BRANCH  30  31
ATOM     31  C   UNL A   1      39.676  21.826  26.225  1.00  0.00     0.274 C 
BRANCH  31  32
ATOM     32  C   UNL A   1      39.954  22.977  27.194  1.00  0.00     0.275 C 
BRANCH  32  33
ATOM     33  O   UNL A   1      41.182  23.651  26.867  1.00  0.00    -0.458 OA
BRANCH  33  34
ATOM     34  C   UNL A   1      41.037  24.942  26.484  1.00  0.00     0.338 C 
ATOM     35  O   UNL A   1      40.843  25.357  25.356  1.00  0.00    -0.246 OA
BRANCH  34  36
ATOM     36  C   UNL A   1      41.021  25.810  27.670  1.00  0.00     0.060 A 
ATOM     37  C   UNL A   1      39.845  25.870  28.420  1.00  0.00     0.016 A 
ATOM     38  C   UNL A   1      42.109  26.624  27.989  1.00  0.00     0.016 A 
ATOM     39  C   UNL A   1      39.736  26.763  29.480  1.00  0.00     0.010 A 
ATOM     40  C   UNL A   1      42.003  27.517  29.061  1.00  0.00     0.010 A 
ATOM     41  C   UNL A   1      40.809  27.606  29.798  1.00  0.00    -0.014 A 
BRANCH  41  42
ATOM     42  C   UNL A   1      40.640  28.620  30.865  1.00  0.00     0.031 A 
ATOM     43  C   UNL A   1      41.512  28.573  32.087  1.00  0.00     0.074 A 
ATOM     44  C   UNL A   1      39.731  29.601  30.719  1.00  0.00     0.049 A 
ATOM     45  N   UNL A   1      41.512  29.357  33.134  1.00  0.00    -0.248 NA
ATOM     46  C   UNL A   1      42.514  27.499  32.137  1.00  0.00     0.031 C 
ATOM     47  C   UNL A   1      38.841  29.758  29.567  1.00  0.00     0.029 A 
ATOM     48  N   UNL A   1      39.404  30.648  31.541  1.00  0.00    -0.354 N 
ATOM     49  C   UNL A   1      42.501  28.864  33.976  1.00  0.00     0.074 A 
ATOM     50  C   UNL A   1      43.061  27.697  33.328  1.00  0.00     0.031 C 
ATOM     51  C   UNL A   1      38.067  30.838  29.758  1.00  0.00     0.029 A 
ATOM     52  C   UNL A   1      38.384  31.429  31.056  1.00  0.00     0.049 A 
ATOM     53  H   UNL A   1      39.856  30.822  32.399  1.00  0.00     0.167 HD
ATOM     54  C   UNL A   1      42.909  29.344  35.175  1.00  0.00     0.037 A 
ATOM     55  C   UNL A   1      37.762  32.492  31.604  1.00  0.00     0.037 A 
ATOM     56  C   UNL A   1      42.352  30.511  35.809  1.00  0.00     0.049 A 
ATOM     57  C   UNL A   1      38.218  33.002  32.942  1.00  0.00     0.074 A 
ATOM     58  C   UNL A   1      42.706  31.092  37.015  1.00  0.00     0.029 A 
ATOM     59  N   UNL A   1      41.317  31.278  35.288  1.00  0.00    -0.354 N 
ATOM     60  N   UNL A   1      39.165  32.536  33.720  1.00  0.00    -0.248 NA
ATOM     61  C   UNL A   1      37.527  34.184  33.473  1.00  0.00     0.031 C 
ATOM     62  C   UNL A   1      41.862  32.186  37.240  1.00  0.00     0.029 A 
ATOM     63  C   UNL A   1      41.008  32.313  36.156  1.00  0.00     0.049 A 
ATOM     64  H   UNL A   1      40.869  31.109  34.429  1.00  0.00     0.167 HD
ATOM     65  C   UNL A   1      39.191  33.371  34.831  1.00  0.00     0.074 A 
ATOM     66  C   UNL A   1      38.176  34.382  34.615  1.00  0.00     0.031 C 
ATOM     67  C   UNL A   1      39.986  33.306  35.929  1.00  0.00     0.037 A 
BRANCH  54  68
ATOM     68  C   UNL A   1      43.991  28.579  35.886  1.00  0.00     0.058 A 
ATOM     69  C   UNL A   1      43.715  27.404  36.605  1.00  0.00     0.135 A 
ATOM     70  C   UNL A   1      45.316  29.041  35.872  1.00  0.00     0.135 A 
ATOM     71  F   UNL A   1      42.462  26.925  36.664  1.00  0.00    -0.206 F 
ATOM     72  C   UNL A   1      44.705  26.744  37.326  1.00  0.00     0.059 A 
ATOM     73  C   UNL A   1      46.328  28.383  36.565  1.00  0.00     0.059 A 
ATOM     74  F   UNL A   1      45.636  30.157  35.197  1.00  0.00    -0.206 F 
ATOM     75  C   UNL A   1      46.007  27.249  37.311  1.00  0.00     0.060 A 
BRANCH  75  76
ATOM     76  S   UNL A   1      47.273  26.415  38.291  1.00  0.00     0.124 S 
ATOM     77  O   UNL A   1      47.392  25.141  37.590  1.00  0.00    -0.237 OA
ATOM     78  O   UNL A   1      48.417  27.315  38.164  1.00  0.00    -0.237 OA
ATOM     79  O   UNL A   1      46.680  26.347  39.623  1.00  0.00    -0.744 OA
ENDBRANCH  75  76
ENDBRANCH  54  68
BRANCH  55  80
ATOM     80  C   UNL A   1      36.639  33.127  30.869  1.00  0.00     0.058 A 
ATOM     81  C   UNL A   1      35.309  32.940  31.271  1.00  0.00     0.135 A 
ATOM     82  C   UNL A   1      36.883  33.994  29.792  1.00  0.00     0.135 A 
ATOM     83  F   UNL A   1      35.025  32.113  32.289  1.00  0.00    -0.206 F 
ATOM     84  C   UNL A   1      34.259  33.600  30.638  1.00  0.00     0.059 A 
ATOM     85  C   UNL A   1      35.854  34.681  29.158  1.00  0.00     0.059 A 
ATOM     86  F   UNL A   1      38.141  34.213  29.379  1.00  0.00    -0.206 F 
ATOM     87  C   UNL A   1      34.544  34.477  29.589  1.00  0.00     0.060 A 
BRANCH  87  88
ATOM     88  S   UNL A   1      33.187  35.407  28.841  1.00  0.00     0.124 S 
ATOM     89  O   UNL A   1      32.506  35.931  30.019  1.00  0.00    -0.237 OA
ATOM     90  O   UNL A   1      33.897  36.388  28.025  1.00  0.00    -0.237 OA
ATOM     91  O   UNL A   1      32.458  34.389  28.089  1.00  0.00    -0.744 OA
ENDBRANCH  87  88
ENDBRANCH  55  80
BRANCH  67  92
ATOM     92  C   UNL A   1      39.795  34.365  36.979  1.00  0.00     0.058 A 
ATOM     93  C   UNL A   1      39.039  34.122  38.136  1.00  0.00     0.135 A 
ATOM     94  C   UNL A   1      40.417  35.617  36.850  1.00  0.00     0.135 A 
ATOM     95  F   UNL A   1      38.419  32.943  38.303  1.00  0.00    -0.206 F 
ATOM     96  C   UNL A   1      38.891  35.091  39.123  1.00  0.00     0.059 A 
ATOM     97  C   UNL A   1      40.300  36.594  37.835  1.00  0.00     0.059 A 
ATOM     98  F   UNL A   1      41.159  35.897  35.767  1.00  0.00    -0.206 F 
ATOM     99  C   UNL A   1      39.525  36.325  38.963  1.00  0.00     0.060 A 
BRANCH  99 100
ATOM    100  S   UNL A   1      39.357  37.564  40.267  1.00  0.00     0.124 S 
ATOM    101  O   UNL A   1      40.742  37.983  40.454  1.00  0.00    -0.237 OA
ATOM    102  O   UNL A   1      38.475  38.551  39.650  1.00  0.00    -0.237 OA
ATOM    103  O   UNL A   1      38.771  36.815  41.373  1.00  0.00    -0.744 OA
ENDBRANCH  99 100
ENDBRANCH  67  92
ENDBRANCH  41  42
ENDBRANCH  34  36
ENDBRANCH  33  34
ENDBRANCH  32  33
ENDBRANCH  31  32
ENDBRANCH  30  31
ENDBRANCH  28  30
ENDBRANCH   1  28
TORSDOF 24
ENDMDL
MODEL 2
REMARK VINA RESULT:     -10.7      1.191      8.347
REMARK SMILES CCCCCCNC(=O)Oc1cccc(-c2ccc([C@@H](C)C(=O)OCCOC(=O)c3ccc(-c4c5nc(c(-c6c(F)cc(S(=O)(=O)[O-])cc6F)c6ccc([nH]6)c(-c6c(F)cc(S(=O)(=O)[O-])cc6F)c6nc(c(-c7c(F)cc(S(=O)(=O)[O-])cc7F)c7ccc4[nH]7)C=C6)C=C5)cc3)cc2O)c1
REMARK SMILES IDX 20 1 21 2 19 3 16 4 17 5 97 6 18 7 96 8 15 9 11 10 12 11
REMARK SMILES IDX 99 12 13 13 14 14 10 15 8 16 7 17 9 19 6 20 5 21 4 22 3 23
REMARK SMILES IDX 2 24 1 25 98 26 22 28 23 29 24 30 25 31 26 32 27 33 28 34
REMARK SMILES IDX 29 35 30 36 31 37 95 38 32 39 94 40 33 41 34 42 35 43 88 44
REMARK SMILES IDX 36 45 93 46 87 47 89 48 37 49 92 50 86 51 85 52 38 54 72 55
REMARK SMILES IDX 51 56 71 57 52 58 55 59 70 60 90 61 53 62 54 63 69 65 91 66
REMARK SMILES IDX 56 67 39 68 40 69 49 70 41 71 42 72 48 73 50 74 43 75 44 76
REMARK SMILES IDX 45 77 46 78 47 79 73 80 74 81 83 82 75 83 76 84 82 85 84 86
REMARK SMILES IDX 77 87 78 88 79 89 80 90 81 91 57 92 58 93 67 94 59 95 60 96
REMARK SMILES IDX 66 97 68 98 61 99 62 100 63 101 64 102 65 103
REMARK H PARENT 7 18 98 27 89 53 55 64
REMARK Flexibility Score: inf
ROOT
ATOM      1  C   UNL A   1      35.334  21.636  25.835  1.00  0.00     0.126 C 
ATOM      2  C   UNL A   1      34.550  20.625  25.001  1.00  0.00     0.025 C 
ENDROOT
BRANCH   1   3
ATOM      3  C   UNL A   1      34.651  22.994  25.887  1.00  0.00    -0.030 A 
ATOM      4  C   UNL A   1      33.325  25.516  26.030  1.00  0.00     0.024 A 
ATOM      5  C   UNL A   1      34.552  25.367  25.360  1.00  0.00     0.013 A 
ATOM      6  C   UNL A   1      32.773  24.369  26.619  1.00  0.00     0.123 A 
ATOM      7  C   UNL A   1      35.199  24.129  25.279  1.00  0.00     0.005 A 
ATOM      8  C   UNL A   1      33.422  23.133  26.553  1.00  0.00     0.051 A 
BRANCH   4   9
ATOM      9  C   UNL A   1      32.677  26.838  26.059  1.00  0.00    -0.011 A 
ATOM     10  C   UNL A   1      31.484  28.653  24.980  1.00  0.00     0.133 A 
ATOM     11  C   UNL A   1      31.464  29.382  26.167  1.00  0.00     0.047 A 
ATOM     12  C   UNL A   1      32.086  27.394  24.913  1.00  0.00     0.056 A 
ATOM     13  C   UNL A   1      32.034  28.837  27.313  1.00  0.00     0.004 A 
ATOM     14  C   UNL A   1      32.637  27.578  27.257  1.00  0.00     0.009 A 
BRANCH  10  15
ATOM     15  O   UNL A   1      30.987  29.297  23.836  1.00  0.00    -0.410 OA
BRANCH  15  16
ATOM     16  C   UNL A   1      30.272  28.544  22.917  1.00  0.00     0.412 C 
ATOM     17  N   UNL A   1      31.069  27.935  21.987  1.00  0.00    -0.321 N 
ATOM     18  H   UNL A   1      30.615  27.358  21.330  1.00  0.00     0.167 HD
ATOM     19  O   UNL A   1      29.053  28.425  22.878  1.00  0.00    -0.224 OA
BRANCH  17  20
ATOM     20  C   UNL A   1      32.509  28.045  21.864  1.00  0.00     0.119 C 
BRANCH  20  21
ATOM     21  C   UNL A   1      33.226  26.730  22.164  1.00  0.00     0.021 C 
BRANCH  21  22
ATOM     22  C   UNL A   1      32.388  25.466  21.931  1.00  0.00     0.002 C 
BRANCH  22  23
ATOM     23  C   UNL A   1      33.131  24.136  22.095  1.00  0.00    -0.000 C 
BRANCH  23  24
ATOM     24  C   UNL A   1      32.372  23.043  22.853  1.00  0.00    -0.003 C 
ATOM     25  C   UNL A   1      31.054  23.521  23.442  1.00  0.00     0.004 C 
ENDBRANCH  23  24
ENDBRANCH  22  23
ENDBRANCH  21  22
ENDBRANCH  20  21
ENDBRANCH  17  20
ENDBRANCH  15  16
ENDBRANCH  10  15
ENDBRANCH   4   9
BRANCH   6  26
ATOM     26  O   UNL A   1      31.564  24.361  27.263  1.00  0.00    -0.507 OA
ATOM     27  H   UNL A   1      30.911  24.995  27.039  1.00  0.00     0.293 HD
ENDBRANCH   6  26
ENDBRANCH   1   3
BRANCH   1  28
ATOM     28  C   UNL A   1      36.797  21.635  25.404  1.00  0.00     0.313 C 
ATOM     29  O   UNL A   1      37.139  21.357  24.257  1.00  0.00    -0.252 OA
BRANCH  28  30
ATOM     30  O   UNL A   1      37.659  22.028  26.379  1.00  0.00    -0.462 OA
BRANCH  30  31
ATOM     31  C   UNL A   1      38.811  22.786  25.963  1.00  0.00     0.274 C 
BRANCH  31  32
ATOM     32  C   UNL A   1      39.429  23.551  27.135  1.00  0.00     0.275 C 
BRANCH  32  33
ATOM     33  O   UNL A   1      40.748  24.026  26.811  1.00  0.00    -0.458 OA
BRANCH  33  34
ATOM     34  C   UNL A   1      40.816  25.344  26.505  1.00  0.00     0.338 C 
ATOM     35  O   UNL A   1      40.759  25.846  25.397  1.00  0.00    -0.246 OA
BRANCH  34  36
ATOM     36  C   UNL A   1      40.849  26.137  27.742  1.00  0.00     0.060 A 
ATOM     37  C   UNL A   1      39.693  26.177  28.523  1.00  0.00     0.016 A 
ATOM     38  C   UNL A   1      41.964  26.905  28.083  1.00  0.00     0.016 A 
ATOM     39  C   UNL A   1      39.631  27.005  29.639  1.00  0.00     0.010 A 
ATOM     40  C   UNL A   1      41.904  27.731  29.211  1.00  0.00     0.010 A 
ATOM     41  C   UNL A   1      40.731  27.802  29.982  1.00  0.00    -0.014 A 
BRANCH  41  42
ATOM     42  C   UNL A   1      40.612  28.751  31.113  1.00  0.00     0.031 A 
ATOM     43  C   UNL A   1      39.569  29.831  31.077  1.00  0.00     0.074 A 
ATOM     44  C   UNL A   1      41.415  28.619  32.185  1.00  0.00     0.049 A 
ATOM     45  N   UNL A   1      39.314  30.764  31.957  1.00  0.00    -0.248 NA
ATOM     46  C   UNL A   1      38.702  29.866  29.891  1.00  0.00     0.031 C 
ATOM     47  C   UNL A   1      42.451  27.597  32.338  1.00  0.00     0.029 A 
ATOM     48  N   UNL A   1      41.486  29.347  33.344  1.00  0.00    -0.354 N 
ATOM     49  C   UNL A   1      38.268  31.509  31.427  1.00  0.00     0.074 A 
ATOM     50  C   UNL A   1      37.954  30.933  30.136  1.00  0.00     0.031 C 
ATOM     51  C   UNL A   1      43.057  27.766  33.525  1.00  0.00     0.029 A 
ATOM     52  C   UNL A   1      42.473  28.923  34.199  1.00  0.00     0.049 A 
ATOM     53  H   UNL A   1      40.887  30.103  33.544  1.00  0.00     0.167 HD
ATOM     54  C   UNL A   1      37.623  32.570  31.970  1.00  0.00     0.037 A 
ATOM     55  C   UNL A   1      42.875  29.422  35.385  1.00  0.00     0.037 A 
ATOM     56  C   UNL A   1      37.936  33.131  33.259  1.00  0.00     0.049 A 
ATOM     57  C   UNL A   1      42.158  30.609  35.965  1.00  0.00     0.074 A 
ATOM     58  C   UNL A   1      37.331  34.194  33.908  1.00  0.00     0.029 A 
ATOM     59  N   UNL A   1      38.946  32.676  34.097  1.00  0.00    -0.354 N 
ATOM     60  N   UNL A   1      41.160  31.293  35.460  1.00  0.00    -0.248 NA
ATOM     61  C   UNL A   1      42.617  31.087  37.276  1.00  0.00     0.031 C 
ATOM     62  C   UNL A   1      37.998  34.404  35.120  1.00  0.00     0.029 A 
ATOM     63  C   UNL A   1      38.993  33.447  35.247  1.00  0.00     0.049 A 
ATOM     64  H   UNL A   1      39.540  31.917  33.901  1.00  0.00     0.167 HD
ATOM     65  C   UNL A   1      40.863  32.279  36.394  1.00  0.00     0.074 A 
ATOM     66  C   UNL A   1      41.778  32.090  37.502  1.00  0.00     0.031 C 
ATOM     67  C   UNL A   1      39.917  33.251  36.338  1.00  0.00     0.037 A 
BRANCH  54  68
ATOM     68  C   UNL A   1      36.538  33.204  31.146  1.00  0.00     0.058 A 
ATOM     69  C   UNL A   1      36.829  33.992  30.020  1.00  0.00     0.135 A 
ATOM     70  C   UNL A   1      35.189  33.047  31.502  1.00  0.00     0.135 A 
ATOM     71  F   UNL A   1      38.102  34.188  29.642  1.00  0.00    -0.206 F 
ATOM     72  C   UNL A   1      35.825  34.642  29.307  1.00  0.00     0.059 A 
ATOM     73  C   UNL A   1      34.167  33.667  30.789  1.00  0.00     0.059 A 
ATOM     74  F   UNL A   1      34.854  32.302  32.567  1.00  0.00    -0.206 F 
ATOM     75  C   UNL A   1      34.497  34.484  29.709  1.00  0.00     0.060 A 
BRANCH  75  76
ATOM     76  S   UNL A   1      33.207  35.373  28.811  1.00  0.00     0.124 S 
ATOM     77  O   UNL A   1      32.578  34.291  28.060  1.00  0.00    -0.237 OA
ATOM     78  O   UNL A   1      32.405  35.943  29.889  1.00  0.00    -0.237 OA
ATOM     79  O   UNL A   1      33.954  36.339  28.013  1.00  0.00    -0.744 OA
ENDBRANCH  75  76
ENDBRANCH  54  68
BRANCH  55  80
ATOM     80  C   UNL A   1      44.020  28.785  36.084  1.00  0.00     0.058 A 
ATOM     81  C   UNL A   1      45.319  29.299  35.969  1.00  0.00     0.135 A 
ATOM     82  C   UNL A   1      43.821  27.691  36.940  1.00  0.00     0.135 A 
ATOM     83  F   UNL A   1      45.560  30.339  35.155  1.00  0.00    -0.206 F 
ATOM     84  C   UNL A   1      46.381  28.758  36.688  1.00  0.00     0.059 A 
ATOM     85  C   UNL A   1      44.861  27.146  37.685  1.00  0.00     0.059 A 
ATOM     86  F   UNL A   1      42.593  27.171  37.090  1.00  0.00    -0.206 F 
ATOM     87  C   UNL A   1      46.139  27.687  37.551  1.00  0.00     0.060 A 
BRANCH  87  88
ATOM     88  S   UNL A   1      47.501  27.057  38.558  1.00  0.00     0.124 S 
ATOM     89  O   UNL A   1      48.341  26.422  37.550  1.00  0.00    -0.237 OA
ATOM     90  O   UNL A   1      48.034  28.277  39.157  1.00  0.00    -0.237 OA
ATOM     91  O   UNL A   1      46.836  26.151  39.490  1.00  0.00    -0.744 OA
ENDBRANCH  87  88
ENDBRANCH  55  80
BRANCH  67  92
ATOM     92  C   UNL A   1      39.818  34.182  37.515  1.00  0.00     0.058 A 
ATOM     93  C   UNL A   1      39.045  33.860  38.641  1.00  0.00     0.135 A 
ATOM     94  C   UNL A   1      40.545  35.382  37.536  1.00  0.00     0.135 A 
ATOM     95  F   UNL A   1      38.327  32.727  38.666  1.00  0.00    -0.206 F 
ATOM     96  C   UNL A   1      38.981  34.706  39.743  1.00  0.00     0.059 A 
ATOM     97  C   UNL A   1      40.512  36.234  38.637  1.00  0.00     0.059 A 
ATOM     98  F   UNL A   1      41.307  35.732  36.488  1.00  0.00    -0.206 F 
ATOM     99  C   UNL A   1      39.719  35.892  39.731  1.00  0.00     0.060 A 
BRANCH  99 100
ATOM    100  S   UNL A   1      39.658  36.968  41.181  1.00  0.00     0.124 S 
ATOM    101  O   UNL A   1      38.888  36.155  42.117  1.00  0.00    -0.237 OA
ATOM    102  O   UNL A   1      41.071  37.141  41.505  1.00  0.00    -0.237 OA
ATOM    103  O   UNL A   1      38.984  38.165  40.687  1.00  0.00    -0.744 OA
ENDBRANCH  99 100
ENDBRANCH  67  92
ENDBRANCH  41  42
ENDBRANCH  34  36
ENDBRANCH  33  34
ENDBRANCH  32  33
ENDBRANCH  31  32
ENDBRANCH  30  31
ENDBRANCH  28  30
ENDBRANCH   1  28
TORSDOF 24
ENDMDL
MODEL 3
REMARK VINA RESULT:     -10.5      1.142      2.579
REMARK SMILES CCCCCCNC(=O)Oc1cccc(-c2ccc([C@@H](C)C(=O)OCCOC(=O)c3ccc(-c4c5nc(c(-c6c(F)cc(S(=O)(=O)[O-])cc6F)c6ccc([nH]6)c(-c6c(F)cc(S(=O)(=O)[O-])cc6F)c6nc(c(-c7c(F)cc(S(=O)(=O)[O-])cc7F)c7ccc4[nH]7)C=C6)C=C5)cc3)cc2O)c1
REMARK SMILES IDX 20 1 21 2 19 3 16 4 17 5 97 6 18 7 96 8 15 9 11 10 12 11
REMARK SMILES IDX 99 12 13 13 14 14 10 15 8 16 7 17 9 19 6 20 5 21 4 22 3 23
REMARK SMILES IDX 2 24 1 25 98 26 22 28 23 29 24 30 25 31 26 32 27 33 28 34
REMARK SMILES IDX 29 35 30 36 31 37 95 38 32 39 94 40 33 41 34 42 35 43 88 44
REMARK SMILES IDX 36 45 93 46 87 47 89 48 37 49 92 50 86 51 85 52 38 54 72 55
REMARK SMILES IDX 51 56 71 57 52 58 55 59 70 60 90 61 53 62 54 63 69 65 91 66
REMARK SMILES IDX 56 67 39 68 40 69 49 70 41 71 42 72 48 73 50 74 43 75 44 76
REMARK SMILES IDX 45 77 46 78 47 79 73 80 74 81 83 82 75 83 76 84 82 85 84 86
REMARK SMILES IDX 77 87 78 88 79 89 80 90 81 91 57 92 58 93 67 94 59 95 60 96
REMARK SMILES IDX 66 97 68 98 61 99 62 100 63 101 64 102 65 103
REMARK H PARENT 7 18 98 27 89 53 55 64
REMARK Flexibility Score: inf
ROOT
ATOM      1  C   UNL A   1      35.287  21.634  25.811  1.00  0.00     0.126 C 
ATOM      2  C   UNL A   1      34.487  20.635  24.978  1.00  0.00     0.025 C 
ENDROOT
BRANCH   1   3
ATOM      3  C   UNL A   1      34.601  22.989  25.901  1.00  0.00    -0.030 A 
ATOM      4  C   UNL A   1      33.268  25.503  26.108  1.00  0.00     0.024 A 
ATOM      5  C   UNL A   1      34.545  25.393  25.529  1.00  0.00     0.013 A 
ATOM      6  C   UNL A   1      32.671  24.321  26.572  1.00  0.00     0.123 A 
ATOM      7  C   UNL A   1      35.196  24.160  25.417  1.00  0.00     0.005 A 
ATOM      8  C   UNL A   1      33.323  23.089  26.474  1.00  0.00     0.051 A 
BRANCH   4   9
ATOM      9  C   UNL A   1      32.619  26.823  26.175  1.00  0.00    -0.011 A 
ATOM     10  C   UNL A   1      31.176  28.540  25.252  1.00  0.00     0.133 A 
ATOM     11  C   UNL A   1      31.418  29.368  26.345  1.00  0.00     0.047 A 
ATOM     12  C   UNL A   1      31.770  27.279  25.154  1.00  0.00     0.056 A 
ATOM     13  C   UNL A   1      32.247  28.924  27.370  1.00  0.00     0.004 A 
ATOM     14  C   UNL A   1      32.844  27.664  27.282  1.00  0.00     0.009 A 
BRANCH  10  15
ATOM     15  O   UNL A   1      30.416  29.083  24.204  1.00  0.00    -0.410 OA
BRANCH  15  16
ATOM     16  C   UNL A   1      29.892  28.217  23.256  1.00  0.00     0.412 C 
ATOM     17  N   UNL A   1      30.742  27.993  22.207  1.00  0.00    -0.321 N 
ATOM     18  H   UNL A   1      30.433  27.358  21.521  1.00  0.00     0.167 HD
ATOM     19  O   UNL A   1      28.781  27.702  23.289  1.00  0.00    -0.224 OA
BRANCH  17  20
ATOM     20  C   UNL A   1      32.047  28.589  21.998  1.00  0.00     0.119 C 
BRANCH  20  21
ATOM     21  C   UNL A   1      33.188  27.661  22.410  1.00  0.00     0.021 C 
BRANCH  21  22
ATOM     22  C   UNL A   1      33.308  26.373  21.585  1.00  0.00     0.002 C 
BRANCH  22  23
ATOM     23  C   UNL A   1      33.460  25.078  22.390  1.00  0.00    -0.000 C 
BRANCH  23  24
ATOM     24  C   UNL A   1      32.273  24.113  22.321  1.00  0.00    -0.003 C 
ATOM     25  C   UNL A   1      31.134  24.489  23.256  1.00  0.00     0.004 C 
ENDBRANCH  23  24
ENDBRANCH  22  23
ENDBRANCH  21  22
ENDBRANCH  20  21
ENDBRANCH  17  20
ENDBRANCH  15  16
ENDBRANCH  10  15
ENDBRANCH   4   9
BRANCH   6  26
ATOM     26  O   UNL A   1      31.414  24.277  27.114  1.00  0.00    -0.507 OA
ATOM     27  H   UNL A   1      31.112  23.494  27.533  1.00  0.00     0.293 HD
ENDBRANCH   6  26
ENDBRANCH   1   3
BRANCH   1  28
ATOM     28  C   UNL A   1      36.740  21.645  25.348  1.00  0.00     0.313 C 
ATOM     29  O   UNL A   1      37.053  21.439  24.178  1.00  0.00    -0.252 OA
BRANCH  28  30
ATOM     30  O   UNL A   1      37.628  21.962  26.326  1.00  0.00    -0.462 OA
BRANCH  30  31
ATOM     31  C   UNL A   1      38.693  22.865  25.972  1.00  0.00     0.274 C 
BRANCH  31  32
ATOM     32  C   UNL A   1      39.524  23.258  27.196  1.00  0.00     0.275 C 
BRANCH  32  33
ATOM     33  O   UNL A   1      40.856  23.648  26.819  1.00  0.00    -0.458 OA
BRANCH  33  34
ATOM     34  C   UNL A   1      40.985  24.945  26.450  1.00  0.00     0.338 C 
ATOM     35  O   UNL A   1      41.004  25.388  25.316  1.00  0.00    -0.246 OA
BRANCH  34  36
ATOM     36  C   UNL A   1      40.977  25.801  27.643  1.00  0.00     0.060 A 
ATOM     37  C   UNL A   1      39.757  26.011  28.289  1.00  0.00     0.016 A 
ATOM     38  C   UNL A   1      42.129  26.465  28.069  1.00  0.00     0.016 A 
ATOM     39  C   UNL A   1      39.671  26.906  29.350  1.00  0.00     0.010 A 
ATOM     40  C   UNL A   1      42.045  27.358  29.143  1.00  0.00     0.010 A 
ATOM     41  C   UNL A   1      40.812  27.600  29.775  1.00  0.00    -0.014 A 
BRANCH  41  42
ATOM     42  C   UNL A   1      40.683  28.622  30.839  1.00  0.00     0.031 A 
ATOM     43  C   UNL A   1      41.612  28.596  32.018  1.00  0.00     0.074 A 
ATOM     44  C   UNL A   1      39.757  29.591  30.727  1.00  0.00     0.049 A 
ATOM     45  N   UNL A   1      41.653  29.390  33.057  1.00  0.00    -0.248 NA
ATOM     46  C   UNL A   1      42.627  27.533  32.030  1.00  0.00     0.031 C 
ATOM     47  C   UNL A   1      38.812  29.727  29.617  1.00  0.00     0.029 A 
ATOM     48  N   UNL A   1      39.457  30.642  31.555  1.00  0.00    -0.354 N 
ATOM     49  C   UNL A   1      42.686  28.915  33.856  1.00  0.00     0.074 A 
ATOM     50  C   UNL A   1      43.228  27.748  33.192  1.00  0.00     0.031 C 
ATOM     51  C   UNL A   1      38.035  30.801  29.836  1.00  0.00     0.029 A 
ATOM     52  C   UNL A   1      38.407  31.408  31.112  1.00  0.00     0.049 A 
ATOM     53  H   UNL A   1      39.947  30.829  32.388  1.00  0.00     0.167 HD
ATOM     54  C   UNL A   1      43.145  29.412  35.030  1.00  0.00     0.037 A 
ATOM     55  C   UNL A   1      37.799  32.469  31.679  1.00  0.00     0.037 A 
ATOM     56  C   UNL A   1      42.605  30.578  35.679  1.00  0.00     0.049 A 
ATOM     57  C   UNL A   1      38.312  32.996  32.989  1.00  0.00     0.074 A 
ATOM     58  C   UNL A   1      43.010  31.174  36.862  1.00  0.00     0.029 A 
ATOM     59  N   UNL A   1      41.538  31.328  35.201  1.00  0.00    -0.354 N 
ATOM     60  N   UNL A   1      39.300  32.548  33.726  1.00  0.00    -0.248 NA
ATOM     61  C   UNL A   1      37.634  34.176  33.542  1.00  0.00     0.031 C 
ATOM     62  C   UNL A   1      42.165  32.261  37.116  1.00  0.00     0.029 A 
ATOM     63  C   UNL A   1      41.259  32.369  36.073  1.00  0.00     0.049 A 
ATOM     64  H   UNL A   1      41.052  31.146  34.365  1.00  0.00     0.167 HD
ATOM     65  C   UNL A   1      39.370  33.394  34.826  1.00  0.00     0.074 A 
ATOM     66  C   UNL A   1      38.333  34.392  34.650  1.00  0.00     0.031 C 
ATOM     67  C   UNL A   1      40.216  33.348  35.886  1.00  0.00     0.037 A 
BRANCH  54  68
ATOM     68  C   UNL A   1      44.268  28.665  35.695  1.00  0.00     0.058 A 
ATOM     69  C   UNL A   1      44.026  27.640  36.624  1.00  0.00     0.135 A 
ATOM     70  C   UNL A   1      45.604  28.997  35.421  1.00  0.00     0.135 A 
ATOM     71  F   UNL A   1      42.767  27.292  36.935  1.00  0.00    -0.206 F 
ATOM     72  C   UNL A   1      45.067  27.006  37.296  1.00  0.00     0.059 A 
ATOM     73  C   UNL A   1      46.662  28.359  36.062  1.00  0.00     0.059 A 
ATOM     74  F   UNL A   1      45.892  29.966  34.538  1.00  0.00    -0.206 F 
ATOM     75  C   UNL A   1      46.382  27.383  37.018  1.00  0.00     0.060 A 
BRANCH  75  76
ATOM     76  S   UNL A   1      47.724  26.592  37.932  1.00  0.00     0.124 S 
ATOM     77  O   UNL A   1      47.155  25.275  38.201  1.00  0.00    -0.237 OA
ATOM     78  O   UNL A   1      48.823  26.621  36.971  1.00  0.00    -0.237 OA
ATOM     79  O   UNL A   1      47.893  27.453  39.098  1.00  0.00    -0.744 OA
ENDBRANCH  75  76
ENDBRANCH  54  68
BRANCH  55  80
ATOM     80  C   UNL A   1      36.635  33.085  30.993  1.00  0.00     0.058 A 
ATOM     81  C   UNL A   1      35.339  32.970  31.514  1.00  0.00     0.135 A 
ATOM     82  C   UNL A   1      36.811  33.864  29.838  1.00  0.00     0.135 A 
ATOM     83  F   UNL A   1      35.120  32.227  32.610  1.00  0.00    -0.206 F 
ATOM     84  C   UNL A   1      34.258  33.615  30.922  1.00  0.00     0.059 A 
ATOM     85  C   UNL A   1      35.750  34.535  29.240  1.00  0.00     0.059 A 
ATOM     86  F   UNL A   1      38.035  34.013  29.309  1.00  0.00    -0.206 F 
ATOM     87  C   UNL A   1      34.476  34.404  29.790  1.00  0.00     0.060 A 
BRANCH  87  88
ATOM     88  S   UNL A   1      33.086  35.321  29.088  1.00  0.00     0.124 S 
ATOM     89  O   UNL A   1      33.749  36.516  28.582  1.00  0.00    -0.237 OA
ATOM     90  O   UNL A   1      32.582  34.394  28.078  1.00  0.00    -0.237 OA
ATOM     91  O   UNL A   1      32.205  35.523  30.235  1.00  0.00    -0.744 OA
ENDBRANCH  87  88
ENDBRANCH  55  80
BRANCH  67  92
ATOM     92  C   UNL A   1      40.063  34.415  36.935  1.00  0.00     0.058 A 
ATOM     93  C   UNL A   1      40.799  35.608  36.880  1.00  0.00     0.135 A 
ATOM     94  C   UNL A   1      39.132  34.263  37.974  1.00  0.00     0.135 A 
ATOM     95  F   UNL A   1      41.707  35.799  35.909  1.00  0.00    -0.206 F 
ATOM     96  C   UNL A   1      40.632  36.608  37.832  1.00  0.00     0.059 A 
ATOM     97  C   UNL A   1      38.933  35.259  38.925  1.00  0.00     0.059 A 
ATOM     98  F   UNL A   1      38.395  33.145  38.066  1.00  0.00    -0.206 F 
ATOM     99  C   UNL A   1      39.696  36.425  38.852  1.00  0.00     0.060 A 
BRANCH  99 100
ATOM    100  S   UNL A   1      39.459  37.744  40.063  1.00  0.00     0.124 S 
ATOM    101  O   UNL A   1      40.677  38.528  39.884  1.00  0.00    -0.237 OA
ATOM    102  O   UNL A   1      38.226  38.376  39.604  1.00  0.00    -0.237 OA
ATOM    103  O   UNL A   1      39.354  37.026  41.329  1.00  0.00    -0.744 OA
ENDBRANCH  99 100
ENDBRANCH  67  92
ENDBRANCH  41  42
ENDBRANCH  34  36
ENDBRANCH  33  34
ENDBRANCH  32  33
ENDBRANCH  31  32
ENDBRANCH  30  31
ENDBRANCH  28  30
ENDBRANCH   1  28
TORSDOF 24
ENDMDL
