MODEL 1
REMARK VINA RESULT:     -11.9      0.000      0.000
REMARK SMILES COc1ccc(/C=C2/C(=O)N(c3ccccc3)C(=O)N=C2OCCOC(=O)c2ccc(-c3c4nc(c(-c5c(F)cc(S(=O)(=O)[O-])cc5F)c5ccc([nH]5)c(-c5c(F)cc(S(=O)(=O)[O-])cc5F)c5nc(c(-c6c(F)cc(S(=O)(=O)[O-])cc6F)c6ccc3[nH]6)C=C5)C=C4)cc2)cc1C(=O)[O-]
REMARK SMILES IDX 24 1 23 2 22 3 21 4 7 5 8 6 9 7 10 8 11 9 20 10 18 11 19 12
REMARK SMILES IDX 6 13 3 14 4 15 95 16 5 17 94 18 2 19 1 20 96 21 97 22 98 23
REMARK SMILES IDX 12 24 13 25 17 26 14 27 16 28 15 29 25 30 26 31 27 32 28 33
REMARK SMILES IDX 29 34 93 35 30 36 92 37 31 38 32 39 33 40 86 41 34 42 91 43
REMARK SMILES IDX 85 44 87 45 35 46 90 47 84 48 83 49 36 51 70 52 49 53 69 54
REMARK SMILES IDX 50 55 53 56 68 57 88 58 51 59 52 60 67 62 89 63 54 64 37 65
REMARK SMILES IDX 38 66 47 67 39 68 40 69 46 70 48 71 41 72 42 73 43 74 44 75
REMARK SMILES IDX 45 76 71 77 72 78 81 79 73 80 74 81 80 82 82 83 75 84 76 85
REMARK SMILES IDX 77 86 78 87 79 88 55 89 56 90 65 91 57 92 58 93 64 94 66 95
REMARK SMILES IDX 59 96 60 97 61 98 62 99 63 100
REMARK H PARENT 87 50 53 61
REMARK Flexibility Score: inf
ROOT
ATOM      1  C   UNL A   1      32.612  28.259  26.746  1.00  0.00     0.274 C 
ENDROOT
BRANCH   1   2
ATOM      2  C   UNL A   1      31.995  26.902  27.095  1.00  0.00     0.273 C 
BRANCH   2   3
ATOM      3  O   UNL A   1      31.796  26.111  25.898  1.00  0.00    -0.473 OA
BRANCH   3   4
ATOM      4  C   UNL A   1      31.107  26.621  24.852  1.00  0.00     0.231 C 
ATOM      5  C   UNL A   1      32.998  26.347  23.178  1.00  0.00     0.027 C 
ATOM      6  C   UNL A   1      31.961  27.008  23.731  1.00  0.00     0.103 C 
ATOM      7  C   UNL A   1      31.497  28.261  23.060  1.00  0.00     0.272 C 
ATOM      8  O   UNL A   1      32.275  28.911  22.364  1.00  0.00    -0.268 OA
ATOM      9  N   UNL A   1      30.142  28.527  23.245  1.00  0.00    -0.226 N 
ATOM     10  N   UNL A   1      29.846  26.848  24.881  1.00  0.00    -0.156 NA
ATOM     11  C   UNL A   1      29.318  27.535  23.802  1.00  0.00     0.358 C 
ATOM     12  O   UNL A   1      28.188  27.273  23.419  1.00  0.00    -0.245 OA
BRANCH   5  13
ATOM     13  C   UNL A   1      33.644  25.046  23.468  1.00  0.00    -0.024 A 
ATOM     14  C   UNL A   1      34.691  22.455  23.996  1.00  0.00     0.127 A 
ATOM     15  C   UNL A   1      35.444  23.599  24.263  1.00  0.00     0.048 A 
ATOM     16  C   UNL A   1      33.382  22.604  23.536  1.00  0.00     0.040 A 
ATOM     17  C   UNL A   1      34.910  24.876  24.034  1.00  0.00     0.012 A 
ATOM     18  C   UNL A   1      32.879  23.888  23.251  1.00  0.00     0.022 A 
BRANCH  14  19
ATOM     19  O   UNL A   1      35.243  21.263  24.375  1.00  0.00    -0.496 OA
ATOM     20  C   UNL A   1      35.337  21.129  25.794  1.00  0.00     0.278 C 
ENDBRANCH  14  19
BRANCH  16  21
ATOM     21  C   UNL A   1      32.412  21.500  23.476  1.00  0.00     0.075 C 
ATOM     22  O   UNL A   1      32.135  20.867  22.473  1.00  0.00    -0.545 OA
ATOM     23  O   UNL A   1      31.920  21.151  24.675  1.00  0.00    -0.545 OA
ENDBRANCH  16  21
ENDBRANCH   5  13
BRANCH   9  24
ATOM     24  C   UNL A   1      29.591  29.784  22.802  1.00  0.00     0.054 A 
ATOM     25  C   UNL A   1      29.372  30.809  23.747  1.00  0.00     0.027 A 
ATOM     26  C   UNL A   1      29.112  29.992  21.501  1.00  0.00     0.027 A 
ATOM     27  C   UNL A   1      28.639  31.957  23.420  1.00  0.00     0.002 A 
ATOM     28  C   UNL A   1      28.414  31.159  21.165  1.00  0.00     0.002 A 
ATOM     29  C   UNL A   1      28.154  32.127  22.129  1.00  0.00     0.000 A 
ENDBRANCH   9  24
ENDBRANCH   3   4
ENDBRANCH   2   3
ENDBRANCH   1   2
BRANCH   1  30
ATOM     30  O   UNL A   1      33.813  28.447  27.514  1.00  0.00    -0.458 OA
BRANCH  30  31
ATOM     31  C   UNL A   1      34.210  29.729  27.669  1.00  0.00     0.338 C 
ATOM     32  O   UNL A   1      33.514  30.729  27.683  1.00  0.00    -0.246 OA
BRANCH  31  33
ATOM     33  C   UNL A   1      35.610  29.709  28.109  1.00  0.00     0.060 A 
ATOM     34  C   UNL A   1      36.547  30.086  27.156  1.00  0.00     0.016 A 
ATOM     35  C   UNL A   1      36.018  29.278  29.370  1.00  0.00     0.016 A 
ATOM     36  C   UNL A   1      37.901  30.009  27.437  1.00  0.00     0.010 A 
ATOM     37  C   UNL A   1      37.392  29.195  29.651  1.00  0.00     0.010 A 
ATOM     38  C   UNL A   1      38.347  29.526  28.669  1.00  0.00    -0.014 A 
BRANCH  38  39
ATOM     39  C   UNL A   1      39.795  29.205  28.801  1.00  0.00     0.031 A 
ATOM     40  C   UNL A   1      40.698  30.190  29.497  1.00  0.00     0.074 A 
ATOM     41  C   UNL A   1      40.276  27.988  28.471  1.00  0.00     0.049 A 
ATOM     42  N   UNL A   1      41.995  30.160  29.651  1.00  0.00    -0.248 NA
ATOM     43  C   UNL A   1      40.051  31.364  30.110  1.00  0.00     0.031 C 
ATOM     44  C   UNL A   1      39.486  26.884  27.921  1.00  0.00     0.029 A 
ATOM     45  N   UNL A   1      41.538  27.460  28.599  1.00  0.00    -0.354 N 
ATOM     46  C   UNL A   1      42.328  31.343  30.301  1.00  0.00     0.074 A 
ATOM     47  C   UNL A   1      41.094  32.054  30.548  1.00  0.00     0.031 C 
ATOM     48  C   UNL A   1      40.268  25.796  27.815  1.00  0.00     0.029 A 
ATOM     49  C   UNL A   1      41.630  26.143  28.207  1.00  0.00     0.049 A 
ATOM     50  H   UNL A   1      42.304  27.975  28.938  1.00  0.00     0.167 HD
ATOM     51  C   UNL A   1      43.555  31.800  30.643  1.00  0.00     0.037 A 
ATOM     52  C   UNL A   1      42.697  25.322  28.145  1.00  0.00     0.037 A 
ATOM     53  C   UNL A   1      44.772  31.054  30.469  1.00  0.00     0.049 A 
ATOM     54  C   UNL A   1      44.055  25.858  28.519  1.00  0.00     0.074 A 
ATOM     55  C   UNL A   1      46.071  31.446  30.745  1.00  0.00     0.029 A 
ATOM     56  N   UNL A   1      44.838  29.750  30.006  1.00  0.00    -0.354 N 
ATOM     57  N   UNL A   1      44.373  27.033  29.008  1.00  0.00    -0.248 NA
ATOM     58  C   UNL A   1      45.204  24.966  28.302  1.00  0.00     0.031 C 
ATOM     59  C   UNL A   1      46.924  30.386  30.424  1.00  0.00     0.029 A 
ATOM     60  C   UNL A   1      46.154  29.322  29.986  1.00  0.00     0.049 A 
ATOM     61  H   UNL A   1      44.063  29.207  29.732  1.00  0.00     0.167 HD
ATOM     62  C   UNL A   1      45.758  27.020  29.156  1.00  0.00     0.074 A 
ATOM     63  C   UNL A   1      46.210  25.709  28.742  1.00  0.00     0.031 C 
ATOM     64  C   UNL A   1      46.583  28.009  29.579  1.00  0.00     0.037 A 
BRANCH  51  65
ATOM     65  C   UNL A   1      43.653  33.203  31.166  1.00  0.00     0.058 A 
ATOM     66  C   UNL A   1      43.661  33.501  32.536  1.00  0.00     0.135 A 
ATOM     67  C   UNL A   1      43.782  34.270  30.260  1.00  0.00     0.135 A 
ATOM     68  F   UNL A   1      43.510  32.521  33.441  1.00  0.00    -0.206 F 
ATOM     69  C   UNL A   1      43.787  34.810  32.991  1.00  0.00     0.059 A 
ATOM     70  C   UNL A   1      43.931  35.582  30.693  1.00  0.00     0.059 A 
ATOM     71  F   UNL A   1      43.768  34.038  28.938  1.00  0.00    -0.206 F 
ATOM     72  C   UNL A   1      43.925  35.843  32.061  1.00  0.00     0.060 A 
BRANCH  72  73
ATOM     73  S   UNL A   1      44.117  37.536  32.661  1.00  0.00     0.124 S 
ATOM     74  O   UNL A   1      43.068  37.606  33.674  1.00  0.00    -0.237 OA
ATOM     75  O   UNL A   1      45.486  37.536  33.166  1.00  0.00    -0.237 OA
ATOM     76  O   UNL A   1      43.892  38.346  31.469  1.00  0.00    -0.744 OA
ENDBRANCH  72  73
ENDBRANCH  51  65
BRANCH  52  77
ATOM     77  C   UNL A   1      42.554  23.924  27.649  1.00  0.00     0.058 A 
ATOM     78  C   UNL A   1      42.476  23.644  26.276  1.00  0.00     0.135 A 
ATOM     79  C   UNL A   1      42.441  22.845  28.539  1.00  0.00     0.135 A 
ATOM     80  F   UNL A   1      42.565  24.642  25.382  1.00  0.00    -0.206 F 
ATOM     81  C   UNL A   1      42.263  22.352  25.803  1.00  0.00     0.059 A 
ATOM     82  C   UNL A   1      42.260  21.540  28.092  1.00  0.00     0.059 A 
ATOM     83  F   UNL A   1      42.512  23.053  29.863  1.00  0.00    -0.206 F 
ATOM     84  C   UNL A   1      42.150  21.307  26.722  1.00  0.00     0.060 A 
BRANCH  84  85
ATOM     85  S   UNL A   1      41.886  19.625  26.116  1.00  0.00     0.124 S 
ATOM     86  O   UNL A   1      42.331  18.832  27.255  1.00  0.00    -0.237 OA
ATOM     87  O   UNL A   1      40.452  19.610  25.848  1.00  0.00    -0.237 OA
ATOM     88  O   UNL A   1      42.737  19.565  24.931  1.00  0.00    -0.744 OA
ENDBRANCH  84  85
ENDBRANCH  52  77
BRANCH  64  89
ATOM     89  C   UNL A   1      48.051  27.700  29.632  1.00  0.00     0.058 A 
ATOM     90  C   UNL A   1      48.636  27.115  30.767  1.00  0.00     0.135 A 
ATOM     91  C   UNL A   1      48.878  27.969  28.531  1.00  0.00     0.135 A 
ATOM     92  F   UNL A   1      47.889  26.840  31.847  1.00  0.00    -0.206 F 
ATOM     93  C   UNL A   1      49.999  26.842  30.821  1.00  0.00     0.059 A 
ATOM     94  C   UNL A   1      50.239  27.682  28.553  1.00  0.00     0.059 A 
ATOM     95  F   UNL A   1      48.363  28.513  27.416  1.00  0.00    -0.206 F 
ATOM     96  C   UNL A   1      50.794  27.136  29.711  1.00  0.00     0.060 A 
BRANCH  96  97
ATOM     97  S   UNL A   1      52.561  26.778  29.788  1.00  0.00     0.124 S 
ATOM     98  O   UNL A   1      52.619  25.827  30.893  1.00  0.00    -0.237 OA
ATOM     99  O   UNL A   1      52.832  26.228  28.463  1.00  0.00    -0.237 OA
ATOM    100  O   UNL A   1      53.159  28.083  30.050  1.00  0.00    -0.744 OA
ENDBRANCH  96  97
ENDBRANCH  64  89
ENDBRANCH  38  39
ENDBRANCH  31  33
ENDBRANCH  30  31
ENDBRANCH   1  30
TORSDOF 17
ENDMDL
MODEL 2
REMARK VINA RESULT:     -11.6      2.872      8.516
REMARK SMILES COc1ccc(/C=C2/C(=O)N(c3ccccc3)C(=O)N=C2OCCOC(=O)c2ccc(-c3c4nc(c(-c5c(F)cc(S(=O)(=O)[O-])cc5F)c5ccc([nH]5)c(-c5c(F)cc(S(=O)(=O)[O-])cc5F)c5nc(c(-c6c(F)cc(S(=O)(=O)[O-])cc6F)c6ccc3[nH]6)C=C5)C=C4)cc2)cc1C(=O)[O-]
REMARK SMILES IDX 24 1 23 2 22 3 21 4 7 5 8 6 9 7 10 8 11 9 20 10 18 11 19 12
REMARK SMILES IDX 6 13 3 14 4 15 95 16 5 17 94 18 2 19 1 20 96 21 97 22 98 23
REMARK SMILES IDX 12 24 13 25 17 26 14 27 16 28 15 29 25 30 26 31 27 32 28 33
REMARK SMILES IDX 29 34 93 35 30 36 92 37 31 38 32 39 33 40 86 41 34 42 91 43
REMARK SMILES IDX 85 44 87 45 35 46 90 47 84 48 83 49 36 51 70 52 49 53 69 54
REMARK SMILES IDX 50 55 53 56 68 57 88 58 51 59 52 60 67 62 89 63 54 64 37 65
REMARK SMILES IDX 38 66 47 67 39 68 40 69 46 70 48 71 41 72 42 73 43 74 44 75
REMARK SMILES IDX 45 76 71 77 72 78 81 79 73 80 74 81 80 82 82 83 75 84 76 85
REMARK SMILES IDX 77 86 78 87 79 88 55 89 56 90 65 91 57 92 58 93 64 94 66 95
REMARK SMILES IDX 59 96 60 97 61 98 62 99 63 100
REMARK H PARENT 87 50 53 61
REMARK Flexibility Score: inf
ROOT
ATOM      1  C   UNL A   1      36.574  22.229  25.707  1.00  0.00     0.274 C 
ENDROOT
BRANCH   1   2
ATOM      2  C   UNL A   1      35.531  23.341  25.566  1.00  0.00     0.273 C 
BRANCH   2   3
ATOM      3  O   UNL A   1      34.276  22.940  26.168  1.00  0.00    -0.473 OA
BRANCH   3   4
ATOM      4  C   UNL A   1      33.137  23.607  25.877  1.00  0.00     0.231 C 
ATOM      5  C   UNL A   1      32.402  22.015  24.040  1.00  0.00     0.027 C 
ATOM      6  C   UNL A   1      32.564  23.238  24.585  1.00  0.00     0.103 C 
ATOM      7  C   UNL A   1      31.977  24.407  23.860  1.00  0.00     0.272 C 
ATOM      8  O   UNL A   1      31.794  24.350  22.645  1.00  0.00    -0.268 OA
ATOM      9  N   UNL A   1      31.612  25.459  24.697  1.00  0.00    -0.226 N 
ATOM     10  N   UNL A   1      32.666  24.551  26.607  1.00  0.00    -0.156 NA
ATOM     11  C   UNL A   1      31.595  25.256  26.087  1.00  0.00     0.358 C 
ATOM     12  O   UNL A   1      30.732  25.677  26.842  1.00  0.00    -0.245 OA
BRANCH   5  13
ATOM     13  C   UNL A   1      32.719  20.645  24.505  1.00  0.00    -0.024 A 
ATOM     14  C   UNL A   1      33.313  17.951  25.193  1.00  0.00     0.127 A 
ATOM     15  C   UNL A   1      33.014  18.891  26.179  1.00  0.00     0.048 A 
ATOM     16  C   UNL A   1      33.239  18.335  23.853  1.00  0.00     0.040 A 
ATOM     17  C   UNL A   1      32.687  20.211  25.833  1.00  0.00     0.012 A 
ATOM     18  C   UNL A   1      32.971  19.676  23.520  1.00  0.00     0.022 A 
BRANCH  14  19
ATOM     19  O   UNL A   1      33.487  16.662  25.615  1.00  0.00    -0.496 OA
ATOM     20  C   UNL A   1      32.253  15.952  25.734  1.00  0.00     0.278 C 
ENDBRANCH  14  19
BRANCH  16  21
ATOM     21  C   UNL A   1      33.267  17.382  22.732  1.00  0.00     0.075 C 
ATOM     22  O   UNL A   1      34.051  16.457  22.620  1.00  0.00    -0.545 OA
ATOM     23  O   UNL A   1      32.254  17.542  21.867  1.00  0.00    -0.545 OA
ENDBRANCH  16  21
ENDBRANCH   5  13
BRANCH   9  24
ATOM     24  C   UNL A   1      31.192  26.716  24.128  1.00  0.00     0.054 A 
ATOM     25  C   UNL A   1      32.024  27.846  24.269  1.00  0.00     0.027 A 
ATOM     26  C   UNL A   1      29.920  26.915  23.573  1.00  0.00     0.027 A 
ATOM     27  C   UNL A   1      31.571  29.129  23.938  1.00  0.00     0.002 A 
ATOM     28  C   UNL A   1      29.484  28.194  23.204  1.00  0.00     0.002 A 
ATOM     29  C   UNL A   1      30.298  29.303  23.412  1.00  0.00     0.000 A 
ENDBRANCH   9  24
ENDBRANCH   3   4
ENDBRANCH   2   3
ENDBRANCH   1   2
BRANCH   1  30
ATOM     30  O   UNL A   1      37.868  22.742  25.345  1.00  0.00    -0.458 OA
BRANCH  30  31
ATOM     31  C   UNL A   1      38.902  22.289  26.087  1.00  0.00     0.338 C 
ATOM     32  O   UNL A   1      39.485  21.224  25.983  1.00  0.00    -0.246 OA
BRANCH  31  33
ATOM     33  C   UNL A   1      39.410  23.418  26.874  1.00  0.00     0.060 A 
ATOM     34  C   UNL A   1      38.813  24.647  26.621  1.00  0.00     0.016 A 
ATOM     35  C   UNL A   1      40.468  23.319  27.776  1.00  0.00     0.016 A 
ATOM     36  C   UNL A   1      39.284  25.794  27.239  1.00  0.00     0.010 A 
ATOM     37  C   UNL A   1      40.948  24.485  28.397  1.00  0.00     0.010 A 
ATOM     38  C   UNL A   1      40.380  25.740  28.102  1.00  0.00    -0.014 A 
BRANCH  38  39
ATOM     39  C   UNL A   1      41.005  27.030  28.504  1.00  0.00     0.031 A 
ATOM     40  C   UNL A   1      42.450  27.277  28.159  1.00  0.00     0.074 A 
ATOM     41  C   UNL A   1      40.265  28.041  29.008  1.00  0.00     0.049 A 
ATOM     42  N   UNL A   1      43.219  28.284  28.481  1.00  0.00    -0.248 NA
ATOM     43  C   UNL A   1      43.118  26.256  27.332  1.00  0.00     0.031 C 
ATOM     44  C   UNL A   1      38.823  27.993  29.260  1.00  0.00     0.029 A 
ATOM     45  N   UNL A   1      40.618  29.324  29.352  1.00  0.00    -0.354 N 
ATOM     46  C   UNL A   1      44.477  27.980  27.971  1.00  0.00     0.074 A 
ATOM     47  C   UNL A   1      44.362  26.713  27.285  1.00  0.00     0.031 C 
ATOM     48  C   UNL A   1      38.407  29.207  29.660  1.00  0.00     0.029 A 
ATOM     49  C   UNL A   1      39.559  30.095  29.776  1.00  0.00     0.049 A 
ATOM     50  H   UNL A   1      41.541  29.659  29.299  1.00  0.00     0.167 HD
ATOM     51  C   UNL A   1      45.625  28.686  28.083  1.00  0.00     0.037 A 
ATOM     52  C   UNL A   1      39.529  31.363  30.232  1.00  0.00     0.037 A 
ATOM     53  C   UNL A   1      45.718  29.984  28.696  1.00  0.00     0.049 A 
ATOM     54  C   UNL A   1      40.823  32.125  30.359  1.00  0.00     0.074 A 
ATOM     55  C   UNL A   1      46.844  30.765  28.896  1.00  0.00     0.029 A 
ATOM     56  N   UNL A   1      44.639  30.708  29.177  1.00  0.00    -0.354 N 
ATOM     57  N   UNL A   1      42.031  31.769  29.994  1.00  0.00    -0.248 NA
ATOM     58  C   UNL A   1      40.753  33.452  30.991  1.00  0.00     0.031 C 
ATOM     59  C   UNL A   1      46.447  31.951  29.523  1.00  0.00     0.029 A 
ATOM     60  C   UNL A   1      45.071  31.925  29.676  1.00  0.00     0.049 A 
ATOM     61  H   UNL A   1      43.703  30.402  29.165  1.00  0.00     0.167 HD
ATOM     62  C   UNL A   1      42.863  32.826  30.352  1.00  0.00     0.074 A 
ATOM     63  C   UNL A   1      42.016  33.849  30.927  1.00  0.00     0.031 C 
ATOM     64  C   UNL A   1      44.210  32.934  30.235  1.00  0.00     0.037 A 
BRANCH  51  65
ATOM     65  C   UNL A   1      46.890  28.038  27.603  1.00  0.00     0.058 A 
ATOM     66  C   UNL A   1      47.388  28.220  26.305  1.00  0.00     0.135 A 
ATOM     67  C   UNL A   1      47.638  27.244  28.489  1.00  0.00     0.135 A 
ATOM     68  F   UNL A   1      46.696  28.944  25.411  1.00  0.00    -0.206 F 
ATOM     69  C   UNL A   1      48.583  27.632  25.899  1.00  0.00     0.059 A 
ATOM     70  C   UNL A   1      48.844  26.665  28.112  1.00  0.00     0.059 A 
ATOM     71  F   UNL A   1      47.197  27.030  29.739  1.00  0.00    -0.206 F 
ATOM     72  C   UNL A   1      49.305  26.859  26.812  1.00  0.00     0.060 A 
BRANCH  72  73
ATOM     73  S   UNL A   1      50.868  26.123  26.286  1.00  0.00     0.124 S 
ATOM     74  O   UNL A   1      50.717  26.126  24.834  1.00  0.00    -0.237 OA
ATOM     75  O   UNL A   1      51.851  27.060  26.822  1.00  0.00    -0.237 OA
ATOM     76  O   UNL A   1      50.853  24.807  26.916  1.00  0.00    -0.744 OA
ENDBRANCH  72  73
ENDBRANCH  51  65
BRANCH  52  77
ATOM     77  C   UNL A   1      38.247  31.984  30.670  1.00  0.00     0.058 A 
ATOM     78  C   UNL A   1      37.481  32.765  29.792  1.00  0.00     0.135 A 
ATOM     79  C   UNL A   1      37.790  31.853  31.991  1.00  0.00     0.135 A 
ATOM     80  F   UNL A   1      37.881  32.934  28.521  1.00  0.00    -0.206 F 
ATOM     81  C   UNL A   1      36.324  33.416  30.211  1.00  0.00     0.059 A 
ATOM     82  C   UNL A   1      36.619  32.467  32.426  1.00  0.00     0.059 A 
ATOM     83  F   UNL A   1      38.481  31.115  32.873  1.00  0.00    -0.206 F 
ATOM     84  C   UNL A   1      35.905  33.265  31.534  1.00  0.00     0.060 A 
BRANCH  84  85
ATOM     85  S   UNL A   1      34.397  34.096  32.082  1.00  0.00     0.124 S 
ATOM     86  O   UNL A   1      33.790  33.073  32.924  1.00  0.00    -0.237 OA
ATOM     87  O   UNL A   1      34.920  35.268  32.777  1.00  0.00    -0.237 OA
ATOM     88  O   UNL A   1      33.703  34.379  30.829  1.00  0.00    -0.744 OA
ENDBRANCH  84  85
ENDBRANCH  52  77
BRANCH  64  89
ATOM     89  C   UNL A   1      44.840  34.208  30.717  1.00  0.00     0.058 A 
ATOM     90  C   UNL A   1      45.018  35.308  29.862  1.00  0.00     0.135 A 
ATOM     91  C   UNL A   1      45.248  34.342  32.053  1.00  0.00     0.135 A 
ATOM     92  F   UNL A   1      44.645  35.229  28.575  1.00  0.00    -0.206 F 
ATOM     93  C   UNL A   1      45.615  36.483  30.306  1.00  0.00     0.059 A 
ATOM     94  C   UNL A   1      45.824  35.517  32.526  1.00  0.00     0.059 A 
ATOM     95  F   UNL A   1      45.084  33.325  32.915  1.00  0.00    -0.206 F 
ATOM     96  C   UNL A   1      46.021  36.575  31.639  1.00  0.00     0.060 A 
BRANCH  96  97
ATOM     97  S   UNL A   1      46.793  38.104  32.208  1.00  0.00     0.124 S 
ATOM     98  O   UNL A   1      46.652  38.958  31.033  1.00  0.00    -0.237 OA
ATOM     99  O   UNL A   1      45.970  38.467  33.358  1.00  0.00    -0.237 OA
ATOM    100  O   UNL A   1      48.157  37.695  32.527  1.00  0.00    -0.744 OA
ENDBRANCH  96  97
ENDBRANCH  64  89
ENDBRANCH  38  39
ENDBRANCH  31  33
ENDBRANCH  30  31
ENDBRANCH   1  30
TORSDOF 17
ENDMDL
MODEL 3
REMARK VINA RESULT:     -11.6      3.330      9.759
REMARK SMILES COc1ccc(/C=C2/C(=O)N(c3ccccc3)C(=O)N=C2OCCOC(=O)c2ccc(-c3c4nc(c(-c5c(F)cc(S(=O)(=O)[O-])cc5F)c5ccc([nH]5)c(-c5c(F)cc(S(=O)(=O)[O-])cc5F)c5nc(c(-c6c(F)cc(S(=O)(=O)[O-])cc6F)c6ccc3[nH]6)C=C5)C=C4)cc2)cc1C(=O)[O-]
REMARK SMILES IDX 24 1 23 2 22 3 21 4 7 5 8 6 9 7 10 8 11 9 20 10 18 11 19 12
REMARK SMILES IDX 6 13 3 14 4 15 95 16 5 17 94 18 2 19 1 20 96 21 97 22 98 23
REMARK SMILES IDX 12 24 13 25 17 26 14 27 16 28 15 29 25 30 26 31 27 32 28 33
REMARK SMILES IDX 29 34 93 35 30 36 92 37 31 38 32 39 33 40 86 41 34 42 91 43
REMARK SMILES IDX 85 44 87 45 35 46 90 47 84 48 83 49 36 51 70 52 49 53 69 54
REMARK SMILES IDX 50 55 53 56 68 57 88 58 51 59 52 60 67 62 89 63 54 64 37 65
REMARK SMILES IDX 38 66 47 67 39 68 40 69 46 70 48 71 41 72 42 73 43 74 44 75
REMARK SMILES IDX 45 76 71 77 72 78 81 79 73 80 74 81 80 82 82 83 75 84 76 85
REMARK SMILES IDX 77 86 78 87 79 88 55 89 56 90 65 91 57 92 58 93 64 94 66 95
REMARK SMILES IDX 59 96 60 97 61 98 62 99 63 100
REMARK H PARENT 87 50 53 61
REMARK Flexibility Score: inf
ROOT
ATOM      1  C   UNL A   1      36.350  23.100  24.488  1.00  0.00     0.274 C 
ENDROOT
BRANCH   1   2
ATOM      2  C   UNL A   1      35.702  23.887  23.345  1.00  0.00     0.273 C 
BRANCH   2   3
ATOM      3  O   UNL A   1      34.263  23.933  23.513  1.00  0.00    -0.473 OA
BRANCH   3   4
ATOM      4  C   UNL A   1      33.573  22.804  23.789  1.00  0.00     0.231 C 
ATOM      5  C   UNL A   1      32.709  23.609  26.038  1.00  0.00     0.027 C 
ATOM      6  C   UNL A   1      33.208  22.679  25.198  1.00  0.00     0.103 C 
ATOM      7  C   UNL A   1      33.304  21.272  25.696  1.00  0.00     0.272 C 
ATOM      8  O   UNL A   1      33.392  21.050  26.902  1.00  0.00    -0.268 OA
ATOM      9  N   UNL A   1      33.201  20.315  24.689  1.00  0.00    -0.226 N 
ATOM     10  N   UNL A   1      33.357  21.880  22.926  1.00  0.00    -0.156 NA
ATOM     11  C   UNL A   1      32.793  20.710  23.404  1.00  0.00     0.358 C 
ATOM     12  O   UNL A   1      32.018  20.086  22.697  1.00  0.00    -0.245 OA
BRANCH   5  13
ATOM     13  C   UNL A   1      32.352  25.037  25.875  1.00  0.00    -0.024 A 
ATOM     14  C   UNL A   1      31.512  27.716  25.425  1.00  0.00     0.127 A 
ATOM     15  C   UNL A   1      32.703  27.443  26.099  1.00  0.00     0.048 A 
ATOM     16  C   UNL A   1      30.775  26.652  24.905  1.00  0.00     0.040 A 
ATOM     17  C   UNL A   1      33.131  26.121  26.289  1.00  0.00     0.012 A 
ATOM     18  C   UNL A   1      31.182  25.327  25.155  1.00  0.00     0.022 A 
BRANCH  14  19
ATOM     19  O   UNL A   1      31.245  29.033  25.173  1.00  0.00    -0.496 OA
ATOM     20  C   UNL A   1      32.046  29.916  25.960  1.00  0.00     0.278 C 
ENDBRANCH  14  19
BRANCH  16  21
ATOM     21  C   UNL A   1      29.662  26.820  23.958  1.00  0.00     0.075 C 
ATOM     22  O   UNL A   1      28.547  26.353  24.099  1.00  0.00    -0.545 OA
ATOM     23  O   UNL A   1      29.941  27.655  22.945  1.00  0.00    -0.545 OA
ENDBRANCH  16  21
ENDBRANCH   5  13
BRANCH   9  24
ATOM     24  C   UNL A   1      33.445  18.926  24.993  1.00  0.00     0.054 A 
ATOM     25  C   UNL A   1      34.634  18.321  24.533  1.00  0.00     0.027 A 
ATOM     26  C   UNL A   1      32.488  18.095  25.591  1.00  0.00     0.027 A 
ATOM     27  C   UNL A   1      34.819  16.934  24.602  1.00  0.00     0.002 A 
ATOM     28  C   UNL A   1      32.692  16.713  25.697  1.00  0.00     0.002 A 
ATOM     29  C   UNL A   1      33.844  16.131  25.178  1.00  0.00     0.000 A 
ENDBRANCH   9  24
ENDBRANCH   3   4
ENDBRANCH   2   3
ENDBRANCH   1   2
BRANCH   1  30
ATOM     30  O   UNL A   1      37.277  23.951  25.184  1.00  0.00    -0.458 OA
BRANCH  30  31
ATOM     31  C   UNL A   1      38.307  23.318  25.787  1.00  0.00     0.338 C 
ATOM     32  O   UNL A   1      38.735  22.201  25.555  1.00  0.00    -0.246 OA
BRANCH  31  33
ATOM     33  C   UNL A   1      39.028  24.312  26.590  1.00  0.00     0.060 A 
ATOM     34  C   UNL A   1      38.766  24.290  27.955  1.00  0.00     0.016 A 
ATOM     35  C   UNL A   1      39.875  25.277  26.049  1.00  0.00     0.016 A 
ATOM     36  C   UNL A   1      39.320  25.247  28.789  1.00  0.00     0.010 A 
ATOM     37  C   UNL A   1      40.430  26.251  26.896  1.00  0.00     0.010 A 
ATOM     38  C   UNL A   1      40.124  26.264  28.271  1.00  0.00    -0.014 A 
BRANCH  38  39
ATOM     39  C   UNL A   1      40.450  27.409  29.167  1.00  0.00     0.031 A 
ATOM     40  C   UNL A   1      41.825  27.487  29.777  1.00  0.00     0.074 A 
ATOM     41  C   UNL A   1      39.608  28.455  29.300  1.00  0.00     0.049 A 
ATOM     42  N   UNL A   1      42.299  28.340  30.646  1.00  0.00    -0.248 NA
ATOM     43  C   UNL A   1      42.801  26.472  29.343  1.00  0.00     0.031 C 
ATOM     44  C   UNL A   1      38.302  28.582  28.650  1.00  0.00     0.029 A 
ATOM     45  N   UNL A   1      39.750  29.636  29.988  1.00  0.00    -0.354 N 
ATOM     46  C   UNL A   1      43.594  27.919  30.925  1.00  0.00     0.074 A 
ATOM     47  C   UNL A   1      43.848  26.755  30.106  1.00  0.00     0.031 C 
ATOM     48  C   UNL A   1      37.792  29.795  28.923  1.00  0.00     0.029 A 
ATOM     49  C   UNL A   1      38.690  30.499  29.833  1.00  0.00     0.049 A 
ATOM     50  H   UNL A   1      40.537  29.845  30.540  1.00  0.00     0.167 HD
ATOM     51  C   UNL A   1      44.482  28.445  31.799  1.00  0.00     0.037 A 
ATOM     52  C   UNL A   1      38.457  31.708  30.384  1.00  0.00     0.037 A 
ATOM     53  C   UNL A   1      44.256  29.649  32.553  1.00  0.00     0.049 A 
ATOM     54  C   UNL A   1      39.455  32.267  31.365  1.00  0.00     0.074 A 
ATOM     55  C   UNL A   1      45.077  30.243  33.497  1.00  0.00     0.029 A 
ATOM     56  N   UNL A   1      43.142  30.463  32.423  1.00  0.00    -0.354 N 
ATOM     57  N   UNL A   1      40.622  31.786  31.723  1.00  0.00    -0.248 NA
ATOM     58  C   UNL A   1      39.089  33.521  32.043  1.00  0.00     0.031 C 
ATOM     59  C   UNL A   1      44.445  31.403  33.956  1.00  0.00     0.029 A 
ATOM     60  C   UNL A   1      43.252  31.552  33.270  1.00  0.00     0.049 A 
ATOM     61  H   UNL A   1      42.385  30.292  31.817  1.00  0.00     0.167 HD
ATOM     62  C   UNL A   1      41.127  32.677  32.666  1.00  0.00     0.074 A 
ATOM     63  C   UNL A   1      40.158  33.744  32.795  1.00  0.00     0.031 C 
ATOM     64  C   UNL A   1      42.280  32.609  33.376  1.00  0.00     0.037 A 
BRANCH  51  65
ATOM     65  C   UNL A   1      45.748  27.679  32.051  1.00  0.00     0.058 A 
ATOM     66  C   UNL A   1      45.830  26.641  32.989  1.00  0.00     0.135 A 
ATOM     67  C   UNL A   1      46.896  27.976  31.296  1.00  0.00     0.135 A 
ATOM     68  F   UNL A   1      44.770  26.338  33.756  1.00  0.00    -0.206 F 
ATOM     69  C   UNL A   1      47.009  25.926  33.176  1.00  0.00     0.059 A 
ATOM     70  C   UNL A   1      48.077  27.262  31.451  1.00  0.00     0.059 A 
ATOM     71  F   UNL A   1      46.871  28.970  30.393  1.00  0.00    -0.206 F 
ATOM     72  C   UNL A   1      48.126  26.242  32.400  1.00  0.00     0.060 A 
BRANCH  72  73
ATOM     73  S   UNL A   1      49.644  25.291  32.629  1.00  0.00     0.124 S 
ATOM     74  O   UNL A   1      49.181  24.208  33.492  1.00  0.00    -0.237 OA
ATOM     75  O   UNL A   1      49.984  24.910  31.262  1.00  0.00    -0.237 OA
ATOM     76  O   UNL A   1      50.553  26.246  33.254  1.00  0.00    -0.744 OA
ENDBRANCH  72  73
ENDBRANCH  51  65
BRANCH  52  77
ATOM     77  C   UNL A   1      37.201  32.452  30.086  1.00  0.00     0.058 A 
ATOM     78  C   UNL A   1      37.182  33.495  29.146  1.00  0.00     0.135 A 
ATOM     79  C   UNL A   1      36.009  32.172  30.771  1.00  0.00     0.135 A 
ATOM     80  F   UNL A   1      38.299  33.813  28.473  1.00  0.00    -0.206 F 
ATOM     81  C   UNL A   1      36.035  34.251  28.916  1.00  0.00     0.059 A 
ATOM     82  C   UNL A   1      34.842  32.891  30.536  1.00  0.00     0.059 A 
ATOM     83  F   UNL A   1      35.969  31.184  31.678  1.00  0.00    -0.206 F 
ATOM     84  C   UNL A   1      34.870  33.943  29.622  1.00  0.00     0.060 A 
BRANCH  84  85
ATOM     85  S   UNL A   1      33.375  34.911  29.320  1.00  0.00     0.124 S 
ATOM     86  O   UNL A   1      32.760  34.917  30.641  1.00  0.00    -0.237 OA
ATOM     87  O   UNL A   1      33.915  36.187  28.861  1.00  0.00    -0.237 OA
ATOM     88  O   UNL A   1      32.679  34.132  28.300  1.00  0.00    -0.744 OA
ENDBRANCH  84  85
ENDBRANCH  52  77
BRANCH  64  89
ATOM     89  C   UNL A   1      42.560  33.730  34.336  1.00  0.00     0.058 A 
ATOM     90  C   UNL A   1      43.252  34.883  33.933  1.00  0.00     0.135 A 
ATOM     91  C   UNL A   1      42.113  33.661  35.664  1.00  0.00     0.135 A 
ATOM     92  F   UNL A   1      43.702  34.996  32.673  1.00  0.00    -0.206 F 
ATOM     93  C   UNL A   1      43.524  35.915  34.826  1.00  0.00     0.059 A 
ATOM     94  C   UNL A   1      42.352  34.691  36.568  1.00  0.00     0.059 A 
ATOM     95  F   UNL A   1      41.432  32.586  36.094  1.00  0.00    -0.206 F 
ATOM     96  C   UNL A   1      43.075  35.806  36.144  1.00  0.00     0.060 A 
BRANCH  96  97
ATOM     97  S   UNL A   1      43.431  37.149  37.297  1.00  0.00     0.124 S 
ATOM     98  O   UNL A   1      43.765  38.237  36.383  1.00  0.00    -0.237 OA
ATOM     99  O   UNL A   1      42.169  37.291  38.017  1.00  0.00    -0.237 OA
ATOM    100  O   UNL A   1      44.541  36.629  38.088  1.00  0.00    -0.744 OA
ENDBRANCH  96  97
ENDBRANCH  64  89
ENDBRANCH  38  39
ENDBRANCH  31  33
ENDBRANCH  30  31
ENDBRANCH   1  30
TORSDOF 17
ENDMDL
