MODEL 1
REMARK VINA RESULT:      -9.8      0.000      0.000
REMARK SMILES O=C(OCCOC(=O)c1ccc(-c2c3nc(c(-c4c(F)cc(S(=O)(=O)[O-])cc4F)c4ccc([nH]4)c(-c4c(F)cc(S(=O)(=O)[O-])cc4F)c4nc(c(-c5c(F)cc(S(=O)(=O)[O-])cc5F)c5ccc2[nH]5)C=C4)C=C3)cc1)c1ccc(/C=C/c2ccnc(-c3cccc([N+](=O)[O-])c3)[n+]2[O-])cc1
REMARK SMILES IDX 4 1 3 2 2 3 1 4 75 5 76 6 98 7 77 8 97 9 78 10 79 11 80 12
REMARK SMILES IDX 81 13 82 14 95 15 83 16 85 17 96 18 84 19 86 20 87 21 94 22
REMARK SMILES IDX 88 23 90 24 89 25 91 26 92 27 93 28 5 29 6 30 7 31 8 32 9 33
REMARK SMILES IDX 10 34 74 35 11 36 73 37 12 38 13 39 14 40 67 41 15 42 72 43
REMARK SMILES IDX 66 44 68 45 16 46 71 47 65 48 64 49 17 51 51 52 30 53 50 54
REMARK SMILES IDX 31 55 34 56 49 57 69 58 32 59 33 60 48 62 70 63 35 64 18 65
REMARK SMILES IDX 19 66 28 67 20 68 21 69 27 70 29 71 22 72 23 73 24 74 25 75
REMARK SMILES IDX 26 76 52 77 53 78 62 79 54 80 55 81 61 82 63 83 56 84 57 85
REMARK SMILES IDX 58 86 59 87 60 88 36 89 37 90 46 91 38 92 39 93 45 94 47 95
REMARK SMILES IDX 40 96 41 97 42 98 43 99 44 100
REMARK H PARENT 68 50 34 61
REMARK Flexibility Score: inf
ROOT
ATOM      1  C   UNL A   1      32.346  32.749  27.256  1.00  0.00     0.275 C 
ENDROOT
BRANCH   1   2
ATOM      2  O   UNL A   1      33.338  33.650  27.780  1.00  0.00    -0.458 OA
BRANCH   2   3
ATOM      3  C   UNL A   1      33.662  33.950  29.061  1.00  0.00     0.338 C 
ATOM      4  O   UNL A   1      32.981  34.784  29.655  1.00  0.00    -0.246 OA
BRANCH   3   5
ATOM      5  C   UNL A   1      34.882  33.426  29.760  1.00  0.00     0.060 A 
ATOM      6  C   UNL A   1      36.184  33.444  29.264  1.00  0.00     0.016 A 
ATOM      7  C   UNL A   1      34.685  32.864  31.035  1.00  0.00     0.016 A 
ATOM      8  C   UNL A   1      37.265  33.025  30.045  1.00  0.00     0.009 A 
ATOM      9  C   UNL A   1      35.764  32.409  31.806  1.00  0.00     0.009 A 
ATOM     10  C   UNL A   1      37.071  32.534  31.336  1.00  0.00    -0.025 A 
BRANCH  10  11
ATOM     11  C   UNL A   1      38.194  32.032  32.134  1.00  0.00     0.012 C 
ATOM     12  C   UNL A   1      38.132  30.959  32.940  1.00  0.00     0.053 C 
BRANCH  12  13
ATOM     13  C   UNL A   1      39.212  30.622  33.883  1.00  0.00     0.134 A 
ATOM     14  C   UNL A   1      39.431  31.423  35.003  1.00  0.00     0.100 A 
ATOM     15  N   UNL A   1      40.055  29.528  33.622  1.00  0.00    -0.228 N 
ATOM     16  C   UNL A   1      40.451  31.069  35.858  1.00  0.00     0.259 A 
ATOM     17  C   UNL A   1      41.047  29.229  34.556  1.00  0.00     0.333 A 
ATOM     18  O   UNL A   1      39.941  28.844  32.541  1.00  0.00    -0.710 OA
ATOM     19  N   UNL A   1      41.244  29.998  35.670  1.00  0.00    -0.049 NA
BRANCH  17  20
ATOM     20  C   UNL A   1      41.897  28.054  34.362  1.00  0.00     0.076 A 
ATOM     21  C   UNL A   1      43.084  28.150  33.615  1.00  0.00     0.017 A 
ATOM     22  C   UNL A   1      41.586  26.823  34.968  1.00  0.00     0.102 A 
ATOM     23  C   UNL A   1      43.957  27.064  33.503  1.00  0.00     0.008 A 
ATOM     24  C   UNL A   1      42.460  25.734  34.849  1.00  0.00     0.270 A 
ATOM     25  C   UNL A   1      43.650  25.853  34.123  1.00  0.00     0.085 A 
BRANCH  24  26
ATOM     26  N   UNL A   1      42.121  24.461  35.494  1.00  0.00     0.062 N 
ATOM     27  O   UNL A   1      41.293  24.483  36.417  1.00  0.00    -0.258 OA
ATOM     28  O   UNL A   1      42.702  23.437  35.103  1.00  0.00    -0.258 OA
ENDBRANCH  24  26
ENDBRANCH  17  20
ENDBRANCH  12  13
ENDBRANCH  10  11
ENDBRANCH   3   5
ENDBRANCH   2   3
ENDBRANCH   1   2
BRANCH   1  29
ATOM     29  C   UNL A   1      32.806  31.291  27.141  1.00  0.00     0.275 C 
BRANCH  29  30
ATOM     30  O   UNL A   1      34.183  31.103  27.500  1.00  0.00    -0.458 OA
BRANCH  30  31
ATOM     31  C   UNL A   1      34.496  29.835  27.874  1.00  0.00     0.338 C 
ATOM     32  O   UNL A   1      33.745  28.873  27.832  1.00  0.00    -0.246 OA
BRANCH  31  33
ATOM     33  C   UNL A   1      35.927  29.722  28.250  1.00  0.00     0.060 A 
ATOM     34  C   UNL A   1      36.876  29.981  27.252  1.00  0.00     0.016 A 
ATOM     35  C   UNL A   1      36.352  29.342  29.527  1.00  0.00     0.016 A 
ATOM     36  C   UNL A   1      38.236  29.802  27.509  1.00  0.00     0.010 A 
ATOM     37  C   UNL A   1      37.722  29.177  29.787  1.00  0.00     0.010 A 
ATOM     38  C   UNL A   1      38.672  29.363  28.767  1.00  0.00    -0.014 A 
BRANCH  38  39
ATOM     39  C   UNL A   1      40.097  28.967  28.943  1.00  0.00     0.031 A 
ATOM     40  C   UNL A   1      41.053  29.926  29.605  1.00  0.00     0.074 A 
ATOM     41  C   UNL A   1      40.538  27.744  28.588  1.00  0.00     0.049 A 
ATOM     42  N   UNL A   1      42.296  29.737  29.972  1.00  0.00    -0.248 NA
ATOM     43  C   UNL A   1      40.543  31.276  29.891  1.00  0.00     0.031 C 
ATOM     44  C   UNL A   1      39.732  26.708  27.949  1.00  0.00     0.029 A 
ATOM     45  N   UNL A   1      41.776  27.163  28.730  1.00  0.00    -0.354 N 
ATOM     46  C   UNL A   1      42.710  30.933  30.544  1.00  0.00     0.074 A 
ATOM     47  C   UNL A   1      41.605  31.861  30.423  1.00  0.00     0.031 C 
ATOM     48  C   UNL A   1      40.492  25.615  27.758  1.00  0.00     0.029 A 
ATOM     49  C   UNL A   1      41.840  25.871  28.263  1.00  0.00     0.049 A 
ATOM     50  H   UNL A   1      42.546  27.630  29.128  1.00  0.00     0.167 HD
ATOM     51  C   UNL A   1      43.889  31.230  31.142  1.00  0.00     0.037 A 
ATOM     52  C   UNL A   1      42.858  24.987  28.262  1.00  0.00     0.037 A 
ATOM     53  C   UNL A   1      44.991  30.316  31.280  1.00  0.00     0.049 A 
ATOM     54  C   UNL A   1      44.177  25.356  28.893  1.00  0.00     0.074 A 
ATOM     55  C   UNL A   1      46.205  30.522  31.915  1.00  0.00     0.029 A 
ATOM     56  N   UNL A   1      45.025  29.029  30.767  1.00  0.00    -0.354 N 
ATOM     57  N   UNL A   1      44.524  26.465  29.500  1.00  0.00    -0.248 NA
ATOM     58  C   UNL A   1      45.240  24.339  28.855  1.00  0.00     0.031 C 
ATOM     59  C   UNL A   1      46.991  29.378  31.742  1.00  0.00     0.029 A 
ATOM     60  C   UNL A   1      46.249  28.440  31.045  1.00  0.00     0.049 A 
ATOM     61  H   UNL A   1      44.288  28.596  30.278  1.00  0.00     0.167 HD
ATOM     62  C   UNL A   1      45.824  26.261  29.957  1.00  0.00     0.074 A 
ATOM     63  C   UNL A   1      46.203  24.924  29.554  1.00  0.00     0.031 C 
ATOM     64  C   UNL A   1      46.624  27.104  30.656  1.00  0.00     0.037 A 
BRANCH  51  65
ATOM     65  C   UNL A   1      44.049  32.620  31.692  1.00  0.00     0.058 A 
ATOM     66  C   UNL A   1      44.442  33.694  30.877  1.00  0.00     0.135 A 
ATOM     67  C   UNL A   1      43.785  32.884  33.045  1.00  0.00     0.135 A 
ATOM     68  F   UNL A   1      44.721  33.492  29.579  1.00  0.00    -0.206 F 
ATOM     69  C   UNL A   1      44.603  34.976  31.393  1.00  0.00     0.059 A 
ATOM     70  C   UNL A   1      43.913  34.163  33.576  1.00  0.00     0.059 A 
ATOM     71  F   UNL A   1      43.406  31.892  33.867  1.00  0.00    -0.206 F 
ATOM     72  C   UNL A   1      44.341  35.199  32.746  1.00  0.00     0.060 A 
BRANCH  72  73
ATOM     73  S   UNL A   1      44.572  36.862  33.407  1.00  0.00     0.124 S 
ATOM     74  O   UNL A   1      43.696  36.832  34.574  1.00  0.00    -0.237 OA
ATOM     75  O   UNL A   1      46.004  36.890  33.690  1.00  0.00    -0.237 OA
ATOM     76  O   UNL A   1      44.134  37.725  32.316  1.00  0.00    -0.744 OA
ENDBRANCH  72  73
ENDBRANCH  51  65
BRANCH  52  77
ATOM     77  C   UNL A   1      42.670  23.635  27.671  1.00  0.00     0.058 A 
ATOM     78  C   UNL A   1      42.386  22.525  28.481  1.00  0.00     0.135 A 
ATOM     79  C   UNL A   1      42.808  23.421  26.291  1.00  0.00     0.135 A 
ATOM     80  F   UNL A   1      42.259  22.678  29.808  1.00  0.00    -0.206 F 
ATOM     81  C   UNL A   1      42.267  21.246  27.948  1.00  0.00     0.059 A 
ATOM     82  C   UNL A   1      42.669  22.155  25.732  1.00  0.00     0.059 A 
ATOM     83  F   UNL A   1      43.072  24.452  25.474  1.00  0.00    -0.206 F 
ATOM     84  C   UNL A   1      42.413  21.070  26.571  1.00  0.00     0.060 A 
BRANCH  84  85
ATOM     85  S   UNL A   1      42.237  19.409  25.886  1.00  0.00     0.124 S 
ATOM     86  O   UNL A   1      43.044  19.505  24.675  1.00  0.00    -0.237 OA
ATOM     87  O   UNL A   1      42.783  18.578  26.953  1.00  0.00    -0.237 OA
ATOM     88  O   UNL A   1      40.797  19.284  25.677  1.00  0.00    -0.744 OA
ENDBRANCH  84  85
ENDBRANCH  52  77
BRANCH  64  89
ATOM     89  C   UNL A   1      47.978  26.598  31.080  1.00  0.00     0.058 A 
ATOM     90  C   UNL A   1      49.133  26.830  30.315  1.00  0.00     0.135 A 
ATOM     91  C   UNL A   1      48.130  25.907  32.294  1.00  0.00     0.135 A 
ATOM     92  F   UNL A   1      49.048  27.483  29.146  1.00  0.00    -0.206 F 
ATOM     93  C   UNL A   1      50.382  26.369  30.722  1.00  0.00     0.059 A 
ATOM     94  C   UNL A   1      49.373  25.463  32.735  1.00  0.00     0.059 A 
ATOM     95  F   UNL A   1      47.063  25.669  33.074  1.00  0.00    -0.206 F 
ATOM     96  C   UNL A   1      50.492  25.685  31.934  1.00  0.00     0.060 A 
BRANCH  96  97
ATOM     97  S   UNL A   1      52.120  25.112  32.465  1.00  0.00     0.124 S 
ATOM     98  O   UNL A   1      52.253  25.766  33.762  1.00  0.00    -0.237 OA
ATOM     99  O   UNL A   1      51.948  23.663  32.501  1.00  0.00    -0.237 OA
ATOM    100  O   UNL A   1      53.011  25.603  31.418  1.00  0.00    -0.744 OA
ENDBRANCH  96  97
ENDBRANCH  64  89
ENDBRANCH  38  39
ENDBRANCH  31  33
ENDBRANCH  30  31
ENDBRANCH  29  30
ENDBRANCH   1  29
TORSDOF 18
ENDMDL
MODEL 2
REMARK VINA RESULT:      -9.7      4.968     12.600
REMARK SMILES O=C(OCCOC(=O)c1ccc(-c2c3nc(c(-c4c(F)cc(S(=O)(=O)[O-])cc4F)c4ccc([nH]4)c(-c4c(F)cc(S(=O)(=O)[O-])cc4F)c4nc(c(-c5c(F)cc(S(=O)(=O)[O-])cc5F)c5ccc2[nH]5)C=C4)C=C3)cc1)c1ccc(/C=C/c2ccnc(-c3cccc([N+](=O)[O-])c3)[n+]2[O-])cc1
REMARK SMILES IDX 4 1 3 2 2 3 1 4 75 5 76 6 98 7 77 8 97 9 78 10 79 11 80 12
REMARK SMILES IDX 81 13 82 14 95 15 83 16 85 17 96 18 84 19 86 20 87 21 94 22
REMARK SMILES IDX 88 23 90 24 89 25 91 26 92 27 93 28 5 29 6 30 7 31 8 32 9 33
REMARK SMILES IDX 10 34 74 35 11 36 73 37 12 38 13 39 14 40 67 41 15 42 72 43
REMARK SMILES IDX 66 44 68 45 16 46 71 47 65 48 64 49 17 51 51 52 30 53 50 54
REMARK SMILES IDX 31 55 34 56 49 57 69 58 32 59 33 60 48 62 70 63 35 64 18 65
REMARK SMILES IDX 19 66 28 67 20 68 21 69 27 70 29 71 22 72 23 73 24 74 25 75
REMARK SMILES IDX 26 76 52 77 53 78 62 79 54 80 55 81 61 82 63 83 56 84 57 85
REMARK SMILES IDX 58 86 59 87 60 88 36 89 37 90 46 91 38 92 39 93 45 94 47 95
REMARK SMILES IDX 40 96 41 97 42 98 43 99 44 100
REMARK H PARENT 68 50 34 61
REMARK Flexibility Score: inf
ROOT
ATOM      1  C   UNL A   1      42.704  21.728  26.045  1.00  0.00     0.275 C 
ENDROOT
BRANCH   1   2
ATOM      2  O   UNL A   1      41.344  22.100  25.759  1.00  0.00    -0.458 OA
BRANCH   2   3
ATOM      3  C   UNL A   1      40.225  21.987  26.515  1.00  0.00     0.338 C 
ATOM      4  O   UNL A   1      40.344  21.608  27.678  1.00  0.00    -0.246 OA
BRANCH   3   5
ATOM      5  C   UNL A   1      38.834  22.170  25.983  1.00  0.00     0.060 A 
ATOM      6  C   UNL A   1      38.051  21.189  25.379  1.00  0.00     0.016 A 
ATOM      7  C   UNL A   1      38.275  23.456  26.109  1.00  0.00     0.016 A 
ATOM      8  C   UNL A   1      36.724  21.440  25.015  1.00  0.00     0.009 A 
ATOM      9  C   UNL A   1      36.957  23.720  25.711  1.00  0.00     0.009 A 
ATOM     10  C   UNL A   1      36.153  22.698  25.206  1.00  0.00    -0.025 A 
BRANCH  10  11
ATOM     11  C   UNL A   1      34.784  22.985  24.766  1.00  0.00     0.012 C 
ATOM     12  C   UNL A   1      34.399  24.133  24.183  1.00  0.00     0.053 C 
BRANCH  12  13
ATOM     13  C   UNL A   1      32.982  24.462  23.956  1.00  0.00     0.134 A 
ATOM     14  C   UNL A   1      32.070  23.446  23.672  1.00  0.00     0.100 A 
ATOM     15  N   UNL A   1      32.562  25.804  23.972  1.00  0.00    -0.228 N 
ATOM     16  C   UNL A   1      30.755  23.801  23.469  1.00  0.00     0.259 A 
ATOM     17  C   UNL A   1      31.206  26.067  23.780  1.00  0.00     0.333 A 
ATOM     18  O   UNL A   1      33.404  26.762  24.122  1.00  0.00    -0.710 OA
ATOM     19  N   UNL A   1      30.306  25.068  23.529  1.00  0.00    -0.049 NA
BRANCH  17  20
ATOM     20  C   UNL A   1      30.714  27.442  23.864  1.00  0.00     0.076 A 
ATOM     21  C   UNL A   1      31.406  28.400  24.626  1.00  0.00     0.017 A 
ATOM     22  C   UNL A   1      29.583  27.857  23.139  1.00  0.00     0.102 A 
ATOM     23  C   UNL A   1      31.008  29.739  24.638  1.00  0.00     0.008 A 
ATOM     24  C   UNL A   1      29.181  29.199  23.158  1.00  0.00     0.270 A 
ATOM     25  C   UNL A   1      29.895  30.144  23.902  1.00  0.00     0.085 A 
BRANCH  24  26
ATOM     26  N   UNL A   1      28.002  29.612  22.389  1.00  0.00     0.062 N 
ATOM     27  O   UNL A   1      28.175  29.971  21.214  1.00  0.00    -0.258 OA
ATOM     28  O   UNL A   1      26.902  29.609  22.963  1.00  0.00    -0.258 OA
ENDBRANCH  24  26
ENDBRANCH  17  20
ENDBRANCH  12  13
ENDBRANCH  10  11
ENDBRANCH   3   5
ENDBRANCH   2   3
ENDBRANCH   1   2
BRANCH   1  29
ATOM     29  C   UNL A   1      43.712  22.880  25.962  1.00  0.00     0.275 C 
BRANCH  29  30
ATOM     30  O   UNL A   1      43.417  23.955  26.868  1.00  0.00    -0.458 OA
BRANCH  30  31
ATOM     31  C   UNL A   1      42.902  25.062  26.273  1.00  0.00     0.338 C 
ATOM     32  O   UNL A   1      42.880  25.282  25.071  1.00  0.00    -0.246 OA
BRANCH  31  33
ATOM     33  C   UNL A   1      42.256  25.955  27.265  1.00  0.00     0.060 A 
ATOM     34  C   UNL A   1      42.834  27.215  27.468  1.00  0.00     0.016 A 
ATOM     35  C   UNL A   1      41.135  25.579  28.013  1.00  0.00     0.016 A 
ATOM     36  C   UNL A   1      42.336  28.069  28.454  1.00  0.00     0.010 A 
ATOM     37  C   UNL A   1      40.627  26.447  28.994  1.00  0.00     0.010 A 
ATOM     38  C   UNL A   1      41.251  27.681  29.252  1.00  0.00    -0.014 A 
BRANCH  38  39
ATOM     39  C   UNL A   1      40.887  28.509  30.435  1.00  0.00     0.031 A 
ATOM     40  C   UNL A   1      41.689  28.374  31.704  1.00  0.00     0.074 A 
ATOM     41  C   UNL A   1      39.901  29.425  30.377  1.00  0.00     0.049 A 
ATOM     42  N   UNL A   1      41.627  29.084  32.803  1.00  0.00    -0.248 NA
ATOM     43  C   UNL A   1      42.693  27.299  31.741  1.00  0.00     0.031 C 
ATOM     44  C   UNL A   1      39.048  29.678  29.220  1.00  0.00     0.029 A 
ATOM     45  N   UNL A   1      39.463  30.328  31.318  1.00  0.00    -0.354 N 
ATOM     46  C   UNL A   1      42.590  28.554  33.653  1.00  0.00     0.074 A 
ATOM     47  C   UNL A   1      43.181  27.426  32.966  1.00  0.00     0.031 C 
ATOM     48  C   UNL A   1      38.191  30.672  29.514  1.00  0.00     0.029 A 
ATOM     49  C   UNL A   1      38.436  31.130  30.880  1.00  0.00     0.049 A 
ATOM     50  H   UNL A   1      39.848  30.392  32.222  1.00  0.00     0.167 HD
ATOM     51  C   UNL A   1      42.971  28.980  34.882  1.00  0.00     0.037 A 
ATOM     52  C   UNL A   1      37.780  32.134  31.499  1.00  0.00     0.037 A 
ATOM     53  C   UNL A   1      42.401  30.105  35.573  1.00  0.00     0.049 A 
ATOM     54  C   UNL A   1      38.192  32.561  32.886  1.00  0.00     0.074 A 
ATOM     55  C   UNL A   1      42.761  30.633  36.801  1.00  0.00     0.029 A 
ATOM     56  N   UNL A   1      41.343  30.871  35.107  1.00  0.00    -0.354 N 
ATOM     57  N   UNL A   1      39.158  32.099  33.642  1.00  0.00    -0.248 NA
ATOM     58  C   UNL A   1      37.432  33.664  33.495  1.00  0.00     0.031 C 
ATOM     59  C   UNL A   1      41.890  31.685  37.101  1.00  0.00     0.029 A 
ATOM     60  C   UNL A   1      41.018  31.847  36.037  1.00  0.00     0.049 A 
ATOM     61  H   UNL A   1      40.889  30.741  34.243  1.00  0.00     0.167 HD
ATOM     62  C   UNL A   1      39.152  32.885  34.792  1.00  0.00     0.074 A 
ATOM     63  C   UNL A   1      38.085  33.849  34.634  1.00  0.00     0.031 C 
ATOM     64  C   UNL A   1      39.966  32.817  35.875  1.00  0.00     0.037 A 
BRANCH  51  65
ATOM     65  C   UNL A   1      44.065  28.209  35.567  1.00  0.00     0.058 A 
ATOM     66  C   UNL A   1      43.782  27.143  36.436  1.00  0.00     0.135 A 
ATOM     67  C   UNL A   1      45.412  28.527  35.333  1.00  0.00     0.135 A 
ATOM     68  F   UNL A   1      42.509  26.809  36.705  1.00  0.00    -0.206 F 
ATOM     69  C   UNL A   1      44.796  26.442  37.079  1.00  0.00     0.059 A 
ATOM     70  C   UNL A   1      46.443  27.821  35.944  1.00  0.00     0.059 A 
ATOM     71  F   UNL A   1      45.736  29.537  34.511  1.00  0.00    -0.206 F 
ATOM     72  C   UNL A   1      46.124  26.793  36.830  1.00  0.00     0.060 A 
BRANCH  72  73
ATOM     73  S   UNL A   1      47.431  25.888  37.685  1.00  0.00     0.124 S 
ATOM     74  O   UNL A   1      48.556  26.808  37.547  1.00  0.00    -0.237 OA
ATOM     75  O   UNL A   1      46.887  25.750  39.032  1.00  0.00    -0.237 OA
ATOM     76  O   UNL A   1      47.538  24.647  36.925  1.00  0.00    -0.744 OA
ENDBRANCH  72  73
ENDBRANCH  51  65
BRANCH  52  77
ATOM     77  C   UNL A   1      36.676  32.845  30.800  1.00  0.00     0.058 A 
ATOM     78  C   UNL A   1      36.943  33.774  29.783  1.00  0.00     0.135 A 
ATOM     79  C   UNL A   1      35.336  32.636  31.161  1.00  0.00     0.135 A 
ATOM     80  F   UNL A   1      38.210  34.017  29.413  1.00  0.00    -0.206 F 
ATOM     81  C   UNL A   1      35.924  34.489  29.164  1.00  0.00     0.059 A 
ATOM     82  C   UNL A   1      34.297  33.321  30.539  1.00  0.00     0.059 A 
ATOM     83  F   UNL A   1      35.029  31.751  32.123  1.00  0.00    -0.206 F 
ATOM     84  C   UNL A   1      34.603  34.257  29.551  1.00  0.00     0.060 A 
BRANCH  84  85
ATOM     85  S   UNL A   1      33.284  35.175  28.727  1.00  0.00     0.124 S 
ATOM     86  O   UNL A   1      34.044  36.167  27.976  1.00  0.00    -0.237 OA
ATOM     87  O   UNL A   1      32.634  34.136  27.937  1.00  0.00    -0.237 OA
ATOM     88  O   UNL A   1      32.494  35.696  29.840  1.00  0.00    -0.744 OA
ENDBRANCH  84  85
ENDBRANCH  52  77
BRANCH  64  89
ATOM     89  C   UNL A   1      39.775  33.842  36.963  1.00  0.00     0.058 A 
ATOM     90  C   UNL A   1      39.075  33.552  38.145  1.00  0.00     0.135 A 
ATOM     91  C   UNL A   1      40.340  35.123  36.838  1.00  0.00     0.135 A 
ATOM     92  F   UNL A   1      38.513  32.346  38.318  1.00  0.00    -0.206 F 
ATOM     93  C   UNL A   1      38.917  34.503  39.150  1.00  0.00     0.059 A 
ATOM     94  C   UNL A   1      40.219  36.079  37.841  1.00  0.00     0.059 A 
ATOM     95  F   UNL A   1      41.033  35.452  35.735  1.00  0.00    -0.206 F 
ATOM     96  C   UNL A   1      39.491  35.766  38.988  1.00  0.00     0.060 A 
BRANCH  96  97
ATOM     97  S   UNL A   1      39.300  36.984  40.307  1.00  0.00     0.124 S 
ATOM     98  O   UNL A   1      38.196  36.415  41.074  1.00  0.00    -0.237 OA
ATOM     99  O   UNL A   1      40.606  36.951  40.958  1.00  0.00    -0.237 OA
ATOM    100  O   UNL A   1      38.997  38.218  39.589  1.00  0.00    -0.744 OA
ENDBRANCH  96  97
ENDBRANCH  64  89
ENDBRANCH  38  39
ENDBRANCH  31  33
ENDBRANCH  30  31
ENDBRANCH  29  30
ENDBRANCH   1  29
TORSDOF 18
ENDMDL
MODEL 3
REMARK VINA RESULT:      -9.6      4.498      7.123
REMARK SMILES O=C(OCCOC(=O)c1ccc(-c2c3nc(c(-c4c(F)cc(S(=O)(=O)[O-])cc4F)c4ccc([nH]4)c(-c4c(F)cc(S(=O)(=O)[O-])cc4F)c4nc(c(-c5c(F)cc(S(=O)(=O)[O-])cc5F)c5ccc2[nH]5)C=C4)C=C3)cc1)c1ccc(/C=C/c2ccnc(-c3cccc([N+](=O)[O-])c3)[n+]2[O-])cc1
REMARK SMILES IDX 4 1 3 2 2 3 1 4 75 5 76 6 98 7 77 8 97 9 78 10 79 11 80 12
REMARK SMILES IDX 81 13 82 14 95 15 83 16 85 17 96 18 84 19 86 20 87 21 94 22
REMARK SMILES IDX 88 23 90 24 89 25 91 26 92 27 93 28 5 29 6 30 7 31 8 32 9 33
REMARK SMILES IDX 10 34 74 35 11 36 73 37 12 38 13 39 14 40 67 41 15 42 72 43
REMARK SMILES IDX 66 44 68 45 16 46 71 47 65 48 64 49 17 51 51 52 30 53 50 54
REMARK SMILES IDX 31 55 34 56 49 57 69 58 32 59 33 60 48 62 70 63 35 64 18 65
REMARK SMILES IDX 19 66 28 67 20 68 21 69 27 70 29 71 22 72 23 73 24 74 25 75
REMARK SMILES IDX 26 76 52 77 53 78 62 79 54 80 55 81 61 82 63 83 56 84 57 85
REMARK SMILES IDX 58 86 59 87 60 88 36 89 37 90 46 91 38 92 39 93 45 94 47 95
REMARK SMILES IDX 40 96 41 97 42 98 43 99 44 100
REMARK H PARENT 68 50 34 61
REMARK Flexibility Score: inf
ROOT
ATOM      1  C   UNL A   1      34.850  33.779  30.653  1.00  0.00     0.275 C 
ENDROOT
BRANCH   1   2
ATOM      2  O   UNL A   1      34.456  32.680  29.811  1.00  0.00    -0.458 OA
BRANCH   2   3
ATOM      3  C   UNL A   1      34.892  32.316  28.580  1.00  0.00     0.338 C 
ATOM      4  O   UNL A   1      35.730  33.026  28.026  1.00  0.00    -0.246 OA
BRANCH   3   5
ATOM      5  C   UNL A   1      34.322  31.172  27.794  1.00  0.00     0.060 A 
ATOM      6  C   UNL A   1      33.052  31.122  27.223  1.00  0.00     0.016 A 
ATOM      7  C   UNL A   1      35.152  30.049  27.623  1.00  0.00     0.016 A 
ATOM      8  C   UNL A   1      32.660  30.048  26.419  1.00  0.00     0.009 A 
ATOM      9  C   UNL A   1      34.747  28.955  26.846  1.00  0.00     0.009 A 
ATOM     10  C   UNL A   1      33.514  28.969  26.194  1.00  0.00    -0.025 A 
BRANCH  10  11
ATOM     11  C   UNL A   1      33.083  27.810  25.406  1.00  0.00     0.012 C 
ATOM     12  C   UNL A   1      33.401  26.536  25.692  1.00  0.00     0.053 C 
BRANCH  12  13
ATOM     13  C   UNL A   1      33.131  25.431  24.758  1.00  0.00     0.134 A 
ATOM     14  C   UNL A   1      32.319  25.645  23.644  1.00  0.00     0.100 A 
ATOM     15  N   UNL A   1      33.645  24.149  25.020  1.00  0.00    -0.228 N 
ATOM     16  C   UNL A   1      32.095  24.583  22.797  1.00  0.00     0.259 A 
ATOM     17  C   UNL A   1      33.387  23.138  24.094  1.00  0.00     0.333 A 
ATOM     18  O   UNL A   1      34.303  23.904  26.096  1.00  0.00    -0.710 OA
ATOM     19  N   UNL A   1      32.615  23.355  22.986  1.00  0.00    -0.049 NA
BRANCH  17  20
ATOM     20  C   UNL A   1      33.967  21.809  24.289  1.00  0.00     0.076 A 
ATOM     21  C   UNL A   1      35.329  21.668  24.608  1.00  0.00     0.017 A 
ATOM     22  C   UNL A   1      33.172  20.651  24.227  1.00  0.00     0.102 A 
ATOM     23  C   UNL A   1      35.877  20.415  24.894  1.00  0.00     0.008 A 
ATOM     24  C   UNL A   1      33.725  19.395  24.508  1.00  0.00     0.270 A 
ATOM     25  C   UNL A   1      35.077  19.274  24.849  1.00  0.00     0.085 A 
BRANCH  24  26
ATOM     26  N   UNL A   1      32.876  18.200  24.446  1.00  0.00     0.062 N 
ATOM     27  O   UNL A   1      32.047  18.032  25.353  1.00  0.00    -0.258 OA
ATOM     28  O   UNL A   1      33.053  17.409  23.507  1.00  0.00    -0.258 OA
ENDBRANCH  24  26
ENDBRANCH  17  20
ENDBRANCH  12  13
ENDBRANCH  10  11
ENDBRANCH   3   5
ENDBRANCH   2   3
ENDBRANCH   1   2
BRANCH   1  29
ATOM     29  C   UNL A   1      35.785  33.395  31.806  1.00  0.00     0.275 C 
BRANCH  29  30
ATOM     30  O   UNL A   1      36.984  32.739  31.366  1.00  0.00    -0.458 OA
BRANCH  30  31
ATOM     31  C   UNL A   1      37.060  31.426  31.706  1.00  0.00     0.338 C 
ATOM     32  O   UNL A   1      36.297  30.837  32.457  1.00  0.00    -0.246 OA
BRANCH  31  33
ATOM     33  C   UNL A   1      38.143  30.739  30.960  1.00  0.00     0.060 A 
ATOM     34  C   UNL A   1      39.184  30.177  31.710  1.00  0.00     0.016 A 
ATOM     35  C   UNL A   1      38.178  30.665  29.564  1.00  0.00     0.016 A 
ATOM     36  C   UNL A   1      40.282  29.599  31.071  1.00  0.00     0.010 A 
ATOM     37  C   UNL A   1      39.277  30.069  28.923  1.00  0.00     0.010 A 
ATOM     38  C   UNL A   1      40.359  29.571  29.672  1.00  0.00    -0.014 A 
BRANCH  38  39
ATOM     39  C   UNL A   1      41.633  29.156  29.023  1.00  0.00     0.031 A 
ATOM     40  C   UNL A   1      42.762  30.149  28.913  1.00  0.00     0.074 A 
ATOM     41  C   UNL A   1      41.827  27.894  28.594  1.00  0.00     0.049 A 
ATOM     42  N   UNL A   1      43.993  29.963  28.505  1.00  0.00    -0.248 NA
ATOM     43  C   UNL A   1      42.467  31.533  29.316  1.00  0.00     0.031 C 
ATOM     44  C   UNL A   1      40.837  26.823  28.642  1.00  0.00     0.029 A 
ATOM     45  N   UNL A   1      42.937  27.297  28.042  1.00  0.00    -0.354 N 
ATOM     46  C   UNL A   1      44.621  31.197  28.616  1.00  0.00     0.074 A 
ATOM     47  C   UNL A   1      43.620  32.138  29.073  1.00  0.00     0.031 C 
ATOM     48  C   UNL A   1      41.381  25.697  28.147  1.00  0.00     0.029 A 
ATOM     49  C   UNL A   1      42.762  25.965  27.749  1.00  0.00     0.049 A 
ATOM     50  H   UNL A   1      43.778  27.779  27.873  1.00  0.00     0.167 HD
ATOM     51  C   UNL A   1      45.917  31.519  28.387  1.00  0.00     0.037 A 
ATOM     52  C   UNL A   1      43.620  25.058  27.238  1.00  0.00     0.037 A 
ATOM     53  C   UNL A   1      46.925  30.594  27.942  1.00  0.00     0.049 A 
ATOM     54  C   UNL A   1      45.047  25.451  26.947  1.00  0.00     0.074 A 
ATOM     55  C   UNL A   1      48.273  30.827  27.730  1.00  0.00     0.029 A 
ATOM     56  N   UNL A   1      46.699  29.263  27.627  1.00  0.00    -0.354 N 
ATOM     57  N   UNL A   1      45.643  26.604  27.133  1.00  0.00    -0.248 NA
ATOM     58  C   UNL A   1      45.924  24.407  26.393  1.00  0.00     0.031 C 
ATOM     59  C   UNL A   1      48.852  29.652  27.241  1.00  0.00     0.029 A 
ATOM     60  C   UNL A   1      47.876  28.671  27.195  1.00  0.00     0.049 A 
ATOM     61  H   UNL A   1      45.830  28.805  27.701  1.00  0.00     0.167 HD
ATOM     62  C   UNL A   1      46.973  26.410  26.766  1.00  0.00     0.074 A 
ATOM     63  C   UNL A   1      47.093  25.031  26.343  1.00  0.00     0.031 C 
ATOM     64  C   UNL A   1      48.001  27.295  26.787  1.00  0.00     0.037 A 
BRANCH  51  65
ATOM     65  C   UNL A   1      46.319  32.951  28.608  1.00  0.00     0.058 A 
ATOM     66  C   UNL A   1      46.267  33.899  27.575  1.00  0.00     0.135 A 
ATOM     67  C   UNL A   1      46.740  33.382  29.876  1.00  0.00     0.135 A 
ATOM     68  F   UNL A   1      45.886  33.534  26.340  1.00  0.00    -0.206 F 
ATOM     69  C   UNL A   1      46.653  35.219  27.781  1.00  0.00     0.059 A 
ATOM     70  C   UNL A   1      47.104  34.703  30.111  1.00  0.00     0.059 A 
ATOM     71  F   UNL A   1      46.807  32.514  30.898  1.00  0.00    -0.206 F 
ATOM     72  C   UNL A   1      47.076  35.610  29.052  1.00  0.00     0.060 A 
BRANCH  72  73
ATOM     73  S   UNL A   1      47.593  37.321  29.302  1.00  0.00     0.124 S 
ATOM     74  O   UNL A   1      48.916  37.139  29.892  1.00  0.00    -0.237 OA
ATOM     75  O   UNL A   1      47.572  37.856  27.945  1.00  0.00    -0.237 OA
ATOM     76  O   UNL A   1      46.575  37.855  30.200  1.00  0.00    -0.744 OA
ENDBRANCH  72  73
ENDBRANCH  51  65
BRANCH  52  77
ATOM     77  C   UNL A   1      43.171  23.661  26.995  1.00  0.00     0.058 A 
ATOM     78  C   UNL A   1      43.076  22.738  28.048  1.00  0.00     0.135 A 
ATOM     79  C   UNL A   1      42.862  23.213  25.702  1.00  0.00     0.135 A 
ATOM     80  F   UNL A   1      43.374  23.117  29.300  1.00  0.00    -0.206 F 
ATOM     81  C   UNL A   1      42.715  21.414  27.826  1.00  0.00     0.059 A 
ATOM     82  C   UNL A   1      42.475  21.900  25.458  1.00  0.00     0.059 A 
ATOM     83  F   UNL A   1      42.930  24.060  24.663  1.00  0.00    -0.206 F 
ATOM     84  C   UNL A   1      42.418  21.003  26.525  1.00  0.00     0.060 A 
BRANCH  84  85
ATOM     85  S   UNL A   1      41.931  19.287  26.249  1.00  0.00     0.124 S 
ATOM     86  O   UNL A   1      42.305  18.668  27.515  1.00  0.00    -0.237 OA
ATOM     87  O   UNL A   1      40.499  19.411  25.998  1.00  0.00    -0.237 OA
ATOM     88  O   UNL A   1      42.732  18.893  25.093  1.00  0.00    -0.744 OA
ENDBRANCH  84  85
ENDBRANCH  52  77
BRANCH  64  89
ATOM     89  C   UNL A   1      49.366  26.796  26.390  1.00  0.00     0.058 A 
ATOM     90  C   UNL A   1      50.191  26.092  27.282  1.00  0.00     0.135 A 
ATOM     91  C   UNL A   1      49.838  26.989  25.080  1.00  0.00     0.135 A 
ATOM     92  F   UNL A   1      49.792  25.880  28.546  1.00  0.00    -0.206 F 
ATOM     93  C   UNL A   1      51.445  25.624  26.900  1.00  0.00     0.059 A 
ATOM     94  C   UNL A   1      51.076  26.505  24.668  1.00  0.00     0.059 A 
ATOM     95  F   UNL A   1      49.086  27.642  24.180  1.00  0.00    -0.206 F 
ATOM     96  C   UNL A   1      51.880  25.837  25.590  1.00  0.00     0.060 A 
BRANCH  96  97
ATOM     97  S   UNL A   1      53.499  25.205  25.098  1.00  0.00     0.124 S 
ATOM     98  O   UNL A   1      54.379  25.889  26.039  1.00  0.00    -0.237 OA
ATOM     99  O   UNL A   1      53.350  23.767  25.300  1.00  0.00    -0.237 OA
ATOM    100  O   UNL A   1      53.619  25.626  23.705  1.00  0.00    -0.744 OA
ENDBRANCH  96  97
ENDBRANCH  64  89
ENDBRANCH  38  39
ENDBRANCH  31  33
ENDBRANCH  30  31
ENDBRANCH  29  30
ENDBRANCH   1  29
TORSDOF 18
ENDMDL
