MODEL 1
REMARK VINA RESULT:     -12.0      0.000      0.000
REMARK SMILES O=C(CSc1ccc(NC(=O)c2cccc3ccccc23)cc1)OCCOC(=O)c1ccc(-c2c3nc(c(-c4c(F)cc(S(=O)(=O)[O-])cc4F)c4ccc([nH]4)c(-c4c(F)cc(S(=O)(=O)[O-])cc4F)c4nc(c(-c5c(F)cc(S(=O)(=O)[O-])cc5F)c5ccc2[nH]5)C=C4)C=C3)cc1
REMARK SMILES IDX 25 1 24 2 2 3 1 4 3 5 4 6 5 7 6 8 23 9 7 10 22 11 8 12 9 13
REMARK SMILES IDX 10 14 11 16 12 17 13 18 21 19 14 20 16 21 20 22 15 23 17 24
REMARK SMILES IDX 19 25 18 26 26 27 27 28 28 29 29 30 30 31 31 32 95 33 32 34
REMARK SMILES IDX 94 35 33 36 34 37 35 38 88 39 36 40 93 41 87 42 89 43 37 44
REMARK SMILES IDX 92 45 86 46 85 47 38 49 72 50 51 51 71 52 52 53 55 54 70 55
REMARK SMILES IDX 90 56 53 57 54 58 69 60 91 61 56 62 39 63 40 64 49 65 41 66
REMARK SMILES IDX 42 67 48 68 50 69 43 70 44 71 45 72 46 73 47 74 73 75 74 76
REMARK SMILES IDX 83 77 75 78 76 79 82 80 84 81 77 82 78 83 79 84 80 85 81 86
REMARK SMILES IDX 57 87 58 88 67 89 59 90 60 91 66 92 68 93 61 94 62 95 63 96
REMARK SMILES IDX 64 97 65 98
REMARK H PARENT 9 15 89 48 55 59
REMARK Flexibility Score: inf
ROOT
ATOM      1  C   UNL A   1      40.376  20.780  26.250  1.00  0.00     0.274 C 
ENDROOT
BRANCH   1   2
ATOM      2  O   UNL A   1      39.157  21.536  26.396  1.00  0.00    -0.461 OA
BRANCH   2   3
ATOM      3  C   UNL A   1      38.153  21.536  25.484  1.00  0.00     0.316 C 
ATOM      4  O   UNL A   1      37.771  20.474  24.997  1.00  0.00    -0.251 OA
BRANCH   3   5
ATOM      5  C   UNL A   1      37.487  22.849  25.127  1.00  0.00     0.197 C 
BRANCH   5   6
ATOM      6  S   UNL A   1      36.639  22.774  23.541  1.00  0.00    -0.114 SA
BRANCH   6   7
ATOM      7  C   UNL A   1      35.114  23.516  24.057  1.00  0.00     0.008 A 
ATOM      8  C   UNL A   1      33.956  23.244  23.329  1.00  0.00     0.017 A 
ATOM      9  C   UNL A   1      35.054  24.322  25.193  1.00  0.00     0.017 A 
ATOM     10  C   UNL A   1      32.720  23.636  23.829  1.00  0.00     0.027 A 
ATOM     11  C   UNL A   1      33.815  24.703  25.699  1.00  0.00     0.027 A 
ATOM     12  C   UNL A   1      32.653  24.227  25.086  1.00  0.00     0.041 A 
BRANCH  12  13
ATOM     13  N   UNL A   1      31.497  24.206  25.874  1.00  0.00    -0.322 N 
ATOM     14  C   UNL A   1      30.495  25.145  26.005  1.00  0.00     0.256 C 
ATOM     15  H   UNL A   1      31.380  23.394  26.418  1.00  0.00     0.170 HD
ATOM     16  O   UNL A   1      29.548  24.895  26.754  1.00  0.00    -0.269 OA
BRANCH  14  17
ATOM     17  C   UNL A   1      30.486  26.460  25.304  1.00  0.00     0.048 A 
ATOM     18  C   UNL A   1      29.748  26.447  24.107  1.00  0.00     0.014 A 
ATOM     19  C   UNL A   1      31.169  27.645  25.724  1.00  0.00    -0.006 A 
ATOM     20  C   UNL A   1      29.656  27.585  23.319  1.00  0.00     0.001 A 
ATOM     21  C   UNL A   1      31.028  28.807  24.914  1.00  0.00    -0.018 A 
ATOM     22  C   UNL A   1      31.963  27.780  26.892  1.00  0.00     0.009 A 
ATOM     23  C   UNL A   1      30.291  28.755  23.723  1.00  0.00     0.009 A 
ATOM     24  C   UNL A   1      31.616  30.024  25.302  1.00  0.00     0.009 A 
ATOM     25  C   UNL A   1      32.497  29.012  27.291  1.00  0.00     0.001 A 
ATOM     26  C   UNL A   1      32.324  30.135  26.494  1.00  0.00     0.001 A 
ENDBRANCH  14  17
ENDBRANCH  12  13
ENDBRANCH   6   7
ENDBRANCH   5   6
ENDBRANCH   3   5
ENDBRANCH   2   3
ENDBRANCH   1   2
BRANCH   1  27
ATOM     27  C   UNL A   1      41.592  21.710  26.188  1.00  0.00     0.275 C 
BRANCH  27  28
ATOM     28  O   UNL A   1      41.204  23.050  26.542  1.00  0.00    -0.458 OA
BRANCH  28  29
ATOM     29  C   UNL A   1      42.089  24.042  26.247  1.00  0.00     0.338 C 
ATOM     30  O   UNL A   1      42.809  24.100  25.271  1.00  0.00    -0.246 OA
BRANCH  29  31
ATOM     31  C   UNL A   1      41.852  25.167  27.191  1.00  0.00     0.060 A 
ATOM     32  C   UNL A   1      42.606  26.341  27.043  1.00  0.00     0.016 A 
ATOM     33  C   UNL A   1      40.835  25.107  28.149  1.00  0.00     0.016 A 
ATOM     34  C   UNL A   1      42.355  27.447  27.864  1.00  0.00     0.010 A 
ATOM     35  C   UNL A   1      40.591  26.209  28.971  1.00  0.00     0.010 A 
ATOM     36  C   UNL A   1      41.364  27.377  28.850  1.00  0.00    -0.014 A 
BRANCH  36  37
ATOM     37  C   UNL A   1      41.244  28.417  29.901  1.00  0.00     0.031 A 
ATOM     38  C   UNL A   1      42.147  28.311  31.098  1.00  0.00     0.074 A 
ATOM     39  C   UNL A   1      40.310  29.383  29.849  1.00  0.00     0.049 A 
ATOM     40  N   UNL A   1      42.138  28.996  32.211  1.00  0.00    -0.248 NA
ATOM     41  C   UNL A   1      43.190  27.274  31.032  1.00  0.00     0.031 C 
ATOM     42  C   UNL A   1      39.383  29.606  28.743  1.00  0.00     0.029 A 
ATOM     43  N   UNL A   1      39.970  30.338  30.777  1.00  0.00    -0.354 N 
ATOM     44  C   UNL A   1      43.160  28.462  32.987  1.00  0.00     0.074 A 
ATOM     45  C   UNL A   1      43.751  27.382  32.225  1.00  0.00     0.031 C 
ATOM     46  C   UNL A   1      38.554  30.615  29.071  1.00  0.00     0.029 A 
ATOM     47  C   UNL A   1      38.872  31.084  30.421  1.00  0.00     0.049 A 
ATOM     48  H   UNL A   1      40.465  30.475  31.616  1.00  0.00     0.167 HD
ATOM     49  C   UNL A   1      43.571  28.834  34.222  1.00  0.00     0.037 A 
ATOM     50  C   UNL A   1      38.184  32.015  31.116  1.00  0.00     0.037 A 
ATOM     51  C   UNL A   1      42.976  29.896  34.986  1.00  0.00     0.049 A 
ATOM     52  C   UNL A   1      38.625  32.389  32.509  1.00  0.00     0.074 A 
ATOM     53  C   UNL A   1      43.340  30.364  36.236  1.00  0.00     0.029 A 
ATOM     54  N   UNL A   1      41.880  30.643  34.582  1.00  0.00    -0.354 N 
ATOM     55  N   UNL A   1      39.620  31.908  33.217  1.00  0.00    -0.248 NA
ATOM     56  C   UNL A   1      37.850  33.431  33.200  1.00  0.00     0.031 C 
ATOM     57  C   UNL A   1      42.434  31.362  36.608  1.00  0.00     0.029 A 
ATOM     58  C   UNL A   1      41.537  31.552  35.567  1.00  0.00     0.049 A 
ATOM     59  H   UNL A   1      41.413  30.540  33.720  1.00  0.00     0.167 HD
ATOM     60  C   UNL A   1      39.610  32.609  34.419  1.00  0.00     0.074 A 
ATOM     61  C   UNL A   1      38.507  33.546  34.347  1.00  0.00     0.031 C 
ATOM     62  C   UNL A   1      40.444  32.492  35.482  1.00  0.00     0.037 A 
BRANCH  49  63
ATOM     63  C   UNL A   1      44.696  28.044  34.828  1.00  0.00     0.058 A 
ATOM     64  C   UNL A   1      46.038  28.418  34.657  1.00  0.00     0.135 A 
ATOM     65  C   UNL A   1      44.425  26.877  35.559  1.00  0.00     0.135 A 
ATOM     66  F   UNL A   1      46.350  29.515  33.948  1.00  0.00    -0.206 F 
ATOM     67  C   UNL A   1      47.076  27.631  35.144  1.00  0.00     0.059 A 
ATOM     68  C   UNL A   1      45.448  26.091  36.080  1.00  0.00     0.059 A 
ATOM     69  F   UNL A   1      43.159  26.475  35.751  1.00  0.00    -0.206 F 
ATOM     70  C   UNL A   1      46.770  26.463  35.843  1.00  0.00     0.060 A 
BRANCH  70  71
ATOM     71  S   UNL A   1      48.126  25.421  36.422  1.00  0.00     0.124 S 
ATOM     72  O   UNL A   1      47.418  24.190  36.759  1.00  0.00    -0.237 OA
ATOM     73  O   UNL A   1      48.993  25.353  35.251  1.00  0.00    -0.237 OA
ATOM     74  O   UNL A   1      48.666  26.166  37.555  1.00  0.00    -0.744 OA
ENDBRANCH  70  71
ENDBRANCH  49  63
BRANCH  50  75
ATOM     75  C   UNL A   1      36.990  32.652  30.500  1.00  0.00     0.058 A 
ATOM     76  C   UNL A   1      35.694  32.259  30.860  1.00  0.00     0.135 A 
ATOM     77  C   UNL A   1      37.125  33.695  29.570  1.00  0.00     0.135 A 
ATOM     78  F   UNL A   1      35.514  31.256  31.732  1.00  0.00    -0.206 F 
ATOM     79  C   UNL A   1      34.570  32.883  30.326  1.00  0.00     0.059 A 
ATOM     80  C   UNL A   1      36.017  34.347  29.037  1.00  0.00     0.059 A 
ATOM     81  F   UNL A   1      38.346  34.110  29.197  1.00  0.00    -0.206 F 
ATOM     82  C   UNL A   1      34.743  33.934  29.422  1.00  0.00     0.060 A 
BRANCH  82  83
ATOM     83  S   UNL A   1      33.280  34.802  28.813  1.00  0.00     0.124 S 
ATOM     84  O   UNL A   1      32.500  34.959  30.034  1.00  0.00    -0.237 OA
ATOM     85  O   UNL A   1      33.859  36.024  28.262  1.00  0.00    -0.237 OA
ATOM     86  O   UNL A   1      32.731  33.878  27.825  1.00  0.00    -0.744 OA
ENDBRANCH  82  83
ENDBRANCH  50  75
BRANCH  62  87
ATOM     87  C   UNL A   1      40.246  33.420  36.650  1.00  0.00     0.058 A 
ATOM     88  C   UNL A   1      40.893  34.663  36.726  1.00  0.00     0.135 A 
ATOM     89  C   UNL A   1      39.315  33.103  37.653  1.00  0.00     0.135 A 
ATOM     90  F   UNL A   1      41.795  35.014  35.797  1.00  0.00    -0.206 F 
ATOM     91  C   UNL A   1      40.622  35.560  37.757  1.00  0.00     0.059 A 
ATOM     92  C   UNL A   1      39.012  33.993  38.679  1.00  0.00     0.059 A 
ATOM     93  F   UNL A   1      38.662  31.930  37.621  1.00  0.00    -0.206 F 
ATOM     94  C   UNL A   1      39.674  35.218  38.724  1.00  0.00     0.060 A 
BRANCH  94  95
ATOM     95  S   UNL A   1      39.278  36.419  40.014  1.00  0.00     0.124 S 
ATOM     96  O   UNL A   1      38.184  35.752  40.712  1.00  0.00    -0.237 OA
ATOM     97  O   UNL A   1      40.535  36.515  40.751  1.00  0.00    -0.237 OA
ATOM     98  O   UNL A   1      38.907  37.615  39.264  1.00  0.00    -0.744 OA
ENDBRANCH  94  95
ENDBRANCH  62  87
ENDBRANCH  36  37
ENDBRANCH  29  31
ENDBRANCH  28  29
ENDBRANCH  27  28
ENDBRANCH   1  27
TORSDOF 18
ENDMDL
MODEL 2
REMARK VINA RESULT:     -11.9      5.946     11.425
REMARK SMILES O=C(CSc1ccc(NC(=O)c2cccc3ccccc23)cc1)OCCOC(=O)c1ccc(-c2c3nc(c(-c4c(F)cc(S(=O)(=O)[O-])cc4F)c4ccc([nH]4)c(-c4c(F)cc(S(=O)(=O)[O-])cc4F)c4nc(c(-c5c(F)cc(S(=O)(=O)[O-])cc5F)c5ccc2[nH]5)C=C4)C=C3)cc1
REMARK SMILES IDX 25 1 24 2 2 3 1 4 3 5 4 6 5 7 6 8 23 9 7 10 22 11 8 12 9 13
REMARK SMILES IDX 10 14 11 16 12 17 13 18 21 19 14 20 16 21 20 22 15 23 17 24
REMARK SMILES IDX 19 25 18 26 26 27 27 28 28 29 29 30 30 31 31 32 95 33 32 34
REMARK SMILES IDX 94 35 33 36 34 37 35 38 88 39 36 40 93 41 87 42 89 43 37 44
REMARK SMILES IDX 92 45 86 46 85 47 38 49 72 50 51 51 71 52 52 53 55 54 70 55
REMARK SMILES IDX 90 56 53 57 54 58 69 60 91 61 56 62 39 63 40 64 49 65 41 66
REMARK SMILES IDX 42 67 48 68 50 69 43 70 44 71 45 72 46 73 47 74 73 75 74 76
REMARK SMILES IDX 83 77 75 78 76 79 82 80 84 81 77 82 78 83 79 84 80 85 81 86
REMARK SMILES IDX 57 87 58 88 67 89 59 90 60 91 66 92 68 93 61 94 62 95 63 96
REMARK SMILES IDX 64 97 65 98
REMARK H PARENT 9 15 89 48 55 59
REMARK Flexibility Score: inf
ROOT
ATOM      1  C   UNL A   1      34.311  32.342  28.560  1.00  0.00     0.274 C 
ENDROOT
BRANCH   1   2
ATOM      2  O   UNL A   1      34.931  31.442  27.619  1.00  0.00    -0.461 OA
BRANCH   2   3
ATOM      3  C   UNL A   1      34.520  30.166  27.410  1.00  0.00     0.316 C 
ATOM      4  O   UNL A   1      35.090  29.239  27.981  1.00  0.00    -0.251 OA
BRANCH   3   5
ATOM      5  C   UNL A   1      33.326  29.919  26.510  1.00  0.00     0.197 C 
BRANCH   5   6
ATOM      6  S   UNL A   1      32.150  28.768  27.239  1.00  0.00    -0.114 SA
BRANCH   6   7
ATOM      7  C   UNL A   1      32.397  27.430  26.102  1.00  0.00     0.008 A 
ATOM      8  C   UNL A   1      31.281  26.800  25.554  1.00  0.00     0.017 A 
ATOM      9  C   UNL A   1      33.681  27.037  25.724  1.00  0.00     0.017 A 
ATOM     10  C   UNL A   1      31.443  25.899  24.509  1.00  0.00     0.027 A 
ATOM     11  C   UNL A   1      33.841  26.145  24.668  1.00  0.00     0.027 A 
ATOM     12  C   UNL A   1      32.712  25.698  23.976  1.00  0.00     0.041 A 
BRANCH  12  13
ATOM     13  N   UNL A   1      32.922  25.234  22.673  1.00  0.00    -0.322 N 
ATOM     14  C   UNL A   1      33.235  23.969  22.221  1.00  0.00     0.256 C 
ATOM     15  H   UNL A   1      32.832  25.917  21.969  1.00  0.00     0.170 HD
ATOM     16  O   UNL A   1      33.354  23.790  21.007  1.00  0.00    -0.269 OA
BRANCH  14  17
ATOM     17  C   UNL A   1      33.455  22.794  23.112  1.00  0.00     0.048 A 
ATOM     18  C   UNL A   1      32.294  22.029  23.318  1.00  0.00     0.014 A 
ATOM     19  C   UNL A   1      34.681  22.444  23.761  1.00  0.00    -0.006 A 
ATOM     20  C   UNL A   1      32.318  20.912  24.141  1.00  0.00     0.001 A 
ATOM     21  C   UNL A   1      34.686  21.274  24.570  1.00  0.00    -0.018 A 
ATOM     22  C   UNL A   1      35.910  23.146  23.656  1.00  0.00     0.009 A 
ATOM     23  C   UNL A   1      33.507  20.539  24.758  1.00  0.00     0.009 A 
ATOM     24  C   UNL A   1      35.872  20.833  25.182  1.00  0.00     0.009 A 
ATOM     25  C   UNL A   1      37.094  22.664  24.228  1.00  0.00     0.001 A 
ATOM     26  C   UNL A   1      37.075  21.506  24.993  1.00  0.00     0.001 A 
ENDBRANCH  14  17
ENDBRANCH  12  13
ENDBRANCH   6   7
ENDBRANCH   5   6
ENDBRANCH   3   5
ENDBRANCH   2   3
ENDBRANCH   1   2
BRANCH   1  27
ATOM     27  C   UNL A   1      34.989  32.252  29.930  1.00  0.00     0.275 C 
BRANCH  27  28
ATOM     28  O   UNL A   1      36.366  31.862  29.773  1.00  0.00    -0.458 OA
BRANCH  28  29
ATOM     29  C   UNL A   1      36.801  30.826  30.542  1.00  0.00     0.338 C 
ATOM     30  O   UNL A   1      36.158  30.231  31.382  1.00  0.00    -0.246 OA
BRANCH  29  31
ATOM     31  C   UNL A   1      38.117  30.379  30.011  1.00  0.00     0.060 A 
ATOM     32  C   UNL A   1      39.123  30.021  30.920  1.00  0.00     0.016 A 
ATOM     33  C   UNL A   1      38.329  30.220  28.638  1.00  0.00     0.016 A 
ATOM     34  C   UNL A   1      40.346  29.521  30.457  1.00  0.00     0.010 A 
ATOM     35  C   UNL A   1      39.551  29.727  28.177  1.00  0.00     0.010 A 
ATOM     36  C   UNL A   1      40.576  29.398  29.081  1.00  0.00    -0.014 A 
BRANCH  36  37
ATOM     37  C   UNL A   1      41.932  29.125  28.545  1.00  0.00     0.031 A 
ATOM     38  C   UNL A   1      42.246  27.720  28.114  1.00  0.00     0.074 A 
ATOM     39  C   UNL A   1      42.892  30.067  28.516  1.00  0.00     0.049 A 
ATOM     40  N   UNL A   1      43.388  27.195  27.756  1.00  0.00    -0.248 NA
ATOM     41  C   UNL A   1      41.115  26.778  28.104  1.00  0.00     0.031 C 
ATOM     42  C   UNL A   1      42.718  31.467  28.892  1.00  0.00     0.029 A 
ATOM     43  N   UNL A   1      44.221  29.967  28.181  1.00  0.00    -0.354 N 
ATOM     44  C   UNL A   1      43.119  25.856  27.497  1.00  0.00     0.074 A 
ATOM     45  C   UNL A   1      41.711  25.648  27.761  1.00  0.00     0.031 C 
ATOM     46  C   UNL A   1      43.907  32.091  28.798  1.00  0.00     0.029 A 
ATOM     47  C   UNL A   1      44.929  31.127  28.389  1.00  0.00     0.049 A 
ATOM     48  H   UNL A   1      44.628  29.144  27.826  1.00  0.00     0.167 HD
ATOM     49  C   UNL A   1      43.965  24.886  27.078  1.00  0.00     0.037 A 
ATOM     50  C   UNL A   1      46.253  31.373  28.291  1.00  0.00     0.037 A 
ATOM     51  C   UNL A   1      45.366  25.087  26.830  1.00  0.00     0.049 A 
ATOM     52  C   UNL A   1      47.192  30.271  27.867  1.00  0.00     0.074 A 
ATOM     53  C   UNL A   1      46.299  24.171  26.378  1.00  0.00     0.029 A 
ATOM     54  N   UNL A   1      46.041  26.282  27.031  1.00  0.00    -0.354 N 
ATOM     55  N   UNL A   1      46.920  29.019  27.582  1.00  0.00    -0.248 NA
ATOM     56  C   UNL A   1      48.618  30.614  27.750  1.00  0.00     0.031 C 
ATOM     57  C   UNL A   1      47.549  24.800  26.352  1.00  0.00     0.029 A 
ATOM     58  C   UNL A   1      47.385  26.122  26.737  1.00  0.00     0.049 A 
ATOM     59  H   UNL A   1      45.626  27.121  27.339  1.00  0.00     0.167 HD
ATOM     60  C   UNL A   1      48.132  28.435  27.223  1.00  0.00     0.074 A 
ATOM     61  C   UNL A   1      49.141  29.469  27.331  1.00  0.00     0.031 C 
ATOM     62  C   UNL A   1      48.381  27.161  26.833  1.00  0.00     0.037 A 
BRANCH  49  63
ATOM     63  C   UNL A   1      43.387  23.510  26.909  1.00  0.00     0.058 A 
ATOM     64  C   UNL A   1      43.213  22.643  27.999  1.00  0.00     0.135 A 
ATOM     65  C   UNL A   1      43.038  23.042  25.633  1.00  0.00     0.135 A 
ATOM     66  F   UNL A   1      43.550  23.036  29.238  1.00  0.00    -0.206 F 
ATOM     67  C   UNL A   1      42.763  21.339  27.823  1.00  0.00     0.059 A 
ATOM     68  C   UNL A   1      42.559  21.750  25.437  1.00  0.00     0.059 A 
ATOM     69  F   UNL A   1      43.187  23.831  24.557  1.00  0.00    -0.206 F 
ATOM     70  C   UNL A   1      42.451  20.899  26.536  1.00  0.00     0.060 A 
BRANCH  70  71
ATOM     71  S   UNL A   1      41.922  19.188  26.310  1.00  0.00     0.124 S 
ATOM     72  O   UNL A   1      42.865  18.726  25.297  1.00  0.00    -0.237 OA
ATOM     73  O   UNL A   1      42.100  18.625  27.645  1.00  0.00    -0.237 OA
ATOM     74  O   UNL A   1      40.537  19.317  25.868  1.00  0.00    -0.744 OA
ENDBRANCH  70  71
ENDBRANCH  49  63
BRANCH  50  75
ATOM     75  C   UNL A   1      46.770  32.729  28.615  1.00  0.00     0.058 A 
ATOM     76  C   UNL A   1      47.152  33.065  29.921  1.00  0.00     0.135 A 
ATOM     77  C   UNL A   1      46.929  33.701  27.615  1.00  0.00     0.135 A 
ATOM     78  F   UNL A   1      47.002  32.175  30.913  1.00  0.00    -0.206 F 
ATOM     79  C   UNL A   1      47.683  34.314  30.225  1.00  0.00     0.059 A 
ATOM     80  C   UNL A   1      47.476  34.950  27.891  1.00  0.00     0.059 A 
ATOM     81  F   UNL A   1      46.582  33.426  26.348  1.00  0.00    -0.206 F 
ATOM     82  C   UNL A   1      47.851  35.247  29.200  1.00  0.00     0.060 A 
BRANCH  82  83
ATOM     83  S   UNL A   1      48.633  36.829  29.587  1.00  0.00     0.124 S 
ATOM     84  O   UNL A   1      47.493  37.619  30.039  1.00  0.00    -0.237 OA
ATOM     85  O   UNL A   1      49.596  36.448  30.618  1.00  0.00    -0.237 OA
ATOM     86  O   UNL A   1      49.219  37.234  28.313  1.00  0.00    -0.744 OA
ENDBRANCH  82  83
ENDBRANCH  50  75
BRANCH  62  87
ATOM     87  C   UNL A   1      49.789  26.798  26.443  1.00  0.00     0.058 A 
ATOM     88  C   UNL A   1      50.714  26.308  27.378  1.00  0.00     0.135 A 
ATOM     89  C   UNL A   1      50.181  26.843  25.095  1.00  0.00     0.135 A 
ATOM     90  F   UNL A   1      50.393  26.249  28.679  1.00  0.00    -0.206 F 
ATOM     91  C   UNL A   1      51.979  25.876  26.988  1.00  0.00     0.059 A 
ATOM     92  C   UNL A   1      51.432  26.395  24.680  1.00  0.00     0.059 A 
ATOM     93  F   UNL A   1      49.330  27.294  24.160  1.00  0.00    -0.206 F 
ATOM     94  C   UNL A   1      52.325  25.915  25.636  1.00  0.00     0.060 A 
BRANCH  94  95
ATOM     95  S   UNL A   1      53.942  25.283  25.134  1.00  0.00     0.124 S 
ATOM     96  O   UNL A   1      54.289  26.193  24.046  1.00  0.00    -0.237 OA
ATOM     97  O   UNL A   1      54.728  25.426  26.356  1.00  0.00    -0.237 OA
ATOM     98  O   UNL A   1      53.661  23.907  24.735  1.00  0.00    -0.744 OA
ENDBRANCH  94  95
ENDBRANCH  62  87
ENDBRANCH  36  37
ENDBRANCH  29  31
ENDBRANCH  28  29
ENDBRANCH  27  28
ENDBRANCH   1  27
TORSDOF 18
ENDMDL
MODEL 3
REMARK VINA RESULT:     -11.8      1.383      2.094
REMARK SMILES O=C(CSc1ccc(NC(=O)c2cccc3ccccc23)cc1)OCCOC(=O)c1ccc(-c2c3nc(c(-c4c(F)cc(S(=O)(=O)[O-])cc4F)c4ccc([nH]4)c(-c4c(F)cc(S(=O)(=O)[O-])cc4F)c4nc(c(-c5c(F)cc(S(=O)(=O)[O-])cc5F)c5ccc2[nH]5)C=C4)C=C3)cc1
REMARK SMILES IDX 25 1 24 2 2 3 1 4 3 5 4 6 5 7 6 8 23 9 7 10 22 11 8 12 9 13
REMARK SMILES IDX 10 14 11 16 12 17 13 18 21 19 14 20 16 21 20 22 15 23 17 24
REMARK SMILES IDX 19 25 18 26 26 27 27 28 28 29 29 30 30 31 31 32 95 33 32 34
REMARK SMILES IDX 94 35 33 36 34 37 35 38 88 39 36 40 93 41 87 42 89 43 37 44
REMARK SMILES IDX 92 45 86 46 85 47 38 49 72 50 51 51 71 52 52 53 55 54 70 55
REMARK SMILES IDX 90 56 53 57 54 58 69 60 91 61 56 62 39 63 40 64 49 65 41 66
REMARK SMILES IDX 42 67 48 68 50 69 43 70 44 71 45 72 46 73 47 74 73 75 74 76
REMARK SMILES IDX 83 77 75 78 76 79 82 80 84 81 77 82 78 83 79 84 80 85 81 86
REMARK SMILES IDX 57 87 58 88 67 89 59 90 60 91 66 92 68 93 61 94 62 95 63 96
REMARK SMILES IDX 64 97 65 98
REMARK H PARENT 9 15 89 48 55 59
REMARK Flexibility Score: inf
ROOT
ATOM      1  C   UNL A   1      38.082  23.511  25.959  1.00  0.00     0.274 C 
ENDROOT
BRANCH   1   2
ATOM      2  O   UNL A   1      36.810  22.839  25.861  1.00  0.00    -0.461 OA
BRANCH   2   3
ATOM      3  C   UNL A   1      36.244  22.460  24.688  1.00  0.00     0.316 C 
ATOM      4  O   UNL A   1      36.946  22.316  23.689  1.00  0.00    -0.251 OA
BRANCH   3   5
ATOM      5  C   UNL A   1      34.757  22.169  24.653  1.00  0.00     0.197 C 
BRANCH   5   6
ATOM      6  S   UNL A   1      33.977  22.405  26.258  1.00  0.00    -0.114 SA
BRANCH   6   7
ATOM      7  C   UNL A   1      32.442  23.073  25.675  1.00  0.00     0.008 A 
ATOM      8  C   UNL A   1      31.596  23.704  26.586  1.00  0.00     0.017 A 
ATOM      9  C   UNL A   1      32.098  23.012  24.325  1.00  0.00     0.017 A 
ATOM     10  C   UNL A   1      30.496  24.416  26.126  1.00  0.00     0.027 A 
ATOM     11  C   UNL A   1      31.003  23.737  23.864  1.00  0.00     0.027 A 
ATOM     12  C   UNL A   1      30.300  24.552  24.755  1.00  0.00     0.041 A 
BRANCH  12  13
ATOM     13  N   UNL A   1      29.568  25.603  24.194  1.00  0.00    -0.322 N 
ATOM     14  C   UNL A   1      29.984  26.850  23.773  1.00  0.00     0.256 C 
ATOM     15  H   UNL A   1      28.606  25.426  24.080  1.00  0.00     0.170 HD
ATOM     16  O   UNL A   1      29.151  27.614  23.283  1.00  0.00    -0.269 OA
BRANCH  14  17
ATOM     17  C   UNL A   1      31.386  27.344  23.885  1.00  0.00     0.048 A 
ATOM     18  C   UNL A   1      32.086  27.307  22.666  1.00  0.00     0.014 A 
ATOM     19  C   UNL A   1      32.033  27.785  25.082  1.00  0.00    -0.006 A 
ATOM     20  C   UNL A   1      33.412  27.712  22.598  1.00  0.00     0.001 A 
ATOM     21  C   UNL A   1      33.381  28.228  24.977  1.00  0.00    -0.018 A 
ATOM     22  C   UNL A   1      31.447  27.844  26.373  1.00  0.00     0.009 A 
ATOM     23  C   UNL A   1      34.050  28.170  23.746  1.00  0.00     0.009 A 
ATOM     24  C   UNL A   1      34.056  28.738  26.099  1.00  0.00     0.009 A 
ATOM     25  C   UNL A   1      32.116  28.404  27.469  1.00  0.00     0.001 A 
ATOM     26  C   UNL A   1      33.422  28.851  27.332  1.00  0.00     0.001 A 
ENDBRANCH  14  17
ENDBRANCH  12  13
ENDBRANCH   6   7
ENDBRANCH   5   6
ENDBRANCH   3   5
ENDBRANCH   2   3
ENDBRANCH   1   2
BRANCH   1  27
ATOM     27  C   UNL A   1      39.181  22.540  26.400  1.00  0.00     0.275 C 
BRANCH  27  28
ATOM     28  O   UNL A   1      39.953  23.123  27.466  1.00  0.00    -0.458 OA
BRANCH  28  29
ATOM     29  C   UNL A   1      40.940  23.988  27.104  1.00  0.00     0.338 C 
ATOM     30  O   UNL A   1      41.656  23.900  26.128  1.00  0.00    -0.246 OA
BRANCH  29  31
ATOM     31  C   UNL A   1      40.834  25.195  27.967  1.00  0.00     0.060 A 
ATOM     32  C   UNL A   1      41.893  26.115  27.973  1.00  0.00     0.016 A 
ATOM     33  C   UNL A   1      39.667  25.471  28.688  1.00  0.00     0.016 A 
ATOM     34  C   UNL A   1      41.794  27.300  28.712  1.00  0.00     0.010 A 
ATOM     35  C   UNL A   1      39.573  26.650  29.430  1.00  0.00     0.010 A 
ATOM     36  C   UNL A   1      40.644  27.560  29.466  1.00  0.00    -0.014 A 
BRANCH  36  37
ATOM     37  C   UNL A   1      40.603  28.662  30.460  1.00  0.00     0.031 A 
ATOM     38  C   UNL A   1      41.512  28.564  31.653  1.00  0.00     0.074 A 
ATOM     39  C   UNL A   1      39.731  29.681  30.362  1.00  0.00     0.049 A 
ATOM     40  N   UNL A   1      41.560  29.307  32.726  1.00  0.00    -0.248 NA
ATOM     41  C   UNL A   1      42.486  27.460  31.634  1.00  0.00     0.031 C 
ATOM     42  C   UNL A   1      38.806  29.902  29.254  1.00  0.00     0.029 A 
ATOM     43  N   UNL A   1      39.463  30.705  31.238  1.00  0.00    -0.354 N 
ATOM     44  C   UNL A   1      42.556  28.753  33.520  1.00  0.00     0.074 A 
ATOM     45  C   UNL A   1      43.068  27.598  32.815  1.00  0.00     0.031 C 
ATOM     46  C   UNL A   1      38.046  30.978  29.533  1.00  0.00     0.029 A 
ATOM     47  C   UNL A   1      38.410  31.499  30.852  1.00  0.00     0.049 A 
ATOM     48  H   UNL A   1      39.976  30.856  32.065  1.00  0.00     0.167 HD
ATOM     49  C   UNL A   1      43.005  29.165  34.729  1.00  0.00     0.037 A 
ATOM     50  C   UNL A   1      37.791  32.508  31.500  1.00  0.00     0.037 A 
ATOM     51  C   UNL A   1      42.487  30.303  35.439  1.00  0.00     0.049 A 
ATOM     52  C   UNL A   1      38.271  32.928  32.867  1.00  0.00     0.074 A 
ATOM     53  C   UNL A   1      42.896  30.814  36.657  1.00  0.00     0.029 A 
ATOM     54  N   UNL A   1      41.435  31.094  35.004  1.00  0.00    -0.354 N 
ATOM     55  N   UNL A   1      39.243  32.424  33.591  1.00  0.00    -0.248 NA
ATOM     56  C   UNL A   1      37.572  34.054  33.506  1.00  0.00     0.031 C 
ATOM     57  C   UNL A   1      42.058  31.887  36.982  1.00  0.00     0.029 A 
ATOM     58  C   UNL A   1      41.163  32.076  35.941  1.00  0.00     0.049 A 
ATOM     59  H   UNL A   1      40.952  30.975  34.153  1.00  0.00     0.167 HD
ATOM     60  C   UNL A   1      39.292  33.190  34.753  1.00  0.00     0.074 A 
ATOM     61  C   UNL A   1      38.250  34.189  34.639  1.00  0.00     0.031 C 
ATOM     62  C   UNL A   1      40.131  33.077  35.813  1.00  0.00     0.037 A 
BRANCH  49  63
ATOM     63  C   UNL A   1      44.084  28.339  35.368  1.00  0.00     0.058 A 
ATOM     64  C   UNL A   1      43.787  27.289  36.251  1.00  0.00     0.135 A 
ATOM     65  C   UNL A   1      45.435  28.629  35.122  1.00  0.00     0.135 A 
ATOM     66  F   UNL A   1      42.511  26.985  36.535  1.00  0.00    -0.206 F 
ATOM     67  C   UNL A   1      44.792  26.589  36.909  1.00  0.00     0.059 A 
ATOM     68  C   UNL A   1      46.458  27.923  35.747  1.00  0.00     0.059 A 
ATOM     69  F   UNL A   1      45.774  29.625  34.287  1.00  0.00    -0.206 F 
ATOM     70  C   UNL A   1      46.124  26.922  36.659  1.00  0.00     0.060 A 
BRANCH  70  71
ATOM     71  S   UNL A   1      47.420  26.046  37.560  1.00  0.00     0.124 S 
ATOM     72  O   UNL A   1      48.294  27.148  37.950  1.00  0.00    -0.237 OA
ATOM     73  O   UNL A   1      46.676  25.413  38.644  1.00  0.00    -0.237 OA
ATOM     74  O   UNL A   1      47.967  25.132  36.563  1.00  0.00    -0.744 OA
ENDBRANCH  70  71
ENDBRANCH  49  63
BRANCH  50  75
ATOM     75  C   UNL A   1      36.632  33.185  30.861  1.00  0.00     0.058 A 
ATOM     76  C   UNL A   1      35.325  32.972  31.321  1.00  0.00     0.135 A 
ATOM     77  C   UNL A   1      36.816  34.089  29.803  1.00  0.00     0.135 A 
ATOM     78  F   UNL A   1      35.098  32.105  32.318  1.00  0.00    -0.206 F 
ATOM     79  C   UNL A   1      34.239  33.639  30.762  1.00  0.00     0.059 A 
ATOM     80  C   UNL A   1      35.748  34.783  29.241  1.00  0.00     0.059 A 
ATOM     81  F   UNL A   1      38.048  34.330  29.330  1.00  0.00    -0.206 F 
ATOM     82  C   UNL A   1      34.463  34.551  29.728  1.00  0.00     0.060 A 
BRANCH  82  83
ATOM     83  S   UNL A   1      33.060  35.484  29.078  1.00  0.00     0.124 S 
ATOM     84  O   UNL A   1      32.446  34.510  28.183  1.00  0.00    -0.237 OA
ATOM     85  O   UNL A   1      32.312  35.797  30.293  1.00  0.00    -0.237 OA
ATOM     86  O   UNL A   1      33.691  36.629  28.429  1.00  0.00    -0.744 OA
ENDBRANCH  82  83
ENDBRANCH  50  75
BRANCH  62  87
ATOM     87  C   UNL A   1      40.006  34.079  36.930  1.00  0.00     0.058 A 
ATOM     88  C   UNL A   1      40.650  35.324  36.883  1.00  0.00     0.135 A 
ATOM     89  C   UNL A   1      39.144  33.826  38.010  1.00  0.00     0.135 A 
ATOM     90  F   UNL A   1      41.488  35.615  35.876  1.00  0.00    -0.206 F 
ATOM     91  C   UNL A   1      40.445  36.285  37.870  1.00  0.00     0.059 A 
ATOM     92  C   UNL A   1      38.906  34.780  38.995  1.00  0.00     0.059 A 
ATOM     93  F   UNL A   1      38.496  32.654  38.097  1.00  0.00    -0.206 F 
ATOM     94  C   UNL A   1      39.564  36.006  38.918  1.00  0.00     0.060 A 
BRANCH  94  95
ATOM     95  S   UNL A   1      39.249  37.288  40.152  1.00  0.00     0.124 S 
ATOM     96  O   UNL A   1      40.605  37.685  40.517  1.00  0.00    -0.237 OA
ATOM     97  O   UNL A   1      38.482  38.272  39.394  1.00  0.00    -0.237 OA
ATOM     98  O   UNL A   1      38.500  36.585  41.189  1.00  0.00    -0.744 OA
ENDBRANCH  94  95
ENDBRANCH  62  87
ENDBRANCH  36  37
ENDBRANCH  29  31
ENDBRANCH  28  29
ENDBRANCH  27  28
ENDBRANCH   1  27
TORSDOF 18
ENDMDL
