MODEL 1
REMARK VINA RESULT:      -9.4      0.000      0.000
REMARK SMILES O=C(OCCOC(=O)C1(CCc2ccccn2)CCCCC1)c1ccc(-c2c3nc(c(-c4c(F)cc(S(=O)(=O)[O-])cc4F)c4ccc([nH]4)c(-c4c(F)cc(S(=O)(=O)[O-])cc4F)c4nc(c(-c5c(F)cc(S(=O)(=O)[O-])cc5F)c5ccc2[nH]5)C=C4)C=C3)cc1
REMARK SMILES IDX 4 1 3 2 2 3 1 4 23 5 24 6 88 7 25 8 87 9 26 10 27 11 28 12
REMARK SMILES IDX 81 13 29 14 86 15 80 16 82 17 30 18 85 19 79 20 78 21 31 23
REMARK SMILES IDX 65 24 44 25 64 26 45 27 48 28 63 29 83 30 46 31 47 32 62 34
REMARK SMILES IDX 84 35 49 36 32 37 33 38 42 39 34 40 35 41 41 42 43 43 36 44
REMARK SMILES IDX 37 45 38 46 39 47 40 48 66 49 67 50 76 51 68 52 69 53 75 54
REMARK SMILES IDX 77 55 70 56 71 57 72 58 73 59 74 60 50 61 51 62 60 63 52 64
REMARK SMILES IDX 53 65 59 66 61 67 54 68 55 69 56 70 57 71 58 72 5 73 6 74
REMARK SMILES IDX 7 75 8 76 9 77 18 78 22 79 19 80 21 81 20 82 10 83 11 84
REMARK SMILES IDX 12 85 13 86 17 87 14 88 16 89 15 90
REMARK H PARENT 82 22 48 33
REMARK Flexibility Score: inf
ROOT
ATOM      1  C   UNL A   1      35.068  33.092  28.275  1.00  0.00     0.275 C 
ENDROOT
BRANCH   1   2
ATOM      2  O   UNL A   1      34.534  32.045  27.448  1.00  0.00    -0.458 OA
BRANCH   2   3
ATOM      3  C   UNL A   1      34.759  30.710  27.500  1.00  0.00     0.338 C 
ATOM      4  O   UNL A   1      33.858  29.920  27.224  1.00  0.00    -0.246 OA
BRANCH   3   5
ATOM      5  C   UNL A   1      36.048  30.162  27.999  1.00  0.00     0.060 A 
ATOM      6  C   UNL A   1      37.224  30.100  27.250  1.00  0.00     0.016 A 
ATOM      7  C   UNL A   1      36.060  29.656  29.305  1.00  0.00     0.016 A 
ATOM      8  C   UNL A   1      38.427  29.705  27.836  1.00  0.00     0.010 A 
ATOM      9  C   UNL A   1      37.263  29.252  29.894  1.00  0.00     0.010 A 
ATOM     10  C   UNL A   1      38.467  29.312  29.173  1.00  0.00    -0.014 A 
BRANCH  10  11
ATOM     11  C   UNL A   1      39.743  28.835  29.758  1.00  0.00     0.031 A 
ATOM     12  C   UNL A   1      40.279  29.568  30.951  1.00  0.00     0.074 A 
ATOM     13  C   UNL A   1      40.384  27.750  29.270  1.00  0.00     0.049 A 
ATOM     14  N   UNL A   1      41.323  29.293  31.683  1.00  0.00    -0.248 NA
ATOM     15  C   UNL A   1      39.531  30.761  31.390  1.00  0.00     0.031 C 
ATOM     16  C   UNL A   1      39.945  26.946  28.128  1.00  0.00     0.029 A 
ATOM     17  N   UNL A   1      41.554  27.142  29.653  1.00  0.00    -0.354 N 
ATOM     18  C   UNL A   1      41.301  30.228  32.708  1.00  0.00     0.074 A 
ATOM     19  C   UNL A   1      40.255  31.177  32.414  1.00  0.00     0.031 C 
ATOM     20  C   UNL A   1      40.871  26.011  27.849  1.00  0.00     0.029 A 
ATOM     21  C   UNL A   1      41.945  26.109  28.828  1.00  0.00     0.049 A 
ATOM     22  H   UNL A   1      42.068  27.420  30.446  1.00  0.00     0.167 HD
ATOM     23  C   UNL A   1      42.012  30.229  33.857  1.00  0.00     0.037 A 
ATOM     24  C   UNL A   1      43.038  25.321  28.880  1.00  0.00     0.037 A 
ATOM     25  C   UNL A   1      43.048  29.282  34.143  1.00  0.00     0.049 A 
ATOM     26  C   UNL A   1      43.930  25.441  30.089  1.00  0.00     0.074 A 
ATOM     27  C   UNL A   1      43.843  29.184  35.267  1.00  0.00     0.029 A 
ATOM     28  N   UNL A   1      43.434  28.266  33.279  1.00  0.00    -0.354 N 
ATOM     29  N   UNL A   1      43.831  26.271  31.104  1.00  0.00    -0.248 NA
ATOM     30  C   UNL A   1      45.036  24.480  30.204  1.00  0.00     0.031 C 
ATOM     31  C   UNL A   1      44.736  28.125  35.068  1.00  0.00     0.029 A 
ATOM     32  C   UNL A   1      44.468  27.540  33.838  1.00  0.00     0.049 A 
ATOM     33  H   UNL A   1      43.030  28.088  32.399  1.00  0.00     0.167 HD
ATOM     34  C   UNL A   1      44.816  25.889  32.006  1.00  0.00     0.074 A 
ATOM     35  C   UNL A   1      45.506  24.759  31.411  1.00  0.00     0.031 C 
ATOM     36  C   UNL A   1      45.115  26.408  33.223  1.00  0.00     0.037 A 
BRANCH  23  37
ATOM     37  C   UNL A   1      41.614  31.251  34.879  1.00  0.00     0.058 A 
ATOM     38  C   UNL A   1      40.543  31.003  35.757  1.00  0.00     0.135 A 
ATOM     39  C   UNL A   1      42.240  32.502  34.941  1.00  0.00     0.135 A 
ATOM     40  F   UNL A   1      39.886  29.832  35.710  1.00  0.00    -0.206 F 
ATOM     41  C   UNL A   1      40.081  31.976  36.634  1.00  0.00     0.059 A 
ATOM     42  C   UNL A   1      41.811  33.483  35.831  1.00  0.00     0.059 A 
ATOM     43  F   UNL A   1      43.254  32.793  34.112  1.00  0.00    -0.206 F 
ATOM     44  C   UNL A   1      40.719  33.216  36.660  1.00  0.00     0.060 A 
BRANCH  44  45
ATOM     45  S   UNL A   1      40.094  34.474  37.792  1.00  0.00     0.124 S 
ATOM     46  O   UNL A   1      39.721  35.540  36.866  1.00  0.00    -0.237 OA
ATOM     47  O   UNL A   1      38.986  33.784  38.443  1.00  0.00    -0.237 OA
ATOM     48  O   UNL A   1      41.241  34.759  38.648  1.00  0.00    -0.744 OA
ENDBRANCH  44  45
ENDBRANCH  23  37
BRANCH  24  49
ATOM     49  C   UNL A   1      43.334  24.327  27.807  1.00  0.00     0.058 A 
ATOM     50  C   UNL A   1      42.820  23.021  27.845  1.00  0.00     0.135 A 
ATOM     51  C   UNL A   1      44.202  24.646  26.749  1.00  0.00     0.135 A 
ATOM     52  F   UNL A   1      41.986  22.660  28.832  1.00  0.00    -0.206 F 
ATOM     53  C   UNL A   1      43.190  22.057  26.908  1.00  0.00     0.059 A 
ATOM     54  C   UNL A   1      44.571  23.706  25.787  1.00  0.00     0.059 A 
ATOM     55  F   UNL A   1      44.711  25.884  26.648  1.00  0.00    -0.206 F 
ATOM     56  C   UNL A   1      44.075  22.407  25.888  1.00  0.00     0.060 A 
BRANCH  56  57
ATOM     57  S   UNL A   1      44.561  21.142  24.690  1.00  0.00     0.124 S 
ATOM     58  O   UNL A   1      43.520  20.139  24.882  1.00  0.00    -0.237 OA
ATOM     59  O   UNL A   1      44.512  21.880  23.432  1.00  0.00    -0.237 OA
ATOM     60  O   UNL A   1      45.898  20.756  25.130  1.00  0.00    -0.744 OA
ENDBRANCH  56  57
ENDBRANCH  24  49
BRANCH  36  61
ATOM     61  C   UNL A   1      46.193  25.725  34.011  1.00  0.00     0.058 A 
ATOM     62  C   UNL A   1      47.531  26.139  33.940  1.00  0.00     0.135 A 
ATOM     63  C   UNL A   1      45.869  24.681  34.891  1.00  0.00     0.135 A 
ATOM     64  F   UNL A   1      47.890  27.129  33.107  1.00  0.00    -0.206 F 
ATOM     65  C   UNL A   1      48.518  25.522  34.697  1.00  0.00     0.059 A 
ATOM     66  C   UNL A   1      46.834  24.072  35.683  1.00  0.00     0.059 A 
ATOM     67  F   UNL A   1      44.600  24.258  35.003  1.00  0.00    -0.206 F 
ATOM     68  C   UNL A   1      48.159  24.491  35.568  1.00  0.00     0.060 A 
BRANCH  68  69
ATOM     69  S   UNL A   1      49.443  23.725  36.576  1.00  0.00     0.124 S 
ATOM     70  O   UNL A   1      48.885  22.396  36.801  1.00  0.00    -0.237 OA
ATOM     71  O   UNL A   1      50.608  23.784  35.698  1.00  0.00    -0.237 OA
ATOM     72  O   UNL A   1      49.510  24.587  37.753  1.00  0.00    -0.744 OA
ENDBRANCH  68  69
ENDBRANCH  36  61
ENDBRANCH  10  11
ENDBRANCH   3   5
ENDBRANCH   2   3
ENDBRANCH   1   2
BRANCH   1  73
ATOM     73  C   UNL A   1      34.286  33.540  29.522  1.00  0.00     0.274 C 
BRANCH  73  74
ATOM     74  O   UNL A   1      34.406  32.823  30.761  1.00  0.00    -0.462 OA
BRANCH  74  75
ATOM     75  C   UNL A   1      34.405  33.607  31.874  1.00  0.00     0.312 C 
ATOM     76  O   UNL A   1      33.399  34.193  32.261  1.00  0.00    -0.252 OA
BRANCH  75  77
ATOM     77  C   UNL A   1      35.729  33.593  32.678  1.00  0.00     0.068 C 
ATOM     78  C   UNL A   1      35.290  34.138  34.051  1.00  0.00     0.019 C 
ATOM     79  C   UNL A   1      36.343  32.192  32.908  1.00  0.00     0.019 C 
ATOM     80  C   UNL A   1      36.343  34.163  35.143  1.00  0.00     0.001 C 
ATOM     81  C   UNL A   1      37.401  32.156  34.027  1.00  0.00     0.001 C 
ATOM     82  C   UNL A   1      36.929  32.777  35.341  1.00  0.00     0.000 C 
BRANCH  77  83
ATOM     83  C   UNL A   1      36.751  34.583  32.042  1.00  0.00     0.025 C 
BRANCH  83  84
ATOM     84  C   UNL A   1      37.647  34.068  30.897  1.00  0.00     0.057 C 
BRANCH  84  85
ATOM     85  C   UNL A   1      39.125  34.281  31.088  1.00  0.00     0.040 A 
ATOM     86  C   UNL A   1      39.654  34.581  32.337  1.00  0.00     0.024 A 
ATOM     87  N   UNL A   1      39.906  34.176  29.991  1.00  0.00    -0.261 NA
ATOM     88  C   UNL A   1      41.038  34.681  32.474  1.00  0.00     0.003 A 
ATOM     89  C   UNL A   1      41.244  34.217  30.155  1.00  0.00     0.111 A 
ATOM     90  C   UNL A   1      41.853  34.464  31.370  1.00  0.00     0.020 A 
ENDBRANCH  84  85
ENDBRANCH  83  84
ENDBRANCH  77  83
ENDBRANCH  75  77
ENDBRANCH  74  75
ENDBRANCH  73  74
ENDBRANCH   1  73
TORSDOF 17
ENDMDL
MODEL 2
REMARK VINA RESULT:      -9.4      6.102     12.603
REMARK SMILES O=C(OCCOC(=O)C1(CCc2ccccn2)CCCCC1)c1ccc(-c2c3nc(c(-c4c(F)cc(S(=O)(=O)[O-])cc4F)c4ccc([nH]4)c(-c4c(F)cc(S(=O)(=O)[O-])cc4F)c4nc(c(-c5c(F)cc(S(=O)(=O)[O-])cc5F)c5ccc2[nH]5)C=C4)C=C3)cc1
REMARK SMILES IDX 4 1 3 2 2 3 1 4 23 5 24 6 88 7 25 8 87 9 26 10 27 11 28 12
REMARK SMILES IDX 81 13 29 14 86 15 80 16 82 17 30 18 85 19 79 20 78 21 31 23
REMARK SMILES IDX 65 24 44 25 64 26 45 27 48 28 63 29 83 30 46 31 47 32 62 34
REMARK SMILES IDX 84 35 49 36 32 37 33 38 42 39 34 40 35 41 41 42 43 43 36 44
REMARK SMILES IDX 37 45 38 46 39 47 40 48 66 49 67 50 76 51 68 52 69 53 75 54
REMARK SMILES IDX 77 55 70 56 71 57 72 58 73 59 74 60 50 61 51 62 60 63 52 64
REMARK SMILES IDX 53 65 59 66 61 67 54 68 55 69 56 70 57 71 58 72 5 73 6 74
REMARK SMILES IDX 7 75 8 76 9 77 18 78 22 79 19 80 21 81 20 82 10 83 11 84
REMARK SMILES IDX 12 85 13 86 17 87 14 88 16 89 15 90
REMARK H PARENT 82 22 48 33
REMARK Flexibility Score: inf
ROOT
ATOM      1  C   UNL A   1      37.468  21.926  24.647  1.00  0.00     0.275 C 
ENDROOT
BRANCH   1   2
ATOM      2  O   UNL A   1      37.879  22.688  25.793  1.00  0.00    -0.458 OA
BRANCH   2   3
ATOM      3  C   UNL A   1      39.084  22.728  26.412  1.00  0.00     0.338 C 
ATOM      4  O   UNL A   1      39.660  21.685  26.712  1.00  0.00    -0.246 OA
BRANCH   3   5
ATOM      5  C   UNL A   1      39.684  24.017  26.850  1.00  0.00     0.060 A 
ATOM      6  C   UNL A   1      40.103  25.029  25.985  1.00  0.00     0.016 A 
ATOM      7  C   UNL A   1      39.858  24.200  28.228  1.00  0.00     0.016 A 
ATOM      8  C   UNL A   1      40.523  26.264  26.478  1.00  0.00     0.010 A 
ATOM      9  C   UNL A   1      40.287  25.436  28.726  1.00  0.00     0.010 A 
ATOM     10  C   UNL A   1      40.584  26.493  27.852  1.00  0.00    -0.014 A 
BRANCH  10  11
ATOM     11  C   UNL A   1      41.096  27.792  28.355  1.00  0.00     0.031 A 
ATOM     12  C   UNL A   1      42.582  27.990  28.381  1.00  0.00     0.074 A 
ATOM     13  C   UNL A   1      40.260  28.783  28.733  1.00  0.00     0.049 A 
ATOM     14  N   UNL A   1      43.262  29.057  28.696  1.00  0.00    -0.248 NA
ATOM     15  C   UNL A   1      43.415  26.839  27.984  1.00  0.00     0.031 C 
ATOM     16  C   UNL A   1      38.799  28.711  28.729  1.00  0.00     0.029 A 
ATOM     17  N   UNL A   1      40.513  30.043  29.218  1.00  0.00    -0.354 N 
ATOM     18  C   UNL A   1      44.588  28.726  28.454  1.00  0.00     0.074 A 
ATOM     19  C   UNL A   1      44.636  27.319  28.136  1.00  0.00     0.031 C 
ATOM     20  C   UNL A   1      38.288  29.833  29.268  1.00  0.00     0.029 A 
ATOM     21  C   UNL A   1      39.383  30.733  29.602  1.00  0.00     0.049 A 
ATOM     22  H   UNL A   1      41.421  30.420  29.284  1.00  0.00     0.167 HD
ATOM     23  C   UNL A   1      45.658  29.546  28.385  1.00  0.00     0.037 A 
ATOM     24  C   UNL A   1      39.256  31.961  30.143  1.00  0.00     0.037 A 
ATOM     25  C   UNL A   1      45.602  30.942  28.701  1.00  0.00     0.049 A 
ATOM     26  C   UNL A   1      40.491  32.822  30.222  1.00  0.00     0.074 A 
ATOM     27  C   UNL A   1      46.618  31.876  28.675  1.00  0.00     0.029 A 
ATOM     28  N   UNL A   1      44.451  31.603  29.108  1.00  0.00    -0.354 N 
ATOM     29  N   UNL A   1      41.726  32.518  29.889  1.00  0.00    -0.248 NA
ATOM     30  C   UNL A   1      40.315  34.207  30.678  1.00  0.00     0.031 C 
ATOM     31  C   UNL A   1      46.087  33.098  29.102  1.00  0.00     0.029 A 
ATOM     32  C   UNL A   1      44.732  32.933  29.353  1.00  0.00     0.049 A 
ATOM     33  H   UNL A   1      43.564  31.185  29.208  1.00  0.00     0.167 HD
ATOM     34  C   UNL A   1      42.458  33.691  30.031  1.00  0.00     0.074 A 
ATOM     35  C   UNL A   1      41.528  34.706  30.489  1.00  0.00     0.031 C 
ATOM     36  C   UNL A   1      43.773  33.918  29.787  1.00  0.00     0.037 A 
BRANCH  23  37
ATOM     37  C   UNL A   1      46.930  28.931  27.885  1.00  0.00     0.058 A 
ATOM     38  C   UNL A   1      47.207  28.886  26.505  1.00  0.00     0.135 A 
ATOM     39  C   UNL A   1      47.839  28.322  28.759  1.00  0.00     0.135 A 
ATOM     40  F   UNL A   1      46.348  29.422  25.624  1.00  0.00    -0.206 F 
ATOM     41  C   UNL A   1      48.321  28.221  26.009  1.00  0.00     0.059 A 
ATOM     42  C   UNL A   1      48.977  27.674  28.286  1.00  0.00     0.059 A 
ATOM     43  F   UNL A   1      47.610  28.324  30.081  1.00  0.00    -0.206 F 
ATOM     44  C   UNL A   1      49.198  27.613  26.908  1.00  0.00     0.060 A 
BRANCH  44  45
ATOM     45  S   UNL A   1      50.631  26.739  26.245  1.00  0.00     0.124 S 
ATOM     46  O   UNL A   1      51.086  25.996  27.416  1.00  0.00    -0.237 OA
ATOM     47  O   UNL A   1      50.040  25.939  25.177  1.00  0.00    -0.237 OA
ATOM     48  O   UNL A   1      51.510  27.817  25.804  1.00  0.00    -0.744 OA
ENDBRANCH  44  45
ENDBRANCH  23  37
BRANCH  24  49
ATOM     49  C   UNL A   1      37.933  32.479  30.602  1.00  0.00     0.058 A 
ATOM     50  C   UNL A   1      37.086  33.204  29.749  1.00  0.00     0.135 A 
ATOM     51  C   UNL A   1      37.519  32.315  31.935  1.00  0.00     0.135 A 
ATOM     52  F   UNL A   1      37.430  33.391  28.466  1.00  0.00    -0.206 F 
ATOM     53  C   UNL A   1      35.906  33.788  30.208  1.00  0.00     0.059 A 
ATOM     54  C   UNL A   1      36.333  32.872  32.413  1.00  0.00     0.059 A 
ATOM     55  F   UNL A   1      38.278  31.615  32.793  1.00  0.00    -0.206 F 
ATOM     56  C   UNL A   1      35.543  33.626  31.546  1.00  0.00     0.060 A 
BRANCH  56  57
ATOM     57  S   UNL A   1      34.020  34.404  32.131  1.00  0.00     0.124 S 
ATOM     58  O   UNL A   1      34.533  35.598  32.791  1.00  0.00    -0.237 OA
ATOM     59  O   UNL A   1      33.293  34.625  30.885  1.00  0.00    -0.237 OA
ATOM     60  O   UNL A   1      33.443  33.394  33.013  1.00  0.00    -0.744 OA
ENDBRANCH  56  57
ENDBRANCH  24  49
BRANCH  36  61
ATOM     61  C   UNL A   1      44.267  35.324  29.958  1.00  0.00     0.058 A 
ATOM     62  C   UNL A   1      44.824  35.767  31.166  1.00  0.00     0.135 A 
ATOM     63  C   UNL A   1      44.232  36.219  28.877  1.00  0.00     0.135 A 
ATOM     64  F   UNL A   1      44.873  34.949  32.230  1.00  0.00    -0.206 F 
ATOM     65  C   UNL A   1      45.308  37.061  31.305  1.00  0.00     0.059 A 
ATOM     66  C   UNL A   1      44.741  37.507  28.983  1.00  0.00     0.059 A 
ATOM     67  F   UNL A   1      43.719  35.836  27.697  1.00  0.00    -0.206 F 
ATOM     68  C   UNL A   1      45.265  37.923  30.207  1.00  0.00     0.060 A 
BRANCH  68  69
ATOM     69  S   UNL A   1      45.933  39.588  30.388  1.00  0.00     0.124 S 
ATOM     70  O   UNL A   1      44.997  40.177  31.339  1.00  0.00    -0.237 OA
ATOM     71  O   UNL A   1      47.278  39.333  30.896  1.00  0.00    -0.237 OA
ATOM     72  O   UNL A   1      45.875  40.126  29.032  1.00  0.00    -0.744 OA
ENDBRANCH  68  69
ENDBRANCH  36  61
ENDBRANCH  10  11
ENDBRANCH   3   5
ENDBRANCH   2   3
ENDBRANCH   1   2
BRANCH   1  73
ATOM     73  C   UNL A   1      36.607  22.599  23.564  1.00  0.00     0.274 C 
BRANCH  73  74
ATOM     74  O   UNL A   1      35.529  23.477  23.922  1.00  0.00    -0.462 OA
BRANCH  74  75
ATOM     75  C   UNL A   1      34.303  23.082  23.483  1.00  0.00     0.312 C 
ATOM     76  O   UNL A   1      34.006  23.073  22.292  1.00  0.00    -0.252 OA
BRANCH  75  77
ATOM     77  C   UNL A   1      33.368  22.523  24.584  1.00  0.00     0.068 C 
ATOM     78  C   UNL A   1      33.888  23.228  25.851  1.00  0.00     0.019 C 
ATOM     79  C   UNL A   1      31.873  22.891  24.427  1.00  0.00     0.019 C 
ATOM     80  C   UNL A   1      33.115  22.982  27.134  1.00  0.00     0.001 C 
ATOM     81  C   UNL A   1      31.047  22.686  25.710  1.00  0.00     0.001 C 
ATOM     82  C   UNL A   1      31.654  23.348  26.946  1.00  0.00     0.000 C 
BRANCH  77  83
ATOM     83  C   UNL A   1      33.579  20.986  24.735  1.00  0.00     0.025 C 
BRANCH  83  84
ATOM     84  C   UNL A   1      32.552  20.042  24.076  1.00  0.00     0.057 C 
BRANCH  84  85
ATOM     85  C   UNL A   1      32.792  18.573  24.297  1.00  0.00     0.040 A 
ATOM     86  C   UNL A   1      33.555  17.825  23.409  1.00  0.00     0.024 A 
ATOM     87  N   UNL A   1      32.226  18.017  25.390  1.00  0.00    -0.261 NA
ATOM     88  C   UNL A   1      33.820  16.490  23.708  1.00  0.00     0.003 A 
ATOM     89  C   UNL A   1      32.542  16.742  25.694  1.00  0.00     0.111 A 
ATOM     90  C   UNL A   1      33.331  15.943  24.889  1.00  0.00     0.020 A 
ENDBRANCH  84  85
ENDBRANCH  83  84
ENDBRANCH  77  83
ENDBRANCH  75  77
ENDBRANCH  74  75
ENDBRANCH  73  74
ENDBRANCH   1  73
TORSDOF 17
ENDMDL
MODEL 3
REMARK VINA RESULT:      -9.2      1.363      2.638
REMARK SMILES O=C(OCCOC(=O)C1(CCc2ccccn2)CCCCC1)c1ccc(-c2c3nc(c(-c4c(F)cc(S(=O)(=O)[O-])cc4F)c4ccc([nH]4)c(-c4c(F)cc(S(=O)(=O)[O-])cc4F)c4nc(c(-c5c(F)cc(S(=O)(=O)[O-])cc5F)c5ccc2[nH]5)C=C4)C=C3)cc1
REMARK SMILES IDX 4 1 3 2 2 3 1 4 23 5 24 6 88 7 25 8 87 9 26 10 27 11 28 12
REMARK SMILES IDX 81 13 29 14 86 15 80 16 82 17 30 18 85 19 79 20 78 21 31 23
REMARK SMILES IDX 65 24 44 25 64 26 45 27 48 28 63 29 83 30 46 31 47 32 62 34
REMARK SMILES IDX 84 35 49 36 32 37 33 38 42 39 34 40 35 41 41 42 43 43 36 44
REMARK SMILES IDX 37 45 38 46 39 47 40 48 66 49 67 50 76 51 68 52 69 53 75 54
REMARK SMILES IDX 77 55 70 56 71 57 72 58 73 59 74 60 50 61 51 62 60 63 52 64
REMARK SMILES IDX 53 65 59 66 61 67 54 68 55 69 56 70 57 71 58 72 5 73 6 74
REMARK SMILES IDX 7 75 8 76 9 77 18 78 22 79 19 80 21 81 20 82 10 83 11 84
REMARK SMILES IDX 12 85 13 86 17 87 14 88 16 89 15 90
REMARK H PARENT 82 22 48 33
REMARK Flexibility Score: inf
ROOT
ATOM      1  C   UNL A   1      35.147  33.052  28.062  1.00  0.00     0.275 C 
ENDROOT
BRANCH   1   2
ATOM      2  O   UNL A   1      34.595  31.889  27.424  1.00  0.00    -0.458 OA
BRANCH   2   3
ATOM      3  C   UNL A   1      34.807  30.578  27.694  1.00  0.00     0.338 C 
ATOM      4  O   UNL A   1      33.867  29.786  27.691  1.00  0.00    -0.246 OA
BRANCH   3   5
ATOM      5  C   UNL A   1      36.145  30.082  28.112  1.00  0.00     0.060 A 
ATOM      6  C   UNL A   1      37.301  30.174  27.335  1.00  0.00     0.016 A 
ATOM      7  C   UNL A   1      36.230  29.461  29.364  1.00  0.00     0.016 A 
ATOM      8  C   UNL A   1      38.545  29.816  27.855  1.00  0.00     0.010 A 
ATOM      9  C   UNL A   1      37.475  29.093  29.887  1.00  0.00     0.010 A 
ATOM     10  C   UNL A   1      38.650  29.307  29.148  1.00  0.00    -0.014 A 
BRANCH  10  11
ATOM     11  C   UNL A   1      39.973  28.871  29.658  1.00  0.00     0.031 A 
ATOM     12  C   UNL A   1      40.553  29.625  30.817  1.00  0.00     0.074 A 
ATOM     13  C   UNL A   1      40.618  27.807  29.134  1.00  0.00     0.049 A 
ATOM     14  N   UNL A   1      41.647  29.386  31.487  1.00  0.00    -0.248 NA
ATOM     15  C   UNL A   1      39.795  30.795  31.298  1.00  0.00     0.031 C 
ATOM     16  C   UNL A   1      40.139  26.986  28.021  1.00  0.00     0.029 A 
ATOM     17  N   UNL A   1      41.827  27.238  29.449  1.00  0.00    -0.354 N 
ATOM     18  C   UNL A   1      41.655  30.322  32.511  1.00  0.00     0.074 A 
ATOM     19  C   UNL A   1      40.564  31.236  32.277  1.00  0.00     0.031 C 
ATOM     20  C   UNL A   1      41.077  26.080  27.689  1.00  0.00     0.029 A 
ATOM     21  C   UNL A   1      42.203  26.214  28.604  1.00  0.00     0.049 A 
ATOM     22  H   UNL A   1      42.378  27.534  30.210  1.00  0.00     0.167 HD
ATOM     23  C   UNL A   1      42.431  30.349  33.616  1.00  0.00     0.037 A 
ATOM     24  C   UNL A   1      43.322  25.462  28.592  1.00  0.00     0.037 A 
ATOM     25  C   UNL A   1      43.512  29.437  33.842  1.00  0.00     0.049 A 
ATOM     26  C   UNL A   1      44.279  25.613  29.747  1.00  0.00     0.074 A 
ATOM     27  C   UNL A   1      44.374  29.367  34.918  1.00  0.00     0.029 A 
ATOM     28  N   UNL A   1      43.879  28.430  32.958  1.00  0.00    -0.354 N 
ATOM     29  N   UNL A   1      44.212  26.443  30.765  1.00  0.00    -0.248 NA
ATOM     30  C   UNL A   1      45.419  24.689  29.798  1.00  0.00     0.031 C 
ATOM     31  C   UNL A   1      45.287  28.336  34.668  1.00  0.00     0.029 A 
ATOM     32  C   UNL A   1      44.967  27.740  33.457  1.00  0.00     0.049 A 
ATOM     33  H   UNL A   1      43.431  28.237  32.103  1.00  0.00     0.167 HD
ATOM     34  C   UNL A   1      45.260  26.095  31.608  1.00  0.00     0.074 A 
ATOM     35  C   UNL A   1      45.949  24.986  30.976  1.00  0.00     0.031 C 
ATOM     36  C   UNL A   1      45.612  26.627  32.806  1.00  0.00     0.037 A 
BRANCH  23  37
ATOM     37  C   UNL A   1      42.061  31.361  34.658  1.00  0.00     0.058 A 
ATOM     38  C   UNL A   1      42.557  32.676  34.584  1.00  0.00     0.135 A 
ATOM     39  C   UNL A   1      41.280  31.014  35.767  1.00  0.00     0.135 A 
ATOM     40  F   UNL A   1      43.342  33.047  33.559  1.00  0.00    -0.206 F 
ATOM     41  C   UNL A   1      42.324  33.599  35.594  1.00  0.00     0.059 A 
ATOM     42  C   UNL A   1      41.010  31.931  36.779  1.00  0.00     0.059 A 
ATOM     43  F   UNL A   1      40.800  29.768  35.892  1.00  0.00    -0.206 F 
ATOM     44  C   UNL A   1      41.553  33.215  36.692  1.00  0.00     0.060 A 
BRANCH  44  45
ATOM     45  S   UNL A   1      41.275  34.422  38.004  1.00  0.00     0.124 S 
ATOM     46  O   UNL A   1      41.903  33.762  39.145  1.00  0.00    -0.237 OA
ATOM     47  O   UNL A   1      41.967  35.601  37.495  1.00  0.00    -0.237 OA
ATOM     48  O   UNL A   1      39.821  34.529  38.064  1.00  0.00    -0.744 OA
ENDBRANCH  44  45
ENDBRANCH  23  37
BRANCH  24  49
ATOM     49  C   UNL A   1      43.586  24.475  27.505  1.00  0.00     0.058 A 
ATOM     50  C   UNL A   1      43.222  23.124  27.627  1.00  0.00     0.135 A 
ATOM     51  C   UNL A   1      44.277  24.853  26.341  1.00  0.00     0.135 A 
ATOM     52  F   UNL A   1      42.561  22.706  28.716  1.00  0.00    -0.206 F 
ATOM     53  C   UNL A   1      43.573  22.178  26.664  1.00  0.00     0.059 A 
ATOM     54  C   UNL A   1      44.621  23.930  25.354  1.00  0.00     0.059 A 
ATOM     55  F   UNL A   1      44.635  26.134  26.159  1.00  0.00    -0.206 F 
ATOM     56  C   UNL A   1      44.283  22.590  25.535  1.00  0.00     0.060 A 
BRANCH  56  57
ATOM     57  S   UNL A   1      44.747  21.350  24.304  1.00  0.00     0.124 S 
ATOM     58  O   UNL A   1      43.877  20.236  24.663  1.00  0.00    -0.237 OA
ATOM     59  O   UNL A   1      44.430  22.030  23.052  1.00  0.00    -0.237 OA
ATOM     60  O   UNL A   1      46.170  21.144  24.553  1.00  0.00    -0.744 OA
ENDBRANCH  56  57
ENDBRANCH  24  49
BRANCH  36  61
ATOM     61  C   UNL A   1      46.756  25.981  33.530  1.00  0.00     0.058 A 
ATOM     62  C   UNL A   1      46.561  24.903  34.404  1.00  0.00     0.135 A 
ATOM     63  C   UNL A   1      48.071  26.414  33.296  1.00  0.00     0.135 A 
ATOM     64  F   UNL A   1      45.320  24.459  34.664  1.00  0.00    -0.206 F 
ATOM     65  C   UNL A   1      47.630  24.290  35.045  1.00  0.00     0.059 A 
ATOM     66  C   UNL A   1      49.159  25.795  33.900  1.00  0.00     0.059 A 
ATOM     67  F   UNL A   1      48.310  27.435  32.458  1.00  0.00    -0.206 F 
ATOM     68  C   UNL A   1      48.925  24.742  34.784  1.00  0.00     0.060 A 
BRANCH  68  69
ATOM     69  S   UNL A   1      50.308  23.912  35.591  1.00  0.00     0.124 S 
ATOM     70  O   UNL A   1      49.656  22.733  36.150  1.00  0.00    -0.237 OA
ATOM     71  O   UNL A   1      51.219  23.666  34.477  1.00  0.00    -0.237 OA
ATOM     72  O   UNL A   1      50.772  24.896  36.565  1.00  0.00    -0.744 OA
ENDBRANCH  68  69
ENDBRANCH  36  61
ENDBRANCH  10  11
ENDBRANCH   3   5
ENDBRANCH   2   3
ENDBRANCH   1   2
BRANCH   1  73
ATOM     73  C   UNL A   1      34.859  33.303  29.552  1.00  0.00     0.274 C 
BRANCH  73  74
ATOM     74  O   UNL A   1      35.928  33.354  30.509  1.00  0.00    -0.462 OA
BRANCH  74  75
ATOM     75  C   UNL A   1      35.755  32.558  31.599  1.00  0.00     0.312 C 
ATOM     76  O   UNL A   1      35.311  31.417  31.512  1.00  0.00    -0.252 OA
BRANCH  75  77
ATOM     77  C   UNL A   1      36.283  33.153  32.928  1.00  0.00     0.068 C 
ATOM     78  C   UNL A   1      37.113  31.991  33.506  1.00  0.00     0.019 C 
ATOM     79  C   UNL A   1      37.227  34.369  32.775  1.00  0.00     0.019 C 
ATOM     80  C   UNL A   1      37.876  32.270  34.788  1.00  0.00     0.001 C 
ATOM     81  C   UNL A   1      38.047  34.679  34.042  1.00  0.00     0.001 C 
ATOM     82  C   UNL A   1      38.789  33.469  34.607  1.00  0.00     0.000 C 
BRANCH  77  83
ATOM     83  C   UNL A   1      35.093  33.453  33.889  1.00  0.00     0.025 C 
BRANCH  83  84
ATOM     84  C   UNL A   1      33.712  33.746  33.267  1.00  0.00     0.057 C 
BRANCH  84  85
ATOM     85  C   UNL A   1      33.541  35.128  32.696  1.00  0.00     0.040 A 
ATOM     86  C   UNL A   1      34.106  36.238  33.312  1.00  0.00     0.024 A 
ATOM     87  N   UNL A   1      32.810  35.238  31.565  1.00  0.00    -0.261 NA
ATOM     88  C   UNL A   1      33.992  37.481  32.693  1.00  0.00     0.003 A 
ATOM     89  C   UNL A   1      32.762  36.438  30.951  1.00  0.00     0.111 A 
ATOM     90  C   UNL A   1      33.335  37.582  31.472  1.00  0.00     0.020 A 
ENDBRANCH  84  85
ENDBRANCH  83  84
ENDBRANCH  77  83
ENDBRANCH  75  77
ENDBRANCH  74  75
ENDBRANCH  73  74
ENDBRANCH   1  73
TORSDOF 17
ENDMDL
