MODEL 1
REMARK VINA RESULT:     -10.1      0.000      0.000
REMARK SMILES O=C(OCCOC(=O)[C@H]1CS[C@H](c2cc(F)ccc2F)[NH2+]1)c1ccc(-c2c3nc(c(-c4c(F)cc(S(=O)(=O)[O-])cc4F)c4ccc([nH]4)c(-c4c(F)cc(S(=O)(=O)[O-])cc4F)c4nc(c(-c5c(F)cc(S(=O)(=O)[O-])cc5F)c5ccc2[nH]5)C=C4)C=C3)cc1
REMARK SMILES IDX 4 1 3 2 2 3 1 4 22 5 23 6 87 7 24 8 86 9 25 10 26 11 27 12
REMARK SMILES IDX 80 13 28 14 85 15 79 16 81 17 29 18 84 19 78 20 77 21 30 23
REMARK SMILES IDX 64 24 43 25 63 26 44 27 47 28 62 29 82 30 45 31 46 32 61 34
REMARK SMILES IDX 83 35 48 36 31 37 32 38 41 39 33 40 34 41 40 42 42 43 35 44
REMARK SMILES IDX 36 45 37 46 38 47 39 48 65 49 66 50 75 51 67 52 68 53 74 54
REMARK SMILES IDX 76 55 69 56 70 57 71 58 72 59 73 60 49 61 50 62 59 63 51 64
REMARK SMILES IDX 52 65 58 66 60 67 53 68 54 69 55 70 56 71 57 72 5 73 6 74
REMARK SMILES IDX 7 75 8 76 9 77 10 78 21 79 11 80 12 81 13 84 14 85 19 86
REMARK SMILES IDX 15 87 18 88 20 89 16 90 17 91
REMARK H PARENT 81 22 47 33 21 82 21 83
REMARK Flexibility Score: inf
ROOT
ATOM      1  C   UNL A   1      40.570  20.115  26.191  1.00  0.00     0.275 C 
ENDROOT
BRANCH   1   2
ATOM      2  O   UNL A   1      40.843  21.530  26.224  1.00  0.00    -0.458 OA
BRANCH   2   3
ATOM      3  C   UNL A   1      40.036  22.574  26.535  1.00  0.00     0.338 C 
ATOM      4  O   UNL A   1      38.820  22.413  26.437  1.00  0.00    -0.246 OA
BRANCH   3   5
ATOM      5  C   UNL A   1      40.523  23.954  26.877  1.00  0.00     0.060 A 
ATOM      6  C   UNL A   1      40.540  25.061  26.023  1.00  0.00     0.016 A 
ATOM      7  C   UNL A   1      40.992  24.143  28.193  1.00  0.00     0.016 A 
ATOM      8  C   UNL A   1      40.919  26.329  26.479  1.00  0.00     0.010 A 
ATOM      9  C   UNL A   1      41.390  25.406  28.650  1.00  0.00     0.010 A 
ATOM     10  C   UNL A   1      41.334  26.514  27.796  1.00  0.00    -0.014 A 
BRANCH  10  11
ATOM     11  C   UNL A   1      41.820  27.839  28.245  1.00  0.00     0.031 A 
ATOM     12  C   UNL A   1      43.297  28.063  28.309  1.00  0.00     0.074 A 
ATOM     13  C   UNL A   1      40.962  28.828  28.564  1.00  0.00     0.049 A 
ATOM     14  N   UNL A   1      43.943  29.146  28.638  1.00  0.00    -0.248 NA
ATOM     15  C   UNL A   1      44.159  26.942  27.896  1.00  0.00     0.031 C 
ATOM     16  C   UNL A   1      39.515  28.771  28.401  1.00  0.00     0.029 A 
ATOM     17  N   UNL A   1      41.169  30.066  29.118  1.00  0.00    -0.354 N 
ATOM     18  C   UNL A   1      45.281  28.861  28.417  1.00  0.00     0.074 A 
ATOM     19  C   UNL A   1      45.365  27.481  27.996  1.00  0.00     0.031 C 
ATOM     20  C   UNL A   1      38.947  29.847  28.969  1.00  0.00     0.029 A 
ATOM     21  C   UNL A   1      40.003  30.707  29.482  1.00  0.00     0.049 A 
ATOM     22  H   UNL A   1      42.062  30.459  29.243  1.00  0.00     0.167 HD
ATOM     23  C   UNL A   1      46.334  29.699  28.519  1.00  0.00     0.037 A 
ATOM     24  C   UNL A   1      39.811  31.862  30.145  1.00  0.00     0.037 A 
ATOM     25  C   UNL A   1      46.225  31.059  28.973  1.00  0.00     0.049 A 
ATOM     26  C   UNL A   1      41.022  32.709  30.423  1.00  0.00     0.074 A 
ATOM     27  C   UNL A   1      47.224  32.003  29.111  1.00  0.00     0.029 A 
ATOM     28  N   UNL A   1      45.043  31.657  29.389  1.00  0.00    -0.354 N 
ATOM     29  N   UNL A   1      42.277  32.458  30.130  1.00  0.00    -0.248 NA
ATOM     30  C   UNL A   1      40.796  34.014  31.053  1.00  0.00     0.031 C 
ATOM     31  C   UNL A   1      46.658  33.150  29.674  1.00  0.00     0.029 A 
ATOM     32  C   UNL A   1      45.296  32.945  29.830  1.00  0.00     0.049 A 
ATOM     33  H   UNL A   1      44.156  31.230  29.373  1.00  0.00     0.167 HD
ATOM     34  C   UNL A   1      42.983  33.600  30.480  1.00  0.00     0.074 A 
ATOM     35  C   UNL A   1      42.014  34.538  31.014  1.00  0.00     0.031 C 
ATOM     36  C   UNL A   1      44.308  33.858  30.351  1.00  0.00     0.037 A 
BRANCH  23  37
ATOM     37  C   UNL A   1      47.681  29.161  28.145  1.00  0.00     0.058 A 
ATOM     38  C   UNL A   1      48.573  28.674  29.115  1.00  0.00     0.135 A 
ATOM     39  C   UNL A   1      48.079  29.110  26.802  1.00  0.00     0.135 A 
ATOM     40  F   UNL A   1      48.255  28.731  30.419  1.00  0.00    -0.206 F 
ATOM     41  C   UNL A   1      49.815  28.157  28.765  1.00  0.00     0.059 A 
ATOM     42  C   UNL A   1      49.307  28.577  26.426  1.00  0.00     0.059 A 
ATOM     43  F   UNL A   1      47.270  29.583  25.840  1.00  0.00    -0.206 F 
ATOM     44  C   UNL A   1      50.170  28.106  27.415  1.00  0.00     0.060 A 
BRANCH  44  45
ATOM     45  S   UNL A   1      51.770  27.399  26.974  1.00  0.00     0.124 S 
ATOM     46  O   UNL A   1      52.105  26.654  28.185  1.00  0.00    -0.237 OA
ATOM     47  O   UNL A   1      51.439  26.591  25.805  1.00  0.00    -0.237 OA
ATOM     48  O   UNL A   1      52.599  28.571  26.709  1.00  0.00    -0.744 OA
ENDBRANCH  44  45
ENDBRANCH  23  37
BRANCH  24  49
ATOM     49  C   UNL A   1      38.448  32.296  30.558  1.00  0.00     0.058 A 
ATOM     50  C   UNL A   1      37.654  33.111  29.737  1.00  0.00     0.135 A 
ATOM     51  C   UNL A   1      37.926  31.937  31.813  1.00  0.00     0.135 A 
ATOM     52  F   UNL A   1      38.100  33.479  28.527  1.00  0.00    -0.206 F 
ATOM     53  C   UNL A   1      36.419  33.595  30.161  1.00  0.00     0.059 A 
ATOM     54  C   UNL A   1      36.683  32.390  32.250  1.00  0.00     0.059 A 
ATOM     55  F   UNL A   1      38.633  31.144  32.633  1.00  0.00    -0.206 F 
ATOM     56  C   UNL A   1      35.946  33.236  31.425  1.00  0.00     0.060 A 
BRANCH  56  57
ATOM     57  S   UNL A   1      34.354  33.895  31.971  1.00  0.00     0.124 S 
ATOM     58  O   UNL A   1      33.757  32.729  32.613  1.00  0.00    -0.237 OA
ATOM     59  O   UNL A   1      34.759  34.976  32.864  1.00  0.00    -0.237 OA
ATOM     60  O   UNL A   1      33.720  34.322  30.727  1.00  0.00    -0.744 OA
ENDBRANCH  56  57
ENDBRANCH  24  49
BRANCH  36  61
ATOM     61  C   UNL A   1      44.779  35.221  30.764  1.00  0.00     0.058 A 
ATOM     62  C   UNL A   1      45.257  35.473  32.058  1.00  0.00     0.135 A 
ATOM     63  C   UNL A   1      44.807  36.271  29.831  1.00  0.00     0.135 A 
ATOM     64  F   UNL A   1      45.240  34.504  32.986  1.00  0.00    -0.206 F 
ATOM     65  C   UNL A   1      45.727  36.728  32.421  1.00  0.00     0.059 A 
ATOM     66  C   UNL A   1      45.305  37.523  30.163  1.00  0.00     0.059 A 
ATOM     67  F   UNL A   1      44.368  36.076  28.577  1.00  0.00    -0.206 F 
ATOM     68  C   UNL A   1      45.753  37.745  31.464  1.00  0.00     0.060 A 
BRANCH  68  69
ATOM     69  S   UNL A   1      46.414  39.355  31.938  1.00  0.00     0.124 S 
ATOM     70  O   UNL A   1      45.538  39.718  33.046  1.00  0.00    -0.237 OA
ATOM     71  O   UNL A   1      47.792  39.032  32.297  1.00  0.00    -0.237 OA
ATOM     72  O   UNL A   1      46.260  40.154  30.726  1.00  0.00    -0.744 OA
ENDBRANCH  68  69
ENDBRANCH  36  61
ENDBRANCH  10  11
ENDBRANCH   3   5
ENDBRANCH   2   3
ENDBRANCH   1   2
BRANCH   1  73
ATOM     73  C   UNL A   1      41.822  19.237  26.189  1.00  0.00     0.274 C 
BRANCH  73  74
ATOM     74  O   UNL A   1      42.678  19.572  25.090  1.00  0.00    -0.458 OA
BRANCH  74  75
ATOM     75  C   UNL A   1      44.020  19.378  25.245  1.00  0.00     0.365 C 
ATOM     76  O   UNL A   1      44.578  18.286  25.193  1.00  0.00    -0.245 OA
BRANCH  75  77
ATOM     77  C   UNL A   1      44.730  20.730  25.423  1.00  0.00     0.304 C 
ATOM     78  C   UNL A   1      44.808  21.474  24.096  1.00  0.00     0.153 C 
ATOM     79  N   UNL A   1      44.065  21.569  26.469  1.00  0.00    -0.319 N 
ATOM     80  S   UNL A   1      43.828  22.960  24.312  1.00  0.00    -0.087 SA
ATOM     81  C   UNL A   1      44.180  22.980  26.083  1.00  0.00     0.277 C 
ATOM     82  H   UNL A   1      44.522  21.422  27.369  1.00  0.00     0.348 HD
ATOM     83  H   UNL A   1      43.082  21.309  26.550  1.00  0.00     0.348 HD
BRANCH  81  84
ATOM     84  C   UNL A   1      45.487  23.686  26.417  1.00  0.00     0.059 A 
ATOM     85  C   UNL A   1      46.216  24.293  25.369  1.00  0.00     0.053 A 
ATOM     86  C   UNL A   1      46.005  23.834  27.713  1.00  0.00     0.133 A 
ATOM     87  C   UNL A   1      47.390  25.001  25.624  1.00  0.00     0.123 A 
ATOM     88  C   UNL A   1      47.188  24.536  27.962  1.00  0.00     0.043 A 
ATOM     89  F   UNL A   1      45.386  23.310  28.778  1.00  0.00    -0.206 F 
ATOM     90  F   UNL A   1      48.044  25.586  24.612  1.00  0.00    -0.207 F 
ATOM     91  C   UNL A   1      47.883  25.129  26.914  1.00  0.00     0.042 A 
ENDBRANCH  81  84
ENDBRANCH  75  77
ENDBRANCH  74  75
ENDBRANCH  73  74
ENDBRANCH   1  73
TORSDOF 15
ENDMDL
MODEL 2
REMARK VINA RESULT:     -10.1      2.981     11.821
REMARK SMILES O=C(OCCOC(=O)[C@H]1CS[C@H](c2cc(F)ccc2F)[NH2+]1)c1ccc(-c2c3nc(c(-c4c(F)cc(S(=O)(=O)[O-])cc4F)c4ccc([nH]4)c(-c4c(F)cc(S(=O)(=O)[O-])cc4F)c4nc(c(-c5c(F)cc(S(=O)(=O)[O-])cc5F)c5ccc2[nH]5)C=C4)C=C3)cc1
REMARK SMILES IDX 4 1 3 2 2 3 1 4 22 5 23 6 87 7 24 8 86 9 25 10 26 11 27 12
REMARK SMILES IDX 80 13 28 14 85 15 79 16 81 17 29 18 84 19 78 20 77 21 30 23
REMARK SMILES IDX 64 24 43 25 63 26 44 27 47 28 62 29 82 30 45 31 46 32 61 34
REMARK SMILES IDX 83 35 48 36 31 37 32 38 41 39 33 40 34 41 40 42 42 43 35 44
REMARK SMILES IDX 36 45 37 46 38 47 39 48 65 49 66 50 75 51 67 52 68 53 74 54
REMARK SMILES IDX 76 55 69 56 70 57 71 58 72 59 73 60 49 61 50 62 59 63 51 64
REMARK SMILES IDX 52 65 58 66 60 67 53 68 54 69 55 70 56 71 57 72 5 73 6 74
REMARK SMILES IDX 7 75 8 76 9 77 10 78 21 79 11 80 12 81 13 84 14 85 19 86
REMARK SMILES IDX 15 87 18 88 20 89 16 90 17 91
REMARK H PARENT 81 22 47 33 21 82 21 83
REMARK Flexibility Score: inf
ROOT
ATOM      1  C   UNL A   1      34.441  33.072  28.064  1.00  0.00     0.275 C 
ENDROOT
BRANCH   1   2
ATOM      2  O   UNL A   1      33.822  31.772  27.986  1.00  0.00    -0.458 OA
BRANCH   2   3
ATOM      3  C   UNL A   1      34.373  30.543  27.833  1.00  0.00     0.338 C 
ATOM      4  O   UNL A   1      33.666  29.647  27.372  1.00  0.00    -0.246 OA
BRANCH   3   5
ATOM      5  C   UNL A   1      35.752  30.163  28.296  1.00  0.00     0.060 A 
ATOM      6  C   UNL A   1      36.106  29.748  29.583  1.00  0.00     0.016 A 
ATOM      7  C   UNL A   1      36.775  30.222  27.328  1.00  0.00     0.016 A 
ATOM      8  C   UNL A   1      37.405  29.317  29.879  1.00  0.00     0.010 A 
ATOM      9  C   UNL A   1      38.081  29.810  27.623  1.00  0.00     0.010 A 
ATOM     10  C   UNL A   1      38.397  29.333  28.901  1.00  0.00    -0.014 A 
BRANCH  10  11
ATOM     11  C   UNL A   1      39.789  28.963  29.246  1.00  0.00     0.031 A 
ATOM     12  C   UNL A   1      40.670  30.013  29.844  1.00  0.00     0.074 A 
ATOM     13  C   UNL A   1      40.249  27.711  29.054  1.00  0.00     0.049 A 
ATOM     14  N   UNL A   1      41.903  29.906  30.251  1.00  0.00    -0.248 NA
ATOM     15  C   UNL A   1      40.069  31.340  30.062  1.00  0.00     0.031 C 
ATOM     16  C   UNL A   1      39.443  26.576  28.618  1.00  0.00     0.029 A 
ATOM     17  N   UNL A   1      41.507  27.177  29.171  1.00  0.00    -0.354 N 
ATOM     18  C   UNL A   1      42.210  31.129  30.827  1.00  0.00     0.074 A 
ATOM     19  C   UNL A   1      41.062  31.989  30.653  1.00  0.00     0.031 C 
ATOM     20  C   UNL A   1      40.235  25.523  28.365  1.00  0.00     0.029 A 
ATOM     21  C   UNL A   1      41.606  25.890  28.684  1.00  0.00     0.049 A 
ATOM     22  H   UNL A   1      42.266  27.665  29.564  1.00  0.00     0.167 HD
ATOM     23  C   UNL A   1      43.339  31.477  31.480  1.00  0.00     0.037 A 
ATOM     24  C   UNL A   1      42.681  25.096  28.525  1.00  0.00     0.037 A 
ATOM     25  C   UNL A   1      44.480  30.611  31.609  1.00  0.00     0.049 A 
ATOM     26  C   UNL A   1      43.986  25.578  29.095  1.00  0.00     0.074 A 
ATOM     27  C   UNL A   1      45.677  30.856  32.253  1.00  0.00     0.029 A 
ATOM     28  N   UNL A   1      44.570  29.341  31.056  1.00  0.00    -0.354 N 
ATOM     29  N   UNL A   1      44.238  26.708  29.714  1.00  0.00    -0.248 NA
ATOM     30  C   UNL A   1      45.131  24.665  29.011  1.00  0.00     0.031 C 
ATOM     31  C   UNL A   1      46.517  29.760  32.033  1.00  0.00     0.029 A 
ATOM     32  C   UNL A   1      45.822  28.806  31.304  1.00  0.00     0.049 A 
ATOM     33  H   UNL A   1      43.850  28.886  30.561  1.00  0.00     0.167 HD
ATOM     34  C   UNL A   1      45.552  26.616  30.151  1.00  0.00     0.074 A 
ATOM     35  C   UNL A   1      46.042  25.322  29.717  1.00  0.00     0.031 C 
ATOM     36  C   UNL A   1      46.279  27.511  30.864  1.00  0.00     0.037 A 
BRANCH  23  37
ATOM     37  C   UNL A   1      43.391  32.847  32.084  1.00  0.00     0.058 A 
ATOM     38  C   UNL A   1      43.993  33.924  31.414  1.00  0.00     0.135 A 
ATOM     39  C   UNL A   1      42.813  33.092  33.338  1.00  0.00     0.135 A 
ATOM     40  F   UNL A   1      44.590  33.734  30.225  1.00  0.00    -0.206 F 
ATOM     41  C   UNL A   1      44.023  35.198  31.968  1.00  0.00     0.059 A 
ATOM     42  C   UNL A   1      42.812  34.364  33.902  1.00  0.00     0.059 A 
ATOM     43  F   UNL A   1      42.245  32.090  34.027  1.00  0.00    -0.206 F 
ATOM     44  C   UNL A   1      43.422  35.409  33.211  1.00  0.00     0.060 A 
BRANCH  44  45
ATOM     45  S   UNL A   1      43.438  37.077  33.900  1.00  0.00     0.124 S 
ATOM     46  O   UNL A   1      43.465  37.893  32.689  1.00  0.00    -0.237 OA
ATOM     47  O   UNL A   1      42.191  37.109  34.658  1.00  0.00    -0.237 OA
ATOM     48  O   UNL A   1      44.658  37.103  34.701  1.00  0.00    -0.744 OA
ENDBRANCH  44  45
ENDBRANCH  23  37
BRANCH  24  49
ATOM     49  C   UNL A   1      42.571  23.779  27.839  1.00  0.00     0.058 A 
ATOM     50  C   UNL A   1      42.406  22.586  28.559  1.00  0.00     0.135 A 
ATOM     51  C   UNL A   1      42.675  23.683  26.441  1.00  0.00     0.135 A 
ATOM     52  F   UNL A   1      42.295  22.619  29.895  1.00  0.00    -0.206 F 
ATOM     53  C   UNL A   1      42.397  21.345  27.926  1.00  0.00     0.059 A 
ATOM     54  C   UNL A   1      42.647  22.455  25.783  1.00  0.00     0.059 A 
ATOM     55  F   UNL A   1      42.815  24.793  25.700  1.00  0.00    -0.206 F 
ATOM     56  C   UNL A   1      42.529  21.289  26.537  1.00  0.00     0.060 A 
BRANCH  56  57
ATOM     57  S   UNL A   1      42.544  19.670  25.735  1.00  0.00     0.124 S 
ATOM     58  O   UNL A   1      43.010  18.810  26.817  1.00  0.00    -0.237 OA
ATOM     59  O   UNL A   1      41.146  19.507  25.348  1.00  0.00    -0.237 OA
ATOM     60  O   UNL A   1      43.477  19.850  24.627  1.00  0.00    -0.744 OA
ENDBRANCH  56  57
ENDBRANCH  24  49
BRANCH  36  61
ATOM     61  C   UNL A   1      47.671  27.103  31.249  1.00  0.00     0.058 A 
ATOM     62  C   UNL A   1      48.772  27.377  30.425  1.00  0.00     0.135 A 
ATOM     63  C   UNL A   1      47.909  26.485  32.487  1.00  0.00     0.135 A 
ATOM     64  F   UNL A   1      48.593  27.957  29.227  1.00  0.00    -0.206 F 
ATOM     65  C   UNL A   1      50.061  27.031  30.805  1.00  0.00     0.059 A 
ATOM     66  C   UNL A   1      49.193  26.162  32.903  1.00  0.00     0.059 A 
ATOM     67  F   UNL A   1      46.887  26.210  33.315  1.00  0.00    -0.206 F 
ATOM     68  C   UNL A   1      50.262  26.430  32.049  1.00  0.00     0.060 A 
BRANCH  68  69
ATOM     69  S   UNL A   1      51.949  26.033  32.550  1.00  0.00     0.124 S 
ATOM     70  O   UNL A   1      52.422  25.262  31.406  1.00  0.00    -0.237 OA
ATOM     71  O   UNL A   1      52.544  27.356  32.715  1.00  0.00    -0.237 OA
ATOM     72  O   UNL A   1      51.766  25.276  33.786  1.00  0.00    -0.744 OA
ENDBRANCH  68  69
ENDBRANCH  36  61
ENDBRANCH  10  11
ENDBRANCH   3   5
ENDBRANCH   2   3
ENDBRANCH   1   2
BRANCH   1  73
ATOM     73  C   UNL A   1      33.449  34.230  28.182  1.00  0.00     0.274 C 
BRANCH  73  74
ATOM     74  O   UNL A   1      32.828  34.239  29.472  1.00  0.00    -0.458 OA
BRANCH  74  75
ATOM     75  C   UNL A   1      33.150  35.252  30.327  1.00  0.00     0.365 C 
ATOM     76  O   UNL A   1      32.561  36.327  30.389  1.00  0.00    -0.245 OA
BRANCH  75  77
ATOM     77  C   UNL A   1      34.309  34.821  31.241  1.00  0.00     0.304 C 
ATOM     78  C   UNL A   1      34.692  35.950  32.190  1.00  0.00     0.153 C 
ATOM     79  N   UNL A   1      33.981  33.573  31.997  1.00  0.00    -0.319 N 
ATOM     80  S   UNL A   1      34.334  35.342  33.838  1.00  0.00    -0.087 SA
ATOM     81  C   UNL A   1      34.624  33.638  33.314  1.00  0.00     0.277 C 
ATOM     82  H   UNL A   1      34.327  32.760  31.487  1.00  0.00     0.348 HD
ATOM     83  H   UNL A   1      32.971  33.489  32.107  1.00  0.00     0.348 HD
BRANCH  81  84
ATOM     84  C   UNL A   1      36.091  33.240  33.390  1.00  0.00     0.059 A 
ATOM     85  C   UNL A   1      37.017  34.162  33.930  1.00  0.00     0.053 A 
ATOM     86  C   UNL A   1      36.598  31.987  33.013  1.00  0.00     0.133 A 
ATOM     87  C   UNL A   1      38.364  33.830  34.075  1.00  0.00     0.123 A 
ATOM     88  C   UNL A   1      37.951  31.662  33.150  1.00  0.00     0.043 A 
ATOM     89  F   UNL A   1      35.805  31.036  32.503  1.00  0.00    -0.206 F 
ATOM     90  F   UNL A   1      39.210  34.717  34.614  1.00  0.00    -0.207 F 
ATOM     91  C   UNL A   1      38.840  32.585  33.690  1.00  0.00     0.042 A 
ENDBRANCH  81  84
ENDBRANCH  75  77
ENDBRANCH  74  75
ENDBRANCH  73  74
ENDBRANCH   1  73
TORSDOF 15
ENDMDL
MODEL 3
REMARK VINA RESULT:     -10.0      2.796     12.017
REMARK SMILES O=C(OCCOC(=O)[C@H]1CS[C@H](c2cc(F)ccc2F)[NH2+]1)c1ccc(-c2c3nc(c(-c4c(F)cc(S(=O)(=O)[O-])cc4F)c4ccc([nH]4)c(-c4c(F)cc(S(=O)(=O)[O-])cc4F)c4nc(c(-c5c(F)cc(S(=O)(=O)[O-])cc5F)c5ccc2[nH]5)C=C4)C=C3)cc1
REMARK SMILES IDX 4 1 3 2 2 3 1 4 22 5 23 6 87 7 24 8 86 9 25 10 26 11 27 12
REMARK SMILES IDX 80 13 28 14 85 15 79 16 81 17 29 18 84 19 78 20 77 21 30 23
REMARK SMILES IDX 64 24 43 25 63 26 44 27 47 28 62 29 82 30 45 31 46 32 61 34
REMARK SMILES IDX 83 35 48 36 31 37 32 38 41 39 33 40 34 41 40 42 42 43 35 44
REMARK SMILES IDX 36 45 37 46 38 47 39 48 65 49 66 50 75 51 67 52 68 53 74 54
REMARK SMILES IDX 76 55 69 56 70 57 71 58 72 59 73 60 49 61 50 62 59 63 51 64
REMARK SMILES IDX 52 65 58 66 60 67 53 68 54 69 55 70 56 71 57 72 5 73 6 74
REMARK SMILES IDX 7 75 8 76 9 77 10 78 21 79 11 80 12 81 13 84 14 85 19 86
REMARK SMILES IDX 15 87 18 88 20 89 16 90 17 91
REMARK H PARENT 81 22 47 33 21 82 21 83
REMARK Flexibility Score: inf
ROOT
ATOM      1  C   UNL A   1      36.525  32.453  33.282  1.00  0.00     0.275 C 
ENDROOT
BRANCH   1   2
ATOM      2  O   UNL A   1      36.818  32.104  31.915  1.00  0.00    -0.458 OA
BRANCH   2   3
ATOM      3  C   UNL A   1      36.967  30.890  31.329  1.00  0.00     0.338 C 
ATOM      4  O   UNL A   1      36.036  30.090  31.416  1.00  0.00    -0.246 OA
BRANCH   3   5
ATOM      5  C   UNL A   1      38.234  30.405  30.682  1.00  0.00     0.060 A 
ATOM      6  C   UNL A   1      38.422  30.150  29.321  1.00  0.00     0.016 A 
ATOM      7  C   UNL A   1      39.336  30.205  31.538  1.00  0.00     0.016 A 
ATOM      8  C   UNL A   1      39.678  29.801  28.810  1.00  0.00     0.010 A 
ATOM      9  C   UNL A   1      40.591  29.838  31.036  1.00  0.00     0.010 A 
ATOM     10  C   UNL A   1      40.772  29.654  29.660  1.00  0.00    -0.014 A 
BRANCH  10  11
ATOM     11  C   UNL A   1      42.075  29.195  29.124  1.00  0.00     0.031 A 
ATOM     12  C   UNL A   1      43.141  30.219  28.894  1.00  0.00     0.074 A 
ATOM     13  C   UNL A   1      42.309  27.893  28.872  1.00  0.00     0.049 A 
ATOM     14  N   UNL A   1      44.359  30.043  28.466  1.00  0.00    -0.248 NA
ATOM     15  C   UNL A   1      42.813  31.611  29.243  1.00  0.00     0.031 C 
ATOM     16  C   UNL A   1      41.402  26.797  29.192  1.00  0.00     0.029 A 
ATOM     17  N   UNL A   1      43.364  27.260  28.264  1.00  0.00    -0.354 N 
ATOM     18  C   UNL A   1      44.964  31.287  28.549  1.00  0.00     0.074 A 
ATOM     19  C   UNL A   1      43.960  32.226  28.997  1.00  0.00     0.031 C 
ATOM     20  C   UNL A   1      41.859  25.653  28.659  1.00  0.00     0.029 A 
ATOM     21  C   UNL A   1      43.132  25.924  28.011  1.00  0.00     0.049 A 
ATOM     22  H   UNL A   1      44.205  27.716  28.032  1.00  0.00     0.167 HD
ATOM     23  C   UNL A   1      46.256  31.598  28.310  1.00  0.00     0.037 A 
ATOM     24  C   UNL A   1      43.871  25.022  27.340  1.00  0.00     0.037 A 
ATOM     25  C   UNL A   1      47.224  30.649  27.832  1.00  0.00     0.049 A 
ATOM     26  C   UNL A   1      45.250  25.439  26.909  1.00  0.00     0.074 A 
ATOM     27  C   UNL A   1      48.563  30.850  27.560  1.00  0.00     0.029 A 
ATOM     28  N   UNL A   1      46.945  29.323  27.530  1.00  0.00    -0.354 N 
ATOM     29  N   UNL A   1      45.837  26.602  27.071  1.00  0.00    -0.248 NA
ATOM     30  C   UNL A   1      46.090  24.420  26.270  1.00  0.00     0.031 C 
ATOM     31  C   UNL A   1      49.079  29.664  27.029  1.00  0.00     0.029 A 
ATOM     32  C   UNL A   1      48.077  28.705  27.028  1.00  0.00     0.049 A 
ATOM     33  H   UNL A   1      46.071  28.886  27.654  1.00  0.00     0.167 HD
ATOM     34  C   UNL A   1      47.137  26.436  26.615  1.00  0.00     0.074 A 
ATOM     35  C   UNL A   1      47.245  25.062  26.163  1.00  0.00     0.031 C 
ATOM     36  C   UNL A   1      48.154  27.332  26.592  1.00  0.00     0.037 A 
BRANCH  23  37
ATOM     37  C   UNL A   1      46.678  33.015  28.550  1.00  0.00     0.058 A 
ATOM     38  C   UNL A   1      46.619  33.982  27.534  1.00  0.00     0.135 A 
ATOM     39  C   UNL A   1      47.128  33.417  29.816  1.00  0.00     0.135 A 
ATOM     40  F   UNL A   1      46.229  33.640  26.294  1.00  0.00    -0.206 F 
ATOM     41  C   UNL A   1      46.994  35.300  27.764  1.00  0.00     0.059 A 
ATOM     42  C   UNL A   1      47.487  34.736  30.075  1.00  0.00     0.059 A 
ATOM     43  F   UNL A   1      47.222  32.525  30.814  1.00  0.00    -0.206 F 
ATOM     44  C   UNL A   1      47.420  35.669  29.042  1.00  0.00     0.060 A 
BRANCH  44  45
ATOM     45  S   UNL A   1      47.869  37.392  29.333  1.00  0.00     0.124 S 
ATOM     46  O   UNL A   1      48.777  37.651  28.220  1.00  0.00    -0.237 OA
ATOM     47  O   UNL A   1      46.575  38.064  29.264  1.00  0.00    -0.237 OA
ATOM     48  O   UNL A   1      48.489  37.364  30.654  1.00  0.00    -0.744 OA
ENDBRANCH  44  45
ENDBRANCH  23  37
BRANCH  24  49
ATOM     49  C   UNL A   1      43.352  23.653  27.065  1.00  0.00     0.058 A 
ATOM     50  C   UNL A   1      43.393  22.642  28.036  1.00  0.00     0.135 A 
ATOM     51  C   UNL A   1      42.842  23.316  25.799  1.00  0.00     0.135 A 
ATOM     52  F   UNL A   1      43.864  22.909  29.263  1.00  0.00    -0.206 F 
ATOM     53  C   UNL A   1      42.995  21.337  27.751  1.00  0.00     0.059 A 
ATOM     54  C   UNL A   1      42.417  22.024  25.497  1.00  0.00     0.059 A 
ATOM     55  F   UNL A   1      42.762  24.248  24.837  1.00  0.00    -0.206 F 
ATOM     56  C   UNL A   1      42.517  21.036  26.473  1.00  0.00     0.060 A 
BRANCH  56  57
ATOM     57  S   UNL A   1      42.032  19.333  26.112  1.00  0.00     0.124 S 
ATOM     58  O   UNL A   1      42.371  18.659  27.361  1.00  0.00    -0.237 OA
ATOM     59  O   UNL A   1      40.607  19.474  25.831  1.00  0.00    -0.237 OA
ATOM     60  O   UNL A   1      42.859  18.982  24.963  1.00  0.00    -0.744 OA
ENDBRANCH  56  57
ENDBRANCH  24  49
BRANCH  36  61
ATOM     61  C   UNL A   1      49.482  26.842  26.092  1.00  0.00     0.058 A 
ATOM     62  C   UNL A   1      49.894  27.057  24.769  1.00  0.00     0.135 A 
ATOM     63  C   UNL A   1      50.374  26.202  26.968  1.00  0.00     0.135 A 
ATOM     64  F   UNL A   1      49.072  27.654  23.892  1.00  0.00    -0.206 F 
ATOM     65  C   UNL A   1      51.139  26.633  24.324  1.00  0.00     0.059 A 
ATOM     66  C   UNL A   1      51.637  25.802  26.554  1.00  0.00     0.059 A 
ATOM     67  F   UNL A   1      50.027  25.982  28.247  1.00  0.00    -0.206 F 
ATOM     68  C   UNL A   1      52.006  26.013  25.226  1.00  0.00     0.060 A 
BRANCH  68  69
ATOM     69  S   UNL A   1      53.640  25.515  24.646  1.00  0.00     0.124 S 
ATOM     70  O   UNL A   1      54.509  26.168  25.618  1.00  0.00    -0.237 OA
ATOM     71  O   UNL A   1      53.570  24.060  24.732  1.00  0.00    -0.237 OA
ATOM     72  O   UNL A   1      53.696  26.054  23.290  1.00  0.00    -0.744 OA
ENDBRANCH  68  69
ENDBRANCH  36  61
ENDBRANCH  10  11
ENDBRANCH   3   5
ENDBRANCH   2   3
ENDBRANCH   1   2
BRANCH   1  73
ATOM     73  C   UNL A   1      35.323  33.385  33.445  1.00  0.00     0.274 C 
BRANCH  73  74
ATOM     74  O   UNL A   1      35.663  34.724  33.069  1.00  0.00    -0.458 OA
BRANCH  74  75
ATOM     75  C   UNL A   1      34.724  35.457  32.401  1.00  0.00     0.365 C 
ATOM     76  O   UNL A   1      34.351  36.579  32.730  1.00  0.00    -0.245 OA
BRANCH  75  77
ATOM     77  C   UNL A   1      34.259  34.698  31.148  1.00  0.00     0.304 C 
ATOM     78  C   UNL A   1      32.997  35.332  30.576  1.00  0.00     0.153 C 
ATOM     79  N   UNL A   1      35.338  34.625  30.114  1.00  0.00    -0.319 N 
ATOM     80  S   UNL A   1      33.454  35.948  28.955  1.00  0.00    -0.087 SA
ATOM     81  C   UNL A   1      34.720  34.671  28.785  1.00  0.00     0.277 C 
ATOM     82  H   UNL A   1      35.858  33.754  30.221  1.00  0.00     0.348 HD
ATOM     83  H   UNL A   1      35.980  35.410  30.226  1.00  0.00     0.348 HD
BRANCH  81  84
ATOM     84  C   UNL A   1      34.169  33.364  28.231  1.00  0.00     0.059 A 
ATOM     85  C   UNL A   1      32.824  33.326  27.796  1.00  0.00     0.053 A 
ATOM     86  C   UNL A   1      34.919  32.190  28.062  1.00  0.00     0.133 A 
ATOM     87  C   UNL A   1      32.282  32.172  27.229  1.00  0.00     0.123 A 
ATOM     88  C   UNL A   1      34.368  31.033  27.503  1.00  0.00     0.043 A 
ATOM     89  F   UNL A   1      36.205  32.123  28.428  1.00  0.00    -0.206 F 
ATOM     90  F   UNL A   1      31.013  32.177  26.803  1.00  0.00    -0.207 F 
ATOM     91  C   UNL A   1      33.045  31.024  27.077  1.00  0.00     0.042 A 
ENDBRANCH  81  84
ENDBRANCH  75  77
ENDBRANCH  74  75
ENDBRANCH  73  74
ENDBRANCH   1  73
TORSDOF 15
ENDMDL
