MODEL 1
REMARK VINA RESULT:     -11.2      0.000      0.000
REMARK SMILES O=C(OCCOC(=O)[C@H]1C=C[C@@H](NS(=O)(=O)c2ccc(Br)cc2)C1)c1ccc(-c2c3nc(c(-c4c(F)cc(S(=O)(=O)[O-])cc4F)c4ccc([nH]4)c(-c4c(F)cc(S(=O)(=O)[O-])cc4F)c4nc(c(-c5c(F)cc(S(=O)(=O)[O-])cc5F)c5ccc2[nH]5)C=C4)C=C3)cc1
REMARK SMILES IDX 4 1 3 2 2 3 1 4 25 5 26 6 90 7 27 8 89 9 28 10 29 11 30 12
REMARK SMILES IDX 83 13 31 14 88 15 82 16 84 17 32 18 87 19 81 20 80 21 33 23
REMARK SMILES IDX 67 24 46 25 66 26 47 27 50 28 65 29 85 30 48 31 49 32 64 34
REMARK SMILES IDX 86 35 51 36 34 37 35 38 44 39 36 40 37 41 43 42 45 43 38 44
REMARK SMILES IDX 39 45 40 46 41 47 42 48 68 49 69 50 78 51 70 52 71 53 77 54
REMARK SMILES IDX 79 55 72 56 73 57 74 58 75 59 76 60 52 61 53 62 62 63 54 64
REMARK SMILES IDX 55 65 61 66 63 67 56 68 57 69 58 70 59 71 60 72 5 73 6 74
REMARK SMILES IDX 7 75 8 76 9 77 10 78 24 79 11 80 12 81 13 82 14 84 15 85
REMARK SMILES IDX 16 86 17 87 18 88 23 89 19 90 22 91 20 92 21 93
REMARK H PARENT 84 22 50 33 13 83
REMARK Flexibility Score: inf
ROOT
ATOM      1  C   UNL A   1      43.801  23.074  26.656  1.00  0.00     0.275 C 
ENDROOT
BRANCH   1   2
ATOM      2  O   UNL A   1      43.797  24.475  26.328  1.00  0.00    -0.458 OA
BRANCH   2   3
ATOM      3  C   UNL A   1      42.769  25.354  26.241  1.00  0.00     0.338 C 
ATOM      4  O   UNL A   1      42.258  25.534  25.135  1.00  0.00    -0.246 OA
BRANCH   3   5
ATOM      5  C   UNL A   1      42.296  26.224  27.370  1.00  0.00     0.060 A 
ATOM      6  C   UNL A   1      41.210  25.970  28.215  1.00  0.00     0.016 A 
ATOM      7  C   UNL A   1      43.035  27.403  27.594  1.00  0.00     0.016 A 
ATOM      8  C   UNL A   1      40.927  26.806  29.306  1.00  0.00     0.010 A 
ATOM      9  C   UNL A   1      42.752  28.246  28.677  1.00  0.00     0.010 A 
ATOM     10  C   UNL A   1      41.705  27.937  29.556  1.00  0.00    -0.014 A 
BRANCH  10  11
ATOM     11  C   UNL A   1      41.366  28.853  30.669  1.00  0.00     0.031 A 
ATOM     12  C   UNL A   1      42.086  28.677  31.971  1.00  0.00     0.074 A 
ATOM     13  C   UNL A   1      40.428  29.813  30.529  1.00  0.00     0.049 A 
ATOM     14  N   UNL A   1      41.970  29.363  33.077  1.00  0.00    -0.248 NA
ATOM     15  C   UNL A   1      43.091  27.601  32.028  1.00  0.00     0.031 C 
ATOM     16  C   UNL A   1      39.700  30.117  29.300  1.00  0.00     0.029 A 
ATOM     17  N   UNL A   1      39.896  30.690  31.442  1.00  0.00    -0.354 N 
ATOM     18  C   UNL A   1      42.921  28.840  33.939  1.00  0.00     0.074 A 
ATOM     19  C   UNL A   1      43.549  27.726  33.264  1.00  0.00     0.031 C 
ATOM     20  C   UNL A   1      38.739  31.021  29.557  1.00  0.00     0.029 A 
ATOM     21  C   UNL A   1      38.826  31.410  30.958  1.00  0.00     0.049 A 
ATOM     22  H   UNL A   1      40.246  30.794  32.356  1.00  0.00     0.167 HD
ATOM     23  C   UNL A   1      43.269  29.281  35.169  1.00  0.00     0.037 A 
ATOM     24  C   UNL A   1      38.014  32.287  31.577  1.00  0.00     0.037 A 
ATOM     25  C   UNL A   1      42.610  30.367  35.842  1.00  0.00     0.049 A 
ATOM     26  C   UNL A   1      38.337  32.680  32.991  1.00  0.00     0.074 A 
ATOM     27  C   UNL A   1      42.883  30.904  37.085  1.00  0.00     0.029 A 
ATOM     28  N   UNL A   1      41.528  31.067  35.326  1.00  0.00    -0.354 N 
ATOM     29  N   UNL A   1      39.294  32.231  33.769  1.00  0.00    -0.248 NA
ATOM     30  C   UNL A   1      37.508  33.731  33.596  1.00  0.00     0.031 C 
ATOM     31  C   UNL A   1      41.938  31.905  37.339  1.00  0.00     0.029 A 
ATOM     32  C   UNL A   1      41.105  32.018  36.237  1.00  0.00     0.049 A 
ATOM     33  H   UNL A   1      41.122  30.911  34.443  1.00  0.00     0.167 HD
ATOM     34  C   UNL A   1      39.217  32.981  34.935  1.00  0.00     0.074 A 
ATOM     35  C   UNL A   1      38.109  33.901  34.766  1.00  0.00     0.031 C 
ATOM     36  C   UNL A   1      40.003  32.927  36.037  1.00  0.00     0.037 A 
BRANCH  23  37
ATOM     37  C   UNL A   1      44.417  28.586  35.837  1.00  0.00     0.058 A 
ATOM     38  C   UNL A   1      45.739  29.026  35.650  1.00  0.00     0.135 A 
ATOM     39  C   UNL A   1      44.207  27.463  36.650  1.00  0.00     0.135 A 
ATOM     40  F   UNL A   1      45.995  30.080  34.858  1.00  0.00    -0.206 F 
ATOM     41  C   UNL A   1      46.815  28.358  36.222  1.00  0.00     0.059 A 
ATOM     42  C   UNL A   1      45.269  26.791  37.250  1.00  0.00     0.059 A 
ATOM     43  F   UNL A   1      42.966  26.996  36.851  1.00  0.00    -0.206 F 
ATOM     44  C   UNL A   1      46.569  27.238  37.016  1.00  0.00     0.060 A 
BRANCH  44  45
ATOM     45  S   UNL A   1      47.980  26.370  37.735  1.00  0.00     0.124 S 
ATOM     46  O   UNL A   1      47.409  25.051  37.992  1.00  0.00    -0.237 OA
ATOM     47  O   UNL A   1      48.967  26.435  36.662  1.00  0.00    -0.237 OA
ATOM     48  O   UNL A   1      48.294  27.159  38.922  1.00  0.00    -0.744 OA
ENDBRANCH  44  45
ENDBRANCH  23  37
BRANCH  24  49
ATOM     49  C   UNL A   1      36.855  32.893  30.869  1.00  0.00     0.058 A 
ATOM     50  C   UNL A   1      37.025  33.954  29.969  1.00  0.00     0.135 A 
ATOM     51  C   UNL A   1      35.545  32.454  31.121  1.00  0.00     0.135 A 
ATOM     52  F   UNL A   1      38.257  34.420  29.708  1.00  0.00    -0.206 F 
ATOM     53  C   UNL A   1      35.939  34.580  29.364  1.00  0.00     0.059 A 
ATOM     54  C   UNL A   1      34.443  33.050  30.509  1.00  0.00     0.059 A 
ATOM     55  F   UNL A   1      35.327  31.459  31.995  1.00  0.00    -0.206 F 
ATOM     56  C   UNL A   1      34.649  34.126  29.647  1.00  0.00     0.060 A 
BRANCH  56  57
ATOM     57  S   UNL A   1      33.247  34.968  28.877  1.00  0.00     0.124 S 
ATOM     58  O   UNL A   1      32.420  35.279  30.038  1.00  0.00    -0.237 OA
ATOM     59  O   UNL A   1      33.886  36.110  28.230  1.00  0.00    -0.237 OA
ATOM     60  O   UNL A   1      32.702  33.961  27.971  1.00  0.00    -0.744 OA
ENDBRANCH  56  57
ENDBRANCH  24  49
BRANCH  36  61
ATOM     61  C   UNL A   1      39.724  33.918  37.127  1.00  0.00     0.058 A 
ATOM     62  C   UNL A   1      38.913  33.595  38.225  1.00  0.00     0.135 A 
ATOM     63  C   UNL A   1      40.335  35.181  37.103  1.00  0.00     0.135 A 
ATOM     64  F   UNL A   1      38.301  32.401  38.285  1.00  0.00    -0.206 F 
ATOM     65  C   UNL A   1      38.709  34.497  39.261  1.00  0.00     0.059 A 
ATOM     66  C   UNL A   1      40.165  36.090  38.142  1.00  0.00     0.059 A 
ATOM     67  F   UNL A   1      41.124  35.533  36.076  1.00  0.00    -0.206 F 
ATOM     68  C   UNL A   1      39.345  35.740  39.214  1.00  0.00     0.060 A 
BRANCH  68  69
ATOM     69  S   UNL A   1      39.125  36.878  40.597  1.00  0.00     0.124 S 
ATOM     70  O   UNL A   1      38.297  37.917  39.993  1.00  0.00    -0.237 OA
ATOM     71  O   UNL A   1      38.464  36.039  41.592  1.00  0.00    -0.237 OA
ATOM     72  O   UNL A   1      40.490  37.275  40.928  1.00  0.00    -0.744 OA
ENDBRANCH  68  69
ENDBRANCH  36  61
ENDBRANCH  10  11
ENDBRANCH   3   5
ENDBRANCH   2   3
ENDBRANCH   1   2
BRANCH   1  73
ATOM     73  C   UNL A   1      43.281  22.160  25.545  1.00  0.00     0.274 C 
BRANCH  73  74
ATOM     74  O   UNL A   1      41.852  22.180  25.466  1.00  0.00    -0.462 OA
BRANCH  74  75
ATOM     75  C   UNL A   1      41.180  21.238  26.189  1.00  0.00     0.312 C 
ATOM     76  O   UNL A   1      41.627  20.136  26.484  1.00  0.00    -0.252 OA
BRANCH  75  77
ATOM     77  C   UNL A   1      39.834  21.757  26.688  1.00  0.00     0.123 C 
ATOM     78  C   UNL A   1      39.805  23.213  27.008  1.00  0.00    -0.015 C 
ATOM     79  C   UNL A   1      38.731  21.669  25.629  1.00  0.00     0.043 C 
ATOM     80  C   UNL A   1      38.697  23.817  26.581  1.00  0.00    -0.011 C 
ATOM     81  C   UNL A   1      37.809  22.888  25.853  1.00  0.00     0.093 C 
BRANCH  81  82
ATOM     82  N   UNL A   1      37.403  23.416  24.558  1.00  0.00    -0.204 NA
ATOM     83  H   UNL A   1      38.137  23.156  23.900  1.00  0.00     0.142 HD
BRANCH  82  84
ATOM     84  S   UNL A   1      35.942  22.980  23.835  1.00  0.00     0.241 S 
ATOM     85  O   UNL A   1      36.157  22.950  22.409  1.00  0.00    -0.207 OA
ATOM     86  O   UNL A   1      35.496  21.817  24.567  1.00  0.00    -0.207 OA
BRANCH  84  87
ATOM     87  C   UNL A   1      34.812  24.293  24.201  1.00  0.00     0.082 A 
ATOM     88  C   UNL A   1      34.055  24.829  23.153  1.00  0.00     0.023 A 
ATOM     89  C   UNL A   1      34.720  24.824  25.490  1.00  0.00     0.023 A 
ATOM     90  C   UNL A   1      33.205  25.909  23.397  1.00  0.00     0.017 A 
ATOM     91  C   UNL A   1      33.890  25.922  25.724  1.00  0.00     0.017 A 
ATOM     92  C   UNL A   1      33.136  26.457  24.678  1.00  0.00     0.018 A 
ATOM     93  Br  UNL A   1      32.011  27.942  25.006  1.00  0.00    -0.051 Br
ENDBRANCH  84  87
ENDBRANCH  82  84
ENDBRANCH  81  82
ENDBRANCH  75  77
ENDBRANCH  74  75
ENDBRANCH  73  74
ENDBRANCH   1  73
TORSDOF 17
ENDMDL
MODEL 2
REMARK VINA RESULT:     -11.1      3.309      4.859
REMARK SMILES O=C(OCCOC(=O)[C@H]1C=C[C@@H](NS(=O)(=O)c2ccc(Br)cc2)C1)c1ccc(-c2c3nc(c(-c4c(F)cc(S(=O)(=O)[O-])cc4F)c4ccc([nH]4)c(-c4c(F)cc(S(=O)(=O)[O-])cc4F)c4nc(c(-c5c(F)cc(S(=O)(=O)[O-])cc5F)c5ccc2[nH]5)C=C4)C=C3)cc1
REMARK SMILES IDX 4 1 3 2 2 3 1 4 25 5 26 6 90 7 27 8 89 9 28 10 29 11 30 12
REMARK SMILES IDX 83 13 31 14 88 15 82 16 84 17 32 18 87 19 81 20 80 21 33 23
REMARK SMILES IDX 67 24 46 25 66 26 47 27 50 28 65 29 85 30 48 31 49 32 64 34
REMARK SMILES IDX 86 35 51 36 34 37 35 38 44 39 36 40 37 41 43 42 45 43 38 44
REMARK SMILES IDX 39 45 40 46 41 47 42 48 68 49 69 50 78 51 70 52 71 53 77 54
REMARK SMILES IDX 79 55 72 56 73 57 74 58 75 59 76 60 52 61 53 62 62 63 54 64
REMARK SMILES IDX 55 65 61 66 63 67 56 68 57 69 58 70 59 71 60 72 5 73 6 74
REMARK SMILES IDX 7 75 8 76 9 77 10 78 24 79 11 80 12 81 13 82 14 84 15 85
REMARK SMILES IDX 16 86 17 87 18 88 23 89 19 90 22 91 20 92 21 93
REMARK H PARENT 84 22 50 33 13 83
REMARK Flexibility Score: inf
ROOT
ATOM      1  C   UNL A   1      42.127  22.501  27.187  1.00  0.00     0.275 C 
ENDROOT
BRANCH   1   2
ATOM      2  O   UNL A   1      42.648  23.712  26.613  1.00  0.00    -0.458 OA
BRANCH   2   3
ATOM      3  C   UNL A   1      42.051  24.909  26.394  1.00  0.00     0.338 C 
ATOM      4  O   UNL A   1      41.928  25.286  25.228  1.00  0.00    -0.246 OA
BRANCH   3   5
ATOM      5  C   UNL A   1      41.648  25.870  27.475  1.00  0.00     0.060 A 
ATOM      6  C   UNL A   1      40.479  25.816  28.241  1.00  0.00     0.016 A 
ATOM      7  C   UNL A   1      42.553  26.918  27.739  1.00  0.00     0.016 A 
ATOM      8  C   UNL A   1      40.260  26.712  29.299  1.00  0.00     0.010 A 
ATOM      9  C   UNL A   1      42.337  27.821  28.789  1.00  0.00     0.010 A 
ATOM     10  C   UNL A   1      41.194  27.707  29.592  1.00  0.00    -0.014 A 
BRANCH  10  11
ATOM     11  C   UNL A   1      40.932  28.691  30.668  1.00  0.00     0.031 A 
ATOM     12  C   UNL A   1      41.660  28.526  31.967  1.00  0.00     0.074 A 
ATOM     13  C   UNL A   1      40.056  29.702  30.496  1.00  0.00     0.049 A 
ATOM     14  N   UNL A   1      41.605  29.266  33.042  1.00  0.00    -0.248 NA
ATOM     15  C   UNL A   1      42.594  27.391  32.060  1.00  0.00     0.031 C 
ATOM     16  C   UNL A   1      39.329  29.998  29.264  1.00  0.00     0.029 A 
ATOM     17  N   UNL A   1      39.595  30.651  31.375  1.00  0.00    -0.354 N 
ATOM     18  C   UNL A   1      42.534  28.721  33.915  1.00  0.00     0.074 A 
ATOM     19  C   UNL A   1      43.079  27.540  33.282  1.00  0.00     0.031 C 
ATOM     20  C   UNL A   1      38.433  30.973  29.492  1.00  0.00     0.029 A 
ATOM     21  C   UNL A   1      38.566  31.417  30.873  1.00  0.00     0.049 A 
ATOM     22  H   UNL A   1      39.966  30.773  32.279  1.00  0.00     0.167 HD
ATOM     23  C   UNL A   1      42.929  29.193  35.119  1.00  0.00     0.037 A 
ATOM     24  C   UNL A   1      37.822  32.372  31.462  1.00  0.00     0.037 A 
ATOM     25  C   UNL A   1      42.352  30.348  35.750  1.00  0.00     0.049 A 
ATOM     26  C   UNL A   1      38.192  32.805  32.854  1.00  0.00     0.074 A 
ATOM     27  C   UNL A   1      42.678  30.920  36.964  1.00  0.00     0.029 A 
ATOM     28  N   UNL A   1      41.309  31.093  35.218  1.00  0.00    -0.354 N 
ATOM     29  N   UNL A   1      39.130  32.330  33.638  1.00  0.00    -0.248 NA
ATOM     30  C   UNL A   1      37.442  33.933  33.421  1.00  0.00     0.031 C 
ATOM     31  C   UNL A   1      41.804  31.991  37.185  1.00  0.00     0.029 A 
ATOM     32  C   UNL A   1      40.962  32.109  36.089  1.00  0.00     0.049 A 
ATOM     33  H   UNL A   1      40.880  30.925  34.348  1.00  0.00     0.167 HD
ATOM     34  C   UNL A   1      39.119  33.134  34.770  1.00  0.00     0.074 A 
ATOM     35  C   UNL A   1      38.071  34.115  34.574  1.00  0.00     0.031 C 
ATOM     36  C   UNL A   1      39.918  33.078  35.863  1.00  0.00     0.037 A 
BRANCH  23  37
ATOM     37  C   UNL A   1      44.041  28.455  35.802  1.00  0.00     0.058 A 
ATOM     38  C   UNL A   1      45.386  28.786  35.562  1.00  0.00     0.135 A 
ATOM     39  C   UNL A   1      43.771  27.399  36.685  1.00  0.00     0.135 A 
ATOM     40  F   UNL A   1      45.697  29.771  34.705  1.00  0.00    -0.206 F 
ATOM     41  C   UNL A   1      46.425  28.075  36.150  1.00  0.00     0.059 A 
ATOM     42  C   UNL A   1      44.796  26.687  37.301  1.00  0.00     0.059 A 
ATOM     43  F   UNL A   1      42.504  27.037  36.938  1.00  0.00    -0.206 F 
ATOM     44  C   UNL A   1      46.119  27.022  37.014  1.00  0.00     0.060 A 
BRANCH  44  45
ATOM     45  S   UNL A   1      47.481  26.097  37.754  1.00  0.00     0.124 S 
ATOM     46  O   UNL A   1      46.827  24.833  38.084  1.00  0.00    -0.237 OA
ATOM     47  O   UNL A   1      48.450  26.042  36.664  1.00  0.00    -0.237 OA
ATOM     48  O   UNL A   1      47.870  26.919  38.895  1.00  0.00    -0.744 OA
ENDBRANCH  44  45
ENDBRANCH  23  37
BRANCH  24  49
ATOM     49  C   UNL A   1      36.693  33.020  30.743  1.00  0.00     0.058 A 
ATOM     50  C   UNL A   1      36.921  33.957  29.725  1.00  0.00     0.135 A 
ATOM     51  C   UNL A   1      35.361  32.751  31.098  1.00  0.00     0.135 A 
ATOM     52  F   UNL A   1      38.177  34.259  29.362  1.00  0.00    -0.206 F 
ATOM     53  C   UNL A   1      35.871  34.627  29.102  1.00  0.00     0.059 A 
ATOM     54  C   UNL A   1      34.294  33.393  30.472  1.00  0.00     0.059 A 
ATOM     55  F   UNL A   1      35.091  31.882  32.085  1.00  0.00    -0.206 F 
ATOM     56  C   UNL A   1      34.560  34.345  29.489  1.00  0.00     0.060 A 
BRANCH  56  57
ATOM     57  S   UNL A   1      33.210  35.245  28.693  1.00  0.00     0.124 S 
ATOM     58  O   UNL A   1      33.942  36.209  27.879  1.00  0.00    -0.237 OA
ATOM     59  O   UNL A   1      32.521  34.188  27.959  1.00  0.00    -0.237 OA
ATOM     60  O   UNL A   1      32.468  35.809  29.817  1.00  0.00    -0.744 OA
ENDBRANCH  56  57
ENDBRANCH  24  49
BRANCH  36  61
ATOM     61  C   UNL A   1      39.720  34.132  36.911  1.00  0.00     0.058 A 
ATOM     62  C   UNL A   1      38.993  33.877  38.083  1.00  0.00     0.135 A 
ATOM     63  C   UNL A   1      40.328  35.389  36.769  1.00  0.00     0.135 A 
ATOM     64  F   UNL A   1      38.386  32.692  38.257  1.00  0.00    -0.206 F 
ATOM     65  C   UNL A   1      38.866  34.839  39.077  1.00  0.00     0.059 A 
ATOM     66  C   UNL A   1      40.235  36.357  37.762  1.00  0.00     0.059 A 
ATOM     67  F   UNL A   1      41.039  35.676  35.667  1.00  0.00    -0.206 F 
ATOM     68  C   UNL A   1      39.497  36.074  38.910  1.00  0.00     0.060 A 
BRANCH  68  69
ATOM     69  S   UNL A   1      39.380  37.293  40.236  1.00  0.00     0.124 S 
ATOM     70  O   UNL A   1      38.710  36.525  41.281  1.00  0.00    -0.237 OA
ATOM     71  O   UNL A   1      40.780  37.619  40.487  1.00  0.00    -0.237 OA
ATOM     72  O   UNL A   1      38.591  38.366  39.640  1.00  0.00    -0.744 OA
ENDBRANCH  68  69
ENDBRANCH  36  61
ENDBRANCH  10  11
ENDBRANCH   3   5
ENDBRANCH   2   3
ENDBRANCH   1   2
BRANCH   1  73
ATOM     73  C   UNL A   1      42.130  21.298  26.242  1.00  0.00     0.274 C 
BRANCH  73  74
ATOM     74  O   UNL A   1      43.053  21.473  25.161  1.00  0.00    -0.462 OA
BRANCH  74  75
ATOM     75  C   UNL A   1      44.237  20.800  25.246  1.00  0.00     0.312 C 
ATOM     76  O   UNL A   1      44.346  19.580  25.271  1.00  0.00    -0.252 OA
BRANCH  75  77
ATOM     77  C   UNL A   1      45.433  21.747  25.196  1.00  0.00     0.123 C 
ATOM     78  C   UNL A   1      45.317  22.849  24.198  1.00  0.00    -0.015 C 
ATOM     79  C   UNL A   1      45.616  22.544  26.491  1.00  0.00     0.043 C 
ATOM     80  C   UNL A   1      45.738  24.022  24.669  1.00  0.00    -0.011 C 
ATOM     81  C   UNL A   1      46.162  23.930  26.080  1.00  0.00     0.093 C 
BRANCH  81  82
ATOM     82  N   UNL A   1      45.536  24.949  26.911  1.00  0.00    -0.204 NA
ATOM     83  H   UNL A   1      44.739  24.499  27.362  1.00  0.00     0.142 HD
BRANCH  82  84
ATOM     84  S   UNL A   1      46.382  25.749  28.132  1.00  0.00     0.241 S 
ATOM     85  O   UNL A   1      47.744  25.275  28.097  1.00  0.00    -0.207 OA
ATOM     86  O   UNL A   1      46.051  27.145  27.961  1.00  0.00    -0.207 OA
BRANCH  84  87
ATOM     87  C   UNL A   1      45.647  25.220  29.654  1.00  0.00     0.082 A 
ATOM     88  C   UNL A   1      46.181  25.706  30.852  1.00  0.00     0.023 A 
ATOM     89  C   UNL A   1      44.601  24.294  29.663  1.00  0.00     0.023 A 
ATOM     90  C   UNL A   1      45.667  25.257  32.070  1.00  0.00     0.017 A 
ATOM     91  C   UNL A   1      44.109  23.825  30.882  1.00  0.00     0.017 A 
ATOM     92  C   UNL A   1      44.642  24.310  32.078  1.00  0.00     0.018 A 
ATOM     93  Br  UNL A   1      43.965  23.672  33.725  1.00  0.00    -0.051 Br
ENDBRANCH  84  87
ENDBRANCH  82  84
ENDBRANCH  81  82
ENDBRANCH  75  77
ENDBRANCH  74  75
ENDBRANCH  73  74
ENDBRANCH   1  73
TORSDOF 17
ENDMDL
MODEL 3
REMARK VINA RESULT:     -11.1      1.531      1.891
REMARK SMILES O=C(OCCOC(=O)[C@H]1C=C[C@@H](NS(=O)(=O)c2ccc(Br)cc2)C1)c1ccc(-c2c3nc(c(-c4c(F)cc(S(=O)(=O)[O-])cc4F)c4ccc([nH]4)c(-c4c(F)cc(S(=O)(=O)[O-])cc4F)c4nc(c(-c5c(F)cc(S(=O)(=O)[O-])cc5F)c5ccc2[nH]5)C=C4)C=C3)cc1
REMARK SMILES IDX 4 1 3 2 2 3 1 4 25 5 26 6 90 7 27 8 89 9 28 10 29 11 30 12
REMARK SMILES IDX 83 13 31 14 88 15 82 16 84 17 32 18 87 19 81 20 80 21 33 23
REMARK SMILES IDX 67 24 46 25 66 26 47 27 50 28 65 29 85 30 48 31 49 32 64 34
REMARK SMILES IDX 86 35 51 36 34 37 35 38 44 39 36 40 37 41 43 42 45 43 38 44
REMARK SMILES IDX 39 45 40 46 41 47 42 48 68 49 69 50 78 51 70 52 71 53 77 54
REMARK SMILES IDX 79 55 72 56 73 57 74 58 75 59 76 60 52 61 53 62 62 63 54 64
REMARK SMILES IDX 55 65 61 66 63 67 56 68 57 69 58 70 59 71 60 72 5 73 6 74
REMARK SMILES IDX 7 75 8 76 9 77 10 78 24 79 11 80 12 81 13 82 14 84 15 85
REMARK SMILES IDX 16 86 17 87 18 88 23 89 19 90 22 91 20 92 21 93
REMARK H PARENT 84 22 50 33 13 83
REMARK Flexibility Score: inf
ROOT
ATOM      1  C   UNL A   1      44.010  22.961  26.765  1.00  0.00     0.275 C 
ENDROOT
BRANCH   1   2
ATOM      2  O   UNL A   1      43.970  24.354  26.409  1.00  0.00    -0.458 OA
BRANCH   2   3
ATOM      3  C   UNL A   1      42.920  25.204  26.301  1.00  0.00     0.338 C 
ATOM      4  O   UNL A   1      42.401  25.341  25.193  1.00  0.00    -0.246 OA
BRANCH   3   5
ATOM      5  C   UNL A   1      42.428  26.092  27.407  1.00  0.00     0.060 A 
ATOM      6  C   UNL A   1      41.285  25.891  28.189  1.00  0.00     0.016 A 
ATOM      7  C   UNL A   1      43.211  27.232  27.680  1.00  0.00     0.016 A 
ATOM      8  C   UNL A   1      40.983  26.736  29.267  1.00  0.00     0.010 A 
ATOM      9  C   UNL A   1      42.910  28.085  28.751  1.00  0.00     0.010 A 
ATOM     10  C   UNL A   1      41.801  27.826  29.568  1.00  0.00    -0.014 A 
BRANCH  10  11
ATOM     11  C   UNL A   1      41.446  28.753  30.666  1.00  0.00     0.031 A 
ATOM     12  C   UNL A   1      42.155  28.599  31.977  1.00  0.00     0.074 A 
ATOM     13  C   UNL A   1      40.503  29.705  30.505  1.00  0.00     0.049 A 
ATOM     14  N   UNL A   1      42.024  29.298  33.072  1.00  0.00    -0.248 NA
ATOM     15  C   UNL A   1      43.166  27.530  32.057  1.00  0.00     0.031 C 
ATOM     16  C   UNL A   1      39.785  29.988  29.266  1.00  0.00     0.029 A 
ATOM     17  N   UNL A   1      39.957  30.590  31.402  1.00  0.00    -0.354 N 
ATOM     18  C   UNL A   1      42.971  28.792  33.950  1.00  0.00     0.074 A 
ATOM     19  C   UNL A   1      43.613  27.674  33.295  1.00  0.00     0.031 C 
ATOM     20  C   UNL A   1      38.816  30.890  29.502  1.00  0.00     0.029 A 
ATOM     21  C   UNL A   1      38.887  31.297  30.899  1.00  0.00     0.049 A 
ATOM     22  H   UNL A   1      40.298  30.708  32.318  1.00  0.00     0.167 HD
ATOM     23  C   UNL A   1      43.305  29.251  35.177  1.00  0.00     0.037 A 
ATOM     24  C   UNL A   1      38.064  32.177  31.499  1.00  0.00     0.037 A 
ATOM     25  C   UNL A   1      42.633  30.341  35.830  1.00  0.00     0.049 A 
ATOM     26  C   UNL A   1      38.371  32.589  32.912  1.00  0.00     0.074 A 
ATOM     27  C   UNL A   1      42.891  30.896  37.069  1.00  0.00     0.029 A 
ATOM     28  N   UNL A   1      41.551  31.028  35.296  1.00  0.00    -0.354 N 
ATOM     29  N   UNL A   1      39.324  32.157  33.703  1.00  0.00    -0.248 NA
ATOM     30  C   UNL A   1      37.530  33.643  33.495  1.00  0.00     0.031 C 
ATOM     31  C   UNL A   1      41.938  31.894  37.301  1.00  0.00     0.029 A 
ATOM     32  C   UNL A   1      41.114  31.988  36.190  1.00  0.00     0.049 A 
ATOM     33  H   UNL A   1      41.154  30.857  34.411  1.00  0.00     0.167 HD
ATOM     34  C   UNL A   1      39.231  32.921  34.859  1.00  0.00     0.074 A 
ATOM     35  C   UNL A   1      38.119  33.832  34.668  1.00  0.00     0.031 C 
ATOM     36  C   UNL A   1      40.008  32.887  35.968  1.00  0.00     0.037 A 
BRANCH  23  37
ATOM     37  C   UNL A   1      44.451  28.572  35.864  1.00  0.00     0.058 A 
ATOM     38  C   UNL A   1      45.779  28.962  35.616  1.00  0.00     0.135 A 
ATOM     39  C   UNL A   1      44.233  27.514  36.758  1.00  0.00     0.135 A 
ATOM     40  F   UNL A   1      46.042  29.951  34.747  1.00  0.00    -0.206 F 
ATOM     41  C   UNL A   1      46.852  28.305  36.207  1.00  0.00     0.059 A 
ATOM     42  C   UNL A   1      45.292  26.856  37.378  1.00  0.00     0.059 A 
ATOM     43  F   UNL A   1      42.985  27.097  37.020  1.00  0.00    -0.206 F 
ATOM     44  C   UNL A   1      46.597  27.249  37.083  1.00  0.00     0.060 A 
BRANCH  44  45
ATOM     45  S   UNL A   1      48.003  26.395  37.827  1.00  0.00     0.124 S 
ATOM     46  O   UNL A   1      49.084  27.343  37.576  1.00  0.00    -0.237 OA
ATOM     47  O   UNL A   1      47.587  26.263  39.219  1.00  0.00    -0.237 OA
ATOM     48  O   UNL A   1      48.077  25.145  37.077  1.00  0.00    -0.744 OA
ENDBRANCH  44  45
ENDBRANCH  23  37
BRANCH  24  49
ATOM     49  C   UNL A   1      36.907  32.766  30.774  1.00  0.00     0.058 A 
ATOM     50  C   UNL A   1      37.072  33.848  29.898  1.00  0.00     0.135 A 
ATOM     51  C   UNL A   1      35.604  32.288  30.984  1.00  0.00     0.135 A 
ATOM     52  F   UNL A   1      38.297  34.351  29.678  1.00  0.00    -0.206 F 
ATOM     53  C   UNL A   1      35.985  34.458  29.277  1.00  0.00     0.059 A 
ATOM     54  C   UNL A   1      34.502  32.867  30.354  1.00  0.00     0.059 A 
ATOM     55  F   UNL A   1      35.389  31.271  31.833  1.00  0.00    -0.206 F 
ATOM     56  C   UNL A   1      34.701  33.965  29.519  1.00  0.00     0.060 A 
BRANCH  56  57
ATOM     57  S   UNL A   1      33.297  34.785  28.729  1.00  0.00     0.124 S 
ATOM     58  O   UNL A   1      32.458  35.099  29.880  1.00  0.00    -0.237 OA
ATOM     59  O   UNL A   1      33.930  35.926  28.075  1.00  0.00    -0.237 OA
ATOM     60  O   UNL A   1      32.770  33.763  27.828  1.00  0.00    -0.744 OA
ENDBRANCH  56  57
ENDBRANCH  24  49
BRANCH  36  61
ATOM     61  C   UNL A   1      39.712  33.890  37.044  1.00  0.00     0.058 A 
ATOM     62  C   UNL A   1      38.968  33.549  38.182  1.00  0.00     0.135 A 
ATOM     63  C   UNL A   1      40.242  35.186  36.962  1.00  0.00     0.135 A 
ATOM     64  F   UNL A   1      38.433  32.323  38.299  1.00  0.00    -0.206 F 
ATOM     65  C   UNL A   1      38.750  34.466  39.203  1.00  0.00     0.059 A 
ATOM     66  C   UNL A   1      40.059  36.112  37.983  1.00  0.00     0.059 A 
ATOM     67  F   UNL A   1      40.967  35.555  35.893  1.00  0.00    -0.206 F 
ATOM     68  C   UNL A   1      39.306  35.744  39.096  1.00  0.00     0.060 A 
BRANCH  68  69
ATOM     69  S   UNL A   1      39.073  36.906  40.457  1.00  0.00     0.124 S 
ATOM     70  O   UNL A   1      38.543  38.073  39.759  1.00  0.00    -0.237 OA
ATOM     71  O   UNL A   1      38.128  36.198  41.316  1.00  0.00    -0.237 OA
ATOM     72  O   UNL A   1      40.416  37.057  41.006  1.00  0.00    -0.744 OA
ENDBRANCH  68  69
ENDBRANCH  36  61
ENDBRANCH  10  11
ENDBRANCH   3   5
ENDBRANCH   2   3
ENDBRANCH   1   2
BRANCH   1  73
ATOM     73  C   UNL A   1      43.688  22.002  25.617  1.00  0.00     0.274 C 
BRANCH  73  74
ATOM     74  O   UNL A   1      42.277  21.828  25.449  1.00  0.00    -0.462 OA
BRANCH  74  75
ATOM     75  C   UNL A   1      41.677  20.875  26.218  1.00  0.00     0.312 C 
ATOM     76  O   UNL A   1      42.184  19.802  26.521  1.00  0.00    -0.252 OA
BRANCH  75  77
ATOM     77  C   UNL A   1      40.329  21.346  26.757  1.00  0.00     0.123 C 
ATOM     78  C   UNL A   1      40.218  22.817  26.968  1.00  0.00    -0.015 C 
ATOM     79  C   UNL A   1      39.177  21.104  25.776  1.00  0.00     0.043 C 
ATOM     80  C   UNL A   1      39.050  23.314  26.563  1.00  0.00    -0.011 C 
ATOM     81  C   UNL A   1      38.189  22.276  25.963  1.00  0.00     0.093 C 
BRANCH  81  82
ATOM     82  N   UNL A   1      37.676  22.673  24.659  1.00  0.00    -0.204 NA
ATOM     83  H   UNL A   1      37.822  21.875  24.040  1.00  0.00     0.142 HD
BRANCH  82  84
ATOM     84  S   UNL A   1      36.075  23.158  24.439  1.00  0.00     0.241 S 
ATOM     85  O   UNL A   1      35.762  24.103  25.482  1.00  0.00    -0.207 OA
ATOM     86  O   UNL A   1      35.979  23.501  23.039  1.00  0.00    -0.207 OA
BRANCH  84  87
ATOM     87  C   UNL A   1      35.093  21.705  24.689  1.00  0.00     0.082 A 
ATOM     88  C   UNL A   1      35.741  20.465  24.721  1.00  0.00     0.023 A 
ATOM     89  C   UNL A   1      33.702  21.786  24.791  1.00  0.00     0.023 A 
ATOM     90  C   UNL A   1      34.987  19.296  24.850  1.00  0.00     0.017 A 
ATOM     91  C   UNL A   1      32.951  20.614  24.891  1.00  0.00     0.017 A 
ATOM     92  C   UNL A   1      33.597  19.376  24.923  1.00  0.00     0.018 A 
ATOM     93  Br  UNL A   1      32.570  17.794  25.063  1.00  0.00    -0.051 Br
ENDBRANCH  84  87
ENDBRANCH  82  84
ENDBRANCH  81  82
ENDBRANCH  75  77
ENDBRANCH  74  75
ENDBRANCH  73  74
ENDBRANCH   1  73
TORSDOF 17
ENDMDL
