MODEL 1
REMARK VINA RESULT:     -12.1      0.000      0.000
REMARK SMILES COc1cc2c(cc1OC)[C@@H](CC(=O)OCCOC(=O)c1ccc(-c3c4nc(c(-c5c(F)cc(S(=O)(=O)[O-])cc5F)c5ccc([nH]5)c(-c5c(F)cc(S(=O)(=O)[O-])cc5F)c5nc(c(-c6c(F)cc(S(=O)(=O)[O-])cc6F)c6ccc3[nH]6)C=C5)C=C4)cc1)N(C(=O)Nc1ccc(Cl)cc1)CC2
REMARK SMILES IDX 16 1 15 2 13 3 14 4 12 5 11 6 3 7 4 8 8 9 5 10 7 11 6 12
REMARK SMILES IDX 99 13 98 14 87 15 2 16 1 17 9 18 10 19 88 20 89 21 90 22
REMARK SMILES IDX 91 24 92 25 97 26 93 27 96 28 94 29 95 30 17 31 18 32 19 33
REMARK SMILES IDX 20 34 21 35 22 36 86 37 23 38 85 39 24 40 25 41 26 42 79 43
REMARK SMILES IDX 27 44 84 45 78 46 80 47 28 48 83 49 77 50 76 51 29 53 63 54
REMARK SMILES IDX 42 55 62 56 43 57 46 58 61 59 81 60 44 61 45 62 60 64 82 65
REMARK SMILES IDX 47 66 30 67 31 68 40 69 32 70 33 71 39 72 41 73 34 74 35 75
REMARK SMILES IDX 36 76 37 77 38 78 64 79 65 80 74 81 66 82 67 83 73 84 75 85
REMARK SMILES IDX 68 86 69 87 70 88 71 89 72 90 48 91 49 92 58 93 50 94 51 95
REMARK SMILES IDX 57 96 59 97 52 98 53 99 54 100 55 101 56 102
REMARK H PARENT 90 23 80 52 46 63
REMARK Flexibility Score: inf
ROOT
ATOM      1  C   UNL A   1      38.167  22.320  25.455  1.00  0.00     0.274 C 
ENDROOT
BRANCH   1   2
ATOM      2  O   UNL A   1      36.767  22.315  25.794  1.00  0.00    -0.462 OA
BRANCH   2   3
ATOM      3  C   UNL A   1      35.999  23.278  25.231  1.00  0.00     0.308 C 
ATOM      4  O   UNL A   1      36.055  23.600  24.046  1.00  0.00    -0.252 OA
BRANCH   3   5
ATOM      5  C   UNL A   1      35.018  23.943  26.175  1.00  0.00     0.152 C 
BRANCH   5   6
ATOM      6  C   UNL A   1      33.532  24.051  25.770  1.00  0.00     0.128 C 
ATOM      7  C   UNL A   1      31.979  28.151  25.479  1.00  0.00     0.161 A 
ATOM      8  C   UNL A   1      31.147  27.046  25.334  1.00  0.00     0.054 A 
ATOM      9  C   UNL A   1      33.353  27.974  25.686  1.00  0.00     0.161 A 
ATOM     10  C   UNL A   1      31.677  25.754  25.412  1.00  0.00    -0.037 A 
ATOM     11  C   UNL A   1      33.872  26.667  25.772  1.00  0.00     0.056 A 
ATOM     12  C   UNL A   1      33.046  25.531  25.656  1.00  0.00    -0.018 A 
ATOM     13  C   UNL A   1      30.781  24.559  25.341  1.00  0.00     0.057 C 
ATOM     14  C   UNL A   1      31.140  23.683  26.530  1.00  0.00     0.127 C 
ATOM     15  N   UNL A   1      32.532  23.212  26.542  1.00  0.00    -0.317 N 
BRANCH   7  16
ATOM     16  O   UNL A   1      31.347  29.368  25.531  1.00  0.00    -0.493 OA
ATOM     17  C   UNL A   1      30.685  29.692  24.311  1.00  0.00     0.278 C 
ENDBRANCH   7  16
BRANCH   9  18
ATOM     18  O   UNL A   1      34.102  29.109  25.861  1.00  0.00    -0.493 OA
ATOM     19  C   UNL A   1      34.521  29.416  27.186  1.00  0.00     0.278 C 
ENDBRANCH   9  18
BRANCH  15  20
ATOM     20  C   UNL A   1      32.951  22.166  27.329  1.00  0.00     0.322 C 
ATOM     21  O   UNL A   1      32.921  22.197  28.562  1.00  0.00    -0.248 OA
ATOM     22  N   UNL A   1      33.539  21.047  26.812  1.00  0.00    -0.308 N 
ATOM     23  H   UNL A   1      34.344  20.734  27.283  1.00  0.00     0.171 HD
BRANCH  22  24
ATOM     24  C   UNL A   1      33.151  20.288  25.709  1.00  0.00     0.042 A 
ATOM     25  C   UNL A   1      32.933  20.957  24.504  1.00  0.00     0.028 A 
ATOM     26  C   UNL A   1      32.945  18.910  25.807  1.00  0.00     0.028 A 
ATOM     27  C   UNL A   1      32.615  20.231  23.358  1.00  0.00     0.022 A 
ATOM     28  C   UNL A   1      32.638  18.181  24.654  1.00  0.00     0.022 A 
ATOM     29  C   UNL A   1      32.491  18.844  23.435  1.00  0.00     0.041 A 
ATOM     30  Cl  UNL A   1      32.171  17.945  22.003  1.00  0.00    -0.084 Cl
ENDBRANCH  22  24
ENDBRANCH  15  20
ENDBRANCH   5   6
ENDBRANCH   3   5
ENDBRANCH   2   3
ENDBRANCH   1   2
BRANCH   1  31
ATOM     31  C   UNL A   1      38.992  22.882  26.611  1.00  0.00     0.275 C 
BRANCH  31  32
ATOM     32  O   UNL A   1      39.108  24.310  26.508  1.00  0.00    -0.458 OA
BRANCH  32  33
ATOM     33  C   UNL A   1      40.370  24.785  26.603  1.00  0.00     0.338 C 
ATOM     34  O   UNL A   1      41.302  24.584  25.835  1.00  0.00    -0.246 OA
BRANCH  33  35
ATOM     35  C   UNL A   1      40.443  25.741  27.714  1.00  0.00     0.060 A 
ATOM     36  C   UNL A   1      39.415  25.724  28.662  1.00  0.00     0.016 A 
ATOM     37  C   UNL A   1      41.475  26.676  27.793  1.00  0.00     0.016 A 
ATOM     38  C   UNL A   1      39.410  26.652  29.698  1.00  0.00     0.010 A 
ATOM     39  C   UNL A   1      41.466  27.611  28.830  1.00  0.00     0.010 A 
ATOM     40  C   UNL A   1      40.427  27.611  29.778  1.00  0.00    -0.014 A 
BRANCH  40  41
ATOM     41  C   UNL A   1      40.369  28.661  30.818  1.00  0.00     0.031 A 
ATOM     42  C   UNL A   1      41.288  28.578  32.002  1.00  0.00     0.074 A 
ATOM     43  C   UNL A   1      39.502  29.682  30.691  1.00  0.00     0.049 A 
ATOM     44  N   UNL A   1      41.337  29.336  33.065  1.00  0.00    -0.248 NA
ATOM     45  C   UNL A   1      42.282  27.493  31.987  1.00  0.00     0.031 C 
ATOM     46  C   UNL A   1      38.593  29.882  29.562  1.00  0.00     0.029 A 
ATOM     47  N   UNL A   1      39.238  30.738  31.525  1.00  0.00    -0.354 N 
ATOM     48  C   UNL A   1      42.351  28.812  33.856  1.00  0.00     0.074 A 
ATOM     49  C   UNL A   1      42.882  27.662  33.157  1.00  0.00     0.031 C 
ATOM     50  C   UNL A   1      37.865  30.989  29.778  1.00  0.00     0.029 A 
ATOM     51  C   UNL A   1      38.227  31.552  31.076  1.00  0.00     0.049 A 
ATOM     52  H   UNL A   1      39.728  30.898  32.365  1.00  0.00     0.167 HD
ATOM     53  C   UNL A   1      42.796  29.255  35.056  1.00  0.00     0.037 A 
ATOM     54  C   UNL A   1      37.639  32.613  31.663  1.00  0.00     0.037 A 
ATOM     55  C   UNL A   1      42.263  30.407  35.736  1.00  0.00     0.049 A 
ATOM     56  C   UNL A   1      38.118  33.056  33.019  1.00  0.00     0.074 A 
ATOM     57  C   UNL A   1      42.650  30.945  36.951  1.00  0.00     0.029 A 
ATOM     58  N   UNL A   1      41.227  31.197  35.261  1.00  0.00    -0.354 N 
ATOM     59  N   UNL A   1      39.077  32.549  33.760  1.00  0.00    -0.248 NA
ATOM     60  C   UNL A   1      37.436  34.208  33.621  1.00  0.00     0.031 C 
ATOM     61  C   UNL A   1      41.822  32.040  37.226  1.00  0.00     0.029 A 
ATOM     62  C   UNL A   1      40.949  32.209  36.163  1.00  0.00     0.049 A 
ATOM     63  H   UNL A   1      40.759  31.058  34.406  1.00  0.00     0.167 HD
ATOM     64  C   UNL A   1      39.123  33.332  34.909  1.00  0.00     0.074 A 
ATOM     65  C   UNL A   1      38.106  34.354  34.758  1.00  0.00     0.031 C 
ATOM     66  C   UNL A   1      39.932  33.217  35.990  1.00  0.00     0.037 A 
BRANCH  53  67
ATOM     67  C   UNL A   1      43.894  28.472  35.719  1.00  0.00     0.058 A 
ATOM     68  C   UNL A   1      43.620  27.426  36.614  1.00  0.00     0.135 A 
ATOM     69  C   UNL A   1      45.240  28.761  35.443  1.00  0.00     0.135 A 
ATOM     70  F   UNL A   1      42.350  27.121  36.929  1.00  0.00    -0.206 F 
ATOM     71  C   UNL A   1      44.641  26.711  37.231  1.00  0.00     0.059 A 
ATOM     72  C   UNL A   1      46.277  28.044  36.030  1.00  0.00     0.059 A 
ATOM     73  F   UNL A   1      45.558  29.755  34.597  1.00  0.00    -0.206 F 
ATOM     74  C   UNL A   1      45.968  27.030  36.935  1.00  0.00     0.060 A 
BRANCH  74  75
ATOM     75  S   UNL A   1      47.284  26.099  37.748  1.00  0.00     0.124 S 
ATOM     76  O   UNL A   1      47.952  27.149  38.513  1.00  0.00    -0.237 OA
ATOM     77  O   UNL A   1      46.538  25.121  38.535  1.00  0.00    -0.237 OA
ATOM     78  O   UNL A   1      48.050  25.550  36.635  1.00  0.00    -0.744 OA
ENDBRANCH  74  75
ENDBRANCH  53  67
BRANCH  54  79
ATOM     79  C   UNL A   1      36.522  33.313  30.978  1.00  0.00     0.058 A 
ATOM     80  C   UNL A   1      35.200  33.176  31.423  1.00  0.00     0.135 A 
ATOM     81  C   UNL A   1      36.758  34.147  29.874  1.00  0.00     0.135 A 
ATOM     82  F   UNL A   1      34.925  32.382  32.469  1.00  0.00    -0.206 F 
ATOM     83  C   UNL A   1      34.148  33.831  30.792  1.00  0.00     0.059 A 
ATOM     84  C   UNL A   1      35.726  34.832  29.241  1.00  0.00     0.059 A 
ATOM     85  F   UNL A   1      38.007  34.321  29.417  1.00  0.00    -0.206 F 
ATOM     86  C   UNL A   1      34.421  34.660  29.703  1.00  0.00     0.060 A 
BRANCH  86  87
ATOM     87  S   UNL A   1      33.056  35.548  28.923  1.00  0.00     0.124 S 
ATOM     88  O   UNL A   1      32.437  34.494  28.128  1.00  0.00    -0.237 OA
ATOM     89  O   UNL A   1      32.290  36.011  30.076  1.00  0.00    -0.237 OA
ATOM     90  O   UNL A   1      33.730  36.599  28.166  1.00  0.00    -0.744 OA
ENDBRANCH  86  87
ENDBRANCH  54  79
BRANCH  66  91
ATOM     91  C   UNL A   1      39.770  34.235  37.082  1.00  0.00     0.058 A 
ATOM     92  C   UNL A   1      39.019  33.963  38.236  1.00  0.00     0.135 A 
ATOM     93  C   UNL A   1      40.411  35.482  36.993  1.00  0.00     0.135 A 
ATOM     94  F   UNL A   1      38.382  32.788  38.365  1.00  0.00    -0.206 F 
ATOM     95  C   UNL A   1      38.895  34.898  39.258  1.00  0.00     0.059 A 
ATOM     96  C   UNL A   1      40.319  36.422  38.014  1.00  0.00     0.059 A 
ATOM     97  F   UNL A   1      41.148  35.787  35.914  1.00  0.00    -0.206 F 
ATOM     98  C   UNL A   1      39.550  36.126  39.137  1.00  0.00     0.060 A 
BRANCH  98  99
ATOM     99  S   UNL A   1      39.411  37.319  40.485  1.00  0.00     0.124 S 
ATOM    100  O   UNL A   1      40.814  37.560  40.808  1.00  0.00    -0.237 OA
ATOM    101  O   UNL A   1      38.707  38.430  39.851  1.00  0.00    -0.237 OA
ATOM    102  O   UNL A   1      38.647  36.598  41.498  1.00  0.00    -0.744 OA
ENDBRANCH  98  99
ENDBRANCH  66  91
ENDBRANCH  40  41
ENDBRANCH  33  35
ENDBRANCH  32  33
ENDBRANCH  31  32
ENDBRANCH   1  31
TORSDOF 19
ENDMDL
MODEL 2
REMARK VINA RESULT:     -11.7      1.068      8.106
REMARK SMILES COc1cc2c(cc1OC)[C@@H](CC(=O)OCCOC(=O)c1ccc(-c3c4nc(c(-c5c(F)cc(S(=O)(=O)[O-])cc5F)c5ccc([nH]5)c(-c5c(F)cc(S(=O)(=O)[O-])cc5F)c5nc(c(-c6c(F)cc(S(=O)(=O)[O-])cc6F)c6ccc3[nH]6)C=C5)C=C4)cc1)N(C(=O)Nc1ccc(Cl)cc1)CC2
REMARK SMILES IDX 16 1 15 2 13 3 14 4 12 5 11 6 3 7 4 8 8 9 5 10 7 11 6 12
REMARK SMILES IDX 99 13 98 14 87 15 2 16 1 17 9 18 10 19 88 20 89 21 90 22
REMARK SMILES IDX 91 24 92 25 97 26 93 27 96 28 94 29 95 30 17 31 18 32 19 33
REMARK SMILES IDX 20 34 21 35 22 36 86 37 23 38 85 39 24 40 25 41 26 42 79 43
REMARK SMILES IDX 27 44 84 45 78 46 80 47 28 48 83 49 77 50 76 51 29 53 63 54
REMARK SMILES IDX 42 55 62 56 43 57 46 58 61 59 81 60 44 61 45 62 60 64 82 65
REMARK SMILES IDX 47 66 30 67 31 68 40 69 32 70 33 71 39 72 41 73 34 74 35 75
REMARK SMILES IDX 36 76 37 77 38 78 64 79 65 80 74 81 66 82 67 83 73 84 75 85
REMARK SMILES IDX 68 86 69 87 70 88 71 89 72 90 48 91 49 92 58 93 50 94 51 95
REMARK SMILES IDX 57 96 59 97 52 98 53 99 54 100 55 101 56 102
REMARK H PARENT 90 23 80 52 46 63
REMARK Flexibility Score: inf
ROOT
ATOM      1  C   UNL A   1      38.017  22.432  25.777  1.00  0.00     0.274 C 
ENDROOT
BRANCH   1   2
ATOM      2  O   UNL A   1      36.885  23.267  26.086  1.00  0.00    -0.462 OA
BRANCH   2   3
ATOM      3  C   UNL A   1      36.117  23.663  25.043  1.00  0.00     0.308 C 
ATOM      4  O   UNL A   1      36.433  23.531  23.863  1.00  0.00    -0.252 OA
BRANCH   3   5
ATOM      5  C   UNL A   1      34.789  24.282  25.432  1.00  0.00     0.152 C 
BRANCH   5   6
ATOM      6  C   UNL A   1      33.513  23.884  24.657  1.00  0.00     0.128 C 
ATOM      7  C   UNL A   1      31.436  27.206  22.668  1.00  0.00     0.161 A 
ATOM      8  C   UNL A   1      30.902  25.923  22.689  1.00  0.00     0.054 A 
ATOM      9  C   UNL A   1      32.682  27.459  23.255  1.00  0.00     0.161 A 
ATOM     10  C   UNL A   1      31.598  24.883  23.313  1.00  0.00    -0.037 A 
ATOM     11  C   UNL A   1      33.369  26.405  23.890  1.00  0.00     0.056 A 
ATOM     12  C   UNL A   1      32.836  25.101  23.949  1.00  0.00    -0.018 A 
ATOM     13  C   UNL A   1      30.996  23.518  23.416  1.00  0.00     0.057 C 
ATOM     14  C   UNL A   1      31.108  23.109  24.876  1.00  0.00     0.127 C 
ATOM     15  N   UNL A   1      32.484  23.043  25.386  1.00  0.00    -0.317 N 
BRANCH   7  16
ATOM     16  O   UNL A   1      30.616  28.183  22.160  1.00  0.00    -0.493 OA
ATOM     17  C   UNL A   1      29.408  28.321  22.903  1.00  0.00     0.278 C 
ENDBRANCH   7  16
BRANCH   9  18
ATOM     18  O   UNL A   1      33.124  28.756  23.231  1.00  0.00    -0.493 OA
ATOM     19  C   UNL A   1      33.005  29.509  24.433  1.00  0.00     0.278 C 
ENDBRANCH   9  18
BRANCH  15  20
ATOM     20  C   UNL A   1      32.810  22.386  26.549  1.00  0.00     0.322 C 
ATOM     21  O   UNL A   1      32.434  22.764  27.663  1.00  0.00    -0.248 OA
ATOM     22  N   UNL A   1      33.668  21.324  26.579  1.00  0.00    -0.308 N 
ATOM     23  H   UNL A   1      34.346  21.346  27.291  1.00  0.00     0.171 HD
BRANCH  22  24
ATOM     24  C   UNL A   1      33.711  20.214  25.737  1.00  0.00     0.042 A 
ATOM     25  C   UNL A   1      34.945  19.858  25.192  1.00  0.00     0.028 A 
ATOM     26  C   UNL A   1      32.555  19.499  25.412  1.00  0.00     0.028 A 
ATOM     27  C   UNL A   1      35.049  18.714  24.404  1.00  0.00     0.022 A 
ATOM     28  C   UNL A   1      32.663  18.345  24.633  1.00  0.00     0.022 A 
ATOM     29  C   UNL A   1      33.911  17.951  24.147  1.00  0.00     0.041 A 
ATOM     30  Cl  UNL A   1      34.058  16.499  23.235  1.00  0.00    -0.084 Cl
ENDBRANCH  22  24
ENDBRANCH  15  20
ENDBRANCH   5   6
ENDBRANCH   3   5
ENDBRANCH   2   3
ENDBRANCH   1   2
BRANCH   1  31
ATOM     31  C   UNL A   1      39.268  22.948  26.487  1.00  0.00     0.275 C 
BRANCH  31  32
ATOM     32  O   UNL A   1      39.347  24.380  26.404  1.00  0.00    -0.458 OA
BRANCH  32  33
ATOM     33  C   UNL A   1      40.554  24.901  26.721  1.00  0.00     0.338 C 
ATOM     34  O   UNL A   1      41.620  24.711  26.150  1.00  0.00    -0.246 OA
BRANCH  33  35
ATOM     35  C   UNL A   1      40.386  25.888  27.792  1.00  0.00     0.060 A 
ATOM     36  C   UNL A   1      41.324  26.921  27.886  1.00  0.00     0.016 A 
ATOM     37  C   UNL A   1      39.354  25.771  28.724  1.00  0.00     0.016 A 
ATOM     38  C   UNL A   1      41.239  27.844  28.923  1.00  0.00     0.010 A 
ATOM     39  C   UNL A   1      39.274  26.694  29.768  1.00  0.00     0.010 A 
ATOM     40  C   UNL A   1      40.222  27.726  29.879  1.00  0.00    -0.014 A 
BRANCH  40  41
ATOM     41  C   UNL A   1      40.191  28.644  31.038  1.00  0.00     0.031 A 
ATOM     42  C   UNL A   1      39.223  29.793  31.043  1.00  0.00     0.074 A 
ATOM     43  C   UNL A   1      41.020  28.441  32.077  1.00  0.00     0.049 A 
ATOM     44  N   UNL A   1      39.096  30.762  31.909  1.00  0.00    -0.248 NA
ATOM     45  C   UNL A   1      38.276  29.858  29.918  1.00  0.00     0.031 C 
ATOM     46  C   UNL A   1      41.971  27.334  32.193  1.00  0.00     0.029 A 
ATOM     47  N   UNL A   1      41.203  29.163  33.228  1.00  0.00    -0.354 N 
ATOM     48  C   UNL A   1      38.069  31.565  31.429  1.00  0.00     0.074 A 
ATOM     49  C   UNL A   1      37.617  30.977  30.186  1.00  0.00     0.031 C 
ATOM     50  C   UNL A   1      42.643  27.455  33.350  1.00  0.00     0.029 A 
ATOM     51  C   UNL A   1      42.200  28.668  34.033  1.00  0.00     0.049 A 
ATOM     52  H   UNL A   1      40.670  29.959  33.456  1.00  0.00     0.167 HD
ATOM     53  C   UNL A   1      37.552  32.689  31.979  1.00  0.00     0.037 A 
ATOM     54  C   UNL A   1      42.717  29.156  35.177  1.00  0.00     0.037 A 
ATOM     55  C   UNL A   1      38.007  33.259  33.221  1.00  0.00     0.049 A 
ATOM     56  C   UNL A   1      42.159  30.435  35.744  1.00  0.00     0.074 A 
ATOM     57  C   UNL A   1      37.544  34.390  33.871  1.00  0.00     0.029 A 
ATOM     58  N   UNL A   1      39.031  32.741  34.001  1.00  0.00    -0.354 N 
ATOM     59  N   UNL A   1      41.190  31.188  35.278  1.00  0.00    -0.248 NA
ATOM     60  C   UNL A   1      42.766  30.933  36.984  1.00  0.00     0.031 C 
ATOM     61  C   UNL A   1      38.314  34.574  35.026  1.00  0.00     0.029 A 
ATOM     62  C   UNL A   1      39.227  33.536  35.117  1.00  0.00     0.049 A 
ATOM     63  H   UNL A   1      39.542  31.926  33.791  1.00  0.00     0.167 HD
ATOM     64  C   UNL A   1      41.060  32.240  36.178  1.00  0.00     0.074 A 
ATOM     65  C   UNL A   1      42.041  32.018  37.222  1.00  0.00     0.031 C 
ATOM     66  C   UNL A   1      40.208  33.293  36.145  1.00  0.00     0.037 A 
BRANCH  53  67
ATOM     67  C   UNL A   1      36.458  33.390  31.225  1.00  0.00     0.058 A 
ATOM     68  C   UNL A   1      36.706  34.060  30.016  1.00  0.00     0.135 A 
ATOM     69  C   UNL A   1      35.140  33.377  31.708  1.00  0.00     0.135 A 
ATOM     70  F   UNL A   1      37.952  34.120  29.519  1.00  0.00    -0.206 F 
ATOM     71  C   UNL A   1      35.690  34.714  29.326  1.00  0.00     0.059 A 
ATOM     72  C   UNL A   1      34.104  34.004  31.023  1.00  0.00     0.059 A 
ATOM     73  F   UNL A   1      34.849  32.753  32.861  1.00  0.00    -0.206 F 
ATOM     74  C   UNL A   1      34.392  34.684  29.840  1.00  0.00     0.060 A 
BRANCH  74  75
ATOM     75  S   UNL A   1      33.084  35.543  28.940  1.00  0.00     0.124 S 
ATOM     76  O   UNL A   1      33.855  36.497  28.148  1.00  0.00    -0.237 OA
ATOM     77  O   UNL A   1      32.456  34.460  28.189  1.00  0.00    -0.237 OA
ATOM     78  O   UNL A   1      32.266  36.123  30.000  1.00  0.00    -0.744 OA
ENDBRANCH  74  75
ENDBRANCH  53  67
BRANCH  54  79
ATOM     79  C   UNL A   1      43.834  28.444  35.849  1.00  0.00     0.058 A 
ATOM     80  C   UNL A   1      45.170  28.777  35.583  1.00  0.00     0.135 A 
ATOM     81  C   UNL A   1      43.587  27.426  36.784  1.00  0.00     0.135 A 
ATOM     82  F   UNL A   1      45.455  29.737  34.690  1.00  0.00    -0.206 F 
ATOM     83  C   UNL A   1      46.223  28.120  36.209  1.00  0.00     0.059 A 
ATOM     84  C   UNL A   1      44.623  26.770  37.441  1.00  0.00     0.059 A 
ATOM     85  F   UNL A   1      42.326  27.078  37.082  1.00  0.00    -0.206 F 
ATOM     86  C   UNL A   1      45.939  27.119  37.140  1.00  0.00     0.060 A 
BRANCH  86  87
ATOM     87  S   UNL A   1      47.311  26.307  37.989  1.00  0.00     0.124 S 
ATOM     88  O   UNL A   1      47.965  27.437  38.638  1.00  0.00    -0.237 OA
ATOM     89  O   UNL A   1      46.619  25.376  38.873  1.00  0.00    -0.237 OA
ATOM     90  O   UNL A   1      48.057  25.685  36.898  1.00  0.00    -0.744 OA
ENDBRANCH  86  87
ENDBRANCH  54  79
BRANCH  66  91
ATOM     91  C   UNL A   1      40.280  34.271  37.283  1.00  0.00     0.058 A 
ATOM     92  C   UNL A   1      41.148  35.373  37.252  1.00  0.00     0.135 A 
ATOM     93  C   UNL A   1      39.435  34.130  38.396  1.00  0.00     0.135 A 
ATOM     94  F   UNL A   1      41.979  35.549  36.213  1.00  0.00    -0.206 F 
ATOM     95  C   UNL A   1      41.190  36.293  38.294  1.00  0.00     0.059 A 
ATOM     96  C   UNL A   1      39.445  35.050  39.439  1.00  0.00     0.059 A 
ATOM     97  F   UNL A   1      38.580  33.098  38.469  1.00  0.00    -0.206 F 
ATOM     98  C   UNL A   1      40.334  36.123  39.385  1.00  0.00     0.060 A 
BRANCH  98  99
ATOM     99  S   UNL A   1      40.372  37.341  40.717  1.00  0.00     0.124 S 
ATOM    100  O   UNL A   1      40.954  36.564  41.807  1.00  0.00    -0.237 OA
ATOM    101  O   UNL A   1      41.223  38.389  40.161  1.00  0.00    -0.237 OA
ATOM    102  O   UNL A   1      38.969  37.704  40.883  1.00  0.00    -0.744 OA
ENDBRANCH  98  99
ENDBRANCH  66  91
ENDBRANCH  40  41
ENDBRANCH  33  35
ENDBRANCH  32  33
ENDBRANCH  31  32
ENDBRANCH   1  31
TORSDOF 19
ENDMDL
MODEL 3
REMARK VINA RESULT:     -11.3      1.832      4.442
REMARK SMILES COc1cc2c(cc1OC)[C@@H](CC(=O)OCCOC(=O)c1ccc(-c3c4nc(c(-c5c(F)cc(S(=O)(=O)[O-])cc5F)c5ccc([nH]5)c(-c5c(F)cc(S(=O)(=O)[O-])cc5F)c5nc(c(-c6c(F)cc(S(=O)(=O)[O-])cc6F)c6ccc3[nH]6)C=C5)C=C4)cc1)N(C(=O)Nc1ccc(Cl)cc1)CC2
REMARK SMILES IDX 16 1 15 2 13 3 14 4 12 5 11 6 3 7 4 8 8 9 5 10 7 11 6 12
REMARK SMILES IDX 99 13 98 14 87 15 2 16 1 17 9 18 10 19 88 20 89 21 90 22
REMARK SMILES IDX 91 24 92 25 97 26 93 27 96 28 94 29 95 30 17 31 18 32 19 33
REMARK SMILES IDX 20 34 21 35 22 36 86 37 23 38 85 39 24 40 25 41 26 42 79 43
REMARK SMILES IDX 27 44 84 45 78 46 80 47 28 48 83 49 77 50 76 51 29 53 63 54
REMARK SMILES IDX 42 55 62 56 43 57 46 58 61 59 81 60 44 61 45 62 60 64 82 65
REMARK SMILES IDX 47 66 30 67 31 68 40 69 32 70 33 71 39 72 41 73 34 74 35 75
REMARK SMILES IDX 36 76 37 77 38 78 64 79 65 80 74 81 66 82 67 83 73 84 75 85
REMARK SMILES IDX 68 86 69 87 70 88 71 89 72 90 48 91 49 92 58 93 50 94 51 95
REMARK SMILES IDX 57 96 59 97 52 98 53 99 54 100 55 101 56 102
REMARK H PARENT 90 23 80 52 46 63
REMARK Flexibility Score: inf
ROOT
ATOM      1  C   UNL A   1      38.604  22.439  26.672  1.00  0.00     0.274 C 
ENDROOT
BRANCH   1   2
ATOM      2  O   UNL A   1      37.980  21.920  25.483  1.00  0.00    -0.462 OA
BRANCH   2   3
ATOM      3  C   UNL A   1      36.938  22.625  24.983  1.00  0.00     0.308 C 
ATOM      4  O   UNL A   1      36.762  23.826  25.172  1.00  0.00    -0.252 OA
BRANCH   3   5
ATOM      5  C   UNL A   1      35.978  21.821  24.129  1.00  0.00     0.152 C 
BRANCH   5   6
ATOM      6  C   UNL A   1      34.524  21.621  24.609  1.00  0.00     0.128 C 
ATOM      7  C   UNL A   1      33.257  17.431  25.001  1.00  0.00     0.161 A 
ATOM      8  C   UNL A   1      32.364  18.481  25.181  1.00  0.00     0.054 A 
ATOM      9  C   UNL A   1      34.605  17.694  24.724  1.00  0.00     0.161 A 
ATOM     10  C   UNL A   1      32.804  19.804  25.069  1.00  0.00    -0.037 A 
ATOM     11  C   UNL A   1      35.033  19.032  24.604  1.00  0.00     0.056 A 
ATOM     12  C   UNL A   1      34.142  20.113  24.756  1.00  0.00    -0.018 A 
ATOM     13  C   UNL A   1      31.837  20.940  25.179  1.00  0.00     0.057 C 
ATOM     14  C   UNL A   1      32.078  21.826  23.968  1.00  0.00     0.127 C 
ATOM     15  N   UNL A   1      33.434  22.385  23.883  1.00  0.00    -0.317 N 
BRANCH   7  16
ATOM     16  O   UNL A   1      32.704  16.175  24.987  1.00  0.00    -0.493 OA
ATOM     17  C   UNL A   1      31.836  15.950  26.095  1.00  0.00     0.278 C 
ENDBRANCH   7  16
BRANCH   9  18
ATOM     18  O   UNL A   1      35.416  16.609  24.518  1.00  0.00    -0.493 OA
ATOM     19  C   UNL A   1      36.100  16.082  25.649  1.00  0.00     0.278 C 
ENDBRANCH   9  18
BRANCH  15  20
ATOM     20  C   UNL A   1      33.744  23.450  23.071  1.00  0.00     0.322 C 
ATOM     21  O   UNL A   1      33.885  23.345  21.849  1.00  0.00    -0.248 OA
ATOM     22  N   UNL A   1      34.032  24.691  23.562  1.00  0.00    -0.308 N 
ATOM     23  H   UNL A   1      34.817  25.133  23.167  1.00  0.00     0.171 HD
BRANCH  22  24
ATOM     24  C   UNL A   1      33.362  25.416  24.547  1.00  0.00     0.042 A 
ATOM     25  C   UNL A   1      34.128  26.190  25.419  1.00  0.00     0.028 A 
ATOM     26  C   UNL A   1      31.974  25.345  24.688  1.00  0.00     0.028 A 
ATOM     27  C   UNL A   1      33.497  26.987  26.372  1.00  0.00     0.022 A 
ATOM     28  C   UNL A   1      31.342  26.154  25.635  1.00  0.00     0.022 A 
ATOM     29  C   UNL A   1      32.106  26.982  26.460  1.00  0.00     0.041 A 
ATOM     30  Cl  UNL A   1      31.328  28.024  27.587  1.00  0.00    -0.084 Cl
ENDBRANCH  22  24
ENDBRANCH  15  20
ENDBRANCH   5   6
ENDBRANCH   3   5
ENDBRANCH   2   3
ENDBRANCH   1   2
BRANCH   1  31
ATOM     31  C   UNL A   1      40.057  22.814  26.391  1.00  0.00     0.275 C 
BRANCH  31  32
ATOM     32  O   UNL A   1      40.203  24.239  26.276  1.00  0.00    -0.458 OA
BRANCH  32  33
ATOM     33  C   UNL A   1      41.386  24.726  26.717  1.00  0.00     0.338 C 
ATOM     34  O   UNL A   1      42.505  24.450  26.303  1.00  0.00    -0.246 OA
BRANCH  33  35
ATOM     35  C   UNL A   1      41.135  25.790  27.694  1.00  0.00     0.060 A 
ATOM     36  C   UNL A   1      42.084  26.810  27.813  1.00  0.00     0.016 A 
ATOM     37  C   UNL A   1      40.011  25.757  28.520  1.00  0.00     0.016 A 
ATOM     38  C   UNL A   1      41.917  27.805  28.770  1.00  0.00     0.010 A 
ATOM     39  C   UNL A   1      39.848  26.754  29.484  1.00  0.00     0.010 A 
ATOM     40  C   UNL A   1      40.806  27.774  29.621  1.00  0.00    -0.014 A 
BRANCH  40  41
ATOM     41  C   UNL A   1      40.681  28.773  30.705  1.00  0.00     0.031 A 
ATOM     42  C   UNL A   1      41.573  28.670  31.909  1.00  0.00     0.074 A 
ATOM     43  C   UNL A   1      39.778  29.765  30.601  1.00  0.00     0.049 A 
ATOM     44  N   UNL A   1      41.565  29.380  33.005  1.00  0.00    -0.248 NA
ATOM     45  C   UNL A   1      42.608  27.625  31.872  1.00  0.00     0.031 C 
ATOM     46  C   UNL A   1      38.890  29.981  29.458  1.00  0.00     0.029 A 
ATOM     47  N   UNL A   1      39.452  30.770  31.475  1.00  0.00    -0.354 N 
ATOM     48  C   UNL A   1      42.579  28.859  33.799  1.00  0.00     0.074 A 
ATOM     49  C   UNL A   1      43.172  27.763  33.064  1.00  0.00     0.031 C 
ATOM     50  C   UNL A   1      38.114  31.049  29.704  1.00  0.00     0.029 A 
ATOM     51  C   UNL A   1      38.421  31.565  31.036  1.00  0.00     0.049 A 
ATOM     52  H   UNL A   1      39.914  30.910  32.333  1.00  0.00     0.167 HD
ATOM     53  C   UNL A   1      42.977  29.264  35.029  1.00  0.00     0.037 A 
ATOM     54  C   UNL A   1      37.778  32.575  31.654  1.00  0.00     0.037 A 
ATOM     55  C   UNL A   1      42.382  30.362  35.746  1.00  0.00     0.049 A 
ATOM     56  C   UNL A   1      38.206  32.973  33.041  1.00  0.00     0.074 A 
ATOM     57  C   UNL A   1      42.717  30.858  36.993  1.00  0.00     0.029 A 
ATOM     58  N   UNL A   1      41.328  31.133  35.278  1.00  0.00    -0.354 N 
ATOM     59  N   UNL A   1      39.164  32.470  33.783  1.00  0.00    -0.248 NA
ATOM     60  C   UNL A   1      37.464  34.069  33.676  1.00  0.00     0.031 C 
ATOM     61  C   UNL A   1      41.841  31.907  37.294  1.00  0.00     0.029 A 
ATOM     62  C   UNL A   1      40.988  32.091  36.218  1.00  0.00     0.049 A 
ATOM     63  H   UNL A   1      40.887  31.015  34.406  1.00  0.00     0.167 HD
ATOM     64  C   UNL A   1      39.151  33.200  34.967  1.00  0.00     0.074 A 
ATOM     65  C   UNL A   1      38.099  34.188  34.835  1.00  0.00     0.031 C 
ATOM     66  C   UNL A   1      39.937  33.067  36.063  1.00  0.00     0.037 A 
BRANCH  53  67
ATOM     67  C   UNL A   1      44.088  28.494  35.685  1.00  0.00     0.058 A 
ATOM     68  C   UNL A   1      45.437  28.817  35.473  1.00  0.00     0.135 A 
ATOM     69  C   UNL A   1      43.799  27.429  36.554  1.00  0.00     0.135 A 
ATOM     70  F   UNL A   1      45.771  29.813  34.637  1.00  0.00    -0.206 F 
ATOM     71  C   UNL A   1      46.462  28.095  36.077  1.00  0.00     0.059 A 
ATOM     72  C   UNL A   1      44.806  26.708  37.187  1.00  0.00     0.059 A 
ATOM     73  F   UNL A   1      42.524  27.076  36.789  1.00  0.00    -0.206 F 
ATOM     74  C   UNL A   1      46.135  27.039  36.931  1.00  0.00     0.060 A 
BRANCH  74  75
ATOM     75  S   UNL A   1      47.473  26.105  37.703  1.00  0.00     0.124 S 
ATOM     76  O   UNL A   1      47.494  24.896  36.884  1.00  0.00    -0.237 OA
ATOM     77  O   UNL A   1      48.616  26.999  37.540  1.00  0.00    -0.237 OA
ATOM     78  O   UNL A   1      47.014  25.925  39.076  1.00  0.00    -0.744 OA
ENDBRANCH  74  75
ENDBRANCH  53  67
BRANCH  54  79
ATOM     79  C   UNL A   1      36.652  33.263  30.972  1.00  0.00     0.058 A 
ATOM     80  C   UNL A   1      36.881  34.151  29.912  1.00  0.00     0.135 A 
ATOM     81  C   UNL A   1      35.322  33.034  31.359  1.00  0.00     0.135 A 
ATOM     82  F   UNL A   1      38.136  34.409  29.514  1.00  0.00    -0.206 F 
ATOM     83  C   UNL A   1      35.833  34.798  29.265  1.00  0.00     0.059 A 
ATOM     84  C   UNL A   1      34.256  33.650  30.711  1.00  0.00     0.059 A 
ATOM     85  F   UNL A   1      35.049  32.184  32.360  1.00  0.00    -0.206 F 
ATOM     86  C   UNL A   1      34.523  34.538  29.670  1.00  0.00     0.060 A 
BRANCH  86  87
ATOM     87  S   UNL A   1      33.166  35.341  28.789  1.00  0.00     0.124 S 
ATOM     88  O   UNL A   1      33.882  36.315  27.973  1.00  0.00    -0.237 OA
ATOM     89  O   UNL A   1      32.564  34.225  28.067  1.00  0.00    -0.237 OA
ATOM     90  O   UNL A   1      32.350  35.894  29.865  1.00  0.00    -0.744 OA
ENDBRANCH  86  87
ENDBRANCH  54  79
BRANCH  66  91
ATOM     91  C   UNL A   1      39.708  34.027  37.195  1.00  0.00     0.058 A 
ATOM     92  C   UNL A   1      38.942  33.672  38.316  1.00  0.00     0.135 A 
ATOM     93  C   UNL A   1      40.301  35.300  37.178  1.00  0.00     0.135 A 
ATOM     94  F   UNL A   1      38.350  32.469  38.376  1.00  0.00    -0.206 F 
ATOM     95  C   UNL A   1      38.756  34.554  39.375  1.00  0.00     0.059 A 
ATOM     96  C   UNL A   1      40.146  36.189  38.237  1.00  0.00     0.059 A 
ATOM     97  F   UNL A   1      41.050  35.683  36.133  1.00  0.00    -0.206 F 
ATOM     98  C   UNL A   1      39.363  35.811  39.326  1.00  0.00     0.060 A 
BRANCH  98  99
ATOM     99  S   UNL A   1      39.144  36.936  40.722  1.00  0.00     0.124 S 
ATOM    100  O   UNL A   1      38.457  36.079  41.683  1.00  0.00    -0.237 OA
ATOM    101  O   UNL A   1      40.520  37.290  41.060  1.00  0.00    -0.237 OA
ATOM    102  O   UNL A   1      38.344  38.020  40.161  1.00  0.00    -0.744 OA
ENDBRANCH  98  99
ENDBRANCH  66  91
ENDBRANCH  40  41
ENDBRANCH  33  35
ENDBRANCH  32  33
ENDBRANCH  31  32
ENDBRANCH   1  31
TORSDOF 19
ENDMDL
