MODEL 1
REMARK VINA RESULT:     -10.0      0.000      0.000
REMARK SMILES O=C(OCCOC(=O)[C@H]1C[C@](F)(c2cccc(F)c2)C1)c1ccc(-c2c3nc(c(-c4c(F)cc(S(=O)(=O)[O-])cc4F)c4ccc([nH]4)c(-c4c(F)cc(S(=O)(=O)[O-])cc4F)c4nc(c(-c5c(F)cc(S(=O)(=O)[O-])cc5F)c5ccc2[nH]5)C=C4)C=C3)cc1
REMARK SMILES IDX 4 1 3 2 2 3 1 4 21 5 22 6 86 7 23 8 85 9 24 10 25 11 26 12
REMARK SMILES IDX 79 13 27 14 84 15 78 16 80 17 28 18 83 19 77 20 76 21 29 23
REMARK SMILES IDX 63 24 42 25 62 26 43 27 46 28 61 29 81 30 44 31 45 32 60 34
REMARK SMILES IDX 82 35 47 36 30 37 31 38 40 39 32 40 33 41 39 42 41 43 34 44
REMARK SMILES IDX 35 45 36 46 37 47 38 48 64 49 65 50 74 51 66 52 67 53 73 54
REMARK SMILES IDX 75 55 68 56 69 57 70 58 71 59 72 60 48 61 49 62 58 63 50 64
REMARK SMILES IDX 51 65 57 66 59 67 52 68 53 69 54 70 55 71 56 72 5 73 6 74
REMARK SMILES IDX 7 75 8 76 9 77 10 78 20 79 11 80 12 81 13 82 14 83 19 84
REMARK SMILES IDX 15 85 17 86 16 87 18 88
REMARK H PARENT 80 22 46 33
REMARK Flexibility Score: inf
ROOT
ATOM      1  C   UNL A   1      40.098  21.243  26.780  1.00  0.00     0.275 C 
ENDROOT
BRANCH   1   2
ATOM      2  O   UNL A   1      39.108  21.893  25.966  1.00  0.00    -0.458 OA
BRANCH   2   3
ATOM      3  C   UNL A   1      38.665  23.173  25.974  1.00  0.00     0.338 C 
ATOM      4  O   UNL A   1      37.668  23.431  25.300  1.00  0.00    -0.246 OA
BRANCH   3   5
ATOM      5  C   UNL A   1      39.351  24.322  26.662  1.00  0.00     0.060 A 
ATOM      6  C   UNL A   1      40.260  25.224  26.097  1.00  0.00     0.016 A 
ATOM      7  C   UNL A   1      38.983  24.537  28.003  1.00  0.00     0.016 A 
ATOM      8  C   UNL A   1      40.684  26.370  26.787  1.00  0.00     0.010 A 
ATOM      9  C   UNL A   1      39.392  25.686  28.691  1.00  0.00     0.010 A 
ATOM     10  C   UNL A   1      40.213  26.637  28.069  1.00  0.00    -0.014 A 
BRANCH  10  11
ATOM     11  C   UNL A   1      40.643  27.848  28.808  1.00  0.00     0.031 A 
ATOM     12  C   UNL A   1      41.987  27.817  29.464  1.00  0.00     0.074 A 
ATOM     13  C   UNL A   1      39.865  28.948  28.900  1.00  0.00     0.049 A 
ATOM     14  N   UNL A   1      42.582  28.748  30.156  1.00  0.00    -0.248 NA
ATOM     15  C   UNL A   1      42.781  26.587  29.290  1.00  0.00     0.031 C 
ATOM     16  C   UNL A   1      38.586  29.145  28.225  1.00  0.00     0.029 A 
ATOM     17  N   UNL A   1      40.018  30.106  29.625  1.00  0.00    -0.354 N 
ATOM     18  C   UNL A   1      43.846  28.250  30.422  1.00  0.00     0.074 A 
ATOM     19  C   UNL A   1      43.886  26.885  29.952  1.00  0.00     0.031 C 
ATOM     20  C   UNL A   1      38.019  30.287  28.646  1.00  0.00     0.029 A 
ATOM     21  C   UNL A   1      38.918  30.937  29.584  1.00  0.00     0.049 A 
ATOM     22  H   UNL A   1      40.837  30.322  30.126  1.00  0.00     0.167 HD
ATOM     23  C   UNL A   1      44.911  28.907  30.926  1.00  0.00     0.037 A 
ATOM     24  C   UNL A   1      38.671  32.103  30.214  1.00  0.00     0.037 A 
ATOM     25  C   UNL A   1      44.850  30.252  31.418  1.00  0.00     0.049 A 
ATOM     26  C   UNL A   1      39.796  32.730  30.985  1.00  0.00     0.074 A 
ATOM     27  C   UNL A   1      45.857  31.012  31.975  1.00  0.00     0.029 A 
ATOM     28  N   UNL A   1      43.699  31.032  31.427  1.00  0.00    -0.354 N 
ATOM     29  N   UNL A   1      41.013  32.274  31.168  1.00  0.00    -0.248 NA
ATOM     30  C   UNL A   1      39.550  34.051  31.577  1.00  0.00     0.031 C 
ATOM     31  C   UNL A   1      45.304  32.233  32.373  1.00  0.00     0.029 A 
ATOM     32  C   UNL A   1      43.964  32.256  32.012  1.00  0.00     0.049 A 
ATOM     33  H   UNL A   1      42.824  30.753  31.070  1.00  0.00     0.167 HD
ATOM     34  C   UNL A   1      41.701  33.281  31.830  1.00  0.00     0.074 A 
ATOM     35  C   UNL A   1      40.755  34.360  32.042  1.00  0.00     0.031 C 
ATOM     36  C   UNL A   1      43.004  33.318  32.200  1.00  0.00     0.037 A 
BRANCH  23  37
ATOM     37  C   UNL A   1      46.213  28.166  30.923  1.00  0.00     0.058 A 
ATOM     38  C   UNL A   1      46.564  27.312  31.976  1.00  0.00     0.135 A 
ATOM     39  C   UNL A   1      47.097  28.269  29.832  1.00  0.00     0.135 A 
ATOM     40  F   UNL A   1      45.744  27.163  33.027  1.00  0.00    -0.206 F 
ATOM     41  C   UNL A   1      47.745  26.581  31.948  1.00  0.00     0.059 A 
ATOM     42  C   UNL A   1      48.271  27.527  29.772  1.00  0.00     0.059 A 
ATOM     43  F   UNL A   1      46.786  29.043  28.779  1.00  0.00    -0.206 F 
ATOM     44  C   UNL A   1      48.590  26.691  30.840  1.00  0.00     0.060 A 
BRANCH  44  45
ATOM     45  S   UNL A   1      50.085  25.682  30.794  1.00  0.00     0.124 S 
ATOM     46  O   UNL A   1      49.994  25.073  29.474  1.00  0.00    -0.237 OA
ATOM     47  O   UNL A   1      51.133  26.682  30.969  1.00  0.00    -0.237 OA
ATOM     48  O   UNL A   1      49.910  24.768  31.923  1.00  0.00    -0.744 OA
ENDBRANCH  44  45
ENDBRANCH  23  37
BRANCH  24  49
ATOM     49  C   UNL A   1      37.352  32.783  30.069  1.00  0.00     0.058 A 
ATOM     50  C   UNL A   1      37.140  33.755  29.079  1.00  0.00     0.135 A 
ATOM     51  C   UNL A   1      36.276  32.478  30.917  1.00  0.00     0.135 A 
ATOM     52  F   UNL A   1      38.128  34.082  28.233  1.00  0.00    -0.206 F 
ATOM     53  C   UNL A   1      35.914  34.404  28.939  1.00  0.00     0.059 A 
ATOM     54  C   UNL A   1      35.036  33.101  30.786  1.00  0.00     0.059 A 
ATOM     55  F   UNL A   1      36.423  31.549  31.873  1.00  0.00    -0.206 F 
ATOM     56  C   UNL A   1      34.867  34.070  29.798  1.00  0.00     0.060 A 
BRANCH  56  57
ATOM     57  S   UNL A   1      33.282  34.919  29.598  1.00  0.00     0.124 S 
ATOM     58  O   UNL A   1      32.805  34.983  30.976  1.00  0.00    -0.237 OA
ATOM     59  O   UNL A   1      33.694  36.192  29.010  1.00  0.00    -0.237 OA
ATOM     60  O   UNL A   1      32.532  34.035  28.715  1.00  0.00    -0.744 OA
ENDBRANCH  56  57
ENDBRANCH  24  49
BRANCH  36  61
ATOM     61  C   UNL A   1      43.509  34.579  32.837  1.00  0.00     0.058 A 
ATOM     62  C   UNL A   1      43.423  34.744  34.229  1.00  0.00     0.135 A 
ATOM     63  C   UNL A   1      43.968  35.658  32.070  1.00  0.00     0.135 A 
ATOM     64  F   UNL A   1      42.986  33.739  35.006  1.00  0.00    -0.206 F 
ATOM     65  C   UNL A   1      43.739  35.951  34.836  1.00  0.00     0.059 A 
ATOM     66  C   UNL A   1      44.321  36.866  32.660  1.00  0.00     0.059 A 
ATOM     67  F   UNL A   1      44.081  35.540  30.738  1.00  0.00    -0.206 F 
ATOM     68  C   UNL A   1      44.180  37.010  34.041  1.00  0.00     0.060 A 
BRANCH  68  69
ATOM     69  S   UNL A   1      44.564  38.579  34.842  1.00  0.00     0.124 S 
ATOM     70  O   UNL A   1      44.447  38.229  36.253  1.00  0.00    -0.237 OA
ATOM     71  O   UNL A   1      45.917  38.846  34.362  1.00  0.00    -0.237 OA
ATOM     72  O   UNL A   1      43.535  39.480  34.330  1.00  0.00    -0.744 OA
ENDBRANCH  68  69
ENDBRANCH  36  61
ENDBRANCH  10  11
ENDBRANCH   3   5
ENDBRANCH   2   3
ENDBRANCH   1   2
BRANCH   1  73
ATOM     73  C   UNL A   1      40.729  20.007  26.130  1.00  0.00     0.274 C 
BRANCH  73  74
ATOM     74  O   UNL A   1      42.082  19.792  26.565  1.00  0.00    -0.462 OA
BRANCH  74  75
ATOM     75  C   UNL A   1      43.103  20.168  25.725  1.00  0.00     0.309 C 
ATOM     76  O   UNL A   1      43.572  19.419  24.872  1.00  0.00    -0.252 OA
BRANCH  75  77
ATOM     77  C   UNL A   1      43.524  21.653  25.937  1.00  0.00     0.106 C 
ATOM     78  C   UNL A   1      43.038  22.763  24.983  1.00  0.00     0.061 C 
ATOM     79  C   UNL A   1      44.957  22.032  25.581  1.00  0.00     0.061 C 
ATOM     80  C   UNL A   1      44.501  23.215  24.711  1.00  0.00     0.137 C 
ATOM     81  F   UNL A   1      44.827  23.067  23.400  1.00  0.00    -0.239 F 
BRANCH  80  82
ATOM     82  C   UNL A   1      45.017  24.685  25.143  1.00  0.00    -0.008 A 
ATOM     83  C   UNL A   1      46.398  24.975  25.201  1.00  0.00     0.007 A 
ATOM     84  C   UNL A   1      44.173  25.726  25.597  1.00  0.00     0.046 A 
ATOM     85  C   UNL A   1      46.899  26.195  25.683  1.00  0.00     0.003 A 
ATOM     86  C   UNL A   1      44.669  26.938  26.081  1.00  0.00     0.123 A 
ATOM     87  C   UNL A   1      46.028  27.183  26.130  1.00  0.00     0.039 A 
ATOM     88  F   UNL A   1      43.810  27.870  26.515  1.00  0.00    -0.207 F 
ENDBRANCH  80  82
ENDBRANCH  75  77
ENDBRANCH  74  75
ENDBRANCH  73  74
ENDBRANCH   1  73
TORSDOF 15
ENDMDL
MODEL 2
REMARK VINA RESULT:      -9.9      3.366     10.310
REMARK SMILES O=C(OCCOC(=O)[C@H]1C[C@](F)(c2cccc(F)c2)C1)c1ccc(-c2c3nc(c(-c4c(F)cc(S(=O)(=O)[O-])cc4F)c4ccc([nH]4)c(-c4c(F)cc(S(=O)(=O)[O-])cc4F)c4nc(c(-c5c(F)cc(S(=O)(=O)[O-])cc5F)c5ccc2[nH]5)C=C4)C=C3)cc1
REMARK SMILES IDX 4 1 3 2 2 3 1 4 21 5 22 6 86 7 23 8 85 9 24 10 25 11 26 12
REMARK SMILES IDX 79 13 27 14 84 15 78 16 80 17 28 18 83 19 77 20 76 21 29 23
REMARK SMILES IDX 63 24 42 25 62 26 43 27 46 28 61 29 81 30 44 31 45 32 60 34
REMARK SMILES IDX 82 35 47 36 30 37 31 38 40 39 32 40 33 41 39 42 41 43 34 44
REMARK SMILES IDX 35 45 36 46 37 47 38 48 64 49 65 50 74 51 66 52 67 53 73 54
REMARK SMILES IDX 75 55 68 56 69 57 70 58 71 59 72 60 48 61 49 62 58 63 50 64
REMARK SMILES IDX 51 65 57 66 59 67 52 68 53 69 54 70 55 71 56 72 5 73 6 74
REMARK SMILES IDX 7 75 8 76 9 77 10 78 20 79 11 80 12 81 13 82 14 83 19 84
REMARK SMILES IDX 15 85 17 86 16 87 18 88
REMARK H PARENT 80 22 46 33
REMARK Flexibility Score: inf
ROOT
ATOM      1  C   UNL A   1      32.508  29.519  26.280  1.00  0.00     0.275 C 
ENDROOT
BRANCH   1   2
ATOM      2  O   UNL A   1      33.569  29.386  27.239  1.00  0.00    -0.458 OA
BRANCH   2   3
ATOM      3  C   UNL A   1      34.347  30.327  27.825  1.00  0.00     0.338 C 
ATOM      4  O   UNL A   1      33.904  31.475  27.878  1.00  0.00    -0.246 OA
BRANCH   3   5
ATOM      5  C   UNL A   1      35.749  30.103  28.325  1.00  0.00     0.060 A 
ATOM      6  C   UNL A   1      36.137  29.747  29.622  1.00  0.00     0.016 A 
ATOM      7  C   UNL A   1      36.765  30.210  27.358  1.00  0.00     0.016 A 
ATOM      8  C   UNL A   1      37.458  29.378  29.918  1.00  0.00     0.010 A 
ATOM      9  C   UNL A   1      38.082  29.831  27.645  1.00  0.00     0.010 A 
ATOM     10  C   UNL A   1      38.429  29.367  28.921  1.00  0.00    -0.014 A 
BRANCH  10  11
ATOM     11  C   UNL A   1      39.828  28.971  29.216  1.00  0.00     0.031 A 
ATOM     12  C   UNL A   1      40.733  30.012  29.794  1.00  0.00     0.074 A 
ATOM     13  C   UNL A   1      40.286  27.725  28.977  1.00  0.00     0.049 A 
ATOM     14  N   UNL A   1      41.986  29.905  30.140  1.00  0.00    -0.248 NA
ATOM     15  C   UNL A   1      40.142  31.338  30.050  1.00  0.00     0.031 C 
ATOM     16  C   UNL A   1      39.485  26.596  28.514  1.00  0.00     0.029 A 
ATOM     17  N   UNL A   1      41.553  27.195  29.060  1.00  0.00    -0.354 N 
ATOM     18  C   UNL A   1      42.303  31.118  30.730  1.00  0.00     0.074 A 
ATOM     19  C   UNL A   1      41.167  31.994  30.564  1.00  0.00     0.031 C 
ATOM     20  C   UNL A   1      40.282  25.548  28.248  1.00  0.00     0.029 A 
ATOM     21  C   UNL A   1      41.652  25.909  28.572  1.00  0.00     0.049 A 
ATOM     22  H   UNL A   1      42.318  27.690  29.433  1.00  0.00     0.167 HD
ATOM     23  C   UNL A   1      43.409  31.438  31.434  1.00  0.00     0.037 A 
ATOM     24  C   UNL A   1      42.721  25.103  28.422  1.00  0.00     0.037 A 
ATOM     25  C   UNL A   1      44.542  30.569  31.563  1.00  0.00     0.049 A 
ATOM     26  C   UNL A   1      44.028  25.565  29.002  1.00  0.00     0.074 A 
ATOM     27  C   UNL A   1      45.729  30.795  32.229  1.00  0.00     0.029 A 
ATOM     28  N   UNL A   1      44.631  29.306  30.991  1.00  0.00    -0.354 N 
ATOM     29  N   UNL A   1      44.292  26.692  29.620  1.00  0.00    -0.248 NA
ATOM     30  C   UNL A   1      45.160  24.634  28.929  1.00  0.00     0.031 C 
ATOM     31  C   UNL A   1      46.559  29.691  32.014  1.00  0.00     0.029 A 
ATOM     32  C   UNL A   1      45.868  28.752  31.261  1.00  0.00     0.049 A 
ATOM     33  H   UNL A   1      43.918  28.869  30.469  1.00  0.00     0.167 HD
ATOM     34  C   UNL A   1      45.597  26.577  30.077  1.00  0.00     0.074 A 
ATOM     35  C   UNL A   1      46.078  25.281  29.637  1.00  0.00     0.031 C 
ATOM     36  C   UNL A   1      46.318  27.453  30.819  1.00  0.00     0.037 A 
BRANCH  23  37
ATOM     37  C   UNL A   1      43.396  32.766  32.126  1.00  0.00     0.058 A 
ATOM     38  C   UNL A   1      43.850  33.923  31.481  1.00  0.00     0.135 A 
ATOM     39  C   UNL A   1      42.877  32.893  33.428  1.00  0.00     0.135 A 
ATOM     40  F   UNL A   1      44.332  33.857  30.232  1.00  0.00    -0.206 F 
ATOM     41  C   UNL A   1      43.786  35.165  32.102  1.00  0.00     0.059 A 
ATOM     42  C   UNL A   1      42.780  34.129  34.057  1.00  0.00     0.059 A 
ATOM     43  F   UNL A   1      42.392  31.819  34.072  1.00  0.00    -0.206 F 
ATOM     44  C   UNL A   1      43.246  35.259  33.387  1.00  0.00     0.060 A 
BRANCH  44  45
ATOM     45  S   UNL A   1      43.111  36.890  34.147  1.00  0.00     0.124 S 
ATOM     46  O   UNL A   1      43.224  37.769  32.991  1.00  0.00    -0.237 OA
ATOM     47  O   UNL A   1      41.796  36.825  34.778  1.00  0.00    -0.237 OA
ATOM     48  O   UNL A   1      44.239  36.924  35.077  1.00  0.00    -0.744 OA
ENDBRANCH  44  45
ENDBRANCH  23  37
BRANCH  24  49
ATOM     49  C   UNL A   1      42.583  23.763  27.784  1.00  0.00     0.058 A 
ATOM     50  C   UNL A   1      42.399  22.605  28.556  1.00  0.00     0.135 A 
ATOM     51  C   UNL A   1      42.633  23.609  26.390  1.00  0.00     0.135 A 
ATOM     52  F   UNL A   1      42.334  22.690  29.893  1.00  0.00    -0.206 F 
ATOM     53  C   UNL A   1      42.277  21.345  27.972  1.00  0.00     0.059 A 
ATOM     54  C   UNL A   1      42.496  22.362  25.781  1.00  0.00     0.059 A 
ATOM     55  F   UNL A   1      42.796  24.685  25.605  1.00  0.00    -0.206 F 
ATOM     56  C   UNL A   1      42.327  21.234  26.582  1.00  0.00     0.060 A 
BRANCH  56  57
ATOM     57  S   UNL A   1      42.162  19.592  25.842  1.00  0.00     0.124 S 
ATOM     58  O   UNL A   1      42.445  18.724  26.982  1.00  0.00    -0.237 OA
ATOM     59  O   UNL A   1      40.774  19.605  25.385  1.00  0.00    -0.237 OA
ATOM     60  O   UNL A   1      43.168  19.590  24.788  1.00  0.00    -0.744 OA
ENDBRANCH  56  57
ENDBRANCH  24  49
BRANCH  36  61
ATOM     61  C   UNL A   1      47.693  27.033  31.245  1.00  0.00     0.058 A 
ATOM     62  C   UNL A   1      48.784  27.230  30.383  1.00  0.00     0.135 A 
ATOM     63  C   UNL A   1      47.914  26.343  32.445  1.00  0.00     0.135 A 
ATOM     64  F   UNL A   1      48.623  27.884  29.222  1.00  0.00    -0.206 F 
ATOM     65  C   UNL A   1      50.041  26.721  30.679  1.00  0.00     0.059 A 
ATOM     66  C   UNL A   1      49.171  25.853  32.777  1.00  0.00     0.059 A 
ATOM     67  F   UNL A   1      46.903  26.146  33.306  1.00  0.00    -0.206 F 
ATOM     68  C   UNL A   1      50.222  26.026  31.876  1.00  0.00     0.060 A 
BRANCH  68  69
ATOM     69  S   UNL A   1      51.855  25.350  32.233  1.00  0.00     0.124 S 
ATOM     70  O   UNL A   1      52.645  25.876  31.126  1.00  0.00    -0.237 OA
ATOM     71  O   UNL A   1      52.142  25.920  33.547  1.00  0.00    -0.237 OA
ATOM     72  O   UNL A   1      51.635  23.907  32.219  1.00  0.00    -0.744 OA
ENDBRANCH  68  69
ENDBRANCH  36  61
ENDBRANCH  10  11
ENDBRANCH   3   5
ENDBRANCH   2   3
ENDBRANCH   1   2
BRANCH   1  73
ATOM     73  C   UNL A   1      32.789  28.837  24.937  1.00  0.00     0.274 C 
BRANCH  73  74
ATOM     74  O   UNL A   1      32.140  27.559  24.826  1.00  0.00    -0.462 OA
BRANCH  74  75
ATOM     75  C   UNL A   1      32.247  26.681  25.878  1.00  0.00     0.309 C 
ATOM     76  O   UNL A   1      31.370  26.554  26.729  1.00  0.00    -0.252 OA
BRANCH  75  77
ATOM     77  C   UNL A   1      33.552  25.833  25.808  1.00  0.00     0.106 C 
ATOM     78  C   UNL A   1      34.191  25.466  24.453  1.00  0.00     0.061 C 
ATOM     79  C   UNL A   1      33.437  24.344  26.110  1.00  0.00     0.061 C 
ATOM     80  C   UNL A   1      34.172  23.954  24.817  1.00  0.00     0.137 C 
ATOM     81  F   UNL A   1      33.392  23.249  23.955  1.00  0.00    -0.239 F 
BRANCH  80  82
ATOM     82  C   UNL A   1      35.543  23.113  24.979  1.00  0.00    -0.008 A 
ATOM     83  C   UNL A   1      35.563  21.718  24.756  1.00  0.00     0.007 A 
ATOM     84  C   UNL A   1      36.761  23.655  25.452  1.00  0.00     0.046 A 
ATOM     85  C   UNL A   1      36.698  20.926  24.997  1.00  0.00     0.003 A 
ATOM     86  C   UNL A   1      37.888  22.869  25.697  1.00  0.00     0.123 A 
ATOM     87  C   UNL A   1      37.867  21.505  25.475  1.00  0.00     0.039 A 
ATOM     88  F   UNL A   1      39.001  23.449  26.168  1.00  0.00    -0.207 F 
ENDBRANCH  80  82
ENDBRANCH  75  77
ENDBRANCH  74  75
ENDBRANCH  73  74
ENDBRANCH   1  73
TORSDOF 15
ENDMDL
MODEL 3
REMARK VINA RESULT:      -9.8      1.411      1.891
REMARK SMILES O=C(OCCOC(=O)[C@H]1C[C@](F)(c2cccc(F)c2)C1)c1ccc(-c2c3nc(c(-c4c(F)cc(S(=O)(=O)[O-])cc4F)c4ccc([nH]4)c(-c4c(F)cc(S(=O)(=O)[O-])cc4F)c4nc(c(-c5c(F)cc(S(=O)(=O)[O-])cc5F)c5ccc2[nH]5)C=C4)C=C3)cc1
REMARK SMILES IDX 4 1 3 2 2 3 1 4 21 5 22 6 86 7 23 8 85 9 24 10 25 11 26 12
REMARK SMILES IDX 79 13 27 14 84 15 78 16 80 17 28 18 83 19 77 20 76 21 29 23
REMARK SMILES IDX 63 24 42 25 62 26 43 27 46 28 61 29 81 30 44 31 45 32 60 34
REMARK SMILES IDX 82 35 47 36 30 37 31 38 40 39 32 40 33 41 39 42 41 43 34 44
REMARK SMILES IDX 35 45 36 46 37 47 38 48 64 49 65 50 74 51 66 52 67 53 73 54
REMARK SMILES IDX 75 55 68 56 69 57 70 58 71 59 72 60 48 61 49 62 58 63 50 64
REMARK SMILES IDX 51 65 57 66 59 67 52 68 53 69 54 70 55 71 56 72 5 73 6 74
REMARK SMILES IDX 7 75 8 76 9 77 10 78 20 79 11 80 12 81 13 82 14 83 19 84
REMARK SMILES IDX 15 85 17 86 16 87 18 88
REMARK H PARENT 80 22 46 33
REMARK Flexibility Score: inf
ROOT
ATOM      1  C   UNL A   1      40.420  21.217  27.034  1.00  0.00     0.275 C 
ENDROOT
BRANCH   1   2
ATOM      2  O   UNL A   1      39.647  21.902  26.036  1.00  0.00    -0.458 OA
BRANCH   2   3
ATOM      3  C   UNL A   1      38.839  22.984  26.138  1.00  0.00     0.338 C 
ATOM      4  O   UNL A   1      37.766  22.948  25.536  1.00  0.00    -0.246 OA
BRANCH   3   5
ATOM      5  C   UNL A   1      39.192  24.264  26.847  1.00  0.00     0.060 A 
ATOM      6  C   UNL A   1      38.902  24.603  28.174  1.00  0.00     0.016 A 
ATOM      7  C   UNL A   1      39.946  25.187  26.099  1.00  0.00     0.016 A 
ATOM      8  C   UNL A   1      39.451  25.744  28.777  1.00  0.00     0.010 A 
ATOM      9  C   UNL A   1      40.507  26.320  26.700  1.00  0.00     0.010 A 
ATOM     10  C   UNL A   1      40.299  26.583  28.061  1.00  0.00    -0.014 A 
BRANCH  10  11
ATOM     11  C   UNL A   1      40.895  27.788  28.687  1.00  0.00     0.031 A 
ATOM     12  C   UNL A   1      42.366  27.771  28.959  1.00  0.00     0.074 A 
ATOM     13  C   UNL A   1      40.155  28.870  29.011  1.00  0.00     0.049 A 
ATOM     14  N   UNL A   1      43.111  28.700  29.488  1.00  0.00    -0.248 NA
ATOM     15  C   UNL A   1      43.101  26.561  28.547  1.00  0.00     0.031 C 
ATOM     16  C   UNL A   1      38.739  29.055  28.708  1.00  0.00     0.029 A 
ATOM     17  N   UNL A   1      40.480  30.017  29.697  1.00  0.00    -0.354 N 
ATOM     18  C   UNL A   1      44.407  28.222  29.394  1.00  0.00     0.074 A 
ATOM     19  C   UNL A   1      44.339  26.868  28.897  1.00  0.00     0.031 C 
ATOM     20  C   UNL A   1      38.289  30.177  29.294  1.00  0.00     0.029 A 
ATOM     21  C   UNL A   1      39.398  30.826  29.973  1.00  0.00     0.049 A 
ATOM     22  H   UNL A   1      41.400  30.238  29.966  1.00  0.00     0.167 HD
ATOM     23  C   UNL A   1      45.559  28.890  29.611  1.00  0.00     0.037 A 
ATOM     24  C   UNL A   1      39.312  31.973  30.674  1.00  0.00     0.037 A 
ATOM     25  C   UNL A   1      45.613  30.224  30.134  1.00  0.00     0.049 A 
ATOM     26  C   UNL A   1      40.594  32.608  31.131  1.00  0.00     0.074 A 
ATOM     27  C   UNL A   1      46.722  30.993  30.420  1.00  0.00     0.029 A 
ATOM     28  N   UNL A   1      44.496  30.980  30.471  1.00  0.00    -0.354 N 
ATOM     29  N   UNL A   1      41.822  32.172  30.971  1.00  0.00    -0.248 NA
ATOM     30  C   UNL A   1      40.497  33.911  31.800  1.00  0.00     0.031 C 
ATOM     31  C   UNL A   1      46.279  32.194  30.982  1.00  0.00     0.029 A 
ATOM     32  C   UNL A   1      44.890  32.197  30.993  1.00  0.00     0.049 A 
ATOM     33  H   UNL A   1      43.562  30.691  30.354  1.00  0.00     0.167 HD
ATOM     34  C   UNL A   1      42.647  33.179  31.449  1.00  0.00     0.074 A 
ATOM     35  C   UNL A   1      41.778  34.235  31.933  1.00  0.00     0.031 C 
ATOM     36  C   UNL A   1      44.002  33.236  31.457  1.00  0.00     0.037 A 
BRANCH  23  37
ATOM     37  C   UNL A   1      46.823  28.176  29.241  1.00  0.00     0.058 A 
ATOM     38  C   UNL A   1      47.412  27.249  30.110  1.00  0.00     0.135 A 
ATOM     39  C   UNL A   1      47.424  28.381  27.984  1.00  0.00     0.135 A 
ATOM     40  F   UNL A   1      46.864  27.003  31.309  1.00  0.00    -0.206 F 
ATOM     41  C   UNL A   1      48.553  26.544  29.745  1.00  0.00     0.059 A 
ATOM     42  C   UNL A   1      48.549  27.668  27.590  1.00  0.00     0.059 A 
ATOM     43  F   UNL A   1      46.873  29.229  27.101  1.00  0.00    -0.206 F 
ATOM     44  C   UNL A   1      49.111  26.756  28.482  1.00  0.00     0.060 A 
BRANCH  44  45
ATOM     45  S   UNL A   1      50.552  25.781  28.003  1.00  0.00     0.124 S 
ATOM     46  O   UNL A   1      51.420  25.943  29.161  1.00  0.00    -0.237 OA
ATOM     47  O   UNL A   1      49.975  24.454  27.815  1.00  0.00    -0.237 OA
ATOM     48  O   UNL A   1      51.010  26.434  26.777  1.00  0.00    -0.744 OA
ENDBRANCH  44  45
ENDBRANCH  23  37
BRANCH  24  49
ATOM     49  C   UNL A   1      37.993  32.629  30.905  1.00  0.00     0.058 A 
ATOM     50  C   UNL A   1      37.403  33.441  29.923  1.00  0.00     0.135 A 
ATOM     51  C   UNL A   1      37.294  32.461  32.110  1.00  0.00     0.135 A 
ATOM     52  F   UNL A   1      38.019  33.632  28.748  1.00  0.00    -0.206 F 
ATOM     53  C   UNL A   1      36.175  34.067  30.130  1.00  0.00     0.059 A 
ATOM     54  C   UNL A   1      36.056  33.062  32.334  1.00  0.00     0.059 A 
ATOM     55  F   UNL A   1      37.809  31.686  33.077  1.00  0.00    -0.206 F 
ATOM     56  C   UNL A   1      35.508  33.871  31.340  1.00  0.00     0.060 A 
BRANCH  56  57
ATOM     57  S   UNL A   1      33.913  34.687  31.587  1.00  0.00     0.124 S 
ATOM     58  O   UNL A   1      33.308  33.847  32.617  1.00  0.00    -0.237 OA
ATOM     59  O   UNL A   1      34.320  36.022  32.018  1.00  0.00    -0.237 OA
ATOM     60  O   UNL A   1      33.287  34.616  30.274  1.00  0.00    -0.744 OA
ENDBRANCH  56  57
ENDBRANCH  24  49
BRANCH  36  61
ATOM     61  C   UNL A   1      44.640  34.493  31.967  1.00  0.00     0.058 A 
ATOM     62  C   UNL A   1      44.961  34.614  33.329  1.00  0.00     0.135 A 
ATOM     63  C   UNL A   1      44.830  35.610  31.141  1.00  0.00     0.135 A 
ATOM     64  F   UNL A   1      44.795  33.573  34.161  1.00  0.00    -0.206 F 
ATOM     65  C   UNL A   1      45.412  35.813  33.862  1.00  0.00     0.059 A 
ATOM     66  C   UNL A   1      45.312  36.811  31.648  1.00  0.00     0.059 A 
ATOM     67  F   UNL A   1      44.552  35.534  29.830  1.00  0.00    -0.206 F 
ATOM     68  C   UNL A   1      45.577  36.909  33.014  1.00  0.00     0.060 A 
BRANCH  68  69
ATOM     69  S   UNL A   1      46.141  38.466  33.728  1.00  0.00     0.124 S 
ATOM     70  O   UNL A   1      47.430  38.084  34.295  1.00  0.00    -0.237 OA
ATOM     71  O   UNL A   1      46.193  39.338  32.558  1.00  0.00    -0.237 OA
ATOM     72  O   UNL A   1      45.099  38.791  34.698  1.00  0.00    -0.744 OA
ENDBRANCH  68  69
ENDBRANCH  36  61
ENDBRANCH  10  11
ENDBRANCH   3   5
ENDBRANCH   2   3
ENDBRANCH   1   2
BRANCH   1  73
ATOM     73  C   UNL A   1      41.146  19.970  26.518  1.00  0.00     0.274 C 
BRANCH  73  74
ATOM     74  O   UNL A   1      42.575  20.085  26.627  1.00  0.00    -0.462 OA
BRANCH  74  75
ATOM     75  C   UNL A   1      43.319  20.089  25.472  1.00  0.00     0.309 C 
ATOM     76  O   UNL A   1      43.236  19.203  24.625  1.00  0.00    -0.252 OA
BRANCH  75  77
ATOM     77  C   UNL A   1      44.197  21.369  25.342  1.00  0.00     0.106 C 
ATOM     78  C   UNL A   1      44.560  22.215  26.579  1.00  0.00     0.061 C 
ATOM     79  C   UNL A   1      43.545  22.607  24.738  1.00  0.00     0.061 C 
ATOM     80  C   UNL A   1      43.992  23.498  25.909  1.00  0.00     0.137 C 
ATOM     81  F   UNL A   1      42.950  24.005  26.619  1.00  0.00    -0.239 F 
BRANCH  80  82
ATOM     82  C   UNL A   1      44.949  24.752  25.552  1.00  0.00    -0.008 A 
ATOM     83  C   UNL A   1      44.414  26.052  25.423  1.00  0.00     0.007 A 
ATOM     84  C   UNL A   1      46.323  24.642  25.235  1.00  0.00     0.046 A 
ATOM     85  C   UNL A   1      45.180  27.151  25.000  1.00  0.00     0.003 A 
ATOM     86  C   UNL A   1      47.085  25.731  24.809  1.00  0.00     0.123 A 
ATOM     87  C   UNL A   1      46.525  26.988  24.687  1.00  0.00     0.039 A 
ATOM     88  F   UNL A   1      48.377  25.547  24.503  1.00  0.00    -0.207 F 
ENDBRANCH  80  82
ENDBRANCH  75  77
ENDBRANCH  74  75
ENDBRANCH  73  74
ENDBRANCH   1  73
TORSDOF 15
ENDMDL
