MODEL 1
REMARK VINA RESULT:     -11.8      0.000      0.000
REMARK SMILES CCn1cc(S(=O)(=O)N2CCC(CCc3ccc(C(=O)OCCOC(=O)c4ccc(-c5c6nc(c(-c7c(F)cc(S(=O)(=O)[O-])cc7F)c7ccc([nH]7)c(-c7c(F)cc(S(=O)(=O)[O-])cc7F)c7nc(c(-c8c(F)cc(S(=O)(=O)[O-])cc8F)c8ccc5[nH]8)C=C7)C=C6)cc4)cc3)CC2)cn1
REMARK SMILES IDX 21 1 19 2 20 3 18 4 15 5 16 6 94 7 17 8 93 9 14 10 13 11
REMARK SMILES IDX 12 12 9 13 10 14 96 15 11 16 95 17 6 18 7 19 8 20 5 21 3 22
REMARK SMILES IDX 4 23 98 24 97 25 2 26 1 27 22 28 23 29 24 30 25 31 26 32
REMARK SMILES IDX 27 33 28 34 92 35 29 36 91 37 30 38 31 39 32 40 85 41 33 42
REMARK SMILES IDX 90 43 84 44 86 45 34 46 89 47 83 48 82 49 35 51 69 52 48 53
REMARK SMILES IDX 68 54 49 55 52 56 67 57 87 58 50 59 51 60 66 62 88 63 53 64
REMARK SMILES IDX 36 65 37 66 46 67 38 68 39 69 45 70 47 71 40 72 41 73 42 74
REMARK SMILES IDX 43 75 44 76 70 77 71 78 80 79 72 80 73 81 79 82 81 83 74 84
REMARK SMILES IDX 75 85 76 86 77 87 78 88 54 89 55 90 64 91 56 92 57 93 63 94
REMARK SMILES IDX 65 95 58 96 59 97 60 98 61 99 62 100
REMARK H PARENT 86 50 52 61
REMARK Flexibility Score: inf
ROOT
ATOM      1  O   UNL A   1      32.756  35.604  29.920  1.00  0.00    -0.458 OA
ENDROOT
BRANCH   1   2
ATOM      2  C   UNL A   1      33.639  35.741  28.896  1.00  0.00     0.338 C 
ATOM      3  O   UNL A   1      34.019  36.792  28.405  1.00  0.00    -0.246 OA
BRANCH   2   4
ATOM      4  C   UNL A   1      34.164  34.419  28.474  1.00  0.00     0.060 A 
ATOM      5  C   UNL A   1      35.076  31.845  27.823  1.00  0.00    -0.048 A 
ATOM      6  C   UNL A   1      33.705  32.094  27.962  1.00  0.00     0.004 A 
ATOM      7  C   UNL A   1      35.979  32.909  27.965  1.00  0.00     0.004 A 
ATOM      8  C   UNL A   1      33.252  33.372  28.295  1.00  0.00     0.016 A 
ATOM      9  C   UNL A   1      35.527  34.193  28.277  1.00  0.00     0.016 A 
BRANCH   5  10
ATOM     10  C   UNL A   1      35.565  30.445  27.536  1.00  0.00     0.036 C 
BRANCH  10  11
ATOM     11  C   UNL A   1      34.616  29.331  27.992  1.00  0.00     0.008 C 
BRANCH  11  12
ATOM     12  C   UNL A   1      33.783  28.687  26.869  1.00  0.00    -0.008 C 
ATOM     13  N   UNL A   1      31.601  28.291  24.980  1.00  0.00    -0.198 NA
ATOM     14  C   UNL A   1      31.687  27.488  26.224  1.00  0.00     0.103 C 
ATOM     15  C   UNL A   1      32.832  29.012  24.551  1.00  0.00     0.103 C 
ATOM     16  C   UNL A   1      32.401  28.232  27.339  1.00  0.00     0.020 C 
ATOM     17  C   UNL A   1      33.567  29.672  25.715  1.00  0.00     0.020 C 
BRANCH  13  18
ATOM     18  S   UNL A   1      30.790  27.471  23.702  1.00  0.00     0.246 S 
ATOM     19  O   UNL A   1      30.168  26.277  24.234  1.00  0.00    -0.207 OA
ATOM     20  O   UNL A   1      31.677  27.425  22.561  1.00  0.00    -0.207 OA
BRANCH  18  21
ATOM     21  C   UNL A   1      29.473  28.423  23.151  1.00  0.00     0.120 A 
ATOM     22  N   UNL A   1      28.190  29.965  22.277  1.00  0.00    -0.272 N 
ATOM     23  C   UNL A   1      29.493  29.656  22.539  1.00  0.00     0.130 A 
ATOM     24  N   UNL A   1      27.329  29.002  22.662  1.00  0.00    -0.180 NA
ATOM     25  C   UNL A   1      28.117  28.075  23.223  1.00  0.00     0.156 A 
BRANCH  22  26
ATOM     26  C   UNL A   1      27.712  31.193  21.667  1.00  0.00     0.141 C 
ATOM     27  C   UNL A   1      28.663  32.363  21.869  1.00  0.00     0.029 C 
ENDBRANCH  22  26
ENDBRANCH  18  21
ENDBRANCH  13  18
ENDBRANCH  11  12
ENDBRANCH  10  11
ENDBRANCH   5  10
ENDBRANCH   2   4
ENDBRANCH   1   2
BRANCH   1  28
ATOM     28  C   UNL A   1      32.958  36.500  31.024  1.00  0.00     0.275 C 
BRANCH  28  29
ATOM     29  C   UNL A   1      33.307  35.746  32.299  1.00  0.00     0.275 C 
BRANCH  29  30
ATOM     30  O   UNL A   1      34.525  35.015  32.170  1.00  0.00    -0.458 OA
BRANCH  30  31
ATOM     31  C   UNL A   1      34.397  33.674  32.291  1.00  0.00     0.338 C 
ATOM     32  O   UNL A   1      33.571  33.064  32.951  1.00  0.00    -0.246 OA
BRANCH  31  33
ATOM     33  C   UNL A   1      35.583  33.032  31.718  1.00  0.00     0.060 A 
ATOM     34  C   UNL A   1      35.529  31.655  31.481  1.00  0.00     0.016 A 
ATOM     35  C   UNL A   1      36.793  33.740  31.700  1.00  0.00     0.016 A 
ATOM     36  C   UNL A   1      36.715  30.962  31.359  1.00  0.00     0.010 A 
ATOM     37  C   UNL A   1      37.974  33.045  31.599  1.00  0.00     0.010 A 
ATOM     38  C   UNL A   1      37.925  31.658  31.489  1.00  0.00    -0.014 A 
BRANCH  38  39
ATOM     39  C   UNL A   1      39.166  30.931  31.314  1.00  0.00     0.031 A 
ATOM     40  C   UNL A   1      39.885  30.747  32.599  1.00  0.00     0.074 A 
ATOM     41  C   UNL A   1      39.512  30.353  30.147  1.00  0.00     0.049 A 
ATOM     42  N   UNL A   1      41.024  31.249  32.939  1.00  0.00    -0.248 NA
ATOM     43  C   UNL A   1      39.159  30.108  33.714  1.00  0.00     0.031 C 
ATOM     44  C   UNL A   1      38.723  30.279  28.915  1.00  0.00     0.029 A 
ATOM     45  N   UNL A   1      40.606  29.604  29.846  1.00  0.00    -0.354 N 
ATOM     46  C   UNL A   1      41.277  30.755  34.214  1.00  0.00     0.074 A 
ATOM     47  C   UNL A   1      40.019  30.276  34.719  1.00  0.00     0.031 C 
ATOM     48  C   UNL A   1      39.253  29.337  28.102  1.00  0.00     0.029 A 
ATOM     49  C   UNL A   1      40.470  28.820  28.703  1.00  0.00     0.049 A 
ATOM     50  H   UNL A   1      41.426  29.615  30.390  1.00  0.00     0.167 HD
ATOM     51  C   UNL A   1      42.550  30.500  34.616  1.00  0.00     0.037 A 
ATOM     52  C   UNL A   1      41.261  27.771  28.341  1.00  0.00     0.037 A 
ATOM     53  C   UNL A   1      43.501  31.211  33.796  1.00  0.00     0.049 A 
ATOM     54  C   UNL A   1      42.544  27.924  29.085  1.00  0.00     0.074 A 
ATOM     55  C   UNL A   1      43.679  32.541  33.462  1.00  0.00     0.029 A 
ATOM     56  N   UNL A   1      44.203  30.492  32.857  1.00  0.00    -0.354 N 
ATOM     57  N   UNL A   1      43.390  28.896  28.866  1.00  0.00    -0.248 NA
ATOM     58  C   UNL A   1      42.645  27.297  30.395  1.00  0.00     0.031 C 
ATOM     59  C   UNL A   1      44.050  32.529  32.086  1.00  0.00     0.029 A 
ATOM     60  C   UNL A   1      44.166  31.198  31.683  1.00  0.00     0.049 A 
ATOM     61  H   UNL A   1      44.651  29.626  33.002  1.00  0.00     0.167 HD
ATOM     62  C   UNL A   1      43.804  29.294  30.130  1.00  0.00     0.074 A 
ATOM     63  C   UNL A   1      43.370  28.224  31.028  1.00  0.00     0.031 C 
ATOM     64  C   UNL A   1      44.187  30.583  30.376  1.00  0.00     0.037 A 
BRANCH  51  65
ATOM     65  C   UNL A   1      42.936  29.299  35.450  1.00  0.00     0.058 A 
ATOM     66  C   UNL A   1      43.811  29.482  36.539  1.00  0.00     0.135 A 
ATOM     67  C   UNL A   1      42.726  27.956  35.059  1.00  0.00     0.135 A 
ATOM     68  F   UNL A   1      44.089  30.714  36.993  1.00  0.00    -0.206 F 
ATOM     69  C   UNL A   1      44.494  28.421  37.134  1.00  0.00     0.059 A 
ATOM     70  C   UNL A   1      43.351  26.882  35.675  1.00  0.00     0.059 A 
ATOM     71  F   UNL A   1      41.984  27.617  34.000  1.00  0.00    -0.206 F 
ATOM     72  C   UNL A   1      44.266  27.126  36.682  1.00  0.00     0.060 A 
BRANCH  72  73
ATOM     73  S   UNL A   1      45.209  25.763  37.383  1.00  0.00     0.124 S 
ATOM     74  O   UNL A   1      45.336  24.878  36.231  1.00  0.00    -0.237 OA
ATOM     75  O   UNL A   1      46.430  26.437  37.813  1.00  0.00    -0.237 OA
ATOM     76  O   UNL A   1      44.351  25.281  38.462  1.00  0.00    -0.744 OA
ENDBRANCH  72  73
ENDBRANCH  51  65
BRANCH  52  77
ATOM     77  C   UNL A   1      40.847  26.485  27.703  1.00  0.00     0.058 A 
ATOM     78  C   UNL A   1      41.578  25.925  26.636  1.00  0.00     0.135 A 
ATOM     79  C   UNL A   1      39.890  25.636  28.295  1.00  0.00     0.135 A 
ATOM     80  F   UNL A   1      42.525  26.646  26.016  1.00  0.00    -0.206 F 
ATOM     81  C   UNL A   1      41.411  24.594  26.225  1.00  0.00     0.059 A 
ATOM     82  C   UNL A   1      39.696  24.314  27.895  1.00  0.00     0.059 A 
ATOM     83  F   UNL A   1      39.168  26.029  29.355  1.00  0.00    -0.206 F 
ATOM     84  C   UNL A   1      40.480  23.788  26.879  1.00  0.00     0.060 A 
BRANCH  84  85
ATOM     85  S   UNL A   1      40.386  22.022  26.496  1.00  0.00     0.124 S 
ATOM     86  O   UNL A   1      41.544  21.837  25.628  1.00  0.00    -0.237 OA
ATOM     87  O   UNL A   1      40.476  21.413  27.818  1.00  0.00    -0.237 OA
ATOM     88  O   UNL A   1      39.088  21.886  25.840  1.00  0.00    -0.744 OA
ENDBRANCH  84  85
ENDBRANCH  52  77
BRANCH  64  89
ATOM     89  C   UNL A   1      44.447  31.497  29.207  1.00  0.00     0.058 A 
ATOM     90  C   UNL A   1      45.588  31.449  28.385  1.00  0.00     0.135 A 
ATOM     91  C   UNL A   1      43.407  32.349  28.806  1.00  0.00     0.135 A 
ATOM     92  F   UNL A   1      46.581  30.583  28.631  1.00  0.00    -0.206 F 
ATOM     93  C   UNL A   1      45.705  32.246  27.245  1.00  0.00     0.059 A 
ATOM     94  C   UNL A   1      43.487  33.125  27.656  1.00  0.00     0.059 A 
ATOM     95  F   UNL A   1      42.263  32.392  29.511  1.00  0.00    -0.206 F 
ATOM     96  C   UNL A   1      44.646  33.081  26.887  1.00  0.00     0.060 A 
BRANCH  96  97
ATOM     97  S   UNL A   1      44.766  34.063  25.377  1.00  0.00     0.124 S 
ATOM     98  O   UNL A   1      43.747  35.084  25.594  1.00  0.00    -0.237 OA
ATOM     99  O   UNL A   1      46.150  34.528  25.411  1.00  0.00    -0.237 OA
ATOM    100  O   UNL A   1      44.469  33.099  24.319  1.00  0.00    -0.744 OA
ENDBRANCH  96  97
ENDBRANCH  64  89
ENDBRANCH  38  39
ENDBRANCH  31  33
ENDBRANCH  30  31
ENDBRANCH  29  30
ENDBRANCH  28  29
ENDBRANCH   1  28
TORSDOF 20
ENDMDL
MODEL 2
REMARK VINA RESULT:     -11.8      1.459      2.391
REMARK SMILES CCn1cc(S(=O)(=O)N2CCC(CCc3ccc(C(=O)OCCOC(=O)c4ccc(-c5c6nc(c(-c7c(F)cc(S(=O)(=O)[O-])cc7F)c7ccc([nH]7)c(-c7c(F)cc(S(=O)(=O)[O-])cc7F)c7nc(c(-c8c(F)cc(S(=O)(=O)[O-])cc8F)c8ccc5[nH]8)C=C7)C=C6)cc4)cc3)CC2)cn1
REMARK SMILES IDX 21 1 19 2 20 3 18 4 15 5 16 6 94 7 17 8 93 9 14 10 13 11
REMARK SMILES IDX 12 12 9 13 10 14 96 15 11 16 95 17 6 18 7 19 8 20 5 21 3 22
REMARK SMILES IDX 4 23 98 24 97 25 2 26 1 27 22 28 23 29 24 30 25 31 26 32
REMARK SMILES IDX 27 33 28 34 92 35 29 36 91 37 30 38 31 39 32 40 85 41 33 42
REMARK SMILES IDX 90 43 84 44 86 45 34 46 89 47 83 48 82 49 35 51 69 52 48 53
REMARK SMILES IDX 68 54 49 55 52 56 67 57 87 58 50 59 51 60 66 62 88 63 53 64
REMARK SMILES IDX 36 65 37 66 46 67 38 68 39 69 45 70 47 71 40 72 41 73 42 74
REMARK SMILES IDX 43 75 44 76 70 77 71 78 80 79 72 80 73 81 79 82 81 83 74 84
REMARK SMILES IDX 75 85 76 86 77 87 78 88 54 89 55 90 64 91 56 92 57 93 63 94
REMARK SMILES IDX 65 95 58 96 59 97 60 98 61 99 62 100
REMARK H PARENT 86 50 52 61
REMARK Flexibility Score: inf
ROOT
ATOM      1  O   UNL A   1      32.682  35.707  29.750  1.00  0.00    -0.458 OA
ENDROOT
BRANCH   1   2
ATOM      2  C   UNL A   1      33.608  35.805  28.760  1.00  0.00     0.338 C 
ATOM      3  O   UNL A   1      34.039  36.839  28.274  1.00  0.00    -0.246 OA
BRANCH   2   4
ATOM      4  C   UNL A   1      34.107  34.464  28.373  1.00  0.00     0.060 A 
ATOM      5  C   UNL A   1      34.956  31.854  27.779  1.00  0.00    -0.048 A 
ATOM      6  C   UNL A   1      33.590  32.163  27.805  1.00  0.00     0.004 A 
ATOM      7  C   UNL A   1      35.890  32.876  28.004  1.00  0.00     0.004 A 
ATOM      8  C   UNL A   1      33.168  33.459  28.110  1.00  0.00     0.016 A 
ATOM      9  C   UNL A   1      35.471  34.178  28.289  1.00  0.00     0.016 A 
BRANCH   5  10
ATOM     10  C   UNL A   1      35.405  30.435  27.522  1.00  0.00     0.036 C 
BRANCH  10  11
ATOM     11  C   UNL A   1      34.452  29.358  28.053  1.00  0.00     0.008 C 
BRANCH  11  12
ATOM     12  C   UNL A   1      33.709  28.558  26.968  1.00  0.00    -0.008 C 
ATOM     13  N   UNL A   1      31.841  27.979  24.808  1.00  0.00    -0.198 NA
ATOM     14  C   UNL A   1      31.553  27.552  26.199  1.00  0.00     0.103 C 
ATOM     15  C   UNL A   1      33.247  28.361  24.492  1.00  0.00     0.103 C 
ATOM     16  C   UNL A   1      32.204  28.462  27.225  1.00  0.00     0.020 C 
ATOM     17  C   UNL A   1      33.892  29.202  25.590  1.00  0.00     0.020 C 
BRANCH  13  18
ATOM     18  S   UNL A   1      31.109  26.965  23.625  1.00  0.00     0.246 S 
ATOM     19  O   UNL A   1      30.878  27.741  22.425  1.00  0.00    -0.207 OA
ATOM     20  O   UNL A   1      30.052  26.215  24.264  1.00  0.00    -0.207 OA
BRANCH  18  21
ATOM     21  C   UNL A   1      32.223  25.755  23.136  1.00  0.00     0.120 A 
ATOM     22  N   UNL A   1      33.631  24.082  23.040  1.00  0.00    -0.272 N 
ATOM     23  C   UNL A   1      32.888  24.829  23.907  1.00  0.00     0.130 A 
ATOM     24  N   UNL A   1      33.473  24.453  21.753  1.00  0.00    -0.180 NA
ATOM     25  C   UNL A   1      32.635  25.496  21.822  1.00  0.00     0.156 A 
BRANCH  22  26
ATOM     26  C   UNL A   1      34.529  23.000  23.399  1.00  0.00     0.141 C 
ATOM     27  C   UNL A   1      35.974  23.456  23.546  1.00  0.00     0.029 C 
ENDBRANCH  22  26
ENDBRANCH  18  21
ENDBRANCH  13  18
ENDBRANCH  11  12
ENDBRANCH  10  11
ENDBRANCH   5  10
ENDBRANCH   2   4
ENDBRANCH   1   2
BRANCH   1  28
ATOM     28  C   UNL A   1      32.912  36.554  30.888  1.00  0.00     0.275 C 
BRANCH  28  29
ATOM     29  C   UNL A   1      33.236  35.741  32.133  1.00  0.00     0.275 C 
BRANCH  29  30
ATOM     30  O   UNL A   1      34.462  35.026  32.000  1.00  0.00    -0.458 OA
BRANCH  30  31
ATOM     31  C   UNL A   1      34.365  33.691  32.203  1.00  0.00     0.338 C 
ATOM     32  O   UNL A   1      33.566  33.106  32.916  1.00  0.00    -0.246 OA
BRANCH  31  33
ATOM     33  C   UNL A   1      35.552  33.041  31.643  1.00  0.00     0.060 A 
ATOM     34  C   UNL A   1      35.497  31.661  31.423  1.00  0.00     0.016 A 
ATOM     35  C   UNL A   1      36.764  33.746  31.622  1.00  0.00     0.016 A 
ATOM     36  C   UNL A   1      36.682  30.964  31.315  1.00  0.00     0.010 A 
ATOM     37  C   UNL A   1      37.944  33.047  31.535  1.00  0.00     0.010 A 
ATOM     38  C   UNL A   1      37.892  31.659  31.441  1.00  0.00    -0.014 A 
BRANCH  38  39
ATOM     39  C   UNL A   1      39.133  30.928  31.281  1.00  0.00     0.031 A 
ATOM     40  C   UNL A   1      39.838  30.744  32.573  1.00  0.00     0.074 A 
ATOM     41  C   UNL A   1      39.489  30.346  30.119  1.00  0.00     0.049 A 
ATOM     42  N   UNL A   1      40.976  31.243  32.924  1.00  0.00    -0.248 NA
ATOM     43  C   UNL A   1      39.099  30.111  33.683  1.00  0.00     0.031 C 
ATOM     44  C   UNL A   1      38.713  30.271  28.879  1.00  0.00     0.029 A 
ATOM     45  N   UNL A   1      40.583  29.592  29.831  1.00  0.00    -0.354 N 
ATOM     46  C   UNL A   1      41.214  30.752  34.203  1.00  0.00     0.074 A 
ATOM     47  C   UNL A   1      39.949  30.278  34.696  1.00  0.00     0.031 C 
ATOM     48  C   UNL A   1      39.247  29.325  28.074  1.00  0.00     0.029 A 
ATOM     49  C   UNL A   1      40.457  28.805  28.689  1.00  0.00     0.049 A 
ATOM     50  H   UNL A   1      41.398  29.602  30.383  1.00  0.00     0.167 HD
ATOM     51  C   UNL A   1      42.482  30.494  34.618  1.00  0.00     0.037 A 
ATOM     52  C   UNL A   1      41.248  27.753  28.338  1.00  0.00     0.037 A 
ATOM     53  C   UNL A   1      43.444  31.199  33.806  1.00  0.00     0.049 A 
ATOM     54  C   UNL A   1      42.524  27.904  29.093  1.00  0.00     0.074 A 
ATOM     55  C   UNL A   1      43.629  32.528  33.470  1.00  0.00     0.029 A 
ATOM     56  N   UNL A   1      44.152  30.476  32.877  1.00  0.00    -0.354 N 
ATOM     57  N   UNL A   1      43.375  28.873  28.881  1.00  0.00    -0.248 NA
ATOM     58  C   UNL A   1      42.610  27.280  30.406  1.00  0.00     0.031 C 
ATOM     59  C   UNL A   1      44.014  32.512  32.098  1.00  0.00     0.029 A 
ATOM     60  C   UNL A   1      44.130  31.180  31.700  1.00  0.00     0.049 A 
ATOM     61  H   UNL A   1      44.596  29.610  33.028  1.00  0.00     0.167 HD
ATOM     62  C   UNL A   1      43.777  29.273  30.148  1.00  0.00     0.074 A 
ATOM     63  C   UNL A   1      43.331  28.207  31.044  1.00  0.00     0.031 C 
ATOM     64  C   UNL A   1      44.162  30.561  30.395  1.00  0.00     0.037 A 
BRANCH  51  65
ATOM     65  C   UNL A   1      42.856  29.294  35.459  1.00  0.00     0.058 A 
ATOM     66  C   UNL A   1      43.706  29.480  36.567  1.00  0.00     0.135 A 
ATOM     67  C   UNL A   1      42.661  27.951  35.062  1.00  0.00     0.135 A 
ATOM     68  F   UNL A   1      43.968  30.713  37.028  1.00  0.00    -0.206 F 
ATOM     69  C   UNL A   1      44.381  28.422  37.176  1.00  0.00     0.059 A 
ATOM     70  C   UNL A   1      43.278  26.878  35.690  1.00  0.00     0.059 A 
ATOM     71  F   UNL A   1      41.944  27.609  33.986  1.00  0.00    -0.206 F 
ATOM     72  C   UNL A   1      44.169  27.126  36.718  1.00  0.00     0.060 A 
BRANCH  72  73
ATOM     73  S   UNL A   1      45.103  25.767  37.437  1.00  0.00     0.124 S 
ATOM     74  O   UNL A   1      44.515  24.620  36.756  1.00  0.00    -0.237 OA
ATOM     75  O   UNL A   1      46.469  26.109  37.054  1.00  0.00    -0.237 OA
ATOM     76  O   UNL A   1      44.811  25.877  38.863  1.00  0.00    -0.744 OA
ENDBRANCH  72  73
ENDBRANCH  51  65
BRANCH  52  77
ATOM     77  C   UNL A   1      40.836  26.467  27.699  1.00  0.00     0.058 A 
ATOM     78  C   UNL A   1      41.573  25.905  26.637  1.00  0.00     0.135 A 
ATOM     79  C   UNL A   1      39.874  25.620  28.285  1.00  0.00     0.135 A 
ATOM     80  F   UNL A   1      42.525  26.624  26.021  1.00  0.00    -0.206 F 
ATOM     81  C   UNL A   1      41.407  24.574  26.227  1.00  0.00     0.059 A 
ATOM     82  C   UNL A   1      39.681  24.298  27.886  1.00  0.00     0.059 A 
ATOM     83  F   UNL A   1      39.146  26.016  29.340  1.00  0.00    -0.206 F 
ATOM     84  C   UNL A   1      40.471  23.770  26.875  1.00  0.00     0.060 A 
BRANCH  84  85
ATOM     85  S   UNL A   1      40.377  22.003  26.494  1.00  0.00     0.124 S 
ATOM     86  O   UNL A   1      41.571  21.804  25.680  1.00  0.00    -0.237 OA
ATOM     87  O   UNL A   1      40.401  21.398  27.821  1.00  0.00    -0.237 OA
ATOM     88  O   UNL A   1      39.109  21.878  25.780  1.00  0.00    -0.744 OA
ENDBRANCH  84  85
ENDBRANCH  52  77
BRANCH  64  89
ATOM     89  C   UNL A   1      44.437  31.471  29.227  1.00  0.00     0.058 A 
ATOM     90  C   UNL A   1      43.536  32.427  28.722  1.00  0.00     0.135 A 
ATOM     91  C   UNL A   1      45.740  31.484  28.706  1.00  0.00     0.135 A 
ATOM     92  F   UNL A   1      42.307  32.560  29.240  1.00  0.00    -0.206 F 
ATOM     93  C   UNL A   1      43.903  33.322  27.715  1.00  0.00     0.059 A 
ATOM     94  C   UNL A   1      46.138  32.389  27.728  1.00  0.00     0.059 A 
ATOM     95  F   UNL A   1      46.666  30.641  29.191  1.00  0.00    -0.206 F 
ATOM     96  C   UNL A   1      45.209  33.296  27.225  1.00  0.00     0.060 A 
BRANCH  96  97
ATOM     97  S   UNL A   1      45.707  34.495  25.971  1.00  0.00     0.124 S 
ATOM     98  O   UNL A   1      44.733  34.253  24.912  1.00  0.00    -0.237 OA
ATOM     99  O   UNL A   1      45.575  35.766  26.678  1.00  0.00    -0.237 OA
ATOM    100  O   UNL A   1      47.081  34.109  25.655  1.00  0.00    -0.744 OA
ENDBRANCH  96  97
ENDBRANCH  64  89
ENDBRANCH  38  39
ENDBRANCH  31  33
ENDBRANCH  30  31
ENDBRANCH  29  30
ENDBRANCH  28  29
ENDBRANCH   1  28
TORSDOF 20
ENDMDL
MODEL 3
REMARK VINA RESULT:     -11.5      3.995     10.979
REMARK SMILES CCn1cc(S(=O)(=O)N2CCC(CCc3ccc(C(=O)OCCOC(=O)c4ccc(-c5c6nc(c(-c7c(F)cc(S(=O)(=O)[O-])cc7F)c7ccc([nH]7)c(-c7c(F)cc(S(=O)(=O)[O-])cc7F)c7nc(c(-c8c(F)cc(S(=O)(=O)[O-])cc8F)c8ccc5[nH]8)C=C7)C=C6)cc4)cc3)CC2)cn1
REMARK SMILES IDX 21 1 19 2 20 3 18 4 15 5 16 6 94 7 17 8 93 9 14 10 13 11
REMARK SMILES IDX 12 12 9 13 10 14 96 15 11 16 95 17 6 18 7 19 8 20 5 21 3 22
REMARK SMILES IDX 4 23 98 24 97 25 2 26 1 27 22 28 23 29 24 30 25 31 26 32
REMARK SMILES IDX 27 33 28 34 92 35 29 36 91 37 30 38 31 39 32 40 85 41 33 42
REMARK SMILES IDX 90 43 84 44 86 45 34 46 89 47 83 48 82 49 35 51 69 52 48 53
REMARK SMILES IDX 68 54 49 55 52 56 67 57 87 58 50 59 51 60 66 62 88 63 53 64
REMARK SMILES IDX 36 65 37 66 46 67 38 68 39 69 45 70 47 71 40 72 41 73 42 74
REMARK SMILES IDX 43 75 44 76 70 77 71 78 80 79 72 80 73 81 79 82 81 83 74 84
REMARK SMILES IDX 75 85 76 86 77 87 78 88 54 89 55 90 64 91 56 92 57 93 63 94
REMARK SMILES IDX 65 95 58 96 59 97 60 98 61 99 62 100
REMARK H PARENT 86 50 52 61
REMARK Flexibility Score: inf
ROOT
ATOM      1  O   UNL A   1      44.174  19.146  26.067  1.00  0.00    -0.458 OA
ENDROOT
BRANCH   1   2
ATOM      2  C   UNL A   1      42.899  18.704  26.222  1.00  0.00     0.338 C 
ATOM      3  O   UNL A   1      42.525  17.542  26.174  1.00  0.00    -0.246 OA
BRANCH   2   4
ATOM      4  C   UNL A   1      41.988  19.830  26.541  1.00  0.00     0.060 A 
ATOM      5  C   UNL A   1      40.303  22.033  26.981  1.00  0.00    -0.048 A 
ATOM      6  C   UNL A   1      40.101  21.199  25.874  1.00  0.00     0.004 A 
ATOM      7  C   UNL A   1      41.326  21.722  27.889  1.00  0.00     0.004 A 
ATOM      8  C   UNL A   1      40.944  20.109  25.650  1.00  0.00     0.016 A 
ATOM      9  C   UNL A   1      42.159  20.620  27.679  1.00  0.00     0.016 A 
BRANCH   5  10
ATOM     10  C   UNL A   1      39.435  23.253  27.178  1.00  0.00     0.036 C 
BRANCH  10  11
ATOM     11  C   UNL A   1      38.601  23.647  25.953  1.00  0.00     0.008 C 
BRANCH  11  12
ATOM     12  C   UNL A   1      37.128  23.206  26.002  1.00  0.00    -0.008 C 
ATOM     13  N   UNL A   1      34.508  22.348  25.058  1.00  0.00    -0.198 NA
ATOM     14  C   UNL A   1      34.747  23.753  25.471  1.00  0.00     0.103 C 
ATOM     15  C   UNL A   1      35.511  21.334  25.491  1.00  0.00     0.103 C 
ATOM     16  C   UNL A   1      36.193  24.171  25.272  1.00  0.00     0.020 C 
ATOM     17  C   UNL A   1      36.948  21.827  25.357  1.00  0.00     0.020 C 
BRANCH  13  18
ATOM     18  S   UNL A   1      32.874  21.851  25.269  1.00  0.00     0.246 S 
ATOM     19  O   UNL A   1      32.057  22.490  24.260  1.00  0.00    -0.207 OA
ATOM     20  O   UNL A   1      32.554  21.937  26.677  1.00  0.00    -0.207 OA
BRANCH  18  21
ATOM     21  C   UNL A   1      32.734  20.175  24.926  1.00  0.00     0.120 A 
ATOM     22  N   UNL A   1      32.555  17.997  25.029  1.00  0.00    -0.272 N 
ATOM     23  C   UNL A   1      32.708  19.112  25.800  1.00  0.00     0.130 A 
ATOM     24  N   UNL A   1      32.459  18.272  23.712  1.00  0.00    -0.180 NA
ATOM     25  C   UNL A   1      32.600  19.603  23.654  1.00  0.00     0.156 A 
BRANCH  22  26
ATOM     26  C   UNL A   1      32.510  16.628  25.510  1.00  0.00     0.141 C 
ATOM     27  C   UNL A   1      33.692  15.795  25.035  1.00  0.00     0.029 C 
ENDBRANCH  22  26
ENDBRANCH  18  21
ENDBRANCH  13  18
ENDBRANCH  11  12
ENDBRANCH  10  11
ENDBRANCH   5  10
ENDBRANCH   2   4
ENDBRANCH   1   2
BRANCH   1  28
ATOM     28  C   UNL A   1      44.711  19.009  24.741  1.00  0.00     0.275 C 
BRANCH  28  29
ATOM     29  C   UNL A   1      45.785  20.050  24.463  1.00  0.00     0.275 C 
BRANCH  29  30
ATOM     30  O   UNL A   1      45.517  21.284  25.125  1.00  0.00    -0.458 OA
BRANCH  30  31
ATOM     31  C   UNL A   1      44.531  22.025  24.567  1.00  0.00     0.338 C 
ATOM     32  O   UNL A   1      44.239  22.100  23.385  1.00  0.00    -0.246 OA
BRANCH  31  33
ATOM     33  C   UNL A   1      44.015  22.958  25.573  1.00  0.00     0.060 A 
ATOM     34  C   UNL A   1      43.031  23.868  25.173  1.00  0.00     0.016 A 
ATOM     35  C   UNL A   1      44.707  23.100  26.783  1.00  0.00     0.016 A 
ATOM     36  C   UNL A   1      42.839  25.004  25.932  1.00  0.00     0.010 A 
ATOM     37  C   UNL A   1      44.529  24.241  27.526  1.00  0.00     0.010 A 
ATOM     38  C   UNL A   1      43.640  25.208  27.063  1.00  0.00    -0.014 A 
BRANCH  38  39
ATOM     39  C   UNL A   1      43.402  26.380  27.881  1.00  0.00     0.031 A 
ATOM     40  C   UNL A   1      44.479  27.388  27.731  1.00  0.00     0.074 A 
ATOM     41  C   UNL A   1      42.247  26.578  28.547  1.00  0.00     0.049 A 
ATOM     42  N   UNL A   1      45.319  27.777  28.631  1.00  0.00    -0.248 NA
ATOM     43  C   UNL A   1      44.801  27.863  26.372  1.00  0.00     0.031 C 
ATOM     44  C   UNL A   1      41.044  25.743  28.525  1.00  0.00     0.029 A 
ATOM     45  N   UNL A   1      41.859  27.639  29.305  1.00  0.00    -0.354 N 
ATOM     46  C   UNL A   1      46.096  28.751  28.012  1.00  0.00     0.074 A 
ATOM     47  C   UNL A   1      45.898  28.586  26.598  1.00  0.00     0.031 C 
ATOM     48  C   UNL A   1      40.004  26.444  29.031  1.00  0.00     0.029 A 
ATOM     49  C   UNL A   1      40.485  27.730  29.508  1.00  0.00     0.049 A 
ATOM     50  H   UNL A   1      42.497  28.288  29.679  1.00  0.00     0.167 HD
ATOM     51  C   UNL A   1      46.585  29.799  28.725  1.00  0.00     0.037 A 
ATOM     52  C   UNL A   1      39.802  28.821  29.954  1.00  0.00     0.037 A 
ATOM     53  C   UNL A   1      46.591  29.504  30.137  1.00  0.00     0.049 A 
ATOM     54  C   UNL A   1      40.793  29.696  30.642  1.00  0.00     0.074 A 
ATOM     55  C   UNL A   1      47.137  28.492  30.906  1.00  0.00     0.029 A 
ATOM     56  N   UNL A   1      45.625  30.090  30.920  1.00  0.00    -0.354 N 
ATOM     57  N   UNL A   1      41.392  29.368  31.756  1.00  0.00    -0.248 NA
ATOM     58  C   UNL A   1      41.483  30.697  29.840  1.00  0.00     0.031 C 
ATOM     59  C   UNL A   1      46.150  28.207  31.894  1.00  0.00     0.029 A 
ATOM     60  C   UNL A   1      45.103  29.116  31.731  1.00  0.00     0.049 A 
ATOM     61  H   UNL A   1      45.356  31.038  30.901  1.00  0.00     0.167 HD
ATOM     62  C   UNL A   1      42.711  29.763  31.578  1.00  0.00     0.074 A 
ATOM     63  C   UNL A   1      42.690  30.644  30.410  1.00  0.00     0.031 C 
ATOM     64  C   UNL A   1      43.737  29.109  32.200  1.00  0.00     0.037 A 
BRANCH  51  65
ATOM     65  C   UNL A   1      46.646  31.213  28.191  1.00  0.00     0.058 A 
ATOM     66  C   UNL A   1      45.453  31.832  27.770  1.00  0.00     0.135 A 
ATOM     67  C   UNL A   1      47.839  31.868  27.805  1.00  0.00     0.135 A 
ATOM     68  F   UNL A   1      44.260  31.296  28.074  1.00  0.00    -0.206 F 
ATOM     69  C   UNL A   1      45.446  32.962  26.953  1.00  0.00     0.059 A 
ATOM     70  C   UNL A   1      47.853  33.026  27.040  1.00  0.00     0.059 A 
ATOM     71  F   UNL A   1      49.054  31.372  28.060  1.00  0.00    -0.206 F 
ATOM     72  C   UNL A   1      46.655  33.542  26.582  1.00  0.00     0.060 A 
BRANCH  72  73
ATOM     73  S   UNL A   1      46.658  34.944  25.456  1.00  0.00     0.124 S 
ATOM     74  O   UNL A   1      48.038  34.933  24.984  1.00  0.00    -0.237 OA
ATOM     75  O   UNL A   1      45.644  34.548  24.484  1.00  0.00    -0.237 OA
ATOM     76  O   UNL A   1      46.290  36.066  26.315  1.00  0.00    -0.744 OA
ENDBRANCH  72  73
ENDBRANCH  51  65
BRANCH  52  77
ATOM     77  C   UNL A   1      38.464  29.313  29.508  1.00  0.00     0.058 A 
ATOM     78  C   UNL A   1      37.490  29.737  30.435  1.00  0.00     0.135 A 
ATOM     79  C   UNL A   1      38.202  29.639  28.161  1.00  0.00     0.135 A 
ATOM     80  F   UNL A   1      37.653  29.491  31.744  1.00  0.00    -0.206 F 
ATOM     81  C   UNL A   1      36.364  30.484  30.056  1.00  0.00     0.059 A 
ATOM     82  C   UNL A   1      37.084  30.368  27.759  1.00  0.00     0.059 A 
ATOM     83  F   UNL A   1      39.077  29.342  27.189  1.00  0.00    -0.206 F 
ATOM     84  C   UNL A   1      36.182  30.814  28.714  1.00  0.00     0.060 A 
BRANCH  84  85
ATOM     85  S   UNL A   1      34.847  31.937  28.232  1.00  0.00     0.124 S 
ATOM     86  O   UNL A   1      34.032  31.087  27.372  1.00  0.00    -0.237 OA
ATOM     87  O   UNL A   1      34.261  32.292  29.519  1.00  0.00    -0.237 OA
ATOM     88  O   UNL A   1      35.547  33.023  27.552  1.00  0.00    -0.744 OA
ENDBRANCH  84  85
ENDBRANCH  52  77
BRANCH  64  89
ATOM     89  C   UNL A   1      43.413  28.148  33.314  1.00  0.00     0.058 A 
ATOM     90  C   UNL A   1      43.370  26.748  33.182  1.00  0.00     0.135 A 
ATOM     91  C   UNL A   1      43.308  28.671  34.611  1.00  0.00     0.135 A 
ATOM     92  F   UNL A   1      43.575  26.159  31.996  1.00  0.00    -0.206 F 
ATOM     93  C   UNL A   1      43.185  25.912  34.286  1.00  0.00     0.059 A 
ATOM     94  C   UNL A   1      43.157  27.857  35.728  1.00  0.00     0.059 A 
ATOM     95  F   UNL A   1      43.406  29.996  34.813  1.00  0.00    -0.206 F 
ATOM     96  C   UNL A   1      43.081  26.478  35.557  1.00  0.00     0.060 A 
BRANCH  96  97
ATOM     97  S   UNL A   1      42.908  25.398  36.993  1.00  0.00     0.124 S 
ATOM     98  O   UNL A   1      43.007  26.342  38.100  1.00  0.00    -0.237 OA
ATOM     99  O   UNL A   1      41.592  24.800  36.783  1.00  0.00    -0.237 OA
ATOM    100  O   UNL A   1      44.031  24.472  36.860  1.00  0.00    -0.744 OA
ENDBRANCH  96  97
ENDBRANCH  64  89
ENDBRANCH  38  39
ENDBRANCH  31  33
ENDBRANCH  30  31
ENDBRANCH  29  30
ENDBRANCH  28  29
ENDBRANCH   1  28
TORSDOF 20
ENDMDL
