MODEL 1
REMARK VINA RESULT:     -11.6      0.000      0.000
REMARK SMILES O=C(/C=C/N[C@@H](Cc1c[nH]c2ccccc12)C(=O)OCCOC(=O)c1ccc(-c2c3nc(c(-c4c(F)cc(S(=O)(=O)[O-])cc4F)c4ccc([nH]4)c(-c4c(F)cc(S(=O)(=O)[O-])cc4F)c4nc(c(-c5c(F)cc(S(=O)(=O)[O-])cc5F)c5ccc2[nH]5)C=C4)C=C3)cc1)c1ccccc1
REMARK SMILES IDX 20 1 19 2 17 3 18 4 6 5 5 6 4 8 3 9 2 10 1 11 91 12 92 13
REMARK SMILES IDX 96 14 93 15 95 16 94 17 7 18 8 19 9 20 16 21 10 22 11 23
REMARK SMILES IDX 15 24 12 26 14 27 13 28 21 29 22 30 23 31 24 32 25 33 26 34
REMARK SMILES IDX 90 35 27 36 89 37 28 38 29 39 30 40 83 41 31 42 88 43 82 44
REMARK SMILES IDX 84 45 32 46 87 47 81 48 80 49 33 51 67 52 46 53 66 54 47 55
REMARK SMILES IDX 50 56 65 57 85 58 48 59 49 60 64 62 86 63 51 64 34 65 35 66
REMARK SMILES IDX 44 67 36 68 37 69 43 70 45 71 38 72 39 73 40 74 41 75 42 76
REMARK SMILES IDX 68 77 69 78 78 79 70 80 71 81 77 82 79 83 72 84 73 85 74 86
REMARK SMILES IDX 75 87 76 88 52 89 53 90 62 91 54 92 55 93 61 94 63 95 56 96
REMARK SMILES IDX 57 97 58 98 59 99 60 100
REMARK H PARENT 5 7 10 25 84 50 50 61
REMARK Flexibility Score: inf
ROOT
ATOM      1  C   UNL A   1      33.184  30.252  27.270  1.00  0.00     0.274 C 
ENDROOT
BRANCH   1   2
ATOM      2  O   UNL A   1      33.296  29.546  26.020  1.00  0.00    -0.461 OA
BRANCH   2   3
ATOM      3  C   UNL A   1      32.134  29.307  25.344  1.00  0.00     0.329 C 
ATOM      4  O   UNL A   1      31.262  30.145  25.138  1.00  0.00    -0.250 OA
BRANCH   3   5
ATOM      5  C   UNL A   1      32.032  27.857  24.850  1.00  0.00     0.194 C 
BRANCH   5   6
ATOM      6  N   UNL A   1      30.691  27.274  25.017  1.00  0.00    -0.378 N 
ATOM      7  H   UNL A   1      29.927  27.844  24.771  1.00  0.00     0.160 HD
BRANCH   6   8
ATOM      8  C   UNL A   1      30.396  26.018  25.483  1.00  0.00     0.082 C 
ATOM      9  C   UNL A   1      31.190  25.246  26.236  1.00  0.00     0.070 C 
BRANCH   9  10
ATOM     10  C   UNL A   1      30.844  23.874  26.696  1.00  0.00     0.187 C 
ATOM     11  O   UNL A   1      29.784  23.687  27.287  1.00  0.00    -0.289 OA
BRANCH  10  12
ATOM     12  C   UNL A   1      31.773  22.743  26.444  1.00  0.00     0.022 A 
ATOM     13  C   UNL A   1      31.593  21.872  25.364  1.00  0.00     0.012 A 
ATOM     14  C   UNL A   1      32.869  22.568  27.299  1.00  0.00     0.012 A 
ATOM     15  C   UNL A   1      32.461  20.794  25.190  1.00  0.00     0.001 A 
ATOM     16  C   UNL A   1      33.745  21.499  27.106  1.00  0.00     0.001 A 
ATOM     17  C   UNL A   1      33.534  20.605  26.057  1.00  0.00     0.000 A 
ENDBRANCH  10  12
ENDBRANCH   9  10
ENDBRANCH   6   8
ENDBRANCH   5   6
BRANCH   5  18
ATOM     18  C   UNL A   1      32.553  27.723  23.422  1.00  0.00     0.074 C 
BRANCH  18  19
ATOM     19  C   UNL A   1      32.750  26.338  22.873  1.00  0.00    -0.020 A 
ATOM     20  C   UNL A   1      32.161  25.733  21.780  1.00  0.00     0.087 A 
ATOM     21  C   UNL A   1      33.625  25.363  23.452  1.00  0.00     0.003 A 
ATOM     22  N   UNL A   1      32.695  24.482  21.634  1.00  0.00    -0.361 N 
ATOM     23  C   UNL A   1      33.578  24.221  22.653  1.00  0.00     0.046 A 
ATOM     24  C   UNL A   1      34.456  25.355  24.591  1.00  0.00     0.010 A 
ATOM     25  H   UNL A   1      32.479  23.859  20.904  1.00  0.00     0.166 HD
ATOM     26  C   UNL A   1      34.328  23.074  22.927  1.00  0.00     0.026 A 
ATOM     27  C   UNL A   1      35.200  24.211  24.890  1.00  0.00     0.001 A 
ATOM     28  C   UNL A   1      35.138  23.089  24.067  1.00  0.00     0.002 A 
ENDBRANCH  18  19
ENDBRANCH   5  18
ENDBRANCH   3   5
ENDBRANCH   2   3
ENDBRANCH   1   2
BRANCH   1  29
ATOM     29  C   UNL A   1      34.477  31.010  27.563  1.00  0.00     0.275 C 
BRANCH  29  30
ATOM     30  O   UNL A   1      35.472  30.119  28.090  1.00  0.00    -0.458 OA
BRANCH  30  31
ATOM     31  C   UNL A   1      36.156  30.584  29.164  1.00  0.00     0.338 C 
ATOM     32  O   UNL A   1      35.721  31.200  30.119  1.00  0.00    -0.246 OA
BRANCH  31  33
ATOM     33  C   UNL A   1      37.544  30.121  29.050  1.00  0.00     0.060 A 
ATOM     34  C   UNL A   1      38.067  29.870  27.780  1.00  0.00     0.016 A 
ATOM     35  C   UNL A   1      38.318  29.926  30.191  1.00  0.00     0.016 A 
ATOM     36  C   UNL A   1      39.375  29.427  27.638  1.00  0.00     0.010 A 
ATOM     37  C   UNL A   1      39.641  29.504  30.047  1.00  0.00     0.010 A 
ATOM     38  C   UNL A   1      40.178  29.254  28.771  1.00  0.00    -0.014 A 
BRANCH  38  39
ATOM     39  C   UNL A   1      41.589  28.828  28.627  1.00  0.00     0.031 A 
ATOM     40  C   UNL A   1      42.691  29.843  28.699  1.00  0.00     0.074 A 
ATOM     41  C   UNL A   1      41.861  27.527  28.407  1.00  0.00     0.049 A 
ATOM     42  N   UNL A   1      43.977  29.676  28.541  1.00  0.00    -0.248 NA
ATOM     43  C   UNL A   1      42.299  31.227  29.009  1.00  0.00     0.031 C 
ATOM     44  C   UNL A   1      40.868  26.451  28.354  1.00  0.00     0.029 A 
ATOM     45  N   UNL A   1      43.052  26.891  28.160  1.00  0.00    -0.354 N 
ATOM     46  C   UNL A   1      44.548  30.927  28.743  1.00  0.00     0.074 A 
ATOM     47  C   UNL A   1      43.470  31.847  29.029  1.00  0.00     0.031 C 
ATOM     48  C   UNL A   1      41.487  25.295  28.069  1.00  0.00     0.029 A 
ATOM     49  C   UNL A   1      42.906  25.557  27.859  1.00  0.00     0.049 A 
ATOM     50  H   UNL A   1      43.924  27.346  28.194  1.00  0.00     0.167 HD
ATOM     51  C   UNL A   1      45.854  31.275  28.675  1.00  0.00     0.037 A 
ATOM     52  C   UNL A   1      43.806  24.662  27.410  1.00  0.00     0.037 A 
ATOM     53  C   UNL A   1      46.905  30.363  28.310  1.00  0.00     0.049 A 
ATOM     54  C   UNL A   1      45.228  25.109  27.201  1.00  0.00     0.074 A 
ATOM     55  C   UNL A   1      48.260  30.613  28.194  1.00  0.00     0.029 A 
ATOM     56  N   UNL A   1      46.711  29.033  27.958  1.00  0.00    -0.354 N 
ATOM     57  N   UNL A   1      45.764  26.282  27.439  1.00  0.00    -0.248 NA
ATOM     58  C   UNL A   1      46.163  24.119  26.650  1.00  0.00     0.031 C 
ATOM     59  C   UNL A   1      48.876  29.456  27.705  1.00  0.00     0.029 A 
ATOM     60  C   UNL A   1      47.913  28.465  27.574  1.00  0.00     0.049 A 
ATOM     61  H   UNL A   1      45.845  28.565  27.979  1.00  0.00     0.167 HD
ATOM     62  C   UNL A   1      47.101  26.169  27.079  1.00  0.00     0.074 A 
ATOM     63  C   UNL A   1      47.296  24.806  26.625  1.00  0.00     0.031 C 
ATOM     64  C   UNL A   1      48.080  27.108  27.116  1.00  0.00     0.037 A 
BRANCH  51  65
ATOM     65  C   UNL A   1      46.204  32.711  28.939  1.00  0.00     0.058 A 
ATOM     66  C   UNL A   1      46.142  33.685  27.930  1.00  0.00     0.135 A 
ATOM     67  C   UNL A   1      46.582  33.124  30.227  1.00  0.00     0.135 A 
ATOM     68  F   UNL A   1      45.813  33.339  26.675  1.00  0.00    -0.206 F 
ATOM     69  C   UNL A   1      46.454  35.017  28.186  1.00  0.00     0.059 A 
ATOM     70  C   UNL A   1      46.877  34.454  30.510  1.00  0.00     0.059 A 
ATOM     71  F   UNL A   1      46.671  32.230  31.224  1.00  0.00    -0.206 F 
ATOM     72  C   UNL A   1      46.819  35.392  29.481  1.00  0.00     0.060 A 
BRANCH  72  73
ATOM     73  S   UNL A   1      47.211  37.125  29.799  1.00  0.00     0.124 S 
ATOM     74  O   UNL A   1      46.695  37.767  28.593  1.00  0.00    -0.237 OA
ATOM     75  O   UNL A   1      46.465  37.391  31.025  1.00  0.00    -0.237 OA
ATOM     76  O   UNL A   1      48.663  37.127  29.938  1.00  0.00    -0.744 OA
ENDBRANCH  72  73
ENDBRANCH  51  65
BRANCH  52  77
ATOM     77  C   UNL A   1      43.374  23.279  27.071  1.00  0.00     0.058 A 
ATOM     78  C   UNL A   1      43.254  22.861  25.739  1.00  0.00     0.135 A 
ATOM     79  C   UNL A   1      43.082  22.343  28.078  1.00  0.00     0.135 A 
ATOM     80  F   UNL A   1      43.509  23.721  24.741  1.00  0.00    -0.206 F 
ATOM     81  C   UNL A   1      42.852  21.569  25.414  1.00  0.00     0.059 A 
ATOM     82  C   UNL A   1      42.707  21.037  27.778  1.00  0.00     0.059 A 
ATOM     83  F   UNL A   1      43.189  22.688  29.370  1.00  0.00    -0.206 F 
ATOM     84  C   UNL A   1      42.585  20.662  26.442  1.00  0.00     0.060 A 
BRANCH  84  85
ATOM     85  S   UNL A   1      42.111  18.974  26.008  1.00  0.00     0.124 S 
ATOM     86  O   UNL A   1      40.664  19.102  25.872  1.00  0.00    -0.237 OA
ATOM     87  O   UNL A   1      42.853  18.756  24.771  1.00  0.00    -0.237 OA
ATOM     88  O   UNL A   1      42.571  18.192  27.153  1.00  0.00    -0.744 OA
ENDBRANCH  84  85
ENDBRANCH  52  77
BRANCH  64  89
ATOM     89  C   UNL A   1      49.450  26.694  26.660  1.00  0.00     0.058 A 
ATOM     90  C   UNL A   1      50.326  25.998  27.507  1.00  0.00     0.135 A 
ATOM     91  C   UNL A   1      49.864  26.934  25.340  1.00  0.00     0.135 A 
ATOM     92  F   UNL A   1      49.981  25.753  28.781  1.00  0.00    -0.206 F 
ATOM     93  C   UNL A   1      51.571  25.564  27.065  1.00  0.00     0.059 A 
ATOM     94  C   UNL A   1      51.091  26.484  24.868  1.00  0.00     0.059 A 
ATOM     95  F   UNL A   1      49.060  27.589  24.487  1.00  0.00    -0.206 F 
ATOM     96  C   UNL A   1      51.941  25.806  25.741  1.00  0.00     0.060 A 
BRANCH  96  97
ATOM     97  S   UNL A   1      53.536  25.186  25.164  1.00  0.00     0.124 S 
ATOM     98  O   UNL A   1      54.460  25.881  26.054  1.00  0.00    -0.237 OA
ATOM     99  O   UNL A   1      53.407  23.748  25.380  1.00  0.00    -0.237 OA
ATOM    100  O   UNL A   1      53.577  25.602  23.765  1.00  0.00    -0.744 OA
ENDBRANCH  96  97
ENDBRANCH  64  89
ENDBRANCH  38  39
ENDBRANCH  31  33
ENDBRANCH  30  31
ENDBRANCH  29  30
ENDBRANCH   1  29
TORSDOF 20
ENDMDL
MODEL 2
REMARK VINA RESULT:     -11.1      5.171      9.638
REMARK SMILES O=C(/C=C/N[C@@H](Cc1c[nH]c2ccccc12)C(=O)OCCOC(=O)c1ccc(-c2c3nc(c(-c4c(F)cc(S(=O)(=O)[O-])cc4F)c4ccc([nH]4)c(-c4c(F)cc(S(=O)(=O)[O-])cc4F)c4nc(c(-c5c(F)cc(S(=O)(=O)[O-])cc5F)c5ccc2[nH]5)C=C4)C=C3)cc1)c1ccccc1
REMARK SMILES IDX 20 1 19 2 17 3 18 4 6 5 5 6 4 8 3 9 2 10 1 11 91 12 92 13
REMARK SMILES IDX 96 14 93 15 95 16 94 17 7 18 8 19 9 20 16 21 10 22 11 23
REMARK SMILES IDX 15 24 12 26 14 27 13 28 21 29 22 30 23 31 24 32 25 33 26 34
REMARK SMILES IDX 90 35 27 36 89 37 28 38 29 39 30 40 83 41 31 42 88 43 82 44
REMARK SMILES IDX 84 45 32 46 87 47 81 48 80 49 33 51 67 52 46 53 66 54 47 55
REMARK SMILES IDX 50 56 65 57 85 58 48 59 49 60 64 62 86 63 51 64 34 65 35 66
REMARK SMILES IDX 44 67 36 68 37 69 43 70 45 71 38 72 39 73 40 74 41 75 42 76
REMARK SMILES IDX 68 77 69 78 78 79 70 80 71 81 77 82 79 83 72 84 73 85 74 86
REMARK SMILES IDX 75 87 76 88 52 89 53 90 62 91 54 92 55 93 61 94 63 95 56 96
REMARK SMILES IDX 57 97 58 98 59 99 60 100
REMARK H PARENT 5 7 10 25 84 50 50 61
REMARK Flexibility Score: inf
ROOT
ATOM      1  C   UNL A   1      32.227  27.299  26.323  1.00  0.00     0.274 C 
ENDROOT
BRANCH   1   2
ATOM      2  O   UNL A   1      30.856  26.958  26.604  1.00  0.00    -0.461 OA
BRANCH   2   3
ATOM      3  C   UNL A   1      30.347  25.874  25.949  1.00  0.00     0.329 C 
ATOM      4  O   UNL A   1      29.947  24.852  26.497  1.00  0.00    -0.250 OA
BRANCH   3   5
ATOM      5  C   UNL A   1      30.317  26.071  24.426  1.00  0.00     0.194 C 
BRANCH   5   6
ATOM      6  N   UNL A   1      30.169  24.814  23.676  1.00  0.00    -0.378 N 
ATOM      7  H   UNL A   1      29.252  24.479  23.549  1.00  0.00     0.160 HD
BRANCH   6   8
ATOM      8  C   UNL A   1      31.180  24.060  23.135  1.00  0.00     0.082 C 
ATOM      9  C   UNL A   1      32.482  24.371  23.127  1.00  0.00     0.070 C 
BRANCH   9  10
ATOM     10  C   UNL A   1      33.545  23.538  22.502  1.00  0.00     0.187 C 
ATOM     11  O   UNL A   1      33.604  23.457  21.278  1.00  0.00    -0.289 OA
BRANCH  10  12
ATOM     12  C   UNL A   1      34.524  22.812  23.351  1.00  0.00     0.022 A 
ATOM     13  C   UNL A   1      35.893  23.098  23.300  1.00  0.00     0.012 A 
ATOM     14  C   UNL A   1      34.053  21.838  24.240  1.00  0.00     0.012 A 
ATOM     15  C   UNL A   1      36.785  22.361  24.079  1.00  0.00     0.001 A 
ATOM     16  C   UNL A   1      34.950  21.118  25.032  1.00  0.00     0.001 A 
ATOM     17  C   UNL A   1      36.318  21.373  24.943  1.00  0.00     0.000 A 
ENDBRANCH  10  12
ENDBRANCH   9  10
ENDBRANCH   6   8
ENDBRANCH   5   6
BRANCH   5  18
ATOM     18  C   UNL A   1      29.278  27.115  24.026  1.00  0.00     0.074 C 
BRANCH  18  19
ATOM     19  C   UNL A   1      29.733  28.270  23.180  1.00  0.00    -0.020 A 
ATOM     20  C   UNL A   1      30.885  28.412  22.431  1.00  0.00     0.087 A 
ATOM     21  C   UNL A   1      28.998  29.491  23.027  1.00  0.00     0.003 A 
ATOM     22  N   UNL A   1      30.837  29.616  21.782  1.00  0.00    -0.361 N 
ATOM     23  C   UNL A   1      29.705  30.304  22.143  1.00  0.00     0.046 A 
ATOM     24  C   UNL A   1      27.788  29.972  23.567  1.00  0.00     0.010 A 
ATOM     25  H   UNL A   1      31.515  29.941  21.148  1.00  0.00     0.166 HD
ATOM     26  C   UNL A   1      29.259  31.573  21.761  1.00  0.00     0.026 A 
ATOM     27  C   UNL A   1      27.336  31.245  23.210  1.00  0.00     0.001 A 
ATOM     28  C   UNL A   1      28.060  32.030  22.317  1.00  0.00     0.002 A 
ENDBRANCH  18  19
ENDBRANCH   5  18
ENDBRANCH   3   5
ENDBRANCH   2   3
ENDBRANCH   1   2
BRANCH   1  29
ATOM     29  C   UNL A   1      32.608  28.586  27.052  1.00  0.00     0.275 C 
BRANCH  29  30
ATOM     30  O   UNL A   1      33.961  28.954  26.744  1.00  0.00    -0.458 OA
BRANCH  30  31
ATOM     31  C   UNL A   1      34.373  30.135  27.266  1.00  0.00     0.338 C 
ATOM     32  O   UNL A   1      33.783  31.199  27.268  1.00  0.00    -0.246 OA
BRANCH  31  33
ATOM     33  C   UNL A   1      35.650  29.904  27.952  1.00  0.00     0.060 A 
ATOM     34  C   UNL A   1      36.838  30.135  27.256  1.00  0.00     0.016 A 
ATOM     35  C   UNL A   1      35.672  29.452  29.269  1.00  0.00     0.016 A 
ATOM     36  C   UNL A   1      38.063  29.922  27.875  1.00  0.00     0.010 A 
ATOM     37  C   UNL A   1      36.903  29.262  29.899  1.00  0.00     0.010 A 
ATOM     38  C   UNL A   1      38.105  29.497  29.208  1.00  0.00    -0.014 A 
BRANCH  38  39
ATOM     39  C   UNL A   1      39.406  29.313  29.891  1.00  0.00     0.031 A 
ATOM     40  C   UNL A   1      40.333  28.217  29.456  1.00  0.00     0.074 A 
ATOM     41  C   UNL A   1      39.729  30.125  30.916  1.00  0.00     0.049 A 
ATOM     42  N   UNL A   1      41.483  27.861  29.963  1.00  0.00    -0.248 NA
ATOM     43  C   UNL A   1      39.923  27.426  28.285  1.00  0.00     0.031 C 
ATOM     44  C   UNL A   1      38.916  31.245  31.397  1.00  0.00     0.029 A 
ATOM     45  N   UNL A   1      40.813  30.116  31.758  1.00  0.00    -0.354 N 
ATOM     46  C   UNL A   1      41.939  26.817  29.168  1.00  0.00     0.074 A 
ATOM     47  C   UNL A   1      40.941  26.589  28.148  1.00  0.00     0.031 C 
ATOM     48  C   UNL A   1      39.518  31.800  32.461  1.00  0.00     0.029 A 
ATOM     49  C   UNL A   1      40.723  31.040  32.773  1.00  0.00     0.049 A 
ATOM     50  H   UNL A   1      41.579  29.508  31.645  1.00  0.00     0.167 HD
ATOM     51  C   UNL A   1      43.081  26.102  29.294  1.00  0.00     0.037 A 
ATOM     52  C   UNL A   1      41.496  31.215  33.862  1.00  0.00     0.037 A 
ATOM     53  C   UNL A   1      44.026  26.288  30.364  1.00  0.00     0.049 A 
ATOM     54  C   UNL A   1      42.682  30.311  34.059  1.00  0.00     0.074 A 
ATOM     55  C   UNL A   1      45.207  25.608  30.597  1.00  0.00     0.029 A 
ATOM     56  N   UNL A   1      43.872  27.195  31.404  1.00  0.00    -0.354 N 
ATOM     57  N   UNL A   1      43.128  29.357  33.277  1.00  0.00    -0.248 NA
ATOM     58  C   UNL A   1      43.460  30.494  35.292  1.00  0.00     0.031 C 
ATOM     59  C   UNL A   1      45.732  26.055  31.815  1.00  0.00     0.029 A 
ATOM     60  C   UNL A   1      44.910  27.057  32.310  1.00  0.00     0.049 A 
ATOM     61  H   UNL A   1      43.134  27.842  31.485  1.00  0.00     0.167 HD
ATOM     62  C   UNL A   1      44.245  28.833  33.916  1.00  0.00     0.074 A 
ATOM     63  C   UNL A   1      44.419  29.590  35.140  1.00  0.00     0.031 C 
ATOM     64  C   UNL A   1      45.055  27.816  33.528  1.00  0.00     0.037 A 
BRANCH  51  65
ATOM     65  C   UNL A   1      43.335  25.015  28.290  1.00  0.00     0.058 A 
ATOM     66  C   UNL A   1      42.929  23.689  28.516  1.00  0.00     0.135 A 
ATOM     67  C   UNL A   1      43.969  25.307  27.072  1.00  0.00     0.135 A 
ATOM     68  F   UNL A   1      42.343  23.350  29.676  1.00  0.00    -0.206 F 
ATOM     69  C   UNL A   1      43.154  22.691  27.574  1.00  0.00     0.059 A 
ATOM     70  C   UNL A   1      44.185  24.329  26.106  1.00  0.00     0.059 A 
ATOM     71  F   UNL A   1      44.388  26.555  26.812  1.00  0.00    -0.206 F 
ATOM     72  C   UNL A   1      43.781  23.021  26.371  1.00  0.00     0.060 A 
BRANCH  72  73
ATOM     73  S   UNL A   1      44.057  21.715  25.154  1.00  0.00     0.124 S 
ATOM     74  O   UNL A   1      43.854  22.437  23.902  1.00  0.00    -0.237 OA
ATOM     75  O   UNL A   1      45.431  21.313  25.438  1.00  0.00    -0.237 OA
ATOM     76  O   UNL A   1      43.037  20.725  25.479  1.00  0.00    -0.744 OA
ENDBRANCH  72  73
ENDBRANCH  51  65
BRANCH  52  77
ATOM     77  C   UNL A   1      41.133  32.245  34.872  1.00  0.00     0.058 A 
ATOM     78  C   UNL A   1      40.249  31.956  35.920  1.00  0.00     0.135 A 
ATOM     79  C   UNL A   1      41.675  33.541  34.814  1.00  0.00     0.135 A 
ATOM     80  F   UNL A   1      39.694  30.738  36.012  1.00  0.00    -0.206 F 
ATOM     81  C   UNL A   1      39.907  32.914  36.870  1.00  0.00     0.059 A 
ATOM     82  C   UNL A   1      41.371  34.507  35.768  1.00  0.00     0.059 A 
ATOM     83  F   UNL A   1      42.533  33.869  33.836  1.00  0.00    -0.206 F 
ATOM     84  C   UNL A   1      40.477  34.186  36.788  1.00  0.00     0.060 A 
BRANCH  84  85
ATOM     85  S   UNL A   1      40.063  35.406  38.054  1.00  0.00     0.124 S 
ATOM     86  O   UNL A   1      39.808  36.593  37.245  1.00  0.00    -0.237 OA
ATOM     87  O   UNL A   1      38.896  34.803  38.690  1.00  0.00    -0.237 OA
ATOM     88  O   UNL A   1      41.265  35.452  38.882  1.00  0.00    -0.744 OA
ENDBRANCH  84  85
ENDBRANCH  52  77
BRANCH  64  89
ATOM     89  C   UNL A   1      46.203  27.465  34.430  1.00  0.00     0.058 A 
ATOM     90  C   UNL A   1      47.439  28.124  34.334  1.00  0.00     0.135 A 
ATOM     91  C   UNL A   1      46.044  26.510  35.447  1.00  0.00     0.135 A 
ATOM     92  F   UNL A   1      47.645  29.038  33.372  1.00  0.00    -0.206 F 
ATOM     93  C   UNL A   1      48.481  27.840  35.209  1.00  0.00     0.059 A 
ATOM     94  C   UNL A   1      47.062  26.231  36.350  1.00  0.00     0.059 A 
ATOM     95  F   UNL A   1      44.878  25.858  35.585  1.00  0.00    -0.206 F 
ATOM     96  C   UNL A   1      48.281  26.896  36.219  1.00  0.00     0.060 A 
BRANCH  96  97
ATOM     97  S   UNL A   1      49.624  26.580  37.382  1.00  0.00     0.124 S 
ATOM     98  O   UNL A   1      50.133  27.927  37.617  1.00  0.00    -0.237 OA
ATOM     99  O   UNL A   1      48.924  25.961  38.504  1.00  0.00    -0.237 OA
ATOM    100  O   UNL A   1      50.515  25.692  36.640  1.00  0.00    -0.744 OA
ENDBRANCH  96  97
ENDBRANCH  64  89
ENDBRANCH  38  39
ENDBRANCH  31  33
ENDBRANCH  30  31
ENDBRANCH  29  30
ENDBRANCH   1  29
TORSDOF 20
ENDMDL
MODEL 3
REMARK VINA RESULT:     -11.1      2.721      4.136
REMARK SMILES O=C(/C=C/N[C@@H](Cc1c[nH]c2ccccc12)C(=O)OCCOC(=O)c1ccc(-c2c3nc(c(-c4c(F)cc(S(=O)(=O)[O-])cc4F)c4ccc([nH]4)c(-c4c(F)cc(S(=O)(=O)[O-])cc4F)c4nc(c(-c5c(F)cc(S(=O)(=O)[O-])cc5F)c5ccc2[nH]5)C=C4)C=C3)cc1)c1ccccc1
REMARK SMILES IDX 20 1 19 2 17 3 18 4 6 5 5 6 4 8 3 9 2 10 1 11 91 12 92 13
REMARK SMILES IDX 96 14 93 15 95 16 94 17 7 18 8 19 9 20 16 21 10 22 11 23
REMARK SMILES IDX 15 24 12 26 14 27 13 28 21 29 22 30 23 31 24 32 25 33 26 34
REMARK SMILES IDX 90 35 27 36 89 37 28 38 29 39 30 40 83 41 31 42 88 43 82 44
REMARK SMILES IDX 84 45 32 46 87 47 81 48 80 49 33 51 67 52 46 53 66 54 47 55
REMARK SMILES IDX 50 56 65 57 85 58 48 59 49 60 64 62 86 63 51 64 34 65 35 66
REMARK SMILES IDX 44 67 36 68 37 69 43 70 45 71 38 72 39 73 40 74 41 75 42 76
REMARK SMILES IDX 68 77 69 78 78 79 70 80 71 81 77 82 79 83 72 84 73 85 74 86
REMARK SMILES IDX 75 87 76 88 52 89 53 90 62 91 54 92 55 93 61 94 63 95 56 96
REMARK SMILES IDX 57 97 58 98 59 99 60 100
REMARK H PARENT 5 7 10 25 84 50 50 61
REMARK Flexibility Score: inf
ROOT
ATOM      1  C   UNL A   1      32.489  27.498  26.096  1.00  0.00     0.274 C 
ENDROOT
BRANCH   1   2
ATOM      2  O   UNL A   1      31.053  27.515  26.000  1.00  0.00    -0.461 OA
BRANCH   2   3
ATOM      3  C   UNL A   1      30.446  26.337  25.672  1.00  0.00     0.329 C 
ATOM      4  O   UNL A   1      30.050  25.506  26.483  1.00  0.00    -0.250 OA
BRANCH   3   5
ATOM      5  C   UNL A   1      30.300  26.156  24.153  1.00  0.00     0.194 C 
BRANCH   5   6
ATOM      6  N   UNL A   1      30.136  24.753  23.743  1.00  0.00    -0.378 N 
ATOM      7  H   UNL A   1      29.213  24.431  23.624  1.00  0.00     0.160 HD
BRANCH   6   8
ATOM      8  C   UNL A   1      31.137  23.845  23.510  1.00  0.00     0.082 C 
ATOM      9  C   UNL A   1      31.939  23.297  24.432  1.00  0.00     0.070 C 
BRANCH   9  10
ATOM     10  C   UNL A   1      33.036  22.337  24.134  1.00  0.00     0.187 C 
ATOM     11  O   UNL A   1      32.758  21.220  23.704  1.00  0.00    -0.289 OA
BRANCH  10  12
ATOM     12  C   UNL A   1      34.452  22.725  24.356  1.00  0.00     0.022 A 
ATOM     13  C   UNL A   1      35.372  22.778  23.302  1.00  0.00     0.012 A 
ATOM     14  C   UNL A   1      34.861  23.070  25.650  1.00  0.00     0.012 A 
ATOM     15  C   UNL A   1      36.704  23.102  23.560  1.00  0.00     0.001 A 
ATOM     16  C   UNL A   1      36.192  23.413  25.897  1.00  0.00     0.001 A 
ATOM     17  C   UNL A   1      37.116  23.418  24.853  1.00  0.00     0.000 A 
ENDBRANCH  10  12
ENDBRANCH   9  10
ENDBRANCH   6   8
ENDBRANCH   5   6
BRANCH   5  18
ATOM     18  C   UNL A   1      29.205  27.060  23.594  1.00  0.00     0.074 C 
BRANCH  18  19
ATOM     19  C   UNL A   1      29.622  28.339  22.925  1.00  0.00    -0.020 A 
ATOM     20  C   UNL A   1      30.744  28.608  22.165  1.00  0.00     0.087 A 
ATOM     21  C   UNL A   1      28.879  29.562  22.996  1.00  0.00     0.003 A 
ATOM     22  N   UNL A   1      30.667  29.899  21.717  1.00  0.00    -0.361 N 
ATOM     23  C   UNL A   1      29.548  30.511  22.227  1.00  0.00     0.046 A 
ATOM     24  C   UNL A   1      27.690  29.940  23.653  1.00  0.00     0.010 A 
ATOM     25  H   UNL A   1      31.319  30.327  21.117  1.00  0.00     0.166 HD
ATOM     26  C   UNL A   1      29.084  31.820  22.068  1.00  0.00     0.026 A 
ATOM     27  C   UNL A   1      27.220  31.250  23.520  1.00  0.00     0.001 A 
ATOM     28  C   UNL A   1      27.907  32.173  22.735  1.00  0.00     0.002 A 
ENDBRANCH  18  19
ENDBRANCH   5  18
ENDBRANCH   3   5
ENDBRANCH   2   3
ENDBRANCH   1   2
BRANCH   1  29
ATOM     29  C   UNL A   1      32.947  28.376  27.259  1.00  0.00     0.275 C 
BRANCH  29  30
ATOM     30  O   UNL A   1      34.037  29.219  26.852  1.00  0.00    -0.458 OA
BRANCH  30  31
ATOM     31  C   UNL A   1      34.430  30.139  27.765  1.00  0.00     0.338 C 
ATOM     32  O   UNL A   1      33.753  30.991  28.310  1.00  0.00    -0.246 OA
BRANCH  31  33
ATOM     33  C   UNL A   1      35.837  29.877  28.093  1.00  0.00     0.060 A 
ATOM     34  C   UNL A   1      36.173  29.563  29.410  1.00  0.00     0.016 A 
ATOM     35  C   UNL A   1      36.817  29.953  27.106  1.00  0.00     0.016 A 
ATOM     36  C   UNL A   1      37.495  29.314  29.754  1.00  0.00     0.010 A 
ATOM     37  C   UNL A   1      38.142  29.678  27.447  1.00  0.00     0.010 A 
ATOM     38  C   UNL A   1      38.489  29.355  28.771  1.00  0.00    -0.014 A 
BRANCH  38  39
ATOM     39  C   UNL A   1      39.894  29.045  29.118  1.00  0.00     0.031 A 
ATOM     40  C   UNL A   1      40.782  30.114  29.683  1.00  0.00     0.074 A 
ATOM     41  C   UNL A   1      40.365  27.802  28.898  1.00  0.00     0.049 A 
ATOM     42  N   UNL A   1      42.050  30.055  29.994  1.00  0.00    -0.248 NA
ATOM     43  C   UNL A   1      40.159  31.421  29.950  1.00  0.00     0.031 C 
ATOM     44  C   UNL A   1      39.579  26.677  28.386  1.00  0.00     0.029 A 
ATOM     45  N   UNL A   1      41.626  27.282  29.050  1.00  0.00    -0.354 N 
ATOM     46  C   UNL A   1      42.372  31.306  30.504  1.00  0.00     0.074 A 
ATOM     47  C   UNL A   1      41.172  32.110  30.456  1.00  0.00     0.031 C 
ATOM     48  C   UNL A   1      40.378  25.609  28.245  1.00  0.00     0.029 A 
ATOM     49  C   UNL A   1      41.742  25.989  28.597  1.00  0.00     0.049 A 
ATOM     50  H   UNL A   1      42.374  27.787  29.444  1.00  0.00     0.167 HD
ATOM     51  C   UNL A   1      43.571  31.746  30.954  1.00  0.00     0.037 A 
ATOM     52  C   UNL A   1      42.834  25.218  28.432  1.00  0.00     0.037 A 
ATOM     53  C   UNL A   1      44.774  30.959  30.921  1.00  0.00     0.049 A 
ATOM     54  C   UNL A   1      44.179  25.781  28.803  1.00  0.00     0.074 A 
ATOM     55  C   UNL A   1      46.045  31.311  31.335  1.00  0.00     0.029 A 
ATOM     56  N   UNL A   1      44.863  29.673  30.403  1.00  0.00    -0.354 N 
ATOM     57  N   UNL A   1      44.465  26.949  29.326  1.00  0.00    -0.248 NA
ATOM     58  C   UNL A   1      45.349  24.931  28.548  1.00  0.00     0.031 C 
ATOM     59  C   UNL A   1      46.915  30.266  31.004  1.00  0.00     0.029 A 
ATOM     60  C   UNL A   1      46.176  29.237  30.440  1.00  0.00     0.049 A 
ATOM     61  H   UNL A   1      44.103  29.148  30.062  1.00  0.00     0.167 HD
ATOM     62  C   UNL A   1      45.846  26.971  29.475  1.00  0.00     0.074 A 
ATOM     63  C   UNL A   1      46.336  25.690  29.004  1.00  0.00     0.031 C 
ATOM     64  C   UNL A   1      46.641  27.961  29.955  1.00  0.00     0.037 A 
BRANCH  51  65
ATOM     65  C   UNL A   1      43.647  33.159  31.457  1.00  0.00     0.058 A 
ATOM     66  C   UNL A   1      43.775  34.250  30.582  1.00  0.00     0.135 A 
ATOM     67  C   UNL A   1      43.565  33.429  32.833  1.00  0.00     0.135 A 
ATOM     68  F   UNL A   1      43.886  34.046  29.259  1.00  0.00    -0.206 F 
ATOM     69  C   UNL A   1      43.830  35.557  31.055  1.00  0.00     0.059 A 
ATOM     70  C   UNL A   1      43.596  34.729  33.326  1.00  0.00     0.059 A 
ATOM     71  F   UNL A   1      43.456  32.420  33.713  1.00  0.00    -0.206 F 
ATOM     72  C   UNL A   1      43.738  35.787  32.429  1.00  0.00     0.060 A 
BRANCH  72  73
ATOM     73  S   UNL A   1      43.801  37.490  33.027  1.00  0.00     0.124 S 
ATOM     74  O   UNL A   1      45.096  37.514  33.700  1.00  0.00    -0.237 OA
ATOM     75  O   UNL A   1      43.718  38.255  31.787  1.00  0.00    -0.237 OA
ATOM     76  O   UNL A   1      42.638  37.587  33.901  1.00  0.00    -0.744 OA
ENDBRANCH  72  73
ENDBRANCH  51  65
BRANCH  52  77
ATOM     77  C   UNL A   1      42.702  23.862  27.835  1.00  0.00     0.058 A 
ATOM     78  C   UNL A   1      42.563  22.723  28.640  1.00  0.00     0.135 A 
ATOM     79  C   UNL A   1      42.702  23.679  26.441  1.00  0.00     0.135 A 
ATOM     80  F   UNL A   1      42.570  22.842  29.976  1.00  0.00    -0.206 F 
ATOM     81  C   UNL A   1      42.437  21.452  28.088  1.00  0.00     0.059 A 
ATOM     82  C   UNL A   1      42.549  22.423  25.866  1.00  0.00     0.059 A 
ATOM     83  F   UNL A   1      42.824  24.737  25.624  1.00  0.00    -0.206 F 
ATOM     84  C   UNL A   1      42.427  21.312  26.698  1.00  0.00     0.060 A 
BRANCH  84  85
ATOM     85  S   UNL A   1      42.215  19.663  25.994  1.00  0.00     0.124 S 
ATOM     86  O   UNL A   1      43.121  19.713  24.851  1.00  0.00    -0.237 OA
ATOM     87  O   UNL A   1      42.626  18.802  27.098  1.00  0.00    -0.237 OA
ATOM     88  O   UNL A   1      40.791  19.617  25.670  1.00  0.00    -0.744 OA
ENDBRANCH  84  85
ENDBRANCH  52  77
BRANCH  64  89
ATOM     89  C   UNL A   1      48.119  27.699  29.999  1.00  0.00     0.058 A 
ATOM     90  C   UNL A   1      48.693  26.910  31.008  1.00  0.00     0.135 A 
ATOM     91  C   UNL A   1      48.959  28.184  28.984  1.00  0.00     0.135 A 
ATOM     92  F   UNL A   1      47.934  26.432  32.007  1.00  0.00    -0.206 F 
ATOM     93  C   UNL A   1      50.053  26.619  31.015  1.00  0.00     0.059 A 
ATOM     94  C   UNL A   1      50.316  27.882  28.955  1.00  0.00     0.059 A 
ATOM     95  F   UNL A   1      48.457  28.936  27.992  1.00  0.00    -0.206 F 
ATOM     96  C   UNL A   1      50.855  27.104  29.980  1.00  0.00     0.060 A 
BRANCH  96  97
ATOM     97  S   UNL A   1      52.607  26.671  29.971  1.00  0.00     0.124 S 
ATOM     98  O   UNL A   1      52.731  25.975  28.695  1.00  0.00    -0.237 OA
ATOM     99  O   UNL A   1      53.251  27.978  30.045  1.00  0.00    -0.237 OA
ATOM    100  O   UNL A   1      52.757  25.836  31.159  1.00  0.00    -0.744 OA
ENDBRANCH  96  97
ENDBRANCH  64  89
ENDBRANCH  38  39
ENDBRANCH  31  33
ENDBRANCH  30  31
ENDBRANCH  29  30
ENDBRANCH   1  29
TORSDOF 20
ENDMDL
