MODEL 1
REMARK VINA RESULT:     -11.9      0.000      0.000
REMARK SMILES O=C(OCCOC(=O)C1CCN(c2ccc(C(F)(F)F)cc2[N+](=O)[O-])CC1)c1ccc(-c2c3nc(c(-c4c(F)cc(S(=O)(=O)[O-])cc4F)c4ccc([nH]4)c(-c4c(F)cc(S(=O)(=O)[O-])cc4F)c4nc(c(-c5c(F)cc(S(=O)(=O)[O-])cc5F)c5ccc2[nH]5)C=C4)C=C3)cc1
REMARK SMILES IDX 4 1 3 2 2 3 1 4 28 5 29 6 93 7 30 8 92 9 31 10 32 11 33 12
REMARK SMILES IDX 86 13 34 14 91 15 85 16 87 17 35 18 90 19 84 20 83 21 36 23
REMARK SMILES IDX 70 24 49 25 69 26 50 27 53 28 68 29 88 30 51 31 52 32 67 34
REMARK SMILES IDX 89 35 54 36 37 37 38 38 47 39 39 40 40 41 46 42 48 43 41 44
REMARK SMILES IDX 42 45 43 46 44 47 45 48 71 49 72 50 81 51 73 52 74 53 80 54
REMARK SMILES IDX 82 55 75 56 76 57 77 58 78 59 79 60 55 61 56 62 65 63 57 64
REMARK SMILES IDX 58 65 64 66 66 67 59 68 60 69 61 70 62 71 63 72 5 73 6 74
REMARK SMILES IDX 7 75 8 76 9 77 10 78 27 79 11 80 26 81 12 82 13 83 14 84
REMARK SMILES IDX 22 85 15 86 21 87 16 88 23 89 24 90 25 91 17 92 18 93 19 94
REMARK SMILES IDX 20 95
REMARK H PARENT 87 22 53 33
REMARK Flexibility Score: inf
ROOT
ATOM      1  C   UNL A   1      39.217  22.354  26.441  1.00  0.00     0.275 C 
ENDROOT
BRANCH   1   2
ATOM      2  O   UNL A   1      39.694  23.636  25.983  1.00  0.00    -0.458 OA
BRANCH   2   3
ATOM      3  C   UNL A   1      40.613  24.494  26.489  1.00  0.00     0.338 C 
ATOM      4  O   UNL A   1      41.779  24.357  26.113  1.00  0.00    -0.246 OA
BRANCH   3   5
ATOM      5  C   UNL A   1      40.358  25.533  27.550  1.00  0.00     0.060 A 
ATOM      6  C   UNL A   1      39.393  25.481  28.559  1.00  0.00     0.016 A 
ATOM      7  C   UNL A   1      41.222  26.657  27.549  1.00  0.00     0.016 A 
ATOM      8  C   UNL A   1      39.363  26.445  29.585  1.00  0.00     0.010 A 
ATOM      9  C   UNL A   1      41.181  27.635  28.560  1.00  0.00     0.010 A 
ATOM     10  C   UNL A   1      40.271  27.517  29.611  1.00  0.00    -0.014 A 
BRANCH  10  11
ATOM     11  C   UNL A   1      40.135  28.542  30.679  1.00  0.00     0.031 A 
ATOM     12  C   UNL A   1      41.203  28.600  31.723  1.00  0.00     0.074 A 
ATOM     13  C   UNL A   1      39.123  29.435  30.711  1.00  0.00     0.049 A 
ATOM     14  N   UNL A   1      41.340  29.445  32.704  1.00  0.00    -0.248 NA
ATOM     15  C   UNL A   1      42.208  27.522  31.697  1.00  0.00     0.031 C 
ATOM     16  C   UNL A   1      37.920  29.365  29.900  1.00  0.00     0.029 A 
ATOM     17  N   UNL A   1      38.936  30.586  31.439  1.00  0.00    -0.354 N 
ATOM     18  C   UNL A   1      42.401  28.969  33.456  1.00  0.00     0.074 A 
ATOM     19  C   UNL A   1      42.905  27.787  32.791  1.00  0.00     0.031 C 
ATOM     20  C   UNL A   1      37.189  30.482  30.055  1.00  0.00     0.029 A 
ATOM     21  C   UNL A   1      37.837  31.325  31.043  1.00  0.00     0.049 A 
ATOM     22  H   UNL A   1      39.532  30.859  32.175  1.00  0.00     0.167 HD
ATOM     23  C   UNL A   1      42.868  29.449  34.629  1.00  0.00     0.037 A 
ATOM     24  C   UNL A   1      37.388  32.527  31.456  1.00  0.00     0.037 A 
ATOM     25  C   UNL A   1      42.332  30.605  35.292  1.00  0.00     0.049 A 
ATOM     26  C   UNL A   1      38.042  33.123  32.672  1.00  0.00     0.074 A 
ATOM     27  C   UNL A   1      42.742  31.178  36.482  1.00  0.00     0.029 A 
ATOM     28  N   UNL A   1      41.259  31.355  34.832  1.00  0.00    -0.354 N 
ATOM     29  N   UNL A   1      39.060  32.666  33.360  1.00  0.00    -0.248 NA
ATOM     30  C   UNL A   1      37.429  34.339  33.228  1.00  0.00     0.031 C 
ATOM     31  C   UNL A   1      41.891  32.252  36.763  1.00  0.00     0.029 A 
ATOM     32  C   UNL A   1      40.988  32.380  35.721  1.00  0.00     0.049 A 
ATOM     33  H   UNL A   1      40.765  31.184  33.998  1.00  0.00     0.167 HD
ATOM     34  C   UNL A   1      39.155  33.491  34.470  1.00  0.00     0.074 A 
ATOM     35  C   UNL A   1      38.158  34.528  34.317  1.00  0.00     0.031 C 
ATOM     36  C   UNL A   1      39.959  33.370  35.552  1.00  0.00     0.037 A 
BRANCH  23  37
ATOM     37  C   UNL A   1      43.960  28.675  35.297  1.00  0.00     0.058 A 
ATOM     38  C   UNL A   1      45.313  28.909  35.014  1.00  0.00     0.135 A 
ATOM     39  C   UNL A   1      43.641  27.694  36.249  1.00  0.00     0.135 A 
ATOM     40  F   UNL A   1      45.664  29.806  34.079  1.00  0.00    -0.206 F 
ATOM     41  C   UNL A   1      46.317  28.192  35.654  1.00  0.00     0.059 A 
ATOM     42  C   UNL A   1      44.629  26.983  36.918  1.00  0.00     0.059 A 
ATOM     43  F   UNL A   1      42.358  27.417  36.531  1.00  0.00    -0.206 F 
ATOM     44  C   UNL A   1      45.965  27.238  36.610  1.00  0.00     0.060 A 
BRANCH  44  45
ATOM     45  S   UNL A   1      47.283  26.353  37.465  1.00  0.00     0.124 S 
ATOM     46  O   UNL A   1      46.711  26.196  38.799  1.00  0.00    -0.237 OA
ATOM     47  O   UNL A   1      47.397  25.131  36.676  1.00  0.00    -0.237 OA
ATOM     48  O   UNL A   1      48.420  27.264  37.373  1.00  0.00    -0.744 OA
ENDBRANCH  44  45
ENDBRANCH  23  37
BRANCH  24  49
ATOM     49  C   UNL A   1      36.206  33.225  30.869  1.00  0.00     0.058 A 
ATOM     50  C   UNL A   1      36.329  33.937  29.663  1.00  0.00     0.135 A 
ATOM     51  C   UNL A   1      35.016  33.379  31.593  1.00  0.00     0.135 A 
ATOM     52  F   UNL A   1      37.459  33.848  28.944  1.00  0.00    -0.206 F 
ATOM     53  C   UNL A   1      35.349  34.833  29.237  1.00  0.00     0.059 A 
ATOM     54  C   UNL A   1      34.020  34.264  31.184  1.00  0.00     0.059 A 
ATOM     55  F   UNL A   1      34.835  32.704  32.739  1.00  0.00    -0.206 F 
ATOM     56  C   UNL A   1      34.216  35.019  30.027  1.00  0.00     0.060 A 
BRANCH  56  57
ATOM     57  S   UNL A   1      33.009  36.286  29.553  1.00  0.00     0.124 S 
ATOM     58  O   UNL A   1      32.265  35.598  28.506  1.00  0.00    -0.237 OA
ATOM     59  O   UNL A   1      32.287  36.517  30.801  1.00  0.00    -0.237 OA
ATOM     60  O   UNL A   1      33.851  37.391  29.105  1.00  0.00    -0.744 OA
ENDBRANCH  56  57
ENDBRANCH  24  49
BRANCH  36  61
ATOM     61  C   UNL A   1      39.752  34.365  36.649  1.00  0.00     0.058 A 
ATOM     62  C   UNL A   1      38.969  34.056  37.773  1.00  0.00     0.135 A 
ATOM     63  C   UNL A   1      40.357  35.628  36.586  1.00  0.00     0.135 A 
ATOM     64  F   UNL A   1      38.356  32.865  37.864  1.00  0.00    -0.206 F 
ATOM     65  C   UNL A   1      38.783  34.976  38.796  1.00  0.00     0.059 A 
ATOM     66  C   UNL A   1      40.204  36.553  37.609  1.00  0.00     0.059 A 
ATOM     67  F   UNL A   1      41.111  35.963  35.527  1.00  0.00    -0.206 F 
ATOM     68  C   UNL A   1      39.409  36.221  38.706  1.00  0.00     0.060 A 
BRANCH  68  69
ATOM     69  S   UNL A   1      39.199  37.391  40.061  1.00  0.00     0.124 S 
ATOM     70  O   UNL A   1      38.387  38.428  39.433  1.00  0.00    -0.237 OA
ATOM     71  O   UNL A   1      38.526  36.582  41.072  1.00  0.00    -0.237 OA
ATOM     72  O   UNL A   1      40.569  37.779  40.389  1.00  0.00    -0.744 OA
ENDBRANCH  68  69
ENDBRANCH  36  61
ENDBRANCH  10  11
ENDBRANCH   3   5
ENDBRANCH   2   3
ENDBRANCH   1   2
BRANCH   1  73
ATOM     73  C   UNL A   1      38.164  21.729  25.527  1.00  0.00     0.274 C 
BRANCH  73  74
ATOM     74  O   UNL A   1      36.856  21.891  26.080  1.00  0.00    -0.462 OA
BRANCH  74  75
ATOM     75  C   UNL A   1      35.871  21.102  25.565  1.00  0.00     0.309 C 
ATOM     76  O   UNL A   1      36.049  20.163  24.809  1.00  0.00    -0.252 OA
BRANCH  75  77
ATOM     77  C   UNL A   1      34.509  21.488  26.119  1.00  0.00     0.103 C 
ATOM     78  C   UNL A   1      33.384  21.086  25.163  1.00  0.00     0.037 C 
ATOM     79  C   UNL A   1      34.363  22.974  26.427  1.00  0.00     0.037 C 
ATOM     80  C   UNL A   1      33.371  21.979  23.920  1.00  0.00     0.117 C 
ATOM     81  C   UNL A   1      34.413  23.855  25.186  1.00  0.00     0.117 C 
ATOM     82  N   UNL A   1      33.367  23.391  24.304  1.00  0.00    -0.366 N 
BRANCH  82  83
ATOM     83  C   UNL A   1      32.260  24.169  24.028  1.00  0.00     0.116 A 
ATOM     84  C   UNL A   1      32.235  24.848  22.797  1.00  0.00     0.034 A 
ATOM     85  C   UNL A   1      31.196  24.419  24.914  1.00  0.00     0.293 A 
ATOM     86  C   UNL A   1      31.342  25.883  22.551  1.00  0.00     0.016 A 
ATOM     87  C   UNL A   1      30.303  25.483  24.689  1.00  0.00     0.101 A 
ATOM     88  C   UNL A   1      30.441  26.276  23.542  1.00  0.00     0.062 A 
BRANCH  85  89
ATOM     89  N   UNL A   1      30.992  23.635  26.133  1.00  0.00     0.064 N 
ATOM     90  O   UNL A   1      30.484  22.512  25.993  1.00  0.00    -0.258 OA
ATOM     91  O   UNL A   1      31.305  24.127  27.227  1.00  0.00    -0.258 OA
ENDBRANCH  85  89
BRANCH  88  92
ATOM     92  C   UNL A   1      29.748  27.610  23.394  1.00  0.00     0.416 C 
ATOM     93  F   UNL A   1      30.013  28.142  22.163  1.00  0.00    -0.166 F 
ATOM     94  F   UNL A   1      28.400  27.496  23.462  1.00  0.00    -0.166 F 
ATOM     95  F   UNL A   1      30.169  28.526  24.289  1.00  0.00    -0.166 F 
ENDBRANCH  88  92
ENDBRANCH  82  83
ENDBRANCH  75  77
ENDBRANCH  74  75
ENDBRANCH  73  74
ENDBRANCH   1  73
TORSDOF 17
ENDMDL
MODEL 2
REMARK VINA RESULT:     -11.8      5.425     10.086
REMARK SMILES O=C(OCCOC(=O)C1CCN(c2ccc(C(F)(F)F)cc2[N+](=O)[O-])CC1)c1ccc(-c2c3nc(c(-c4c(F)cc(S(=O)(=O)[O-])cc4F)c4ccc([nH]4)c(-c4c(F)cc(S(=O)(=O)[O-])cc4F)c4nc(c(-c5c(F)cc(S(=O)(=O)[O-])cc5F)c5ccc2[nH]5)C=C4)C=C3)cc1
REMARK SMILES IDX 4 1 3 2 2 3 1 4 28 5 29 6 93 7 30 8 92 9 31 10 32 11 33 12
REMARK SMILES IDX 86 13 34 14 91 15 85 16 87 17 35 18 90 19 84 20 83 21 36 23
REMARK SMILES IDX 70 24 49 25 69 26 50 27 53 28 68 29 88 30 51 31 52 32 67 34
REMARK SMILES IDX 89 35 54 36 37 37 38 38 47 39 39 40 40 41 46 42 48 43 41 44
REMARK SMILES IDX 42 45 43 46 44 47 45 48 71 49 72 50 81 51 73 52 74 53 80 54
REMARK SMILES IDX 82 55 75 56 76 57 77 58 78 59 79 60 55 61 56 62 65 63 57 64
REMARK SMILES IDX 58 65 64 66 66 67 59 68 60 69 61 70 62 71 63 72 5 73 6 74
REMARK SMILES IDX 7 75 8 76 9 77 10 78 27 79 11 80 26 81 12 82 13 83 14 84
REMARK SMILES IDX 22 85 15 86 21 87 16 88 23 89 24 90 25 91 17 92 18 93 19 94
REMARK SMILES IDX 20 95
REMARK H PARENT 87 22 53 33
REMARK Flexibility Score: inf
ROOT
ATOM      1  C   UNL A   1      33.766  28.098  26.298  1.00  0.00     0.275 C 
ENDROOT
BRANCH   1   2
ATOM      2  O   UNL A   1      33.763  28.919  27.484  1.00  0.00    -0.458 OA
BRANCH   2   3
ATOM      3  C   UNL A   1      34.600  29.895  27.912  1.00  0.00     0.338 C 
ATOM      4  O   UNL A   1      34.161  31.047  27.929  1.00  0.00    -0.246 OA
BRANCH   3   5
ATOM      5  C   UNL A   1      36.053  29.716  28.271  1.00  0.00     0.060 A 
ATOM      6  C   UNL A   1      36.565  29.273  29.493  1.00  0.00     0.016 A 
ATOM      7  C   UNL A   1      36.991  29.979  27.242  1.00  0.00     0.016 A 
ATOM      8  C   UNL A   1      37.937  28.998  29.646  1.00  0.00     0.010 A 
ATOM      9  C   UNL A   1      38.366  29.727  27.397  1.00  0.00     0.010 A 
ATOM     10  C   UNL A   1      38.848  29.196  28.595  1.00  0.00    -0.014 A 
BRANCH  10  11
ATOM     11  C   UNL A   1      40.294  28.960  28.848  1.00  0.00     0.031 A 
ATOM     12  C   UNL A   1      40.886  27.687  28.336  1.00  0.00     0.074 A 
ATOM     13  C   UNL A   1      41.084  29.860  29.472  1.00  0.00     0.049 A 
ATOM     14  N   UNL A   1      42.127  27.293  28.371  1.00  0.00    -0.248 NA
ATOM     15  C   UNL A   1      39.946  26.701  27.776  1.00  0.00     0.031 C 
ATOM     16  C   UNL A   1      40.612  31.026  30.199  1.00  0.00     0.029 A 
ATOM     17  N   UNL A   1      42.450  29.955  29.593  1.00  0.00    -0.354 N 
ATOM     18  C   UNL A   1      42.114  25.990  27.903  1.00  0.00     0.074 A 
ATOM     19  C   UNL A   1      40.748  25.674  27.544  1.00  0.00     0.031 C 
ATOM     20  C   UNL A   1      41.650  31.797  30.565  1.00  0.00     0.029 A 
ATOM     21  C   UNL A   1      42.879  31.140  30.162  1.00  0.00     0.049 A 
ATOM     22  H   UNL A   1      43.066  29.244  29.300  1.00  0.00     0.167 HD
ATOM     23  C   UNL A   1      43.146  25.120  27.839  1.00  0.00     0.037 A 
ATOM     24  C   UNL A   1      44.122  31.620  30.365  1.00  0.00     0.037 A 
ATOM     25  C   UNL A   1      44.490  25.441  28.234  1.00  0.00     0.049 A 
ATOM     26  C   UNL A   1      45.270  30.679  30.123  1.00  0.00     0.074 A 
ATOM     27  C   UNL A   1      45.610  24.632  28.199  1.00  0.00     0.029 A 
ATOM     28  N   UNL A   1      44.892  26.664  28.751  1.00  0.00    -0.354 N 
ATOM     29  N   UNL A   1      45.238  29.453  29.660  1.00  0.00    -0.248 NA
ATOM     30  C   UNL A   1      46.607  31.144  30.521  1.00  0.00     0.031 C 
ATOM     31  C   UNL A   1      46.684  25.352  28.732  1.00  0.00     0.029 A 
ATOM     32  C   UNL A   1      46.243  26.627  29.047  1.00  0.00     0.049 A 
ATOM     33  H   UNL A   1      44.305  27.443  28.886  1.00  0.00     0.167 HD
ATOM     34  C   UNL A   1      46.534  28.976  29.790  1.00  0.00     0.074 A 
ATOM     35  C   UNL A   1      47.343  30.070  30.283  1.00  0.00     0.031 C 
ATOM     36  C   UNL A   1      47.004  27.726  29.574  1.00  0.00     0.037 A 
BRANCH  23  37
ATOM     37  C   UNL A   1      42.836  23.725  27.399  1.00  0.00     0.058 A 
ATOM     38  C   UNL A   1      42.826  23.362  26.045  1.00  0.00     0.135 A 
ATOM     39  C   UNL A   1      42.563  22.733  28.354  1.00  0.00     0.135 A 
ATOM     40  F   UNL A   1      43.038  24.285  25.094  1.00  0.00    -0.206 F 
ATOM     41  C   UNL A   1      42.551  22.058  25.651  1.00  0.00     0.059 A 
ATOM     42  C   UNL A   1      42.311  21.419  27.984  1.00  0.00     0.059 A 
ATOM     43  F   UNL A   1      42.535  23.042  29.660  1.00  0.00    -0.206 F 
ATOM     44  C   UNL A   1      42.304  21.092  26.629  1.00  0.00     0.060 A 
BRANCH  44  45
ATOM     45  S   UNL A   1      41.999  19.395  26.101  1.00  0.00     0.124 S 
ATOM     46  O   UNL A   1      42.842  19.303  24.913  1.00  0.00    -0.237 OA
ATOM     47  O   UNL A   1      42.446  18.627  27.258  1.00  0.00    -0.237 OA
ATOM     48  O   UNL A   1      40.560  19.369  25.853  1.00  0.00    -0.744 OA
ENDBRANCH  44  45
ENDBRANCH  23  37
BRANCH  24  49
ATOM     49  C   UNL A   1      44.414  32.967  30.939  1.00  0.00     0.058 A 
ATOM     50  C   UNL A   1      44.393  33.164  32.331  1.00  0.00     0.135 A 
ATOM     51  C   UNL A   1      44.497  34.104  30.125  1.00  0.00     0.135 A 
ATOM     52  F   UNL A   1      44.285  32.111  33.156  1.00  0.00    -0.206 F 
ATOM     53  C   UNL A   1      44.368  34.441  32.890  1.00  0.00     0.059 A 
ATOM     54  C   UNL A   1      44.479  35.391  30.662  1.00  0.00     0.059 A 
ATOM     55  F   UNL A   1      44.544  33.974  28.791  1.00  0.00    -0.206 F 
ATOM     56  C   UNL A   1      44.370  35.549  32.044  1.00  0.00     0.060 A 
BRANCH  56  57
ATOM     57  S   UNL A   1      44.191  37.205  32.758  1.00  0.00     0.124 S 
ATOM     58  O   UNL A   1      45.460  37.356  33.458  1.00  0.00    -0.237 OA
ATOM     59  O   UNL A   1      44.012  38.042  31.576  1.00  0.00    -0.237 OA
ATOM     60  O   UNL A   1      43.015  37.070  33.612  1.00  0.00    -0.744 OA
ENDBRANCH  56  57
ENDBRANCH  24  49
BRANCH  36  61
ATOM     61  C   UNL A   1      48.443  27.490  29.910  1.00  0.00     0.058 A 
ATOM     62  C   UNL A   1      48.835  27.103  31.201  1.00  0.00     0.135 A 
ATOM     63  C   UNL A   1      49.433  27.632  28.929  1.00  0.00     0.135 A 
ATOM     64  F   UNL A   1      47.920  26.974  32.176  1.00  0.00    -0.206 F 
ATOM     65  C   UNL A   1      50.169  26.875  31.512  1.00  0.00     0.059 A 
ATOM     66  C   UNL A   1      50.770  27.386  29.212  1.00  0.00     0.059 A 
ATOM     67  F   UNL A   1      49.101  28.004  27.682  1.00  0.00    -0.206 F 
ATOM     68  C   UNL A   1      51.128  27.015  30.508  1.00  0.00     0.060 A 
BRANCH  68  69
ATOM     69  S   UNL A   1      52.852  26.673  30.908  1.00  0.00     0.124 S 
ATOM     70  O   UNL A   1      52.741  25.421  31.649  1.00  0.00    -0.237 OA
ATOM     71  O   UNL A   1      53.466  26.577  29.587  1.00  0.00    -0.237 OA
ATOM     72  O   UNL A   1      53.254  27.836  31.695  1.00  0.00    -0.744 OA
ENDBRANCH  68  69
ENDBRANCH  36  61
ENDBRANCH  10  11
ENDBRANCH   3   5
ENDBRANCH   2   3
ENDBRANCH   1   2
BRANCH   1  73
ATOM     73  C   UNL A   1      32.375  27.856  25.715  1.00  0.00     0.274 C 
BRANCH  73  74
ATOM     74  O   UNL A   1      32.303  26.568  25.099  1.00  0.00    -0.462 OA
BRANCH  74  75
ATOM     75  C   UNL A   1      31.597  25.610  25.762  1.00  0.00     0.309 C 
ATOM     76  O   UNL A   1      31.284  25.658  26.938  1.00  0.00    -0.252 OA
BRANCH  75  77
ATOM     77  C   UNL A   1      31.171  24.491  24.824  1.00  0.00     0.103 C 
ATOM     78  C   UNL A   1      30.845  23.211  25.596  1.00  0.00     0.037 C 
ATOM     79  C   UNL A   1      32.202  24.151  23.754  1.00  0.00     0.037 C 
ATOM     80  C   UNL A   1      32.116  22.558  26.145  1.00  0.00     0.117 C 
ATOM     81  C   UNL A   1      33.486  23.559  24.319  1.00  0.00     0.117 C 
ATOM     82  N   UNL A   1      33.105  22.390  25.079  1.00  0.00    -0.366 N 
BRANCH  82  83
ATOM     83  C   UNL A   1      33.457  21.119  24.670  1.00  0.00     0.116 A 
ATOM     84  C   UNL A   1      32.452  20.319  24.099  1.00  0.00     0.034 A 
ATOM     85  C   UNL A   1      34.716  20.518  24.863  1.00  0.00     0.293 A 
ATOM     86  C   UNL A   1      32.609  18.948  23.943  1.00  0.00     0.016 A 
ATOM     87  C   UNL A   1      34.879  19.127  24.736  1.00  0.00     0.101 A 
ATOM     88  C   UNL A   1      33.788  18.330  24.363  1.00  0.00     0.062 A 
BRANCH  85  89
ATOM     89  N   UNL A   1      35.897  21.288  25.256  1.00  0.00     0.064 N 
ATOM     90  O   UNL A   1      36.816  21.360  24.425  1.00  0.00    -0.258 OA
ATOM     91  O   UNL A   1      35.936  21.797  26.386  1.00  0.00    -0.258 OA
ENDBRANCH  85  89
BRANCH  88  92
ATOM     92  C   UNL A   1      33.794  16.828  24.522  1.00  0.00     0.416 C 
ATOM     93  F   UNL A   1      35.051  16.338  24.299  1.00  0.00    -0.166 F 
ATOM     94  F   UNL A   1      33.469  16.445  25.779  1.00  0.00    -0.166 F 
ATOM     95  F   UNL A   1      32.993  16.199  23.638  1.00  0.00    -0.166 F 
ENDBRANCH  88  92
ENDBRANCH  82  83
ENDBRANCH  75  77
ENDBRANCH  74  75
ENDBRANCH  73  74
ENDBRANCH   1  73
TORSDOF 17
ENDMDL
MODEL 3
REMARK VINA RESULT:     -11.7      4.722      5.942
REMARK SMILES O=C(OCCOC(=O)C1CCN(c2ccc(C(F)(F)F)cc2[N+](=O)[O-])CC1)c1ccc(-c2c3nc(c(-c4c(F)cc(S(=O)(=O)[O-])cc4F)c4ccc([nH]4)c(-c4c(F)cc(S(=O)(=O)[O-])cc4F)c4nc(c(-c5c(F)cc(S(=O)(=O)[O-])cc5F)c5ccc2[nH]5)C=C4)C=C3)cc1
REMARK SMILES IDX 4 1 3 2 2 3 1 4 28 5 29 6 93 7 30 8 92 9 31 10 32 11 33 12
REMARK SMILES IDX 86 13 34 14 91 15 85 16 87 17 35 18 90 19 84 20 83 21 36 23
REMARK SMILES IDX 70 24 49 25 69 26 50 27 53 28 68 29 88 30 51 31 52 32 67 34
REMARK SMILES IDX 89 35 54 36 37 37 38 38 47 39 39 40 40 41 46 42 48 43 41 44
REMARK SMILES IDX 42 45 43 46 44 47 45 48 71 49 72 50 81 51 73 52 74 53 80 54
REMARK SMILES IDX 82 55 75 56 76 57 77 58 78 59 79 60 55 61 56 62 65 63 57 64
REMARK SMILES IDX 58 65 64 66 66 67 59 68 60 69 61 70 62 71 63 72 5 73 6 74
REMARK SMILES IDX 7 75 8 76 9 77 10 78 27 79 11 80 26 81 12 82 13 83 14 84
REMARK SMILES IDX 22 85 15 86 21 87 16 88 23 89 24 90 25 91 17 92 18 93 19 94
REMARK SMILES IDX 20 95
REMARK H PARENT 87 22 53 33
REMARK Flexibility Score: inf
ROOT
ATOM      1  C   UNL A   1      37.406  21.756  24.750  1.00  0.00     0.275 C 
ENDROOT
BRANCH   1   2
ATOM      2  O   UNL A   1      38.016  21.687  26.055  1.00  0.00    -0.458 OA
BRANCH   2   3
ATOM      3  C   UNL A   1      39.253  22.024  26.496  1.00  0.00     0.338 C 
ATOM      4  O   UNL A   1      40.050  21.105  26.695  1.00  0.00    -0.246 OA
BRANCH   3   5
ATOM      5  C   UNL A   1      39.708  23.412  26.867  1.00  0.00     0.060 A 
ATOM      6  C   UNL A   1      39.191  24.618  26.389  1.00  0.00     0.016 A 
ATOM      7  C   UNL A   1      40.737  23.496  27.838  1.00  0.00     0.016 A 
ATOM      8  C   UNL A   1      39.601  25.849  26.936  1.00  0.00     0.010 A 
ATOM      9  C   UNL A   1      41.166  24.726  28.372  1.00  0.00     0.010 A 
ATOM     10  C   UNL A   1      40.572  25.915  27.949  1.00  0.00    -0.014 A 
BRANCH  10  11
ATOM     11  C   UNL A   1      41.015  27.252  28.428  1.00  0.00     0.031 A 
ATOM     12  C   UNL A   1      42.418  27.665  28.121  1.00  0.00     0.074 A 
ATOM     13  C   UNL A   1      40.195  28.106  29.077  1.00  0.00     0.049 A 
ATOM     14  N   UNL A   1      43.006  28.801  28.368  1.00  0.00    -0.248 NA
ATOM     15  C   UNL A   1      43.290  26.641  27.520  1.00  0.00     0.031 C 
ATOM     16  C   UNL A   1      38.893  27.763  29.623  1.00  0.00     0.029 A 
ATOM     17  N   UNL A   1      40.316  29.440  29.384  1.00  0.00    -0.354 N 
ATOM     18  C   UNL A   1      44.334  28.612  28.020  1.00  0.00     0.074 A 
ATOM     19  C   UNL A   1      44.456  27.268  27.498  1.00  0.00     0.031 C 
ATOM     20  C   UNL A   1      38.269  28.868  30.065  1.00  0.00     0.029 A 
ATOM     21  C   UNL A   1      39.163  30.000  29.903  1.00  0.00     0.049 A 
ATOM     22  H   UNL A   1      41.147  29.950  29.247  1.00  0.00     0.167 HD
ATOM     23  C   UNL A   1      45.364  29.471  28.182  1.00  0.00     0.037 A 
ATOM     24  C   UNL A   1      38.875  31.273  30.239  1.00  0.00     0.037 A 
ATOM     25  C   UNL A   1      45.229  30.789  28.736  1.00  0.00     0.049 A 
ATOM     26  C   UNL A   1      40.016  32.254  30.249  1.00  0.00     0.074 A 
ATOM     27  C   UNL A   1      46.212  31.741  28.934  1.00  0.00     0.029 A 
ATOM     28  N   UNL A   1      44.040  31.337  29.195  1.00  0.00    -0.354 N 
ATOM     29  N   UNL A   1      41.263  32.061  29.896  1.00  0.00    -0.248 NA
ATOM     30  C   UNL A   1      39.738  33.592  30.792  1.00  0.00     0.031 C 
ATOM     31  C   UNL A   1      45.625  32.851  29.550  1.00  0.00     0.029 A 
ATOM     32  C   UNL A   1      44.268  32.611  29.686  1.00  0.00     0.049 A 
ATOM     33  H   UNL A   1      43.164  30.887  29.176  1.00  0.00     0.167 HD
ATOM     34  C   UNL A   1      41.931  33.223  30.253  1.00  0.00     0.074 A 
ATOM     35  C   UNL A   1      40.939  34.147  30.758  1.00  0.00     0.031 C 
ATOM     36  C   UNL A   1      43.258  33.485  30.218  1.00  0.00     0.037 A 
BRANCH  23  37
ATOM     37  C   UNL A   1      46.729  28.973  27.826  1.00  0.00     0.058 A 
ATOM     38  C   UNL A   1      47.563  28.361  28.772  1.00  0.00     0.135 A 
ATOM     39  C   UNL A   1      47.199  29.097  26.510  1.00  0.00     0.135 A 
ATOM     40  F   UNL A   1      47.174  28.259  30.053  1.00  0.00    -0.206 F 
ATOM     41  C   UNL A   1      48.822  27.889  28.424  1.00  0.00     0.059 A 
ATOM     42  C   UNL A   1      48.443  28.610  26.133  1.00  0.00     0.059 A 
ATOM     43  F   UNL A   1      46.445  29.701  25.577  1.00  0.00    -0.206 F 
ATOM     44  C   UNL A   1      49.250  28.010  27.100  1.00  0.00     0.060 A 
BRANCH  44  45
ATOM     45  S   UNL A   1      50.867  27.348  26.656  1.00  0.00     0.124 S 
ATOM     46  O   UNL A   1      50.530  26.496  25.520  1.00  0.00    -0.237 OA
ATOM     47  O   UNL A   1      51.620  28.558  26.341  1.00  0.00    -0.237 OA
ATOM     48  O   UNL A   1      51.291  26.646  27.864  1.00  0.00    -0.744 OA
ENDBRANCH  44  45
ENDBRANCH  23  37
BRANCH  24  49
ATOM     49  C   UNL A   1      37.541  31.728  30.729  1.00  0.00     0.058 A 
ATOM     50  C   UNL A   1      36.724  32.534  29.916  1.00  0.00     0.135 A 
ATOM     51  C   UNL A   1      37.158  31.560  32.066  1.00  0.00     0.135 A 
ATOM     52  F   UNL A   1      37.059  32.751  28.635  1.00  0.00    -0.206 F 
ATOM     53  C   UNL A   1      35.621  33.214  30.431  1.00  0.00     0.059 A 
ATOM     54  C   UNL A   1      36.057  32.226  32.602  1.00  0.00     0.059 A 
ATOM     55  F   UNL A   1      37.889  30.783  32.881  1.00  0.00    -0.206 F 
ATOM     56  C   UNL A   1      35.321  33.086  31.785  1.00  0.00     0.060 A 
BRANCH  56  57
ATOM     57  S   UNL A   1      33.979  34.080  32.490  1.00  0.00     0.124 S 
ATOM     58  O   UNL A   1      33.248  33.078  33.254  1.00  0.00    -0.237 OA
ATOM     59  O   UNL A   1      34.702  35.077  33.274  1.00  0.00    -0.237 OA
ATOM     60  O   UNL A   1      33.294  34.593  31.308  1.00  0.00    -0.744 OA
ENDBRANCH  56  57
ENDBRANCH  24  49
BRANCH  36  61
ATOM     61  C   UNL A   1      43.691  34.803  30.777  1.00  0.00     0.058 A 
ATOM     62  C   UNL A   1      43.710  35.960  29.982  1.00  0.00     0.135 A 
ATOM     63  C   UNL A   1      44.068  34.914  32.122  1.00  0.00     0.135 A 
ATOM     64  F   UNL A   1      43.374  35.894  28.683  1.00  0.00    -0.206 F 
ATOM     65  C   UNL A   1      44.103  37.186  30.502  1.00  0.00     0.059 A 
ATOM     66  C   UNL A   1      44.441  36.134  32.668  1.00  0.00     0.059 A 
ATOM     67  F   UNL A   1      44.067  33.831  32.915  1.00  0.00    -0.206 F 
ATOM     68  C   UNL A   1      44.463  37.262  31.849  1.00  0.00     0.060 A 
BRANCH  68  69
ATOM     69  S   UNL A   1      44.927  38.866  32.527  1.00  0.00     0.124 S 
ATOM     70  O   UNL A   1      43.642  39.374  32.995  1.00  0.00    -0.237 OA
ATOM     71  O   UNL A   1      45.882  38.500  33.569  1.00  0.00    -0.237 OA
ATOM     72  O   UNL A   1      45.500  39.566  31.380  1.00  0.00    -0.744 OA
ENDBRANCH  68  69
ENDBRANCH  36  61
ENDBRANCH  10  11
ENDBRANCH   3   5
ENDBRANCH   2   3
ENDBRANCH   1   2
BRANCH   1  73
ATOM     73  C   UNL A   1      35.889  21.577  24.771  1.00  0.00     0.274 C 
BRANCH  73  74
ATOM     74  O   UNL A   1      35.231  22.845  24.742  1.00  0.00    -0.462 OA
BRANCH  74  75
ATOM     75  C   UNL A   1      34.513  23.138  23.622  1.00  0.00     0.309 C 
ATOM     76  O   UNL A   1      34.978  23.247  22.501  1.00  0.00    -0.252 OA
BRANCH  75  77
ATOM     77  C   UNL A   1      33.026  23.235  23.929  1.00  0.00     0.103 C 
ATOM     78  C   UNL A   1      32.243  23.764  22.726  1.00  0.00     0.037 C 
ATOM     79  C   UNL A   1      32.697  24.109  25.133  1.00  0.00     0.037 C 
ATOM     80  C   UNL A   1      32.513  25.254  22.503  1.00  0.00     0.117 C 
ATOM     81  C   UNL A   1      33.028  25.579  24.920  1.00  0.00     0.117 C 
ATOM     82  N   UNL A   1      32.304  26.003  23.743  1.00  0.00    -0.366 N 
BRANCH  82  83
ATOM     83  C   UNL A   1      31.266  26.910  23.825  1.00  0.00     0.116 A 
ATOM     84  C   UNL A   1      29.957  26.397  23.873  1.00  0.00     0.034 A 
ATOM     85  C   UNL A   1      31.398  28.310  23.766  1.00  0.00     0.293 A 
ATOM     86  C   UNL A   1      28.848  27.201  23.644  1.00  0.00     0.016 A 
ATOM     87  C   UNL A   1      30.285  29.131  23.505  1.00  0.00     0.101 A 
ATOM     88  C   UNL A   1      29.017  28.555  23.352  1.00  0.00     0.062 A 
BRANCH  85  89
ATOM     89  N   UNL A   1      32.691  28.980  23.914  1.00  0.00     0.064 N 
ATOM     90  O   UNL A   1      33.411  29.029  22.905  1.00  0.00    -0.258 OA
ATOM     91  O   UNL A   1      33.012  29.433  25.023  1.00  0.00    -0.258 OA
ENDBRANCH  85  89
BRANCH  88  92
ATOM     92  C   UNL A   1      27.854  29.312  22.756  1.00  0.00     0.416 C 
ATOM     93  F   UNL A   1      27.666  30.487  23.428  1.00  0.00    -0.166 F 
ATOM     94  F   UNL A   1      28.076  29.659  21.466  1.00  0.00    -0.166 F 
ATOM     95  F   UNL A   1      26.686  28.645  22.849  1.00  0.00    -0.166 F 
ENDBRANCH  88  92
ENDBRANCH  82  83
ENDBRANCH  75  77
ENDBRANCH  74  75
ENDBRANCH  73  74
ENDBRANCH   1  73
TORSDOF 17
ENDMDL
