MODEL 1
REMARK VINA RESULT:     -14.3      0.000      0.000
REMARK SMILES Cc1ccc(-c2c(C)sc(NC(=O)[C@H]3CC=CC[C@H]3C(=O)OCCOC(=O)c3ccc(-c4c5nc(c(-c6c(F)cc(S(=O)(=O)[O-])cc6F)c6ccc([nH]6)c(-c6c(F)cc(S(=O)(=O)[O-])cc6F)c6nc(c(-c7c(F)cc(S(=O)(=O)[O-])cc7F)c7ccc4[nH]7)C=C6)C=C5)cc3)c2C(N)=O)cc1
REMARK SMILES IDX 23 1 22 2 20 3 21 4 19 5 14 6 15 7 16 8 18 9 17 10 12 11
REMARK SMILES IDX 11 12 13 14 10 15 6 16 7 17 94 18 8 19 9 20 5 21 1 22 2 23
REMARK SMILES IDX 3 24 99 25 4 26 98 27 95 28 96 29 97 30 24 33 25 34 26 35
REMARK SMILES IDX 27 36 28 37 29 38 93 39 30 40 92 41 31 42 32 43 33 44 86 45
REMARK SMILES IDX 34 46 91 47 85 48 87 49 35 50 90 51 84 52 83 53 36 55 70 56
REMARK SMILES IDX 49 57 69 58 50 59 53 60 68 61 88 62 51 63 52 64 67 66 89 67
REMARK SMILES IDX 54 68 37 69 38 70 47 71 39 72 40 73 46 74 48 75 41 76 42 77
REMARK SMILES IDX 43 78 44 79 45 80 71 81 72 82 81 83 73 84 74 85 80 86 82 87
REMARK SMILES IDX 75 88 76 89 77 90 78 91 79 92 55 93 56 94 65 95 57 96 58 97
REMARK SMILES IDX 64 98 66 99 59 100 60 101 61 102 62 103 63 104
REMARK H PARENT 11 13 96 31 96 32 87 54 53 65
REMARK Flexibility Score: inf
ROOT
ATOM      1  C   UNL A   1      33.059  30.115  27.057  1.00  0.00     0.274 C 
ENDROOT
BRANCH   1   2
ATOM      2  O   UNL A   1      32.505  30.155  25.753  1.00  0.00    -0.462 OA
BRANCH   2   3
ATOM      3  C   UNL A   1      33.023  29.193  24.931  1.00  0.00     0.310 C 
ATOM      4  O   UNL A   1      34.068  28.629  25.209  1.00  0.00    -0.252 OA
BRANCH   3   5
ATOM      5  C   UNL A   1      31.828  28.880  23.835  1.00  0.00     0.116 C 
ATOM      6  C   UNL A   1      30.940  27.295  24.626  1.00  0.00     0.097 C 
ATOM      7  C   UNL A   1      29.249  26.922  24.062  1.00  0.00     0.041 C 
ATOM      8  C   UNL A   1      28.182  28.134  23.326  1.00  0.00    -0.030 C 
ATOM      9  C   UNL A   1      30.408  30.024  22.563  1.00  0.00     0.043 C 
ATOM     10  C   UNL A   1      28.575  29.351  22.666  1.00  0.00    -0.030 C 
BRANCH   6  11
ATOM     11  C   UNL A   1      31.303  26.801  26.039  1.00  0.00     0.229 C 
ATOM     12  N   UNL A   1      31.869  25.625  26.413  1.00  0.00    -0.317 N 
ATOM     13  H   UNL A   1      31.867  25.493  27.389  1.00  0.00     0.170 HD
ATOM     14  O   UNL A   1      31.048  27.540  27.005  1.00  0.00    -0.274 OA
BRANCH  12  15
ATOM     15  C   UNL A   1      32.443  24.579  25.732  1.00  0.00     0.109 A 
ATOM     16  C   UNL A   1      33.090  22.542  24.829  1.00  0.00     0.010 A 
ATOM     17  C   UNL A   1      33.864  23.451  24.126  1.00  0.00     0.012 A 
ATOM     18  C   UNL A   1      32.258  23.204  25.842  1.00  0.00     0.082 A 
ATOM     19  C   UNL A   1      34.695  23.360  22.891  1.00  0.00     0.057 C 
ATOM     20  S   UNL A   1      34.039  24.755  25.180  1.00  0.00    -0.122 S 
BRANCH  16  21
ATOM     21  C   UNL A   1      33.303  21.128  24.616  1.00  0.00    -0.016 A 
ATOM     22  C   UNL A   1      33.953  17.009  23.658  1.00  0.00     0.044 C 
ATOM     23  C   UNL A   1      33.687  18.432  24.035  1.00  0.00    -0.051 A 
ATOM     24  C   UNL A   1      34.616  19.132  24.822  1.00  0.00     0.004 A 
ATOM     25  C   UNL A   1      32.547  19.082  23.563  1.00  0.00     0.004 A 
ATOM     26  C   UNL A   1      34.420  20.478  25.123  1.00  0.00     0.009 A 
ATOM     27  C   UNL A   1      32.364  20.428  23.841  1.00  0.00     0.009 A 
ENDBRANCH  16  21
BRANCH  18  28
ATOM     28  C   UNL A   1      31.429  22.534  26.840  1.00  0.00     0.252 C 
ATOM     29  N   UNL A   1      30.136  22.246  26.500  1.00  0.00    -0.365 N 
ATOM     30  O   UNL A   1      31.815  22.261  27.971  1.00  0.00    -0.269 OA
ATOM     31  H   UNL A   1      29.807  22.457  25.596  1.00  0.00     0.159 HD
ATOM     32  H   UNL A   1      29.535  21.829  27.158  1.00  0.00     0.159 HD
ENDBRANCH  18  28
ENDBRANCH  12  15
ENDBRANCH   6  11
ENDBRANCH   3   5
ENDBRANCH   2   3
ENDBRANCH   1   2
BRANCH   1  33
ATOM     33  C   UNL A   1      34.025  31.281  27.457  1.00  0.00     0.275 C 
BRANCH  33  34
ATOM     34  O   UNL A   1      34.618  31.376  28.821  1.00  0.00    -0.458 OA
BRANCH  34  35
ATOM     35  C   UNL A   1      35.795  30.970  29.446  1.00  0.00     0.338 C 
ATOM     36  O   UNL A   1      36.058  31.361  30.576  1.00  0.00    -0.246 OA
BRANCH  35  37
ATOM     37  C   UNL A   1      36.516  29.763  28.917  1.00  0.00     0.060 A 
ATOM     38  C   UNL A   1      37.282  29.980  27.350  1.00  0.00     0.016 A 
ATOM     39  C   UNL A   1      37.327  28.979  30.044  1.00  0.00     0.016 A 
ATOM     40  C   UNL A   1      39.143  29.399  27.008  1.00  0.00     0.010 A 
ATOM     41  C   UNL A   1      38.852  28.484  29.837  1.00  0.00     0.010 A 
ATOM     42  C   UNL A   1      39.869  28.542  28.407  1.00  0.00    -0.014 A 
BRANCH  42  43
ATOM     43  C   UNL A   1      41.073  27.735  28.701  1.00  0.00     0.031 A 
ATOM     44  C   UNL A   1      41.165  26.337  28.273  1.00  0.00     0.074 A 
ATOM     45  C   UNL A   1      42.133  28.352  29.329  1.00  0.00     0.049 A 
ATOM     46  N   UNL A   1      41.701  25.401  28.983  1.00  0.00    -0.248 NA
ATOM     47  C   UNL A   1      40.576  25.842  27.032  1.00  0.00     0.031 C 
ATOM     48  C   UNL A   1      43.555  28.027  29.327  1.00  0.00     0.029 A 
ATOM     49  N   UNL A   1      42.116  29.496  30.151  1.00  0.00    -0.354 N 
ATOM     50  C   UNL A   1      41.906  24.350  28.114  1.00  0.00     0.074 A 
ATOM     51  C   UNL A   1      40.968  24.561  27.037  1.00  0.00     0.031 C 
ATOM     52  C   UNL A   1      44.202  28.773  30.252  1.00  0.00     0.029 A 
ATOM     53  C   UNL A   1      43.223  29.576  30.964  1.00  0.00     0.049 A 
ATOM     54  H   UNL A   1      41.392  30.165  30.144  1.00  0.00     0.167 HD
ATOM     55  C   UNL A   1      43.064  23.629  28.192  1.00  0.00     0.037 A 
ATOM     56  C   UNL A   1      43.025  29.811  32.287  1.00  0.00     0.037 A 
ATOM     57  C   UNL A   1      43.964  24.247  29.172  1.00  0.00     0.049 A 
ATOM     58  C   UNL A   1      43.441  28.560  32.979  1.00  0.00     0.074 A 
ATOM     59  C   UNL A   1      45.080  25.052  29.011  1.00  0.00     0.029 A 
ATOM     60  N   UNL A   1      43.595  24.366  30.507  1.00  0.00    -0.354 N 
ATOM     61  N   UNL A   1      43.431  27.399  32.384  1.00  0.00    -0.248 NA
ATOM     62  C   UNL A   1      44.050  28.529  34.296  1.00  0.00     0.031 C 
ATOM     63  C   UNL A   1      45.426  25.592  30.274  1.00  0.00     0.029 A 
ATOM     64  C   UNL A   1      44.497  25.147  31.202  1.00  0.00     0.049 A 
ATOM     65  H   UNL A   1      42.796  23.949  30.904  1.00  0.00     0.167 HD
ATOM     66  C   UNL A   1      44.144  26.513  33.129  1.00  0.00     0.074 A 
ATOM     67  C   UNL A   1      44.486  27.258  34.330  1.00  0.00     0.031 C 
ATOM     68  C   UNL A   1      44.429  25.266  32.656  1.00  0.00     0.037 A 
BRANCH  55  69
ATOM     69  C   UNL A   1      43.557  22.628  27.150  1.00  0.00     0.058 A 
ATOM     70  C   UNL A   1      42.957  21.352  27.026  1.00  0.00     0.135 A 
ATOM     71  C   UNL A   1      44.587  22.873  26.216  1.00  0.00     0.135 A 
ATOM     72  F   UNL A   1      41.903  20.988  27.766  1.00  0.00    -0.206 F 
ATOM     73  C   UNL A   1      43.389  20.380  26.121  1.00  0.00     0.059 A 
ATOM     74  C   UNL A   1      45.062  21.902  25.321  1.00  0.00     0.059 A 
ATOM     75  F   UNL A   1      45.136  24.089  26.092  1.00  0.00    -0.206 F 
ATOM     76  C   UNL A   1      44.452  20.656  25.278  1.00  0.00     0.060 A 
BRANCH  76  77
ATOM     77  S   UNL A   1      44.956  19.391  24.097  1.00  0.00     0.124 S 
ATOM     78  O   UNL A   1      46.406  19.376  24.261  1.00  0.00    -0.237 OA
ATOM     79  O   UNL A   1      44.251  18.213  24.592  1.00  0.00    -0.237 OA
ATOM     80  O   UNL A   1      44.484  19.911  22.817  1.00  0.00    -0.744 OA
ENDBRANCH  76  77
ENDBRANCH  55  69
BRANCH  56  81
ATOM     81  C   UNL A   1      41.840  30.693  32.574  1.00  0.00     0.058 A 
ATOM     82  C   UNL A   1      40.644  30.063  32.991  1.00  0.00     0.135 A 
ATOM     83  C   UNL A   1      41.948  32.066  32.856  1.00  0.00     0.135 A 
ATOM     84  F   UNL A   1      40.474  28.748  32.774  1.00  0.00    -0.206 F 
ATOM     85  C   UNL A   1      39.663  30.722  33.738  1.00  0.00     0.059 A 
ATOM     86  C   UNL A   1      40.967  32.751  33.597  1.00  0.00     0.059 A 
ATOM     87  F   UNL A   1      43.062  32.733  32.527  1.00  0.00    -0.206 F 
ATOM     88  C   UNL A   1      39.848  32.062  34.068  1.00  0.00     0.060 A 
BRANCH  88  89
ATOM     89  S   UNL A   1      38.699  32.809  35.266  1.00  0.00     0.124 S 
ATOM     90  O   UNL A   1      37.429  32.204  34.886  1.00  0.00    -0.237 OA
ATOM     91  O   UNL A   1      39.259  32.355  36.539  1.00  0.00    -0.237 OA
ATOM     92  O   UNL A   1      38.822  34.239  35.010  1.00  0.00    -0.744 OA
ENDBRANCH  88  89
ENDBRANCH  56  81
BRANCH  68  93
ATOM     93  C   UNL A   1      44.787  24.063  33.491  1.00  0.00     0.058 A 
ATOM     94  C   UNL A   1      43.931  22.978  33.719  1.00  0.00     0.135 A 
ATOM     95  C   UNL A   1      46.110  23.896  33.980  1.00  0.00     0.135 A 
ATOM     96  F   UNL A   1      42.701  22.907  33.198  1.00  0.00    -0.206 F 
ATOM     97  C   UNL A   1      44.319  21.862  34.447  1.00  0.00     0.059 A 
ATOM     98  C   UNL A   1      46.544  22.752  34.632  1.00  0.00     0.059 A 
ATOM     99  F   UNL A   1      47.064  24.823  33.821  1.00  0.00    -0.206 F 
ATOM    100  C   UNL A   1      45.629  21.752  34.890  1.00  0.00     0.060 A 
BRANCH 100 101
ATOM    101  S   UNL A   1      46.114  20.269  35.766  1.00  0.00     0.124 S 
ATOM    102  O   UNL A   1      47.548  20.232  35.496  1.00  0.00    -0.237 OA
ATOM    103  O   UNL A   1      45.734  20.589  37.138  1.00  0.00    -0.237 OA
ATOM    104  O   UNL A   1      45.324  19.220  35.130  1.00  0.00    -0.744 OA
ENDBRANCH 100 101
ENDBRANCH  68  93
ENDBRANCH  42  43
ENDBRANCH  35  37
ENDBRANCH  34  35
ENDBRANCH  33  34
ENDBRANCH   1  33
TORSDOF 18
ENDMDL
MODEL 2
REMARK VINA RESULT:     -13.5      4.618     11.543
REMARK SMILES Cc1ccc(-c2c(C)sc(NC(=O)[C@H]3CC=CC[C@H]3C(=O)OCCOC(=O)c3ccc(-c4c5nc(c(-c6c(F)cc(S(=O)(=O)[O-])cc6F)c6ccc([nH]6)c(-c6c(F)cc(S(=O)(=O)[O-])cc6F)c6nc(c(-c7c(F)cc(S(=O)(=O)[O-])cc7F)c7ccc4[nH]7)C=C6)C=C5)cc3)c2C(N)=O)cc1
REMARK SMILES IDX 23 1 22 2 20 3 21 4 19 5 14 6 15 7 16 8 18 9 17 10 12 11
REMARK SMILES IDX 11 12 13 14 10 15 6 16 7 17 94 18 8 19 9 20 5 21 1 22 2 23
REMARK SMILES IDX 3 24 99 25 4 26 98 27 95 28 96 29 97 30 24 33 25 34 26 35
REMARK SMILES IDX 27 36 28 37 29 38 93 39 30 40 92 41 31 42 32 43 33 44 86 45
REMARK SMILES IDX 34 46 91 47 85 48 87 49 35 50 90 51 84 52 83 53 36 55 70 56
REMARK SMILES IDX 49 57 69 58 50 59 53 60 68 61 88 62 51 63 52 64 67 66 89 67
REMARK SMILES IDX 54 68 37 69 38 70 47 71 39 72 40 73 46 74 48 75 41 76 42 77
REMARK SMILES IDX 43 78 44 79 45 80 71 81 72 82 81 83 73 84 74 85 80 86 82 87
REMARK SMILES IDX 75 88 76 89 77 90 78 91 79 92 55 93 56 94 65 95 57 96 58 97
REMARK SMILES IDX 64 98 66 99 59 100 60 101 61 102 62 103 63 104
REMARK H PARENT 11 13 96 31 96 32 87 54 53 65
REMARK Flexibility Score: inf
ROOT
ATOM      1  C   UNL A   1      37.905  22.732  25.873  1.00  0.00     0.274 C 
ENDROOT
BRANCH   1   2
ATOM      2  O   UNL A   1      36.772  21.886  25.976  1.00  0.00    -0.462 OA
BRANCH   2   3
ATOM      3  C   UNL A   1      36.709  20.964  24.969  1.00  0.00     0.310 C 
ATOM      4  O   UNL A   1      37.726  20.542  24.445  1.00  0.00    -0.252 OA
BRANCH   3   5
ATOM      5  C   UNL A   1      35.133  20.472  24.939  1.00  0.00     0.116 C 
ATOM      6  C   UNL A   1      34.240  21.984  24.022  1.00  0.00     0.097 C 
ATOM      7  C   UNL A   1      32.606  21.661  23.286  1.00  0.00     0.041 C 
ATOM      8  C   UNL A   1      32.041  20.036  22.852  1.00  0.00    -0.030 C 
ATOM      9  C   UNL A   1      33.994  18.587  24.640  1.00  0.00     0.043 C 
ATOM     10  C   UNL A   1      32.504  18.783  23.390  1.00  0.00    -0.030 C 
BRANCH   6  11
ATOM     11  C   UNL A   1      35.057  23.120  23.378  1.00  0.00     0.229 C 
ATOM     12  N   UNL A   1      34.719  24.422  23.203  1.00  0.00    -0.317 N 
ATOM     13  H   UNL A   1      35.359  24.911  22.637  1.00  0.00     0.170 HD
ATOM     14  O   UNL A   1      36.184  22.851  22.927  1.00  0.00    -0.274 OA
BRANCH  12  15
ATOM     15  C   UNL A   1      33.682  25.209  23.640  1.00  0.00     0.109 A 
ATOM     16  C   UNL A   1      31.927  26.702  23.920  1.00  0.00     0.010 A 
ATOM     17  C   UNL A   1      31.985  26.061  25.147  1.00  0.00     0.012 A 
ATOM     18  C   UNL A   1      32.980  26.233  23.011  1.00  0.00     0.082 A 
ATOM     19  C   UNL A   1      31.067  25.993  26.320  1.00  0.00     0.057 C 
ATOM     20  S   UNL A   1      33.596  25.585  25.294  1.00  0.00    -0.122 S 
BRANCH  16  21
ATOM     21  C   UNL A   1      31.008  27.804  23.749  1.00  0.00    -0.016 A 
ATOM     22  C   UNL A   1      28.068  30.897  23.428  1.00  0.00     0.044 C 
ATOM     23  C   UNL A   1      29.111  29.825  23.483  1.00  0.00    -0.051 A 
ATOM     24  C   UNL A   1      30.339  30.077  24.116  1.00  0.00     0.004 A 
ATOM     25  C   UNL A   1      28.848  28.561  22.957  1.00  0.00     0.004 A 
ATOM     26  C   UNL A   1      31.293  29.071  24.240  1.00  0.00     0.009 A 
ATOM     27  C   UNL A   1      29.787  27.552  23.102  1.00  0.00     0.009 A 
ENDBRANCH  16  21
BRANCH  18  28
ATOM     28  C   UNL A   1      33.286  26.790  21.695  1.00  0.00     0.252 C 
ATOM     29  N   UNL A   1      33.592  28.121  21.626  1.00  0.00    -0.365 N 
ATOM     30  O   UNL A   1      33.236  26.142  20.656  1.00  0.00    -0.269 OA
ATOM     31  H   UNL A   1      33.637  28.659  22.451  1.00  0.00     0.159 HD
ATOM     32  H   UNL A   1      33.767  28.541  20.753  1.00  0.00     0.159 HD
ENDBRANCH  18  28
ENDBRANCH  12  15
ENDBRANCH   6  11
ENDBRANCH   3   5
ENDBRANCH   2   3
ENDBRANCH   1   2
BRANCH   1  33
ATOM     33  C   UNL A   1      39.239  22.219  26.514  1.00  0.00     0.275 C 
BRANCH  33  34
ATOM     34  O   UNL A   1      40.540  22.904  26.271  1.00  0.00    -0.458 OA
BRANCH  34  35
ATOM     35  C   UNL A   1      41.086  24.162  26.519  1.00  0.00     0.338 C 
ATOM     36  O   UNL A   1      42.209  24.435  26.113  1.00  0.00    -0.246 OA
BRANCH  35  37
ATOM     37  C   UNL A   1      40.168  25.286  26.906  1.00  0.00     0.060 A 
ATOM     38  C   UNL A   1      39.260  25.028  28.390  1.00  0.00     0.016 A 
ATOM     39  C   UNL A   1      40.808  26.725  26.662  1.00  0.00     0.016 A 
ATOM     40  C   UNL A   1      39.134  26.420  29.791  1.00  0.00     0.010 A 
ATOM     41  C   UNL A   1      40.751  27.904  27.766  1.00  0.00     0.010 A 
ATOM     42  C   UNL A   1      39.924  27.957  29.314  1.00  0.00    -0.014 A 
BRANCH  42  43
ATOM     43  C   UNL A   1      40.000  29.354  29.796  1.00  0.00     0.031 A 
ATOM     44  C   UNL A   1      38.887  30.283  29.587  1.00  0.00     0.074 A 
ATOM     45  C   UNL A   1      41.117  29.738  30.504  1.00  0.00     0.049 A 
ATOM     46  N   UNL A   1      39.038  31.530  29.290  1.00  0.00    -0.248 NA
ATOM     47  C   UNL A   1      37.486  29.869  29.607  1.00  0.00     0.031 C 
ATOM     48  C   UNL A   1      41.297  30.804  31.484  1.00  0.00     0.029 A 
ATOM     49  N   UNL A   1      42.409  29.176  30.472  1.00  0.00    -0.354 N 
ATOM     50  C   UNL A   1      37.812  32.118  29.525  1.00  0.00     0.074 A 
ATOM     51  C   UNL A   1      36.855  31.039  29.445  1.00  0.00     0.031 C 
ATOM     52  C   UNL A   1      42.612  30.957  31.765  1.00  0.00     0.029 A 
ATOM     53  C   UNL A   1      43.372  30.047  30.926  1.00  0.00     0.049 A 
ATOM     54  H   UNL A   1      42.601  28.262  30.159  1.00  0.00     0.167 HD
ATOM     55  C   UNL A   1      37.757  33.348  30.116  1.00  0.00     0.037 A 
ATOM     56  C   UNL A   1      44.482  30.222  30.163  1.00  0.00     0.037 A 
ATOM     57  C   UNL A   1      39.107  33.762  30.517  1.00  0.00     0.049 A 
ATOM     58  C   UNL A   1      44.406  31.624  29.669  1.00  0.00     0.074 A 
ATOM     59  C   UNL A   1      39.735  33.764  31.752  1.00  0.00     0.029 A 
ATOM     60  N   UNL A   1      40.114  33.926  29.574  1.00  0.00    -0.354 N 
ATOM     61  N   UNL A   1      43.274  32.262  29.555  1.00  0.00    -0.248 NA
ATOM     62  C   UNL A   1      45.567  32.463  29.435  1.00  0.00     0.031 C 
ATOM     63  C   UNL A   1      41.115  34.011  31.549  1.00  0.00     0.029 A 
ATOM     64  C   UNL A   1      41.338  34.122  30.185  1.00  0.00     0.049 A 
ATOM     65  H   UNL A   1      39.975  33.906  28.600  1.00  0.00     0.167 HD
ATOM     66  C   UNL A   1      43.526  33.588  29.393  1.00  0.00     0.074 A 
ATOM     67  C   UNL A   1      44.975  33.661  29.294  1.00  0.00     0.031 C 
ATOM     68  C   UNL A   1      42.515  34.504  29.412  1.00  0.00     0.037 A 
BRANCH  55  69
ATOM     69  C   UNL A   1      36.501  34.005  30.683  1.00  0.00     0.058 A 
ATOM     70  C   UNL A   1      35.430  34.378  29.836  1.00  0.00     0.135 A 
ATOM     71  C   UNL A   1      36.268  34.259  32.051  1.00  0.00     0.135 A 
ATOM     72  F   UNL A   1      35.442  34.122  28.522  1.00  0.00    -0.206 F 
ATOM     73  C   UNL A   1      34.274  35.017  30.288  1.00  0.00     0.059 A 
ATOM     74  C   UNL A   1      35.131  34.931  32.527  1.00  0.00     0.059 A 
ATOM     75  F   UNL A   1      37.109  33.810  32.994  1.00  0.00    -0.206 F 
ATOM     76  C   UNL A   1      34.135  35.304  31.635  1.00  0.00     0.060 A 
BRANCH  76  77
ATOM     77  S   UNL A   1      32.612  36.095  32.187  1.00  0.00     0.124 S 
ATOM     78  O   UNL A   1      31.788  34.950  32.564  1.00  0.00    -0.237 OA
ATOM     79  O   UNL A   1      33.083  36.926  33.291  1.00  0.00    -0.237 OA
ATOM     80  O   UNL A   1      32.158  36.822  31.006  1.00  0.00    -0.744 OA
ENDBRANCH  76  77
ENDBRANCH  55  69
BRANCH  56  81
ATOM     81  C   UNL A   1      44.905  28.985  29.417  1.00  0.00     0.058 A 
ATOM     82  C   UNL A   1      44.553  28.897  28.050  1.00  0.00     0.135 A 
ATOM     83  C   UNL A   1      45.943  28.140  29.847  1.00  0.00     0.135 A 
ATOM     84  F   UNL A   1      43.583  29.685  27.560  1.00  0.00    -0.206 F 
ATOM     85  C   UNL A   1      45.257  28.104  27.139  1.00  0.00     0.059 A 
ATOM     86  C   UNL A   1      46.657  27.325  28.948  1.00  0.00     0.059 A 
ATOM     87  F   UNL A   1      46.363  28.185  31.119  1.00  0.00    -0.206 F 
ATOM     88  C   UNL A   1      46.333  27.344  27.590  1.00  0.00     0.060 A 
BRANCH  88  89
ATOM     89  S   UNL A   1      47.393  26.546  26.344  1.00  0.00     0.124 S 
ATOM     90  O   UNL A   1      48.561  26.176  27.133  1.00  0.00    -0.237 OA
ATOM     91  O   UNL A   1      46.551  25.435  25.903  1.00  0.00    -0.237 OA
ATOM     92  O   UNL A   1      47.604  27.595  25.354  1.00  0.00    -0.744 OA
ENDBRANCH  88  89
ENDBRANCH  56  81
BRANCH  68  93
ATOM     93  C   UNL A   1      42.563  35.887  28.815  1.00  0.00     0.058 A 
ATOM     94  C   UNL A   1      41.911  36.259  27.632  1.00  0.00     0.135 A 
ATOM     95  C   UNL A   1      43.169  36.957  29.527  1.00  0.00     0.135 A 
ATOM     96  F   UNL A   1      41.166  35.406  26.920  1.00  0.00    -0.206 F 
ATOM     97  C   UNL A   1      41.933  37.559  27.145  1.00  0.00     0.059 A 
ATOM     98  C   UNL A   1      43.126  38.277  29.104  1.00  0.00     0.059 A 
ATOM     99  F   UNL A   1      43.808  36.782  30.692  1.00  0.00    -0.206 F 
ATOM    100  C   UNL A   1      42.532  38.562  27.893  1.00  0.00     0.060 A 
BRANCH 100 101
ATOM    101  S   UNL A   1      42.481  40.238  27.269  1.00  0.00     0.124 S 
ATOM    102  O   UNL A   1      41.102  40.328  26.800  1.00  0.00    -0.237 OA
ATOM    103  O   UNL A   1      42.797  41.016  28.463  1.00  0.00    -0.237 OA
ATOM    104  O   UNL A   1      43.504  40.250  26.229  1.00  0.00    -0.744 OA
ENDBRANCH 100 101
ENDBRANCH  68  93
ENDBRANCH  42  43
ENDBRANCH  35  37
ENDBRANCH  34  35
ENDBRANCH  33  34
ENDBRANCH   1  33
TORSDOF 18
ENDMDL
MODEL 3
REMARK VINA RESULT:     -13.4      2.200      3.177
REMARK SMILES Cc1ccc(-c2c(C)sc(NC(=O)[C@H]3CC=CC[C@H]3C(=O)OCCOC(=O)c3ccc(-c4c5nc(c(-c6c(F)cc(S(=O)(=O)[O-])cc6F)c6ccc([nH]6)c(-c6c(F)cc(S(=O)(=O)[O-])cc6F)c6nc(c(-c7c(F)cc(S(=O)(=O)[O-])cc7F)c7ccc4[nH]7)C=C6)C=C5)cc3)c2C(N)=O)cc1
REMARK SMILES IDX 23 1 22 2 20 3 21 4 19 5 14 6 15 7 16 8 18 9 17 10 12 11
REMARK SMILES IDX 11 12 13 14 10 15 6 16 7 17 94 18 8 19 9 20 5 21 1 22 2 23
REMARK SMILES IDX 3 24 99 25 4 26 98 27 95 28 96 29 97 30 24 33 25 34 26 35
REMARK SMILES IDX 27 36 28 37 29 38 93 39 30 40 92 41 31 42 32 43 33 44 86 45
REMARK SMILES IDX 34 46 91 47 85 48 87 49 35 50 90 51 84 52 83 53 36 55 70 56
REMARK SMILES IDX 49 57 69 58 50 59 53 60 68 61 88 62 51 63 52 64 67 66 89 67
REMARK SMILES IDX 54 68 37 69 38 70 47 71 39 72 40 73 46 74 48 75 41 76 42 77
REMARK SMILES IDX 43 78 44 79 45 80 71 81 72 82 81 83 73 84 74 85 80 86 82 87
REMARK SMILES IDX 75 88 76 89 77 90 78 91 79 92 55 93 56 94 65 95 57 96 58 97
REMARK SMILES IDX 64 98 66 99 59 100 60 101 61 102 62 103 63 104
REMARK H PARENT 11 13 96 31 96 32 87 54 53 65
REMARK Flexibility Score: inf
ROOT
ATOM      1  C   UNL A   1      31.981  31.077  26.851  1.00  0.00     0.274 C 
ENDROOT
BRANCH   1   2
ATOM      2  O   UNL A   1      31.321  30.660  25.668  1.00  0.00    -0.462 OA
BRANCH   2   3
ATOM      3  C   UNL A   1      32.020  29.706  24.983  1.00  0.00     0.310 C 
ATOM      4  O   UNL A   1      33.157  29.410  25.309  1.00  0.00    -0.252 OA
BRANCH   3   5
ATOM      5  C   UNL A   1      30.911  29.001  23.983  1.00  0.00     0.116 C 
ATOM      6  C   UNL A   1      30.673  27.218  24.815  1.00  0.00     0.097 C 
ATOM      7  C   UNL A   1      29.163  26.295  24.384  1.00  0.00     0.041 C 
ATOM      8  C   UNL A   1      27.696  27.072  23.760  1.00  0.00    -0.030 C 
ATOM      9  C   UNL A   1      29.090  29.591  22.852  1.00  0.00     0.043 C 
ATOM     10  C   UNL A   1      27.603  28.344  23.092  1.00  0.00    -0.030 C 
BRANCH   6  11
ATOM     11  C   UNL A   1      31.297  26.888  26.183  1.00  0.00     0.229 C 
ATOM     12  N   UNL A   1      32.032  25.807  26.549  1.00  0.00    -0.317 N 
ATOM     13  H   UNL A   1      32.193  25.765  27.519  1.00  0.00     0.170 HD
ATOM     14  O   UNL A   1      31.117  27.686  27.120  1.00  0.00    -0.274 OA
BRANCH  12  15
ATOM     15  C   UNL A   1      32.600  24.760  25.865  1.00  0.00     0.109 A 
ATOM     16  C   UNL A   1      33.216  22.728  24.929  1.00  0.00     0.010 A 
ATOM     17  C   UNL A   1      34.063  23.626  24.300  1.00  0.00     0.012 A 
ATOM     18  C   UNL A   1      32.356  23.391  25.918  1.00  0.00     0.082 A 
ATOM     19  C   UNL A   1      34.957  23.540  23.110  1.00  0.00     0.057 C 
ATOM     20  S   UNL A   1      34.231  24.887  25.406  1.00  0.00    -0.122 S 
BRANCH  16  21
ATOM     21  C   UNL A   1      33.384  21.314  24.681  1.00  0.00    -0.016 A 
ATOM     22  C   UNL A   1      33.886  17.200  23.617  1.00  0.00     0.044 C 
ATOM     23  C   UNL A   1      33.674  18.621  24.033  1.00  0.00    -0.051 A 
ATOM     24  C   UNL A   1      34.658  19.285  24.782  1.00  0.00     0.004 A 
ATOM     25  C   UNL A   1      32.526  19.306  23.633  1.00  0.00     0.004 A 
ATOM     26  C   UNL A   1      34.511  20.629  25.116  1.00  0.00     0.009 A 
ATOM     27  C   UNL A   1      32.389  20.650  23.945  1.00  0.00     0.009 A 
ENDBRANCH  16  21
BRANCH  18  28
ATOM     28  C   UNL A   1      31.447  22.725  26.847  1.00  0.00     0.252 C 
ATOM     29  N   UNL A   1      30.193  22.417  26.396  1.00  0.00    -0.365 N 
ATOM     30  O   UNL A   1      31.732  22.472  28.012  1.00  0.00    -0.269 OA
ATOM     31  H   UNL A   1      29.945  22.613  25.462  1.00  0.00     0.159 HD
ATOM     32  H   UNL A   1      29.539  22.002  27.003  1.00  0.00     0.159 HD
ENDBRANCH  18  28
ENDBRANCH  12  15
ENDBRANCH   6  11
ENDBRANCH   3   5
ENDBRANCH   2   3
ENDBRANCH   1   2
BRANCH   1  33
ATOM     33  C   UNL A   1      32.351  32.595  26.964  1.00  0.00     0.275 C 
BRANCH  33  34
ATOM     34  O   UNL A   1      33.315  33.094  27.984  1.00  0.00    -0.458 OA
BRANCH  34  35
ATOM     35  C   UNL A   1      34.620  33.583  27.994  1.00  0.00     0.338 C 
ATOM     36  O   UNL A   1      34.920  34.549  27.304  1.00  0.00    -0.246 OA
BRANCH  35  37
ATOM     37  C   UNL A   1      35.528  33.199  29.128  1.00  0.00     0.060 A 
ATOM     38  C   UNL A   1      35.014  31.793  30.050  1.00  0.00     0.016 A 
ATOM     39  C   UNL A   1      37.073  33.327  28.759  1.00  0.00     0.016 A 
ATOM     40  C   UNL A   1      36.268  30.333  30.513  1.00  0.00     0.010 A 
ATOM     41  C   UNL A   1      38.150  32.171  29.098  1.00  0.00     0.010 A 
ATOM     42  C   UNL A   1      37.952  30.679  30.004  1.00  0.00    -0.014 A 
BRANCH  42  43
ATOM     43  C   UNL A   1      39.306  30.123  30.220  1.00  0.00     0.031 A 
ATOM     44  C   UNL A   1      39.687  28.829  29.649  1.00  0.00     0.074 A 
ATOM     45  C   UNL A   1      40.219  30.884  30.915  1.00  0.00     0.049 A 
ATOM     46  N   UNL A   1      40.422  27.961  30.260  1.00  0.00    -0.248 NA
ATOM     47  C   UNL A   1      39.196  28.349  28.359  1.00  0.00     0.031 C 
ATOM     48  C   UNL A   1      41.678  30.873  30.888  1.00  0.00     0.029 A 
ATOM     49  N   UNL A   1      39.972  31.907  31.852  1.00  0.00    -0.354 N 
ATOM     50  C   UNL A   1      40.832  27.073  29.288  1.00  0.00     0.074 A 
ATOM     51  C   UNL A   1      39.853  27.189  28.233  1.00  0.00     0.031 C 
ATOM     52  C   UNL A   1      42.166  31.640  31.890  1.00  0.00     0.029 A 
ATOM     53  C   UNL A   1      41.050  32.137  32.675  1.00  0.00     0.049 A 
ATOM     54  H   UNL A   1      39.122  32.402  31.910  1.00  0.00     0.167 HD
ATOM     55  C   UNL A   1      42.119  26.613  29.297  1.00  0.00     0.037 A 
ATOM     56  C   UNL A   1      40.828  32.187  34.015  1.00  0.00     0.037 A 
ATOM     57  C   UNL A   1      42.882  27.304  30.342  1.00  0.00     0.049 A 
ATOM     58  C   UNL A   1      41.513  30.990  34.574  1.00  0.00     0.074 A 
ATOM     59  C   UNL A   1      43.797  28.343  30.272  1.00  0.00     0.029 A 
ATOM     60  N   UNL A   1      42.517  27.203  31.680  1.00  0.00    -0.354 N 
ATOM     61  N   UNL A   1      41.740  29.921  33.862  1.00  0.00    -0.248 NA
ATOM     62  C   UNL A   1      42.136  30.954  35.885  1.00  0.00     0.031 C 
ATOM     63  C   UNL A   1      44.040  28.810  31.587  1.00  0.00     0.029 A 
ATOM     64  C   UNL A   1      43.244  28.084  32.458  1.00  0.00     0.049 A 
ATOM     65  H   UNL A   1      41.833  26.587  32.026  1.00  0.00     0.167 HD
ATOM     66  C   UNL A   1      42.638  29.136  34.515  1.00  0.00     0.074 A 
ATOM     67  C   UNL A   1      42.833  29.809  35.789  1.00  0.00     0.031 C 
ATOM     68  C   UNL A   1      43.176  28.034  33.916  1.00  0.00     0.037 A 
BRANCH  55  69
ATOM     69  C   UNL A   1      42.797  25.853  28.159  1.00  0.00     0.058 A 
ATOM     70  C   UNL A   1      43.011  24.457  28.243  1.00  0.00     0.135 A 
ATOM     71  C   UNL A   1      43.223  26.430  26.944  1.00  0.00     0.135 A 
ATOM     72  F   UNL A   1      42.582  23.734  29.285  1.00  0.00    -0.206 F 
ATOM     73  C   UNL A   1      43.660  23.714  27.255  1.00  0.00     0.059 A 
ATOM     74  C   UNL A   1      43.909  25.713  25.951  1.00  0.00     0.059 A 
ATOM     75  F   UNL A   1      42.938  27.704  26.641  1.00  0.00    -0.206 F 
ATOM     76  C   UNL A   1      44.120  24.350  26.114  1.00  0.00     0.060 A 
BRANCH  76  77
ATOM     77  S   UNL A   1      44.919  23.353  24.843  1.00  0.00     0.124 S 
ATOM     78  O   UNL A   1      45.901  24.282  24.293  1.00  0.00    -0.237 OA
ATOM     79  O   UNL A   1      45.463  22.246  25.622  1.00  0.00    -0.237 OA
ATOM     80  O   UNL A   1      43.823  23.006  23.943  1.00  0.00    -0.744 OA
ENDBRANCH  76  77
ENDBRANCH  55  69
BRANCH  56  81
ATOM     81  C   UNL A   1      39.486  32.761  34.385  1.00  0.00     0.058 A 
ATOM     82  C   UNL A   1      39.250  34.120  34.073  1.00  0.00     0.135 A 
ATOM     83  C   UNL A   1      38.347  31.972  34.621  1.00  0.00     0.135 A 
ATOM     84  F   UNL A   1      40.287  34.934  33.816  1.00  0.00    -0.206 F 
ATOM     85  C   UNL A   1      37.966  34.643  33.897  1.00  0.00     0.059 A 
ATOM     86  C   UNL A   1      37.045  32.481  34.460  1.00  0.00     0.059 A 
ATOM     87  F   UNL A   1      38.478  30.665  34.888  1.00  0.00    -0.206 F 
ATOM     88  C   UNL A   1      36.865  33.807  34.059  1.00  0.00     0.060 A 
BRANCH  88  89
ATOM     89  S   UNL A   1      35.234  34.439  33.555  1.00  0.00     0.124 S 
ATOM     90  O   UNL A   1      34.386  33.268  33.735  1.00  0.00    -0.237 OA
ATOM     91  O   UNL A   1      35.025  35.524  34.515  1.00  0.00    -0.237 OA
ATOM     92  O   UNL A   1      35.445  34.865  32.177  1.00  0.00    -0.744 OA
ENDBRANCH  88  89
ENDBRANCH  56  81
BRANCH  68  93
ATOM     93  C   UNL A   1      43.796  26.857  34.623  1.00  0.00     0.058 A 
ATOM     94  C   UNL A   1      43.073  25.760  35.112  1.00  0.00     0.135 A 
ATOM     95  C   UNL A   1      45.208  26.725  34.697  1.00  0.00     0.135 A 
ATOM     96  F   UNL A   1      41.746  25.655  34.983  1.00  0.00    -0.206 F 
ATOM     97  C   UNL A   1      43.688  24.667  35.707  1.00  0.00     0.059 A 
ATOM     98  C   UNL A   1      45.845  25.604  35.207  1.00  0.00     0.059 A 
ATOM     99  F   UNL A   1      46.048  27.667  34.247  1.00  0.00    -0.206 F 
ATOM    100  C   UNL A   1      45.073  24.592  35.740  1.00  0.00     0.060 A 
BRANCH 100 101
ATOM    101  S   UNL A   1      45.833  23.137  36.452  1.00  0.00     0.124 S 
ATOM    102  O   UNL A   1      44.992  22.077  35.905  1.00  0.00    -0.237 OA
ATOM    103  O   UNL A   1      47.189  23.210  35.917  1.00  0.00    -0.237 OA
ATOM    104  O   UNL A   1      45.717  23.357  37.890  1.00  0.00    -0.744 OA
ENDBRANCH 100 101
ENDBRANCH  68  93
ENDBRANCH  42  43
ENDBRANCH  35  37
ENDBRANCH  34  35
ENDBRANCH  33  34
ENDBRANCH   1  33
TORSDOF 18
ENDMDL
