MODEL 1
REMARK VINA RESULT:      -9.7      0.000      0.000
REMARK SMILES COCCOc1ccc(C(=O)OCCOC(=O)c2ccc(-c3c4nc(c(-c5c(F)cc(S(=O)(=O)[O-])cc5F)c5ccc([nH]5)c(-c5c(F)cc(S(=O)(=O)[O-])cc5F)c5nc(c(-c6c(F)cc(S(=O)(=O)[O-])cc6F)c6ccc3[nH]6)C=C5)C=C4)cc2)cc1Br
REMARK SMILES IDX 13 1 12 2 10 3 11 4 9 5 6 6 7 7 85 8 8 9 84 10 86 11 5 12
REMARK SMILES IDX 4 13 3 14 2 15 1 16 14 17 15 18 16 19 17 20 18 21 19 22
REMARK SMILES IDX 83 23 20 24 82 25 21 26 22 27 23 28 76 29 24 30 81 31 75 32
REMARK SMILES IDX 77 33 25 34 80 35 74 36 73 37 26 39 60 40 39 41 59 42 40 43
REMARK SMILES IDX 43 44 58 45 78 46 41 47 42 48 57 50 79 51 44 52 27 53 28 54
REMARK SMILES IDX 37 55 29 56 30 57 36 58 38 59 31 60 32 61 33 62 34 63 35 64
REMARK SMILES IDX 61 65 62 66 71 67 63 68 64 69 70 70 72 71 65 72 66 73 67 74
REMARK SMILES IDX 68 75 69 76 45 77 46 78 55 79 47 80 48 81 54 82 56 83 49 84
REMARK SMILES IDX 50 85 51 86 52 87 53 88
REMARK H PARENT 77 38 43 49
REMARK Flexibility Score: inf
ROOT
ATOM      1  C   UNL A   1      31.791  28.233  26.891  1.00  0.00     0.275 C 
ENDROOT
BRANCH   1   2
ATOM      2  O   UNL A   1      32.029  27.246  25.871  1.00  0.00    -0.458 OA
BRANCH   2   3
ATOM      3  C   UNL A   1      31.678  25.978  26.191  1.00  0.00     0.338 C 
ATOM      4  O   UNL A   1      30.681  25.638  26.801  1.00  0.00    -0.246 OA
BRANCH   3   5
ATOM      5  C   UNL A   1      32.644  24.998  25.626  1.00  0.00     0.061 A 
ATOM      6  C   UNL A   1      34.451  23.249  24.408  1.00  0.00     0.133 A 
ATOM      7  C   UNL A   1      34.502  24.612  24.116  1.00  0.00     0.048 A 
ATOM      8  C   UNL A   1      33.594  22.786  25.414  1.00  0.00     0.060 A 
ATOM      9  C   UNL A   1      33.576  25.475  24.692  1.00  0.00     0.019 A 
ATOM     10  C   UNL A   1      32.685  23.657  26.022  1.00  0.00     0.035 A 
ATOM     11  Br  UNL A   1      33.572  20.960  25.935  1.00  0.00    -0.047 Br
BRANCH   6  12
ATOM     12  O   UNL A   1      35.213  22.354  23.708  1.00  0.00    -0.490 OA
BRANCH  12  13
ATOM     13  C   UNL A   1      36.620  22.668  23.702  1.00  0.00     0.258 C 
BRANCH  13  14
ATOM     14  C   UNL A   1      37.422  21.672  24.550  1.00  0.00     0.201 C 
BRANCH  14  15
ATOM     15  O   UNL A   1      37.588  22.072  25.917  1.00  0.00    -0.381 OA
ATOM     16  C   UNL A   1      38.934  22.311  26.296  1.00  0.00     0.195 C 
ENDBRANCH  14  15
ENDBRANCH  13  14
ENDBRANCH  12  13
ENDBRANCH   6  12
ENDBRANCH   3   5
ENDBRANCH   2   3
ENDBRANCH   1   2
BRANCH   1  17
ATOM     17  C   UNL A   1      32.820  29.356  26.767  1.00  0.00     0.275 C 
BRANCH  17  18
ATOM     18  O   UNL A   1      33.899  29.162  27.702  1.00  0.00    -0.458 OA
BRANCH  18  19
ATOM     19  C   UNL A   1      34.529  30.286  28.117  1.00  0.00     0.338 C 
ATOM     20  O   UNL A   1      34.031  31.375  28.346  1.00  0.00    -0.246 OA
BRANCH  19  21
ATOM     21  C   UNL A   1      35.945  29.976  28.363  1.00  0.00     0.060 A 
ATOM     22  C   UNL A   1      36.844  30.111  27.307  1.00  0.00     0.016 A 
ATOM     23  C   UNL A   1      36.377  29.489  29.593  1.00  0.00     0.016 A 
ATOM     24  C   UNL A   1      38.173  29.734  27.456  1.00  0.00     0.010 A 
ATOM     25  C   UNL A   1      37.731  29.171  29.765  1.00  0.00     0.010 A 
ATOM     26  C   UNL A   1      38.640  29.290  28.697  1.00  0.00    -0.014 A 
BRANCH  26  27
ATOM     27  C   UNL A   1      40.082  28.970  28.876  1.00  0.00     0.031 A 
ATOM     28  C   UNL A   1      41.040  30.027  29.347  1.00  0.00     0.074 A 
ATOM     29  C   UNL A   1      40.529  27.726  28.610  1.00  0.00     0.049 A 
ATOM     30  N   UNL A   1      42.346  29.999  29.388  1.00  0.00    -0.248 NA
ATOM     31  C   UNL A   1      40.449  31.285  29.831  1.00  0.00     0.031 C 
ATOM     32  C   UNL A   1      39.693  26.594  28.200  1.00  0.00     0.029 A 
ATOM     33  N   UNL A   1      41.798  27.201  28.641  1.00  0.00    -0.354 N 
ATOM     34  C   UNL A   1      42.739  31.245  29.860  1.00  0.00     0.074 A 
ATOM     35  C   UNL A   1      41.531  32.009  30.092  1.00  0.00     0.031 C 
ATOM     36  C   UNL A   1      40.466  25.511  28.031  1.00  0.00     0.029 A 
ATOM     37  C   UNL A   1      41.860  25.890  28.233  1.00  0.00     0.049 A 
ATOM     38  H   UNL A   1      42.588  27.716  28.926  1.00  0.00     0.167 HD
ATOM     39  C   UNL A   1      43.995  31.707  30.075  1.00  0.00     0.037 A 
ATOM     40  C   UNL A   1      42.920  25.092  27.991  1.00  0.00     0.037 A 
ATOM     41  C   UNL A   1      45.187  30.923  29.871  1.00  0.00     0.049 A 
ATOM     42  C   UNL A   1      44.304  25.650  28.162  1.00  0.00     0.074 A 
ATOM     43  C   UNL A   1      46.505  31.289  30.084  1.00  0.00     0.029 A 
ATOM     44  N   UNL A   1      45.206  29.614  29.408  1.00  0.00    -0.354 N 
ATOM     45  N   UNL A   1      44.665  26.842  28.577  1.00  0.00    -0.248 NA
ATOM     46  C   UNL A   1      45.424  24.769  27.806  1.00  0.00     0.031 C 
ATOM     47  C   UNL A   1      47.323  30.219  29.706  1.00  0.00     0.029 A 
ATOM     48  C   UNL A   1      46.514  29.170  29.298  1.00  0.00     0.049 A 
ATOM     49  H   UNL A   1      44.409  29.082  29.189  1.00  0.00     0.167 HD
ATOM     50  C   UNL A   1      46.053  26.855  28.530  1.00  0.00     0.074 A 
ATOM     51  C   UNL A   1      46.469  25.544  28.071  1.00  0.00     0.031 C 
ATOM     52  C   UNL A   1      46.908  27.864  28.828  1.00  0.00     0.037 A 
BRANCH  39  53
ATOM     53  C   UNL A   1      44.150  33.135  30.515  1.00  0.00     0.058 A 
ATOM     54  C   UNL A   1      44.234  33.495  31.868  1.00  0.00     0.135 A 
ATOM     55  C   UNL A   1      44.255  34.160  29.558  1.00  0.00     0.135 A 
ATOM     56  F   UNL A   1      44.124  32.559  32.824  1.00  0.00    -0.206 F 
ATOM     57  C   UNL A   1      44.393  34.821  32.259  1.00  0.00     0.059 A 
ATOM     58  C   UNL A   1      44.438  35.490  29.926  1.00  0.00     0.059 A 
ATOM     59  F   UNL A   1      44.181  33.872  28.249  1.00  0.00    -0.206 F 
ATOM     60  C   UNL A   1      44.492  35.813  31.281  1.00  0.00     0.060 A 
BRANCH  60  61
ATOM     61  S   UNL A   1      44.699  37.528  31.803  1.00  0.00     0.124 S 
ATOM     62  O   UNL A   1      43.888  37.562  33.017  1.00  0.00    -0.237 OA
ATOM     63  O   UNL A   1      46.142  37.622  32.002  1.00  0.00    -0.237 OA
ATOM     64  O   UNL A   1      44.174  38.294  30.677  1.00  0.00    -0.744 OA
ENDBRANCH  60  61
ENDBRANCH  39  53
BRANCH  40  65
ATOM     65  C   UNL A   1      42.706  23.706  27.494  1.00  0.00     0.058 A 
ATOM     66  C   UNL A   1      42.739  23.414  26.125  1.00  0.00     0.135 A 
ATOM     67  C   UNL A   1      42.486  22.642  28.384  1.00  0.00     0.135 A 
ATOM     68  F   UNL A   1      42.931  24.399  25.233  1.00  0.00    -0.206 F 
ATOM     69  C   UNL A   1      42.563  22.117  25.652  1.00  0.00     0.059 A 
ATOM     70  C   UNL A   1      42.335  21.334  27.939  1.00  0.00     0.059 A 
ATOM     71  F   UNL A   1      42.453  22.868  29.707  1.00  0.00    -0.206 F 
ATOM     72  C   UNL A   1      42.368  21.082  26.569  1.00  0.00     0.060 A 
BRANCH  72  73
ATOM     73  S   UNL A   1      42.205  19.392  25.952  1.00  0.00     0.124 S 
ATOM     74  O   UNL A   1      40.762  19.285  25.768  1.00  0.00    -0.237 OA
ATOM     75  O   UNL A   1      43.004  19.432  24.731  1.00  0.00    -0.237 OA
ATOM     76  O   UNL A   1      42.766  18.586  27.032  1.00  0.00    -0.744 OA
ENDBRANCH  72  73
ENDBRANCH  40  65
BRANCH  52  77
ATOM     77  C   UNL A   1      48.376  27.592  28.667  1.00  0.00     0.058 A 
ATOM     78  C   UNL A   1      49.087  26.846  29.620  1.00  0.00     0.135 A 
ATOM     79  C   UNL A   1      49.066  28.033  27.527  1.00  0.00     0.135 A 
ATOM     80  F   UNL A   1      48.474  26.413  30.733  1.00  0.00    -0.206 F 
ATOM     81  C   UNL A   1      50.436  26.557  29.454  1.00  0.00     0.059 A 
ATOM     82  C   UNL A   1      50.411  27.735  27.329  1.00  0.00     0.059 A 
ATOM     83  F   UNL A   1      48.429  28.746  26.584  1.00  0.00    -0.206 F 
ATOM     84  C   UNL A   1      51.089  27.002  28.302  1.00  0.00     0.060 A 
BRANCH  84  85
ATOM     85  S   UNL A   1      52.829  26.578  28.077  1.00  0.00     0.124 S 
ATOM     86  O   UNL A   1      53.334  27.762  27.391  1.00  0.00    -0.237 OA
ATOM     87  O   UNL A   1      53.287  26.396  29.450  1.00  0.00    -0.237 OA
ATOM     88  O   UNL A   1      52.781  25.361  27.272  1.00  0.00    -0.744 OA
ENDBRANCH  84  85
ENDBRANCH  52  77
ENDBRANCH  26  27
ENDBRANCH  19  21
ENDBRANCH  18  19
ENDBRANCH  17  18
ENDBRANCH   1  17
TORSDOF 18
ENDMDL
MODEL 2
REMARK VINA RESULT:      -9.4      2.111      2.994
REMARK SMILES COCCOc1ccc(C(=O)OCCOC(=O)c2ccc(-c3c4nc(c(-c5c(F)cc(S(=O)(=O)[O-])cc5F)c5ccc([nH]5)c(-c5c(F)cc(S(=O)(=O)[O-])cc5F)c5nc(c(-c6c(F)cc(S(=O)(=O)[O-])cc6F)c6ccc3[nH]6)C=C5)C=C4)cc2)cc1Br
REMARK SMILES IDX 13 1 12 2 10 3 11 4 9 5 6 6 7 7 85 8 8 9 84 10 86 11 5 12
REMARK SMILES IDX 4 13 3 14 2 15 1 16 14 17 15 18 16 19 17 20 18 21 19 22
REMARK SMILES IDX 83 23 20 24 82 25 21 26 22 27 23 28 76 29 24 30 81 31 75 32
REMARK SMILES IDX 77 33 25 34 80 35 74 36 73 37 26 39 60 40 39 41 59 42 40 43
REMARK SMILES IDX 43 44 58 45 78 46 41 47 42 48 57 50 79 51 44 52 27 53 28 54
REMARK SMILES IDX 37 55 29 56 30 57 36 58 38 59 31 60 32 61 33 62 34 63 35 64
REMARK SMILES IDX 61 65 62 66 71 67 63 68 64 69 70 70 72 71 65 72 66 73 67 74
REMARK SMILES IDX 68 75 69 76 45 77 46 78 55 79 47 80 48 81 54 82 56 83 49 84
REMARK SMILES IDX 50 85 51 86 52 87 53 88
REMARK H PARENT 77 38 43 49
REMARK Flexibility Score: inf
ROOT
ATOM      1  C   UNL A   1      33.687  30.003  26.593  1.00  0.00     0.275 C 
ENDROOT
BRANCH   1   2
ATOM      2  O   UNL A   1      33.046  28.804  27.064  1.00  0.00    -0.458 OA
BRANCH   2   3
ATOM      3  C   UNL A   1      32.220  28.197  26.181  1.00  0.00     0.338 C 
ATOM      4  O   UNL A   1      31.385  28.742  25.481  1.00  0.00    -0.246 OA
BRANCH   3   5
ATOM      5  C   UNL A   1      32.505  26.739  26.096  1.00  0.00     0.061 A 
ATOM      6  C   UNL A   1      33.163  24.039  25.808  1.00  0.00     0.133 A 
ATOM      7  C   UNL A   1      34.157  25.010  25.696  1.00  0.00     0.048 A 
ATOM      8  C   UNL A   1      31.871  24.410  26.205  1.00  0.00     0.060 A 
ATOM      9  C   UNL A   1      33.821  26.356  25.800  1.00  0.00     0.019 A 
ATOM     10  C   UNL A   1      31.537  25.760  26.346  1.00  0.00     0.035 A 
ATOM     11  Br  UNL A   1      30.512  23.116  26.489  1.00  0.00    -0.047 Br
BRANCH   6  12
ATOM     12  O   UNL A   1      33.426  22.729  25.513  1.00  0.00    -0.490 OA
BRANCH  12  13
ATOM     13  C   UNL A   1      33.193  22.385  24.132  1.00  0.00     0.258 C 
BRANCH  13  14
ATOM     14  C   UNL A   1      34.344  22.857  23.235  1.00  0.00     0.201 C 
BRANCH  14  15
ATOM     15  O   UNL A   1      33.914  23.503  22.028  1.00  0.00    -0.381 OA
ATOM     16  C   UNL A   1      32.910  24.487  22.217  1.00  0.00     0.195 C 
ENDBRANCH  14  15
ENDBRANCH  13  14
ENDBRANCH  12  13
ENDBRANCH   6  12
ENDBRANCH   3   5
ENDBRANCH   2   3
ENDBRANCH   1   2
BRANCH   1  17
ATOM     17  C   UNL A   1      34.244  30.787  27.780  1.00  0.00     0.275 C 
BRANCH  17  18
ATOM     18  O   UNL A   1      35.361  30.093  28.368  1.00  0.00    -0.458 OA
BRANCH  18  19
ATOM     19  C   UNL A   1      36.121  30.817  29.223  1.00  0.00     0.338 C 
ATOM     20  O   UNL A   1      35.740  31.614  30.063  1.00  0.00    -0.246 OA
BRANCH  19  21
ATOM     21  C   UNL A   1      37.528  30.421  29.063  1.00  0.00     0.060 A 
ATOM     22  C   UNL A   1      37.957  29.998  27.806  1.00  0.00     0.016 A 
ATOM     23  C   UNL A   1      38.401  30.393  30.147  1.00  0.00     0.016 A 
ATOM     24  C   UNL A   1      39.247  29.516  27.624  1.00  0.00     0.010 A 
ATOM     25  C   UNL A   1      39.722  29.970  29.950  1.00  0.00     0.010 A 
ATOM     26  C   UNL A   1      40.156  29.526  28.687  1.00  0.00    -0.014 A 
BRANCH  26  27
ATOM     27  C   UNL A   1      41.561  29.091  28.466  1.00  0.00     0.031 A 
ATOM     28  C   UNL A   1      42.681  30.091  28.517  1.00  0.00     0.074 A 
ATOM     29  C   UNL A   1      41.828  27.793  28.216  1.00  0.00     0.049 A 
ATOM     30  N   UNL A   1      43.934  29.946  28.174  1.00  0.00    -0.248 NA
ATOM     31  C   UNL A   1      42.345  31.434  29.015  1.00  0.00     0.031 C 
ATOM     32  C   UNL A   1      40.838  26.713  28.196  1.00  0.00     0.029 A 
ATOM     33  N   UNL A   1      43.011  27.158  27.927  1.00  0.00    -0.354 N 
ATOM     34  C   UNL A   1      44.529  31.185  28.372  1.00  0.00     0.074 A 
ATOM     35  C   UNL A   1      43.498  32.074  28.865  1.00  0.00     0.031 C 
ATOM     36  C   UNL A   1      41.453  25.553  27.924  1.00  0.00     0.029 A 
ATOM     37  C   UNL A   1      42.864  25.816  27.664  1.00  0.00     0.049 A 
ATOM     38  H   UNL A   1      43.881  27.620  27.910  1.00  0.00     0.167 HD
ATOM     39  C   UNL A   1      45.818  31.546  28.155  1.00  0.00     0.037 A 
ATOM     40  C   UNL A   1      43.749  24.907  27.208  1.00  0.00     0.037 A 
ATOM     41  C   UNL A   1      46.840  30.641  27.695  1.00  0.00     0.049 A 
ATOM     42  C   UNL A   1      45.152  25.347  26.902  1.00  0.00     0.074 A 
ATOM     43  C   UNL A   1      48.181  30.900  27.469  1.00  0.00     0.029 A 
ATOM     44  N   UNL A   1      46.636  29.302  27.391  1.00  0.00    -0.354 N 
ATOM     45  N   UNL A   1      45.695  26.531  27.060  1.00  0.00    -0.248 NA
ATOM     46  C   UNL A   1      46.054  24.340  26.329  1.00  0.00     0.031 C 
ATOM     47  C   UNL A   1      48.778  29.731  26.984  1.00  0.00     0.029 A 
ATOM     48  C   UNL A   1      47.819  28.730  26.948  1.00  0.00     0.049 A 
ATOM     49  H   UNL A   1      45.778  28.828  27.476  1.00  0.00     0.167 HD
ATOM     50  C   UNL A   1      47.003  26.412  26.605  1.00  0.00     0.074 A 
ATOM     51  C   UNL A   1      47.176  25.035  26.189  1.00  0.00     0.031 C 
ATOM     52  C   UNL A   1      47.969  27.359  26.527  1.00  0.00     0.037 A 
BRANCH  39  53
ATOM     53  C   UNL A   1      46.188  32.986  28.373  1.00  0.00     0.058 A 
ATOM     54  C   UNL A   1      46.097  33.943  27.351  1.00  0.00     0.135 A 
ATOM     55  C   UNL A   1      46.607  33.421  29.642  1.00  0.00     0.135 A 
ATOM     56  F   UNL A   1      45.719  33.578  26.116  1.00  0.00    -0.206 F 
ATOM     57  C   UNL A   1      46.430  35.276  27.573  1.00  0.00     0.059 A 
ATOM     58  C   UNL A   1      46.921  34.754  29.893  1.00  0.00     0.059 A 
ATOM     59  F   UNL A   1      46.713  32.547  30.655  1.00  0.00    -0.206 F 
ATOM     60  C   UNL A   1      46.843  35.672  28.847  1.00  0.00     0.060 A 
BRANCH  60  61
ATOM     61  S   UNL A   1      47.269  37.405  29.120  1.00  0.00     0.124 S 
ATOM     62  O   UNL A   1      45.963  37.980  29.429  1.00  0.00    -0.237 OA
ATOM     63  O   UNL A   1      48.206  37.325  30.235  1.00  0.00    -0.237 OA
ATOM     64  O   UNL A   1      47.849  37.819  27.846  1.00  0.00    -0.744 OA
ENDBRANCH  60  61
ENDBRANCH  39  53
BRANCH  40  65
ATOM     65  C   UNL A   1      43.307  23.510  26.948  1.00  0.00     0.058 A 
ATOM     66  C   UNL A   1      42.954  23.089  25.660  1.00  0.00     0.135 A 
ATOM     67  C   UNL A   1      43.254  22.562  27.984  1.00  0.00     0.135 A 
ATOM     68  F   UNL A   1      42.975  23.961  24.640  1.00  0.00    -0.206 F 
ATOM     69  C   UNL A   1      42.562  21.778  25.404  1.00  0.00     0.059 A 
ATOM     70  C   UNL A   1      42.893  21.240  27.749  1.00  0.00     0.059 A 
ATOM     71  F   UNL A   1      43.590  22.913  29.235  1.00  0.00    -0.206 F 
ATOM     72  C   UNL A   1      42.541  20.859  26.456  1.00  0.00     0.060 A 
BRANCH  72  73
ATOM     73  S   UNL A   1      42.095  19.144  26.104  1.00  0.00     0.124 S 
ATOM     74  O   UNL A   1      42.394  18.497  27.376  1.00  0.00    -0.237 OA
ATOM     75  O   UNL A   1      40.680  19.258  25.761  1.00  0.00    -0.237 OA
ATOM     76  O   UNL A   1      42.974  18.792  24.993  1.00  0.00    -0.744 OA
ENDBRANCH  72  73
ENDBRANCH  40  65
BRANCH  52  77
ATOM     77  C   UNL A   1      49.299  26.940  25.971  1.00  0.00     0.058 A 
ATOM     78  C   UNL A   1      49.608  27.112  24.613  1.00  0.00     0.135 A 
ATOM     79  C   UNL A   1      50.293  26.413  26.811  1.00  0.00     0.135 A 
ATOM     80  F   UNL A   1      48.686  27.600  23.767  1.00  0.00    -0.206 F 
ATOM     81  C   UNL A   1      50.853  26.763  24.103  1.00  0.00     0.059 A 
ATOM     82  C   UNL A   1      51.554  26.080  26.327  1.00  0.00     0.059 A 
ATOM     83  F   UNL A   1      50.049  26.235  28.119  1.00  0.00    -0.206 F 
ATOM     84  C   UNL A   1      51.823  26.252  24.969  1.00  0.00     0.060 A 
BRANCH  84  85
ATOM     85  S   UNL A   1      53.450  25.849  24.302  1.00  0.00     0.124 S 
ATOM     86  O   UNL A   1      54.269  26.925  24.851  1.00  0.00    -0.237 OA
ATOM     87  O   UNL A   1      53.695  24.521  24.856  1.00  0.00    -0.237 OA
ATOM     88  O   UNL A   1      53.246  25.891  22.858  1.00  0.00    -0.744 OA
ENDBRANCH  84  85
ENDBRANCH  52  77
ENDBRANCH  26  27
ENDBRANCH  19  21
ENDBRANCH  18  19
ENDBRANCH  17  18
ENDBRANCH   1  17
TORSDOF 18
ENDMDL
MODEL 3
REMARK VINA RESULT:      -9.4      5.582     10.609
REMARK SMILES COCCOc1ccc(C(=O)OCCOC(=O)c2ccc(-c3c4nc(c(-c5c(F)cc(S(=O)(=O)[O-])cc5F)c5ccc([nH]5)c(-c5c(F)cc(S(=O)(=O)[O-])cc5F)c5nc(c(-c6c(F)cc(S(=O)(=O)[O-])cc6F)c6ccc3[nH]6)C=C5)C=C4)cc2)cc1Br
REMARK SMILES IDX 13 1 12 2 10 3 11 4 9 5 6 6 7 7 85 8 8 9 84 10 86 11 5 12
REMARK SMILES IDX 4 13 3 14 2 15 1 16 14 17 15 18 16 19 17 20 18 21 19 22
REMARK SMILES IDX 83 23 20 24 82 25 21 26 22 27 23 28 76 29 24 30 81 31 75 32
REMARK SMILES IDX 77 33 25 34 80 35 74 36 73 37 26 39 60 40 39 41 59 42 40 43
REMARK SMILES IDX 43 44 58 45 78 46 41 47 42 48 57 50 79 51 44 52 27 53 28 54
REMARK SMILES IDX 37 55 29 56 30 57 36 58 38 59 31 60 32 61 33 62 34 63 35 64
REMARK SMILES IDX 61 65 62 66 71 67 63 68 64 69 70 70 72 71 65 72 66 73 67 74
REMARK SMILES IDX 68 75 69 76 45 77 46 78 55 79 47 80 48 81 54 82 56 83 49 84
REMARK SMILES IDX 50 85 51 86 52 87 53 88
REMARK H PARENT 77 38 43 49
REMARK Flexibility Score: inf
ROOT
ATOM      1  C   UNL A   1      42.457  22.010  25.752  1.00  0.00     0.275 C 
ENDROOT
BRANCH   1   2
ATOM      2  O   UNL A   1      41.101  21.668  25.416  1.00  0.00    -0.458 OA
BRANCH   2   3
ATOM      3  C   UNL A   1      40.260  21.511  26.465  1.00  0.00     0.338 C 
ATOM      4  O   UNL A   1      40.556  21.097  27.571  1.00  0.00    -0.246 OA
BRANCH   3   5
ATOM      5  C   UNL A   1      38.893  21.991  26.131  1.00  0.00     0.061 A 
ATOM      6  C   UNL A   1      36.345  23.023  25.629  1.00  0.00     0.133 A 
ATOM      7  C   UNL A   1      37.397  23.889  25.925  1.00  0.00     0.048 A 
ATOM      8  C   UNL A   1      36.600  21.658  25.443  1.00  0.00     0.060 A 
ATOM      9  C   UNL A   1      38.656  23.371  26.215  1.00  0.00     0.019 A 
ATOM     10  C   UNL A   1      37.872  21.138  25.698  1.00  0.00     0.035 A 
ATOM     11  Br  UNL A   1      35.227  20.456  24.921  1.00  0.00    -0.047 Br
BRANCH   6  12
ATOM     12  O   UNL A   1      35.061  23.487  25.539  1.00  0.00    -0.490 OA
BRANCH  12  13
ATOM     13  C   UNL A   1      34.963  24.836  25.041  1.00  0.00     0.258 C 
BRANCH  13  14
ATOM     14  C   UNL A   1      34.114  24.902  23.765  1.00  0.00     0.201 C 
BRANCH  14  15
ATOM     15  O   UNL A   1      34.426  23.884  22.803  1.00  0.00    -0.381 OA
ATOM     16  C   UNL A   1      33.328  23.059  22.449  1.00  0.00     0.195 C 
ENDBRANCH  14  15
ENDBRANCH  13  14
ENDBRANCH  12  13
ENDBRANCH   6  12
ENDBRANCH   3   5
ENDBRANCH   2   3
ENDBRANCH   1   2
BRANCH   1  17
ATOM     17  C   UNL A   1      42.703  23.489  25.456  1.00  0.00     0.275 C 
BRANCH  17  18
ATOM     18  O   UNL A   1      42.109  24.316  26.476  1.00  0.00    -0.458 OA
BRANCH  18  19
ATOM     19  C   UNL A   1      41.875  25.603  26.128  1.00  0.00     0.338 C 
ATOM     20  O   UNL A   1      41.829  26.073  25.004  1.00  0.00    -0.246 OA
BRANCH  19  21
ATOM     21  C   UNL A   1      41.570  26.377  27.341  1.00  0.00     0.060 A 
ATOM     22  C   UNL A   1      42.311  27.530  27.593  1.00  0.00     0.016 A 
ATOM     23  C   UNL A   1      40.620  25.939  28.260  1.00  0.00     0.016 A 
ATOM     24  C   UNL A   1      42.134  28.241  28.773  1.00  0.00     0.010 A 
ATOM     25  C   UNL A   1      40.395  26.693  29.420  1.00  0.00     0.010 A 
ATOM     26  C   UNL A   1      41.151  27.849  29.688  1.00  0.00    -0.014 A 
BRANCH  26  27
ATOM     27  C   UNL A   1      40.906  28.662  30.909  1.00  0.00     0.031 A 
ATOM     28  C   UNL A   1      39.823  29.703  30.921  1.00  0.00     0.074 A 
ATOM     29  C   UNL A   1      41.663  28.465  32.007  1.00  0.00     0.049 A 
ATOM     30  N   UNL A   1      39.577  30.628  31.811  1.00  0.00    -0.248 NA
ATOM     31  C   UNL A   1      38.896  29.706  29.778  1.00  0.00     0.031 C 
ATOM     32  C   UNL A   1      42.710  27.448  32.143  1.00  0.00     0.029 A 
ATOM     33  N   UNL A   1      41.675  29.111  33.218  1.00  0.00    -0.354 N 
ATOM     34  C   UNL A   1      38.498  31.352  31.320  1.00  0.00     0.074 A 
ATOM     35  C   UNL A   1      38.135  30.758  30.050  1.00  0.00     0.031 C 
ATOM     36  C   UNL A   1      43.250  27.530  33.368  1.00  0.00     0.029 A 
ATOM     37  C   UNL A   1      42.653  28.659  34.073  1.00  0.00     0.049 A 
ATOM     38  H   UNL A   1      41.044  29.831  33.452  1.00  0.00     0.167 HD
ATOM     39  C   UNL A   1      37.873  32.417  31.879  1.00  0.00     0.037 A 
ATOM     40  C   UNL A   1      43.067  29.131  35.266  1.00  0.00     0.037 A 
ATOM     41  C   UNL A   1      38.225  32.976  33.159  1.00  0.00     0.049 A 
ATOM     42  C   UNL A   1      42.411  30.359  35.829  1.00  0.00     0.074 A 
ATOM     43  C   UNL A   1      37.638  34.038  33.825  1.00  0.00     0.029 A 
ATOM     44  N   UNL A   1      39.256  32.519  33.968  1.00  0.00    -0.354 N 
ATOM     45  N   UNL A   1      41.413  31.056  35.339  1.00  0.00    -0.248 NA
ATOM     46  C   UNL A   1      42.952  30.883  37.090  1.00  0.00     0.031 C 
ATOM     47  C   UNL A   1      38.343  34.252  35.015  1.00  0.00     0.029 A 
ATOM     48  C   UNL A   1      39.343  33.297  35.111  1.00  0.00     0.049 A 
ATOM     49  H   UNL A   1      39.840  31.755  33.760  1.00  0.00     0.167 HD
ATOM     50  C   UNL A   1      41.208  32.102  36.231  1.00  0.00     0.074 A 
ATOM     51  C   UNL A   1      42.168  31.932  37.303  1.00  0.00     0.031 C 
ATOM     52  C   UNL A   1      40.314  33.119  36.162  1.00  0.00     0.037 A 
BRANCH  39  53
ATOM     53  C   UNL A   1      36.773  33.075  31.094  1.00  0.00     0.058 A 
ATOM     54  C   UNL A   1      37.035  34.001  30.072  1.00  0.00     0.135 A 
ATOM     55  C   UNL A   1      35.431  32.741  31.345  1.00  0.00     0.135 A 
ATOM     56  F   UNL A   1      38.297  34.368  29.801  1.00  0.00    -0.206 F 
ATOM     57  C   UNL A   1      36.006  34.590  29.344  1.00  0.00     0.059 A 
ATOM     58  C   UNL A   1      34.387  33.300  30.613  1.00  0.00     0.059 A 
ATOM     59  F   UNL A   1      35.124  31.862  32.312  1.00  0.00    -0.206 F 
ATOM     60  C   UNL A   1      34.684  34.235  29.623  1.00  0.00     0.060 A 
BRANCH  60  61
ATOM     61  S   UNL A   1      33.360  35.006  28.669  1.00  0.00     0.124 S 
ATOM     62  O   UNL A   1      32.494  35.512  29.730  1.00  0.00    -0.237 OA
ATOM     63  O   UNL A   1      34.077  36.018  27.900  1.00  0.00    -0.237 OA
ATOM     64  O   UNL A   1      32.813  33.901  27.888  1.00  0.00    -0.744 OA
ENDBRANCH  60  61
ENDBRANCH  39  53
BRANCH  40  65
ATOM     65  C   UNL A   1      44.205  28.478  35.966  1.00  0.00     0.058 A 
ATOM     66  C   UNL A   1      45.524  28.899  35.756  1.00  0.00     0.135 A 
ATOM     67  C   UNL A   1      43.990  27.432  36.880  1.00  0.00     0.135 A 
ATOM     68  F   UNL A   1      45.782  29.884  34.882  1.00  0.00    -0.206 F 
ATOM     69  C   UNL A   1      46.593  28.308  36.425  1.00  0.00     0.059 A 
ATOM     70  C   UNL A   1      45.038  26.845  37.581  1.00  0.00     0.059 A 
ATOM     71  F   UNL A   1      42.744  26.996  37.123  1.00  0.00    -0.206 F 
ATOM     72  C   UNL A   1      46.338  27.285  37.341  1.00  0.00     0.060 A 
BRANCH  72  73
ATOM     73  S   UNL A   1      47.723  26.569  38.252  1.00  0.00     0.124 S 
ATOM     74  O   UNL A   1      48.534  26.023  37.170  1.00  0.00    -0.237 OA
ATOM     75  O   UNL A   1      48.274  27.733  38.940  1.00  0.00    -0.237 OA
ATOM     76  O   UNL A   1      47.080  25.585  39.119  1.00  0.00    -0.744 OA
ENDBRANCH  72  73
ENDBRANCH  40  65
BRANCH  52  77
ATOM     77  C   UNL A   1      40.332  34.126  37.276  1.00  0.00     0.058 A 
ATOM     78  C   UNL A   1      41.142  35.270  37.210  1.00  0.00     0.135 A 
ATOM     79  C   UNL A   1      39.495  33.975  38.393  1.00  0.00     0.135 A 
ATOM     80  F   UNL A   1      41.969  35.454  36.169  1.00  0.00    -0.206 F 
ATOM     81  C   UNL A   1      41.130  36.226  38.220  1.00  0.00     0.059 A 
ATOM     82  C   UNL A   1      39.449  34.930  39.404  1.00  0.00     0.059 A 
ATOM     83  F   UNL A   1      38.697  32.900  38.500  1.00  0.00    -0.206 F 
ATOM     84  C   UNL A   1      40.276  36.049  39.312  1.00  0.00     0.060 A 
BRANCH  84  85
ATOM     85  S   UNL A   1      40.237  37.321  40.592  1.00  0.00     0.124 S 
ATOM     86  O   UNL A   1      40.902  36.644  41.700  1.00  0.00    -0.237 OA
ATOM     87  O   UNL A   1      40.985  38.411  39.973  1.00  0.00    -0.237 OA
ATOM     88  O   UNL A   1      38.811  37.573  40.776  1.00  0.00    -0.744 OA
ENDBRANCH  84  85
ENDBRANCH  52  77
ENDBRANCH  26  27
ENDBRANCH  19  21
ENDBRANCH  18  19
ENDBRANCH  17  18
ENDBRANCH   1  17
TORSDOF 18
ENDMDL
