MODEL 1
REMARK VINA RESULT:     -11.4      0.000      0.000
REMARK SMILES COc1c(C(=O)OCCOC(=O)c2ccc(-c3c4nc(c(-c5c(F)cc(S(=O)(=O)[O-])cc5F)c5ccc([nH]5)c(-c5c(F)cc(S(=O)(=O)[O-])cc5F)c5nc(c(-c6c(F)cc(S(=O)(=O)[O-])cc6F)c6ccc3[nH]6)C=C5)C=C4)cc2)cccc1-c1cc(C)ccc1C
REMARK SMILES IDX 9 1 8 2 7 3 5 4 6 5 4 6 3 7 82 8 79 9 81 10 80 11 2 12 1 13
REMARK SMILES IDX 83 14 84 15 89 16 85 17 88 18 90 19 86 20 87 21 10 22 11 23
REMARK SMILES IDX 12 24 13 25 14 26 78 27 15 28 77 29 16 30 17 31 18 32 71 33
REMARK SMILES IDX 19 34 76 35 70 36 72 37 20 38 75 39 69 40 68 41 21 43 55 44
REMARK SMILES IDX 34 45 54 46 35 47 38 48 53 49 73 50 36 51 37 52 52 54 74 55
REMARK SMILES IDX 39 56 22 57 23 58 32 59 24 60 25 61 31 62 33 63 26 64 27 65
REMARK SMILES IDX 28 66 29 67 30 68 56 69 57 70 66 71 58 72 59 73 65 74 67 75
REMARK SMILES IDX 60 76 61 77 62 78 63 79 64 80 40 81 41 82 50 83 42 84 43 85
REMARK SMILES IDX 49 86 51 87 44 88 45 89 46 90 47 91 48 92
REMARK H PARENT 72 42 38 53
REMARK Flexibility Score: inf
ROOT
ATOM      1  C   UNL A   1      34.627  31.719  28.351  1.00  0.00     0.275 C 
ENDROOT
BRANCH   1   2
ATOM      2  C   UNL A   1      33.394  31.385  27.510  1.00  0.00     0.275 C 
BRANCH   2   3
ATOM      3  O   UNL A   1      33.536  30.081  26.915  1.00  0.00    -0.458 OA
BRANCH   3   4
ATOM      4  C   UNL A   1      32.544  29.691  26.072  1.00  0.00     0.342 C 
ATOM      5  O   UNL A   1      31.916  30.404  25.312  1.00  0.00    -0.246 OA
BRANCH   4   6
ATOM      6  C   UNL A   1      32.428  28.212  26.066  1.00  0.00     0.102 A 
ATOM      7  C   UNL A   1      33.222  27.383  25.259  1.00  0.00     0.141 A 
ATOM      8  C   UNL A   1      33.043  25.980  25.312  1.00  0.00     0.025 A 
ATOM      9  C   UNL A   1      31.478  27.651  26.933  1.00  0.00     0.019 A 
ATOM     10  C   UNL A   1      31.984  25.463  26.090  1.00  0.00     0.012 A 
ATOM     11  C   UNL A   1      31.215  26.289  26.904  1.00  0.00     0.002 A 
BRANCH   7  12
ATOM     12  O   UNL A   1      34.275  27.966  24.592  1.00  0.00    -0.495 OA
ATOM     13  C   UNL A   1      33.963  28.316  23.246  1.00  0.00     0.278 C 
ENDBRANCH   7  12
BRANCH   8  14
ATOM     14  C   UNL A   1      33.991  25.010  24.731  1.00  0.00    -0.011 A 
ATOM     15  C   UNL A   1      35.160  24.662  25.438  1.00  0.00     0.012 A 
ATOM     16  C   UNL A   1      33.803  24.482  23.433  1.00  0.00    -0.043 A 
ATOM     17  C   UNL A   1      36.117  23.795  24.893  1.00  0.00    -0.050 A 
ATOM     18  C   UNL A   1      34.744  23.581  22.911  1.00  0.00     0.004 A 
ATOM     19  C   UNL A   1      32.608  24.833  22.583  1.00  0.00     0.045 C 
ATOM     20  C   UNL A   1      37.381  23.500  25.645  1.00  0.00     0.044 C 
ATOM     21  C   UNL A   1      35.892  23.248  23.629  1.00  0.00     0.004 A 
ENDBRANCH   8  14
ENDBRANCH   4   6
ENDBRANCH   3   4
ENDBRANCH   2   3
ENDBRANCH   1   2
BRANCH   1  22
ATOM     22  O   UNL A   1      35.381  30.520  28.613  1.00  0.00    -0.458 OA
BRANCH  22  23
ATOM     23  C   UNL A   1      36.276  30.602  29.624  1.00  0.00     0.338 C 
ATOM     24  O   UNL A   1      36.088  31.016  30.755  1.00  0.00    -0.246 OA
BRANCH  23  25
ATOM     25  C   UNL A   1      37.532  29.964  29.203  1.00  0.00     0.060 A 
ATOM     26  C   UNL A   1      38.430  29.614  30.207  1.00  0.00     0.016 A 
ATOM     27  C   UNL A   1      37.888  29.821  27.865  1.00  0.00     0.016 A 
ATOM     28  C   UNL A   1      39.701  29.145  29.894  1.00  0.00     0.010 A 
ATOM     29  C   UNL A   1      39.159  29.320  27.544  1.00  0.00     0.010 A 
ATOM     30  C   UNL A   1      40.089  29.003  28.555  1.00  0.00    -0.014 A 
BRANCH  30  31
ATOM     31  C   UNL A   1      41.493  28.616  28.237  1.00  0.00     0.031 A 
ATOM     32  C   UNL A   1      42.593  29.645  28.315  1.00  0.00     0.074 A 
ATOM     33  C   UNL A   1      41.804  27.337  27.945  1.00  0.00     0.049 A 
ATOM     34  N   UNL A   1      43.860  29.530  28.009  1.00  0.00    -0.248 NA
ATOM     35  C   UNL A   1      42.213  30.983  28.797  1.00  0.00     0.031 C 
ATOM     36  C   UNL A   1      40.849  26.228  27.878  1.00  0.00     0.029 A 
ATOM     37  N   UNL A   1      43.012  26.749  27.662  1.00  0.00    -0.354 N 
ATOM     38  C   UNL A   1      44.421  30.784  28.224  1.00  0.00     0.074 A 
ATOM     39  C   UNL A   1      43.352  31.650  28.672  1.00  0.00     0.031 C 
ATOM     40  C   UNL A   1      41.511  25.094  27.599  1.00  0.00     0.029 A 
ATOM     41  C   UNL A   1      42.926  25.400  27.411  1.00  0.00     0.049 A 
ATOM     42  H   UNL A   1      43.862  27.248  27.641  1.00  0.00     0.167 HD
ATOM     43  C   UNL A   1      45.709  31.178  28.070  1.00  0.00     0.037 A 
ATOM     44  C   UNL A   1      43.873  24.511  27.047  1.00  0.00     0.037 A 
ATOM     45  C   UNL A   1      46.784  30.308  27.662  1.00  0.00     0.049 A 
ATOM     46  C   UNL A   1      45.295  24.975  26.875  1.00  0.00     0.074 A 
ATOM     47  C   UNL A   1      48.119  30.620  27.467  1.00  0.00     0.029 A 
ATOM     48  N   UNL A   1      46.650  28.952  27.404  1.00  0.00    -0.354 N 
ATOM     49  N   UNL A   1      45.794  26.177  27.029  1.00  0.00    -0.248 NA
ATOM     50  C   UNL A   1      46.279  23.960  26.473  1.00  0.00     0.031 C 
ATOM     51  C   UNL A   1      48.788  29.457  27.067  1.00  0.00     0.029 A 
ATOM     52  C   UNL A   1      47.878  28.412  27.052  1.00  0.00     0.049 A 
ATOM     53  H   UNL A   1      45.808  28.446  27.462  1.00  0.00     0.167 HD
ATOM     54  C   UNL A   1      47.154  26.061  26.754  1.00  0.00     0.074 A 
ATOM     55  C   UNL A   1      47.400  24.666  26.449  1.00  0.00     0.031 C 
ATOM     56  C   UNL A   1      48.110  27.023  26.747  1.00  0.00     0.037 A 
BRANCH  43  57
ATOM     57  C   UNL A   1      46.023  32.628  28.320  1.00  0.00     0.058 A 
ATOM     58  C   UNL A   1      46.416  33.096  29.584  1.00  0.00     0.135 A 
ATOM     59  C   UNL A   1      45.948  33.561  27.272  1.00  0.00     0.135 A 
ATOM     60  F   UNL A   1      46.486  32.252  30.625  1.00  0.00    -0.206 F 
ATOM     61  C   UNL A   1      46.694  34.442  29.807  1.00  0.00     0.059 A 
ATOM     62  C   UNL A   1      46.247  34.906  27.466  1.00  0.00     0.059 A 
ATOM     63  F   UNL A   1      45.578  33.168  26.043  1.00  0.00    -0.206 F 
ATOM     64  C   UNL A   1      46.603  35.340  28.743  1.00  0.00     0.060 A 
BRANCH  64  65
ATOM     65  S   UNL A   1      46.961  37.083  29.047  1.00  0.00     0.124 S 
ATOM     66  O   UNL A   1      47.307  37.066  30.464  1.00  0.00    -0.237 OA
ATOM     67  O   UNL A   1      48.066  37.342  28.129  1.00  0.00    -0.237 OA
ATOM     68  O   UNL A   1      45.707  37.751  28.714  1.00  0.00    -0.744 OA
ENDBRANCH  64  65
ENDBRANCH  43  57
BRANCH  44  69
ATOM     69  C   UNL A   1      43.502  23.091  26.798  1.00  0.00     0.058 A 
ATOM     70  C   UNL A   1      43.480  22.561  25.500  1.00  0.00     0.135 A 
ATOM     71  C   UNL A   1      43.164  22.236  27.859  1.00  0.00     0.135 A 
ATOM     72  F   UNL A   1      43.781  23.343  24.451  1.00  0.00    -0.206 F 
ATOM     73  C   UNL A   1      43.126  21.237  25.260  1.00  0.00     0.059 A 
ATOM     74  C   UNL A   1      42.834  20.902  27.647  1.00  0.00     0.059 A 
ATOM     75  F   UNL A   1      43.180  22.693  29.122  1.00  0.00    -0.206 F 
ATOM     76  C   UNL A   1      42.808  20.414  26.341  1.00  0.00     0.060 A 
BRANCH  76  77
ATOM     77  S   UNL A   1      42.404  18.681  26.029  1.00  0.00     0.124 S 
ATOM     78  O   UNL A   1      43.299  18.366  24.923  1.00  0.00    -0.237 OA
ATOM     79  O   UNL A   1      42.724  18.055  27.309  1.00  0.00    -0.237 OA
ATOM     80  O   UNL A   1      40.982  18.725  25.701  1.00  0.00    -0.744 OA
ENDBRANCH  76  77
ENDBRANCH  44  69
BRANCH  56  81
ATOM     81  C   UNL A   1      49.513  26.588  26.427  1.00  0.00     0.058 A 
ATOM     82  C   UNL A   1      50.046  26.708  25.134  1.00  0.00     0.135 A 
ATOM     83  C   UNL A   1      50.335  26.041  27.426  1.00  0.00     0.135 A 
ATOM     84  F   UNL A   1      49.301  27.223  24.142  1.00  0.00    -0.206 F 
ATOM     85  C   UNL A   1      51.329  26.261  24.832  1.00  0.00     0.059 A 
ATOM     86  C   UNL A   1      51.629  25.609  27.151  1.00  0.00     0.059 A 
ATOM     87  F   UNL A   1      49.880  25.915  28.683  1.00  0.00    -0.206 F 
ATOM     88  C   UNL A   1      52.109  25.703  25.846  1.00  0.00     0.060 A 
BRANCH  88  89
ATOM     89  S   UNL A   1      53.765  25.107  25.442  1.00  0.00     0.124 S 
ATOM     90  O   UNL A   1      53.993  25.732  24.143  1.00  0.00    -0.237 OA
ATOM     91  O   UNL A   1      54.566  25.628  26.546  1.00  0.00    -0.237 OA
ATOM     92  O   UNL A   1      53.607  23.656  25.423  1.00  0.00    -0.744 OA
ENDBRANCH  88  89
ENDBRANCH  56  81
ENDBRANCH  30  31
ENDBRANCH  23  25
ENDBRANCH  22  23
ENDBRANCH   1  22
TORSDOF 16
ENDMDL
MODEL 2
REMARK VINA RESULT:     -11.3      6.752     12.301
REMARK SMILES COc1c(C(=O)OCCOC(=O)c2ccc(-c3c4nc(c(-c5c(F)cc(S(=O)(=O)[O-])cc5F)c5ccc([nH]5)c(-c5c(F)cc(S(=O)(=O)[O-])cc5F)c5nc(c(-c6c(F)cc(S(=O)(=O)[O-])cc6F)c6ccc3[nH]6)C=C5)C=C4)cc2)cccc1-c1cc(C)ccc1C
REMARK SMILES IDX 9 1 8 2 7 3 5 4 6 5 4 6 3 7 82 8 79 9 81 10 80 11 2 12 1 13
REMARK SMILES IDX 83 14 84 15 89 16 85 17 88 18 90 19 86 20 87 21 10 22 11 23
REMARK SMILES IDX 12 24 13 25 14 26 78 27 15 28 77 29 16 30 17 31 18 32 71 33
REMARK SMILES IDX 19 34 76 35 70 36 72 37 20 38 75 39 69 40 68 41 21 43 55 44
REMARK SMILES IDX 34 45 54 46 35 47 38 48 53 49 73 50 36 51 37 52 52 54 74 55
REMARK SMILES IDX 39 56 22 57 23 58 32 59 24 60 25 61 31 62 33 63 26 64 27 65
REMARK SMILES IDX 28 66 29 67 30 68 56 69 57 70 66 71 58 72 59 73 65 74 67 75
REMARK SMILES IDX 60 76 61 77 62 78 63 79 64 80 40 81 41 82 50 83 42 84 43 85
REMARK SMILES IDX 49 86 51 87 44 88 45 89 46 90 47 91 48 92
REMARK H PARENT 72 42 38 53
REMARK Flexibility Score: inf
ROOT
ATOM      1  C   UNL A   1      39.172  22.823  26.496  1.00  0.00     0.275 C 
ENDROOT
BRANCH   1   2
ATOM      2  C   UNL A   1      38.155  22.310  25.477  1.00  0.00     0.275 C 
BRANCH   2   3
ATOM      3  O   UNL A   1      36.881  22.086  26.113  1.00  0.00    -0.458 OA
BRANCH   3   4
ATOM      4  C   UNL A   1      35.892  21.590  25.326  1.00  0.00     0.342 C 
ATOM      5  O   UNL A   1      35.585  20.420  25.198  1.00  0.00    -0.246 OA
BRANCH   4   6
ATOM      6  C   UNL A   1      35.093  22.699  24.749  1.00  0.00     0.102 A 
ATOM      7  C   UNL A   1      34.308  23.565  25.525  1.00  0.00     0.141 A 
ATOM      8  C   UNL A   1      33.572  24.595  24.892  1.00  0.00     0.025 A 
ATOM      9  C   UNL A   1      35.162  22.866  23.357  1.00  0.00     0.019 A 
ATOM     10  C   UNL A   1      33.556  24.644  23.481  1.00  0.00     0.012 A 
ATOM     11  C   UNL A   1      34.353  23.797  22.718  1.00  0.00     0.002 A 
BRANCH   7  12
ATOM     12  O   UNL A   1      34.443  23.490  26.892  1.00  0.00    -0.495 OA
ATOM     13  C   UNL A   1      33.388  22.767  27.522  1.00  0.00     0.278 C 
ENDBRANCH   7  12
BRANCH   8  14
ATOM     14  C   UNL A   1      32.946  25.719  25.614  1.00  0.00    -0.011 A 
ATOM     15  C   UNL A   1      33.731  26.821  26.012  1.00  0.00     0.012 A 
ATOM     16  C   UNL A   1      31.587  25.682  26.002  1.00  0.00    -0.043 A 
ATOM     17  C   UNL A   1      33.189  27.877  26.757  1.00  0.00    -0.050 A 
ATOM     18  C   UNL A   1      31.041  26.762  26.710  1.00  0.00     0.004 A 
ATOM     19  C   UNL A   1      30.681  24.523  25.663  1.00  0.00     0.045 C 
ATOM     20  C   UNL A   1      34.068  29.000  27.221  1.00  0.00     0.044 C 
ATOM     21  C   UNL A   1      31.834  27.844  27.091  1.00  0.00     0.004 A 
ENDBRANCH   8  14
ENDBRANCH   4   6
ENDBRANCH   3   4
ENDBRANCH   2   3
ENDBRANCH   1   2
BRANCH   1  22
ATOM     22  O   UNL A   1      39.197  24.264  26.482  1.00  0.00    -0.458 OA
BRANCH  22  23
ATOM     23  C   UNL A   1      40.427  24.826  26.469  1.00  0.00     0.338 C 
ATOM     24  O   UNL A   1      41.276  24.746  25.597  1.00  0.00    -0.246 OA
BRANCH  23  25
ATOM     25  C   UNL A   1      40.562  25.707  27.638  1.00  0.00     0.060 A 
ATOM     26  C   UNL A   1      39.567  25.625  28.607  1.00  0.00     0.016 A 
ATOM     27  C   UNL A   1      41.558  26.675  27.736  1.00  0.00     0.016 A 
ATOM     28  C   UNL A   1      39.534  26.523  29.670  1.00  0.00     0.010 A 
ATOM     29  C   UNL A   1      41.545  27.563  28.823  1.00  0.00     0.010 A 
ATOM     30  C   UNL A   1      40.518  27.514  29.786  1.00  0.00    -0.014 A 
BRANCH  30  31
ATOM     31  C   UNL A   1      40.398  28.541  30.859  1.00  0.00     0.031 A 
ATOM     32  C   UNL A   1      41.330  28.504  32.044  1.00  0.00     0.074 A 
ATOM     33  C   UNL A   1      39.507  29.548  30.750  1.00  0.00     0.049 A 
ATOM     34  N   UNL A   1      41.344  29.258  33.113  1.00  0.00    -0.248 NA
ATOM     35  C   UNL A   1      42.386  27.478  32.023  1.00  0.00     0.031 C 
ATOM     36  C   UNL A   1      38.573  29.734  29.637  1.00  0.00     0.029 A 
ATOM     37  N   UNL A   1      39.249  30.612  31.580  1.00  0.00    -0.354 N 
ATOM     38  C   UNL A   1      42.379  28.777  33.908  1.00  0.00     0.074 A 
ATOM     39  C   UNL A   1      42.961  27.655  33.204  1.00  0.00     0.031 C 
ATOM     40  C   UNL A   1      37.864  30.856  29.842  1.00  0.00     0.029 A 
ATOM     41  C   UNL A   1      38.250  31.440  31.124  1.00  0.00     0.049 A 
ATOM     42  H   UNL A   1      39.735  30.767  32.423  1.00  0.00     0.167 HD
ATOM     43  C   UNL A   1      42.810  29.230  35.111  1.00  0.00     0.037 A 
ATOM     44  C   UNL A   1      37.690  32.531  31.683  1.00  0.00     0.037 A 
ATOM     45  C   UNL A   1      42.258  30.372  35.796  1.00  0.00     0.049 A 
ATOM     46  C   UNL A   1      38.180  33.010  33.022  1.00  0.00     0.074 A 
ATOM     47  C   UNL A   1      42.622  30.899  37.024  1.00  0.00     0.029 A 
ATOM     48  N   UNL A   1      41.238  31.173  35.306  1.00  0.00    -0.354 N 
ATOM     49  N   UNL A   1      39.123  32.508  33.783  1.00  0.00    -0.248 NA
ATOM     50  C   UNL A   1      37.526  34.202  33.581  1.00  0.00     0.031 C 
ATOM     51  C   UNL A   1      41.804  32.005  37.287  1.00  0.00     0.029 A 
ATOM     52  C   UNL A   1      40.959  32.191  36.205  1.00  0.00     0.049 A 
ATOM     53  H   UNL A   1      40.778  31.040  34.446  1.00  0.00     0.167 HD
ATOM     54  C   UNL A   1      39.182  33.330  34.906  1.00  0.00     0.074 A 
ATOM     55  C   UNL A   1      38.198  34.374  34.710  1.00  0.00     0.031 C 
ATOM     56  C   UNL A   1      39.974  33.223  36.001  1.00  0.00     0.037 A 
BRANCH  43  57
ATOM     57  C   UNL A   1      43.924  28.470  35.778  1.00  0.00     0.058 A 
ATOM     58  C   UNL A   1      45.271  28.826  35.611  1.00  0.00     0.135 A 
ATOM     59  C   UNL A   1      43.635  27.377  36.613  1.00  0.00     0.135 A 
ATOM     60  F   UNL A   1      45.605  29.850  34.809  1.00  0.00    -0.206 F 
ATOM     61  C   UNL A   1      46.295  28.109  36.224  1.00  0.00     0.059 A 
ATOM     62  C   UNL A   1      44.641  26.663  37.258  1.00  0.00     0.059 A 
ATOM     63  F   UNL A   1      42.364  26.993  36.809  1.00  0.00    -0.206 F 
ATOM     64  C   UNL A   1      45.970  27.026  37.043  1.00  0.00     0.060 A 
BRANCH  64  65
ATOM     65  S   UNL A   1      47.307  26.102  37.827  1.00  0.00     0.124 S 
ATOM     66  O   UNL A   1      46.870  24.725  37.618  1.00  0.00    -0.237 OA
ATOM     67  O   UNL A   1      48.473  26.519  37.055  1.00  0.00    -0.237 OA
ATOM     68  O   UNL A   1      47.277  26.567  39.210  1.00  0.00    -0.744 OA
ENDBRANCH  64  65
ENDBRANCH  43  57
BRANCH  44  69
ATOM     69  C   UNL A   1      36.580  33.236  30.984  1.00  0.00     0.058 A 
ATOM     70  C   UNL A   1      35.250  33.098  31.407  1.00  0.00     0.135 A 
ATOM     71  C   UNL A   1      36.832  34.064  29.879  1.00  0.00     0.135 A 
ATOM     72  F   UNL A   1      34.956  32.306  32.449  1.00  0.00    -0.206 F 
ATOM     73  C   UNL A   1      34.207  33.747  30.753  1.00  0.00     0.059 A 
ATOM     74  C   UNL A   1      35.811  34.745  29.227  1.00  0.00     0.059 A 
ATOM     75  F   UNL A   1      38.090  34.236  29.442  1.00  0.00    -0.206 F 
ATOM     76  C   UNL A   1      34.499  34.572  29.666  1.00  0.00     0.060 A 
BRANCH  76  77
ATOM     77  S   UNL A   1      33.148  35.457  28.855  1.00  0.00     0.124 S 
ATOM     78  O   UNL A   1      33.878  36.368  27.981  1.00  0.00    -0.237 OA
ATOM     79  O   UNL A   1      32.425  34.376  28.192  1.00  0.00    -0.237 OA
ATOM     80  O   UNL A   1      32.442  36.080  29.971  1.00  0.00    -0.744 OA
ENDBRANCH  76  77
ENDBRANCH  44  69
BRANCH  56  81
ATOM     81  C   UNL A   1      39.825  34.285  37.056  1.00  0.00     0.058 A 
ATOM     82  C   UNL A   1      39.047  34.077  38.206  1.00  0.00     0.135 A 
ATOM     83  C   UNL A   1      40.466  35.526  36.914  1.00  0.00     0.135 A 
ATOM     84  F   UNL A   1      38.411  32.909  38.389  1.00  0.00    -0.206 F 
ATOM     85  C   UNL A   1      38.873  35.079  39.156  1.00  0.00     0.059 A 
ATOM     86  C   UNL A   1      40.325  36.533  37.864  1.00  0.00     0.059 A 
ATOM     87  F   UNL A   1      41.233  35.772  35.839  1.00  0.00    -0.206 F 
ATOM     88  C   UNL A   1      39.509  36.307  38.971  1.00  0.00     0.060 A 
BRANCH  88  89
ATOM     89  S   UNL A   1      39.263  37.608  40.198  1.00  0.00     0.124 S 
ATOM     90  O   UNL A   1      38.795  36.842  41.349  1.00  0.00    -0.237 OA
ATOM     91  O   UNL A   1      40.599  38.184  40.321  1.00  0.00    -0.237 OA
ATOM     92  O   UNL A   1      38.270  38.478  39.575  1.00  0.00    -0.744 OA
ENDBRANCH  88  89
ENDBRANCH  56  81
ENDBRANCH  30  31
ENDBRANCH  23  25
ENDBRANCH  22  23
ENDBRANCH   1  22
TORSDOF 16
ENDMDL
MODEL 3
REMARK VINA RESULT:     -11.1      3.344      5.992
REMARK SMILES COc1c(C(=O)OCCOC(=O)c2ccc(-c3c4nc(c(-c5c(F)cc(S(=O)(=O)[O-])cc5F)c5ccc([nH]5)c(-c5c(F)cc(S(=O)(=O)[O-])cc5F)c5nc(c(-c6c(F)cc(S(=O)(=O)[O-])cc6F)c6ccc3[nH]6)C=C5)C=C4)cc2)cccc1-c1cc(C)ccc1C
REMARK SMILES IDX 9 1 8 2 7 3 5 4 6 5 4 6 3 7 82 8 79 9 81 10 80 11 2 12 1 13
REMARK SMILES IDX 83 14 84 15 89 16 85 17 88 18 90 19 86 20 87 21 10 22 11 23
REMARK SMILES IDX 12 24 13 25 14 26 78 27 15 28 77 29 16 30 17 31 18 32 71 33
REMARK SMILES IDX 19 34 76 35 70 36 72 37 20 38 75 39 69 40 68 41 21 43 55 44
REMARK SMILES IDX 34 45 54 46 35 47 38 48 53 49 73 50 36 51 37 52 52 54 74 55
REMARK SMILES IDX 39 56 22 57 23 58 32 59 24 60 25 61 31 62 33 63 26 64 27 65
REMARK SMILES IDX 28 66 29 67 30 68 56 69 57 70 66 71 58 72 59 73 65 74 67 75
REMARK SMILES IDX 60 76 61 77 62 78 63 79 64 80 40 81 41 82 50 83 42 84 43 85
REMARK SMILES IDX 49 86 51 87 44 88 45 89 46 90 47 91 48 92
REMARK H PARENT 72 42 38 53
REMARK Flexibility Score: inf
ROOT
ATOM      1  C   UNL A   1      32.716  31.479  27.245  1.00  0.00     0.275 C 
ENDROOT
BRANCH   1   2
ATOM      2  C   UNL A   1      32.527  32.972  27.513  1.00  0.00     0.275 C 
BRANCH   2   3
ATOM      3  O   UNL A   1      32.966  33.299  28.845  1.00  0.00    -0.458 OA
BRANCH   3   4
ATOM      4  C   UNL A   1      33.728  34.416  28.972  1.00  0.00     0.342 C 
ATOM      5  O   UNL A   1      33.349  35.568  28.869  1.00  0.00    -0.246 OA
BRANCH   4   6
ATOM      6  C   UNL A   1      35.091  34.057  29.435  1.00  0.00     0.102 A 
ATOM      7  C   UNL A   1      35.486  34.117  30.780  1.00  0.00     0.141 A 
ATOM      8  C   UNL A   1      36.809  33.760  31.135  1.00  0.00     0.025 A 
ATOM      9  C   UNL A   1      35.997  33.628  28.453  1.00  0.00     0.019 A 
ATOM     10  C   UNL A   1      37.729  33.469  30.105  1.00  0.00     0.012 A 
ATOM     11  C   UNL A   1      37.326  33.391  28.775  1.00  0.00     0.002 A 
BRANCH   7  12
ATOM     12  O   UNL A   1      34.506  34.337  31.720  1.00  0.00    -0.495 OA
ATOM     13  C   UNL A   1      34.525  35.658  32.254  1.00  0.00     0.278 C 
ENDBRANCH   7  12
BRANCH   8  14
ATOM     14  C   UNL A   1      37.248  33.518  32.522  1.00  0.00    -0.011 A 
ATOM     15  C   UNL A   1      37.995  34.501  33.204  1.00  0.00     0.012 A 
ATOM     16  C   UNL A   1      37.018  32.280  33.164  1.00  0.00    -0.043 A 
ATOM     17  C   UNL A   1      38.486  34.284  34.498  1.00  0.00    -0.050 A 
ATOM     18  C   UNL A   1      37.475  32.085  34.475  1.00  0.00     0.004 A 
ATOM     19  C   UNL A   1      36.270  31.151  32.497  1.00  0.00     0.045 C 
ATOM     20  C   UNL A   1      39.333  35.325  35.167  1.00  0.00     0.044 C 
ATOM     21  C   UNL A   1      38.209  33.071  35.132  1.00  0.00     0.004 A 
ENDBRANCH   8  14
ENDBRANCH   4   6
ENDBRANCH   3   4
ENDBRANCH   2   3
ENDBRANCH   1   2
BRANCH   1  22
ATOM     22  O   UNL A   1      34.114  31.139  27.328  1.00  0.00    -0.458 OA
BRANCH  22  23
ATOM     23  C   UNL A   1      34.385  29.869  27.706  1.00  0.00     0.338 C 
ATOM     24  O   UNL A   1      33.655  28.895  27.627  1.00  0.00    -0.246 OA
BRANCH  23  25
ATOM     25  C   UNL A   1      35.794  29.783  28.116  1.00  0.00     0.060 A 
ATOM     26  C   UNL A   1      36.752  30.048  27.142  1.00  0.00     0.016 A 
ATOM     27  C   UNL A   1      36.181  29.336  29.376  1.00  0.00     0.016 A 
ATOM     28  C   UNL A   1      38.103  29.846  27.400  1.00  0.00     0.010 A 
ATOM     29  C   UNL A   1      37.547  29.159  29.650  1.00  0.00     0.010 A 
ATOM     30  C   UNL A   1      38.520  29.386  28.656  1.00  0.00    -0.014 A 
BRANCH  30  31
ATOM     31  C   UNL A   1      39.957  29.058  28.876  1.00  0.00     0.031 A 
ATOM     32  C   UNL A   1      40.872  30.072  29.515  1.00  0.00     0.074 A 
ATOM     33  C   UNL A   1      40.437  27.835  28.570  1.00  0.00     0.049 A 
ATOM     34  N   UNL A   1      42.162  30.010  29.726  1.00  0.00    -0.248 NA
ATOM     35  C   UNL A   1      40.251  31.326  29.973  1.00  0.00     0.031 C 
ATOM     36  C   UNL A   1      39.656  26.741  27.989  1.00  0.00     0.029 A 
ATOM     37  N   UNL A   1      41.694  27.301  28.719  1.00  0.00    -0.354 N 
ATOM     38  C   UNL A   1      42.514  31.225  30.305  1.00  0.00     0.074 A 
ATOM     39  C   UNL A   1      41.303  32.011  30.397  1.00  0.00     0.031 C 
ATOM     40  C   UNL A   1      40.444  25.662  27.854  1.00  0.00     0.029 A 
ATOM     41  C   UNL A   1      41.798  26.000  28.285  1.00  0.00     0.049 A 
ATOM     42  H   UNL A   1      42.450  27.803  29.101  1.00  0.00     0.167 HD
ATOM     43  C   UNL A   1      43.732  31.645  30.726  1.00  0.00     0.037 A 
ATOM     44  C   UNL A   1      42.864  25.179  28.217  1.00  0.00     0.037 A 
ATOM     45  C   UNL A   1      44.932  30.849  30.672  1.00  0.00     0.049 A 
ATOM     46  C   UNL A   1      44.208  25.672  28.684  1.00  0.00     0.074 A 
ATOM     47  C   UNL A   1      46.215  31.194  31.065  1.00  0.00     0.029 A 
ATOM     48  N   UNL A   1      44.996  29.543  30.211  1.00  0.00    -0.354 N 
ATOM     49  N   UNL A   1      44.531  26.843  29.176  1.00  0.00    -0.248 NA
ATOM     50  C   UNL A   1      45.332  24.731  28.580  1.00  0.00     0.031 C 
ATOM     51  C   UNL A   1      47.058  30.104  30.819  1.00  0.00     0.029 A 
ATOM     52  C   UNL A   1      46.294  29.066  30.310  1.00  0.00     0.049 A 
ATOM     53  H   UNL A   1      44.232  29.028  29.865  1.00  0.00     0.167 HD
ATOM     54  C   UNL A   1      45.894  26.776  29.452  1.00  0.00     0.074 A 
ATOM     55  C   UNL A   1      46.326  25.441  29.095  1.00  0.00     0.031 C 
ATOM     56  C   UNL A   1      46.713  27.736  29.948  1.00  0.00     0.037 A 
BRANCH  43  57
ATOM     57  C   UNL A   1      43.831  33.047  31.264  1.00  0.00     0.058 A 
ATOM     58  C   UNL A   1      43.726  33.327  32.635  1.00  0.00     0.135 A 
ATOM     59  C   UNL A   1      44.055  34.126  30.392  1.00  0.00     0.135 A 
ATOM     60  F   UNL A   1      43.492  32.336  33.510  1.00  0.00    -0.206 F 
ATOM     61  C   UNL A   1      43.808  34.629  33.121  1.00  0.00     0.059 A 
ATOM     62  C   UNL A   1      44.169  35.433  30.858  1.00  0.00     0.059 A 
ATOM     63  F   UNL A   1      44.165  33.916  29.071  1.00  0.00    -0.206 F 
ATOM     64  C   UNL A   1      44.026  35.676  32.224  1.00  0.00     0.060 A 
BRANCH  64  65
ATOM     65  S   UNL A   1      44.126  37.360  32.866  1.00  0.00     0.124 S 
ATOM     66  O   UNL A   1      45.449  37.358  33.481  1.00  0.00    -0.237 OA
ATOM     67  O   UNL A   1      43.992  38.166  31.656  1.00  0.00    -0.237 OA
ATOM     68  O   UNL A   1      43.002  37.439  33.793  1.00  0.00    -0.744 OA
ENDBRANCH  64  65
ENDBRANCH  43  57
BRANCH  44  69
ATOM     69  C   UNL A   1      42.711  23.806  27.662  1.00  0.00     0.058 A 
ATOM     70  C   UNL A   1      42.792  23.565  26.283  1.00  0.00     0.135 A 
ATOM     71  C   UNL A   1      42.480  22.708  28.505  1.00  0.00     0.135 A 
ATOM     72  F   UNL A   1      42.997  24.584  25.434  1.00  0.00    -0.206 F 
ATOM     73  C   UNL A   1      42.641  22.285  25.757  1.00  0.00     0.059 A 
ATOM     74  C   UNL A   1      42.353  21.416  28.006  1.00  0.00     0.059 A 
ATOM     75  F   UNL A   1      42.403  22.885  29.834  1.00  0.00    -0.206 F 
ATOM     76  C   UNL A   1      42.425  21.217  26.628  1.00  0.00     0.060 A 
BRANCH  76  77
ATOM     77  S   UNL A   1      42.285  19.550  25.946  1.00  0.00     0.124 S 
ATOM     78  O   UNL A   1      42.653  18.731  27.095  1.00  0.00    -0.237 OA
ATOM     79  O   UNL A   1      40.882  19.497  25.546  1.00  0.00    -0.237 OA
ATOM     80  O   UNL A   1      43.242  19.560  24.844  1.00  0.00    -0.744 OA
ENDBRANCH  76  77
ENDBRANCH  44  69
BRANCH  56  81
ATOM     81  C   UNL A   1      48.154  27.360  30.159  1.00  0.00     0.058 A 
ATOM     82  C   UNL A   1      48.600  26.794  31.364  1.00  0.00     0.135 A 
ATOM     83  C   UNL A   1      49.101  27.571  29.144  1.00  0.00     0.135 A 
ATOM     84  F   UNL A   1      47.735  26.574  32.367  1.00  0.00    -0.206 F 
ATOM     85  C   UNL A   1      49.942  26.491  31.572  1.00  0.00     0.059 A 
ATOM     86  C   UNL A   1      50.444  27.253  29.322  1.00  0.00     0.059 A 
ATOM     87  F   UNL A   1      48.726  28.097  27.967  1.00  0.00    -0.206 F 
ATOM     88  C   UNL A   1      50.858  26.734  30.548  1.00  0.00     0.060 A 
BRANCH  88  89
ATOM     89  S   UNL A   1      52.601  26.356  30.832  1.00  0.00     0.124 S 
ATOM     90  O   UNL A   1      52.513  25.091  31.554  1.00  0.00    -0.237 OA
ATOM     91  O   UNL A   1      53.133  26.277  29.475  1.00  0.00    -0.237 OA
ATOM     92  O   UNL A   1      53.071  27.496  31.614  1.00  0.00    -0.744 OA
ENDBRANCH  88  89
ENDBRANCH  56  81
ENDBRANCH  30  31
ENDBRANCH  23  25
ENDBRANCH  22  23
ENDBRANCH   1  22
TORSDOF 16
ENDMDL
