MODEL 1
REMARK VINA RESULT:     -11.0      0.000      0.000
REMARK SMILES COC(=O)[C@]1(C)C[C@H](C(=O)OCCOC(=O)c2ccc(-c3c4nc(c(-c5c(F)cc(S(=O)(=O)[O-])cc5F)c5ccc([nH]5)c(-c5c(F)cc(S(=O)(=O)[O-])cc5F)c5nc(c(-c6c(F)cc(S(=O)(=O)[O-])cc6F)c6ccc3[nH]6)C=C5)C=C4)cc2)[C@H](c2ccccc2F)[N@H+]1C
REMARK SMILES IDX 13 1 12 2 11 3 9 4 10 5 8 6 5 7 7 8 91 9 6 10 83 11 92 12
REMARK SMILES IDX 3 14 4 15 2 16 1 17 84 18 85 19 89 20 86 21 88 22 90 23
REMARK SMILES IDX 87 24 14 25 15 26 16 27 17 28 18 29 82 30 19 31 81 32 20 33
REMARK SMILES IDX 21 34 22 35 75 36 23 37 80 38 74 39 76 40 24 41 79 42 73 43
REMARK SMILES IDX 72 44 25 46 59 47 38 48 58 49 39 50 42 51 57 52 77 53 40 54
REMARK SMILES IDX 41 55 56 57 78 58 43 59 26 60 27 61 36 62 28 63 29 64 35 65
REMARK SMILES IDX 37 66 30 67 31 68 32 69 33 70 34 71 60 72 61 73 70 74 62 75
REMARK SMILES IDX 63 76 69 77 71 78 64 79 65 80 66 81 67 82 68 83 44 84 45 85
REMARK SMILES IDX 54 86 46 87 47 88 53 89 55 90 48 91 49 92 50 93 51 94 52 95
REMARK H PARENT 91 13 76 45 42 56
REMARK Flexibility Score: inf
ROOT
ATOM      1  C   UNL A   1      32.504  30.061  27.118  1.00  0.00     0.275 C 
ENDROOT
BRANCH   1   2
ATOM      2  C   UNL A   1      32.392  29.209  25.848  1.00  0.00     0.274 C 
BRANCH   2   3
ATOM      3  O   UNL A   1      33.285  28.081  25.872  1.00  0.00    -0.462 OA
BRANCH   3   4
ATOM      4  C   UNL A   1      32.703  26.867  26.011  1.00  0.00     0.315 C 
ATOM      5  O   UNL A   1      31.866  26.595  26.866  1.00  0.00    -0.252 OA
BRANCH   4   6
ATOM      6  C   UNL A   1      33.189  25.841  25.000  1.00  0.00     0.169 C 
ATOM      7  C   UNL A   1      32.513  23.549  25.506  1.00  0.00     0.194 C 
ATOM      8  C   UNL A   1      33.684  24.541  25.612  1.00  0.00     0.103 C 
ATOM      9  N   UNL A   1      31.614  24.160  24.497  1.00  0.00    -0.316 N 
ATOM     10  C   UNL A   1      33.081  22.156  25.188  1.00  0.00     0.092 C 
ATOM     11  C   UNL A   1      32.144  25.414  23.964  1.00  0.00     0.233 C 
ATOM     12  C   UNL A   1      30.875  23.304  23.592  1.00  0.00     0.334 C 
ATOM     13  H   UNL A   1      30.794  24.420  25.047  1.00  0.00     0.349 HD
BRANCH   7  14
ATOM     14  C   UNL A   1      31.768  23.418  26.865  1.00  0.00     0.367 C 
ATOM     15  O   UNL A   1      32.254  22.945  27.888  1.00  0.00    -0.245 OA
BRANCH  14  16
ATOM     16  O   UNL A   1      30.471  23.833  26.763  1.00  0.00    -0.464 OA
ATOM     17  C   UNL A   1      29.501  22.906  27.241  1.00  0.00     0.282 C 
ENDBRANCH  14  16
ENDBRANCH   7  14
BRANCH  11  18
ATOM     18  C   UNL A   1      31.164  26.538  23.658  1.00  0.00     0.046 A 
ATOM     19  C   UNL A   1      29.837  26.394  24.119  1.00  0.00     0.013 A 
ATOM     20  C   UNL A   1      31.439  27.638  22.836  1.00  0.00     0.132 A 
ATOM     21  C   UNL A   1      28.822  27.260  23.700  1.00  0.00     0.001 A 
ATOM     22  C   UNL A   1      30.434  28.525  22.445  1.00  0.00     0.040 A 
ATOM     23  F   UNL A   1      32.670  27.864  22.356  1.00  0.00    -0.206 F 
ATOM     24  C   UNL A   1      29.121  28.323  22.856  1.00  0.00     0.003 A 
ENDBRANCH  11  18
ENDBRANCH   4   6
ENDBRANCH   3   4
ENDBRANCH   2   3
ENDBRANCH   1   2
BRANCH   1  25
ATOM     25  O   UNL A   1      33.608  29.648  27.947  1.00  0.00    -0.458 OA
BRANCH  25  26
ATOM     26  C   UNL A   1      34.444  30.642  28.332  1.00  0.00     0.338 C 
ATOM     27  O   UNL A   1      34.132  31.761  28.701  1.00  0.00    -0.246 OA
BRANCH  26  28
ATOM     28  C   UNL A   1      35.828  30.141  28.416  1.00  0.00     0.060 A 
ATOM     29  C   UNL A   1      36.283  29.710  29.668  1.00  0.00     0.016 A 
ATOM     30  C   UNL A   1      36.684  30.143  27.316  1.00  0.00     0.016 A 
ATOM     31  C   UNL A   1      37.591  29.267  29.827  1.00  0.00     0.010 A 
ATOM     32  C   UNL A   1      38.006  29.720  27.479  1.00  0.00     0.010 A 
ATOM     33  C   UNL A   1      38.467  29.290  28.737  1.00  0.00    -0.014 A 
BRANCH  33  34
ATOM     34  C   UNL A   1      39.894  28.956  28.947  1.00  0.00     0.031 A 
ATOM     35  C   UNL A   1      40.813  30.005  29.504  1.00  0.00     0.074 A 
ATOM     36  C   UNL A   1      40.348  27.718  28.680  1.00  0.00     0.049 A 
ATOM     37  N   UNL A   1      42.104  29.952  29.701  1.00  0.00    -0.248 NA
ATOM     38  C   UNL A   1      40.193  31.281  29.894  1.00  0.00     0.031 C 
ATOM     39  C   UNL A   1      39.528  26.607  28.196  1.00  0.00     0.029 A 
ATOM     40  N   UNL A   1      41.610  27.191  28.773  1.00  0.00    -0.354 N 
ATOM     41  C   UNL A   1      42.455  31.191  30.223  1.00  0.00     0.074 A 
ATOM     42  C   UNL A   1      41.244  31.979  30.300  1.00  0.00     0.031 C 
ATOM     43  C   UNL A   1      40.314  25.529  28.024  1.00  0.00     0.029 A 
ATOM     44  C   UNL A   1      41.694  25.888  28.346  1.00  0.00     0.049 A 
ATOM     45  H   UNL A   1      42.382  27.698  29.114  1.00  0.00     0.167 HD
ATOM     46  C   UNL A   1      43.680  31.629  30.602  1.00  0.00     0.037 A 
ATOM     47  C   UNL A   1      42.768  25.086  28.206  1.00  0.00     0.037 A 
ATOM     48  C   UNL A   1      44.877  30.834  30.522  1.00  0.00     0.049 A 
ATOM     49  C   UNL A   1      44.130  25.618  28.571  1.00  0.00     0.074 A 
ATOM     50  C   UNL A   1      46.170  31.185  30.871  1.00  0.00     0.029 A 
ATOM     51  N   UNL A   1      44.930  29.528  30.056  1.00  0.00    -0.354 N 
ATOM     52  N   UNL A   1      44.453  26.796  29.047  1.00  0.00    -0.248 NA
ATOM     53  C   UNL A   1      45.271  24.713  28.377  1.00  0.00     0.031 C 
ATOM     54  C   UNL A   1      47.009  30.102  30.583  1.00  0.00     0.029 A 
ATOM     55  C   UNL A   1      46.233  29.062  30.094  1.00  0.00     0.049 A 
ATOM     56  H   UNL A   1      44.154  29.008  29.745  1.00  0.00     0.167 HD
ATOM     57  C   UNL A   1      45.832  26.769  29.230  1.00  0.00     0.074 A 
ATOM     58  C   UNL A   1      46.278  25.451  28.823  1.00  0.00     0.031 C 
ATOM     59  C   UNL A   1      46.654  27.743  29.690  1.00  0.00     0.037 A 
BRANCH  46  60
ATOM     60  C   UNL A   1      43.785  33.041  31.103  1.00  0.00     0.058 A 
ATOM     61  C   UNL A   1      44.015  34.119  30.234  1.00  0.00     0.135 A 
ATOM     62  C   UNL A   1      43.638  33.322  32.471  1.00  0.00     0.135 A 
ATOM     63  F   UNL A   1      44.183  33.904  28.919  1.00  0.00    -0.206 F 
ATOM     64  C   UNL A   1      44.123  35.423  30.706  1.00  0.00     0.059 A 
ATOM     65  C   UNL A   1      43.718  34.621  32.962  1.00  0.00     0.059 A 
ATOM     66  F   UNL A   1      43.421  32.328  33.345  1.00  0.00    -0.206 F 
ATOM     67  C   UNL A   1      43.977  35.664  32.073  1.00  0.00     0.060 A 
BRANCH  67  68
ATOM     68  S   UNL A   1      44.123  37.360  32.675  1.00  0.00     0.124 S 
ATOM     69  O   UNL A   1      43.882  38.123  31.454  1.00  0.00    -0.237 OA
ATOM     70  O   UNL A   1      43.068  37.428  33.682  1.00  0.00    -0.237 OA
ATOM     71  O   UNL A   1      45.485  37.421  33.194  1.00  0.00    -0.744 OA
ENDBRANCH  67  68
ENDBRANCH  46  60
BRANCH  47  72
ATOM     72  C   UNL A   1      42.603  23.709  27.671  1.00  0.00     0.058 A 
ATOM     73  C   UNL A   1      42.603  23.461  26.291  1.00  0.00     0.135 A 
ATOM     74  C   UNL A   1      42.449  22.611  28.532  1.00  0.00     0.135 A 
ATOM     75  F   UNL A   1      42.736  24.480  25.427  1.00  0.00    -0.206 F 
ATOM     76  C   UNL A   1      42.444  22.176  25.781  1.00  0.00     0.059 A 
ATOM     77  C   UNL A   1      42.313  21.314  28.047  1.00  0.00     0.059 A 
ATOM     78  F   UNL A   1      42.450  22.793  29.862  1.00  0.00    -0.206 F 
ATOM     79  C   UNL A   1      42.303  21.108  26.669  1.00  0.00     0.060 A 
BRANCH  79  80
ATOM     80  S   UNL A   1      42.152  19.436  26.001  1.00  0.00     0.124 S 
ATOM     81  O   UNL A   1      43.043  19.499  24.848  1.00  0.00    -0.237 OA
ATOM     82  O   UNL A   1      42.610  18.616  27.119  1.00  0.00    -0.237 OA
ATOM     83  O   UNL A   1      40.729  19.325  25.695  1.00  0.00    -0.744 OA
ENDBRANCH  79  80
ENDBRANCH  47  72
BRANCH  59  84
ATOM     84  C   UNL A   1      48.115  27.412  29.813  1.00  0.00     0.058 A 
ATOM     85  C   UNL A   1      49.028  27.718  28.791  1.00  0.00     0.135 A 
ATOM     86  C   UNL A   1      48.614  26.827  30.988  1.00  0.00     0.135 A 
ATOM     87  F   UNL A   1      48.599  28.271  27.646  1.00  0.00    -0.206 F 
ATOM     88  C   UNL A   1      50.384  27.436  28.922  1.00  0.00     0.059 A 
ATOM     89  C   UNL A   1      49.969  26.559  31.150  1.00  0.00     0.059 A 
ATOM     90  F   UNL A   1      47.783  26.525  31.998  1.00  0.00    -0.206 F 
ATOM     91  C   UNL A   1      50.845  26.857  30.106  1.00  0.00     0.060 A 
BRANCH  91  92
ATOM     92  S   UNL A   1      52.611  26.524  30.279  1.00  0.00     0.124 S 
ATOM     93  O   UNL A   1      52.611  25.435  31.250  1.00  0.00    -0.237 OA
ATOM     94  O   UNL A   1      52.998  26.162  28.919  1.00  0.00    -0.237 OA
ATOM     95  O   UNL A   1      53.150  27.794  30.759  1.00  0.00    -0.744 OA
ENDBRANCH  91  92
ENDBRANCH  59  84
ENDBRANCH  33  34
ENDBRANCH  26  28
ENDBRANCH  25  26
ENDBRANCH   1  25
TORSDOF 17
ENDMDL
MODEL 2
REMARK VINA RESULT:     -10.9      2.295      3.021
REMARK SMILES COC(=O)[C@]1(C)C[C@H](C(=O)OCCOC(=O)c2ccc(-c3c4nc(c(-c5c(F)cc(S(=O)(=O)[O-])cc5F)c5ccc([nH]5)c(-c5c(F)cc(S(=O)(=O)[O-])cc5F)c5nc(c(-c6c(F)cc(S(=O)(=O)[O-])cc6F)c6ccc3[nH]6)C=C5)C=C4)cc2)[C@H](c2ccccc2F)[N@H+]1C
REMARK SMILES IDX 13 1 12 2 11 3 9 4 10 5 8 6 5 7 7 8 91 9 6 10 83 11 92 12
REMARK SMILES IDX 3 14 4 15 2 16 1 17 84 18 85 19 89 20 86 21 88 22 90 23
REMARK SMILES IDX 87 24 14 25 15 26 16 27 17 28 18 29 82 30 19 31 81 32 20 33
REMARK SMILES IDX 21 34 22 35 75 36 23 37 80 38 74 39 76 40 24 41 79 42 73 43
REMARK SMILES IDX 72 44 25 46 59 47 38 48 58 49 39 50 42 51 57 52 77 53 40 54
REMARK SMILES IDX 41 55 56 57 78 58 43 59 26 60 27 61 36 62 28 63 29 64 35 65
REMARK SMILES IDX 37 66 30 67 31 68 32 69 33 70 34 71 60 72 61 73 70 74 62 75
REMARK SMILES IDX 63 76 69 77 71 78 64 79 65 80 66 81 67 82 68 83 44 84 45 85
REMARK SMILES IDX 54 86 46 87 47 88 53 89 55 90 48 91 49 92 50 93 51 94 52 95
REMARK H PARENT 91 13 76 45 42 56
REMARK Flexibility Score: inf
ROOT
ATOM      1  C   UNL A   1      34.385  30.086  27.492  1.00  0.00     0.275 C 
ENDROOT
BRANCH   1   2
ATOM      2  C   UNL A   1      33.434  29.150  26.737  1.00  0.00     0.274 C 
BRANCH   2   3
ATOM      3  O   UNL A   1      34.021  27.857  26.501  1.00  0.00    -0.462 OA
BRANCH   3   4
ATOM      4  C   UNL A   1      33.151  26.841  26.290  1.00  0.00     0.315 C 
ATOM      5  O   UNL A   1      32.061  26.738  26.842  1.00  0.00    -0.252 OA
BRANCH   4   6
ATOM      6  C   UNL A   1      33.653  25.810  25.292  1.00  0.00     0.169 C 
ATOM      7  C   UNL A   1      32.806  23.553  25.683  1.00  0.00     0.194 C 
ATOM      8  C   UNL A   1      34.021  24.470  25.905  1.00  0.00     0.103 C 
ATOM      9  N   UNL A   1      32.026  24.240  24.624  1.00  0.00    -0.316 N 
ATOM     10  C   UNL A   1      33.314  22.136  25.372  1.00  0.00     0.092 C 
ATOM     11  C   UNL A   1      32.670  25.471  24.168  1.00  0.00     0.233 C 
ATOM     12  C   UNL A   1      31.311  23.451  23.643  1.00  0.00     0.334 C 
ATOM     13  H   UNL A   1      31.183  24.537  25.116  1.00  0.00     0.349 HD
BRANCH   7  14
ATOM     14  C   UNL A   1      31.950  23.438  26.976  1.00  0.00     0.367 C 
ATOM     15  O   UNL A   1      32.330  22.923  28.024  1.00  0.00    -0.245 OA
BRANCH  14  16
ATOM     16  O   UNL A   1      30.688  23.921  26.783  1.00  0.00    -0.464 OA
ATOM     17  C   UNL A   1      29.640  22.988  27.025  1.00  0.00     0.282 C 
ENDBRANCH  14  16
ENDBRANCH   7  14
BRANCH  11  18
ATOM     18  C   UNL A   1      31.784  26.659  23.818  1.00  0.00     0.046 A 
ATOM     19  C   UNL A   1      30.389  26.506  23.975  1.00  0.00     0.013 A 
ATOM     20  C   UNL A   1      32.234  27.843  23.220  1.00  0.00     0.132 A 
ATOM     21  C   UNL A   1      29.491  27.454  23.475  1.00  0.00     0.001 A 
ATOM     22  C   UNL A   1      31.340  28.808  22.751  1.00  0.00     0.040 A 
ATOM     23  F   UNL A   1      33.539  28.083  23.035  1.00  0.00    -0.206 F 
ATOM     24  C   UNL A   1      29.968  28.603  22.855  1.00  0.00     0.003 A 
ENDBRANCH  11  18
ENDBRANCH   4   6
ENDBRANCH   3   4
ENDBRANCH   2   3
ENDBRANCH   1   2
BRANCH   1  25
ATOM     25  O   UNL A   1      35.491  29.371  28.078  1.00  0.00    -0.458 OA
BRANCH  25  26
ATOM     26  C   UNL A   1      36.185  30.054  29.021  1.00  0.00     0.338 C 
ATOM     27  O   UNL A   1      35.725  30.690  29.953  1.00  0.00    -0.246 OA
BRANCH  26  28
ATOM     28  C   UNL A   1      37.629  29.791  28.881  1.00  0.00     0.060 A 
ATOM     29  C   UNL A   1      38.156  29.749  27.585  1.00  0.00     0.016 A 
ATOM     30  C   UNL A   1      38.444  29.535  29.983  1.00  0.00     0.016 A 
ATOM     31  C   UNL A   1      39.500  29.463  27.381  1.00  0.00     0.010 A 
ATOM     32  C   UNL A   1      39.791  29.223  29.778  1.00  0.00     0.010 A 
ATOM     33  C   UNL A   1      40.321  29.177  28.476  1.00  0.00    -0.014 A 
BRANCH  33  34
ATOM     34  C   UNL A   1      41.713  28.731  28.241  1.00  0.00     0.031 A 
ATOM     35  C   UNL A   1      42.823  29.741  28.303  1.00  0.00     0.074 A 
ATOM     36  C   UNL A   1      41.981  27.432  28.015  1.00  0.00     0.049 A 
ATOM     37  N   UNL A   1      44.098  29.586  28.061  1.00  0.00    -0.248 NA
ATOM     38  C   UNL A   1      42.444  31.109  28.692  1.00  0.00     0.031 C 
ATOM     39  C   UNL A   1      40.987  26.358  27.997  1.00  0.00     0.029 A 
ATOM     40  N   UNL A   1      43.168  26.798  27.754  1.00  0.00    -0.354 N 
ATOM     41  C   UNL A   1      44.672  30.835  28.253  1.00  0.00     0.074 A 
ATOM     42  C   UNL A   1      43.605  31.742  28.619  1.00  0.00     0.031 C 
ATOM     43  C   UNL A   1      41.607  25.196  27.726  1.00  0.00     0.029 A 
ATOM     44  C   UNL A   1      43.030  25.452  27.513  1.00  0.00     0.049 A 
ATOM     45  H   UNL A   1      44.036  27.262  27.739  1.00  0.00     0.167 HD
ATOM     46  C   UNL A   1      45.973  31.192  28.134  1.00  0.00     0.037 A 
ATOM     47  C   UNL A   1      43.946  24.538  27.135  1.00  0.00     0.037 A 
ATOM     48  C   UNL A   1      47.026  30.279  27.770  1.00  0.00     0.049 A 
ATOM     49  C   UNL A   1      45.376  24.972  26.943  1.00  0.00     0.074 A 
ATOM     50  C   UNL A   1      48.376  30.540  27.612  1.00  0.00     0.029 A 
ATOM     51  N   UNL A   1      46.845  28.929  27.504  1.00  0.00    -0.354 N 
ATOM     52  N   UNL A   1      45.906  26.160  27.111  1.00  0.00    -0.248 NA
ATOM     53  C   UNL A   1      46.330  23.943  26.508  1.00  0.00     0.031 C 
ATOM     54  C   UNL A   1      49.006  29.353  27.215  1.00  0.00     0.029 A 
ATOM     55  C   UNL A   1      48.055  28.345  27.167  1.00  0.00     0.049 A 
ATOM     56  H   UNL A   1      45.983  28.456  27.548  1.00  0.00     0.167 HD
ATOM     57  C   UNL A   1      47.259  26.019  26.822  1.00  0.00     0.074 A 
ATOM     58  C   UNL A   1      47.467  24.626  26.480  1.00  0.00     0.031 C 
ATOM     59  C   UNL A   1      48.240  26.954  26.837  1.00  0.00     0.037 A 
BRANCH  46  60
ATOM     60  C   UNL A   1      46.320  32.636  28.364  1.00  0.00     0.058 A 
ATOM     61  C   UNL A   1      46.695  33.113  29.630  1.00  0.00     0.135 A 
ATOM     62  C   UNL A   1      46.290  33.551  27.300  1.00  0.00     0.135 A 
ATOM     63  F   UNL A   1      46.720  32.285  30.686  1.00  0.00    -0.206 F 
ATOM     64  C   UNL A   1      47.002  34.454  29.838  1.00  0.00     0.059 A 
ATOM     65  C   UNL A   1      46.617  34.891  27.480  1.00  0.00     0.059 A 
ATOM     66  F   UNL A   1      45.934  33.147  26.071  1.00  0.00    -0.206 F 
ATOM     67  C   UNL A   1      46.957  35.337  28.757  1.00  0.00     0.060 A 
BRANCH  67  68
ATOM     68  S   UNL A   1      47.355  37.075  29.041  1.00  0.00     0.124 S 
ATOM     69  O   UNL A   1      48.743  36.986  29.484  1.00  0.00    -0.237 OA
ATOM     70  O   UNL A   1      47.148  37.664  27.721  1.00  0.00    -0.237 OA
ATOM     71  O   UNL A   1      46.395  37.482  30.062  1.00  0.00    -0.744 OA
ENDBRANCH  67  68
ENDBRANCH  46  60
BRANCH  47  72
ATOM     72  C   UNL A   1      43.534  23.132  26.887  1.00  0.00     0.058 A 
ATOM     73  C   UNL A   1      43.487  22.606  25.588  1.00  0.00     0.135 A 
ATOM     74  C   UNL A   1      43.183  22.282  27.948  1.00  0.00     0.135 A 
ATOM     75  F   UNL A   1      43.802  23.383  24.539  1.00  0.00    -0.206 F 
ATOM     76  C   UNL A   1      43.098  21.292  25.347  1.00  0.00     0.059 A 
ATOM     77  C   UNL A   1      42.814  20.958  27.734  1.00  0.00     0.059 A 
ATOM     78  F   UNL A   1      43.219  22.733  29.212  1.00  0.00    -0.206 F 
ATOM     79  C   UNL A   1      42.766  20.474  26.428  1.00  0.00     0.060 A 
BRANCH  79  80
ATOM     80  S   UNL A   1      42.314  18.754  26.111  1.00  0.00     0.124 S 
ATOM     81  O   UNL A   1      42.539  18.146  27.417  1.00  0.00    -0.237 OA
ATOM     82  O   UNL A   1      40.920  18.874  25.693  1.00  0.00    -0.237 OA
ATOM     83  O   UNL A   1      43.242  18.354  25.058  1.00  0.00    -0.744 OA
ENDBRANCH  79  80
ENDBRANCH  47  72
BRANCH  59  84
ATOM     84  C   UNL A   1      49.633  26.497  26.508  1.00  0.00     0.058 A 
ATOM     85  C   UNL A   1      50.156  26.604  25.210  1.00  0.00     0.135 A 
ATOM     86  C   UNL A   1      50.472  25.994  27.516  1.00  0.00     0.135 A 
ATOM     87  F   UNL A   1      49.393  27.073  24.211  1.00  0.00    -0.206 F 
ATOM     88  C   UNL A   1      51.458  26.208  24.918  1.00  0.00     0.059 A 
ATOM     89  C   UNL A   1      51.783  25.613  27.251  1.00  0.00     0.059 A 
ATOM     90  F   UNL A   1      50.022  25.881  28.776  1.00  0.00    -0.206 F 
ATOM     91  C   UNL A   1      52.264  25.713  25.946  1.00  0.00     0.060 A 
BRANCH  91  92
ATOM     92  S   UNL A   1      53.961  25.231  25.562  1.00  0.00     0.124 S 
ATOM     93  O   UNL A   1      54.552  25.156  26.894  1.00  0.00    -0.237 OA
ATOM     94  O   UNL A   1      53.778  23.956  24.876  1.00  0.00    -0.237 OA
ATOM     95  O   UNL A   1      54.442  26.324  24.722  1.00  0.00    -0.744 OA
ENDBRANCH  91  92
ENDBRANCH  59  84
ENDBRANCH  33  34
ENDBRANCH  26  28
ENDBRANCH  25  26
ENDBRANCH   1  25
TORSDOF 17
ENDMDL
MODEL 3
REMARK VINA RESULT:     -10.9      5.009     10.326
REMARK SMILES COC(=O)[C@]1(C)C[C@H](C(=O)OCCOC(=O)c2ccc(-c3c4nc(c(-c5c(F)cc(S(=O)(=O)[O-])cc5F)c5ccc([nH]5)c(-c5c(F)cc(S(=O)(=O)[O-])cc5F)c5nc(c(-c6c(F)cc(S(=O)(=O)[O-])cc6F)c6ccc3[nH]6)C=C5)C=C4)cc2)[C@H](c2ccccc2F)[N@H+]1C
REMARK SMILES IDX 13 1 12 2 11 3 9 4 10 5 8 6 5 7 7 8 91 9 6 10 83 11 92 12
REMARK SMILES IDX 3 14 4 15 2 16 1 17 84 18 85 19 89 20 86 21 88 22 90 23
REMARK SMILES IDX 87 24 14 25 15 26 16 27 17 28 18 29 82 30 19 31 81 32 20 33
REMARK SMILES IDX 21 34 22 35 75 36 23 37 80 38 74 39 76 40 24 41 79 42 73 43
REMARK SMILES IDX 72 44 25 46 59 47 38 48 58 49 39 50 42 51 57 52 77 53 40 54
REMARK SMILES IDX 41 55 56 57 78 58 43 59 26 60 27 61 36 62 28 63 29 64 35 65
REMARK SMILES IDX 37 66 30 67 31 68 32 69 33 70 34 71 60 72 61 73 70 74 62 75
REMARK SMILES IDX 63 76 69 77 71 78 64 79 65 80 66 81 67 82 68 83 44 84 45 85
REMARK SMILES IDX 54 86 46 87 47 88 53 89 55 90 48 91 49 92 50 93 51 94 52 95
REMARK H PARENT 91 13 76 45 42 56
REMARK Flexibility Score: inf
ROOT
ATOM      1  C   UNL A   1      38.391  23.199  26.128  1.00  0.00     0.275 C 
ENDROOT
BRANCH   1   2
ATOM      2  C   UNL A   1      37.136  23.139  25.249  1.00  0.00     0.274 C 
BRANCH   2   3
ATOM      3  O   UNL A   1      36.177  24.152  25.603  1.00  0.00    -0.462 OA
BRANCH   3   4
ATOM      4  C   UNL A   1      34.875  23.795  25.510  1.00  0.00     0.315 C 
ATOM      5  O   UNL A   1      34.179  23.462  26.463  1.00  0.00    -0.252 OA
BRANCH   4   6
ATOM      6  C   UNL A   1      34.336  23.835  24.089  1.00  0.00     0.169 C 
ATOM      7  C   UNL A   1      32.601  22.175  23.637  1.00  0.00     0.194 C 
ATOM      8  C   UNL A   1      34.102  22.468  23.468  1.00  0.00     0.103 C 
ATOM      9  N   UNL A   1      32.007  23.503  23.931  1.00  0.00    -0.316 N 
ATOM     10  C   UNL A   1      32.101  21.445  22.381  1.00  0.00     0.092 C 
ATOM     11  C   UNL A   1      33.003  24.573  23.927  1.00  0.00     0.233 C 
ATOM     12  C   UNL A   1      30.684  23.815  23.432  1.00  0.00     0.334 C 
ATOM     13  H   UNL A   1      31.706  23.410  24.901  1.00  0.00     0.349 HD
BRANCH   7  14
ATOM     14  C   UNL A   1      32.353  21.212  24.832  1.00  0.00     0.367 C 
ATOM     15  O   UNL A   1      31.416  21.299  25.619  1.00  0.00    -0.245 OA
BRANCH  14  16
ATOM     16  O   UNL A   1      33.353  20.289  24.944  1.00  0.00    -0.464 OA
ATOM     17  C   UNL A   1      32.927  18.972  25.278  1.00  0.00     0.282 C 
ENDBRANCH  14  16
ENDBRANCH   7  14
BRANCH  11  18
ATOM     18  C   UNL A   1      32.856  25.697  24.944  1.00  0.00     0.046 A 
ATOM     19  C   UNL A   1      31.890  25.538  25.961  1.00  0.00     0.013 A 
ATOM     20  C   UNL A   1      33.506  26.935  24.867  1.00  0.00     0.132 A 
ATOM     21  C   UNL A   1      31.532  26.599  26.798  1.00  0.00     0.001 A 
ATOM     22  C   UNL A   1      33.175  27.986  25.724  1.00  0.00     0.040 A 
ATOM     23  F   UNL A   1      34.443  27.179  23.940  1.00  0.00    -0.206 F 
ATOM     24  C   UNL A   1      32.171  27.827  26.674  1.00  0.00     0.003 A 
ENDBRANCH  11  18
ENDBRANCH   4   6
ENDBRANCH   3   4
ENDBRANCH   2   3
ENDBRANCH   1   2
BRANCH   1  25
ATOM     25  O   UNL A   1      38.865  24.549  26.296  1.00  0.00    -0.458 OA
BRANCH  25  26
ATOM     26  C   UNL A   1      40.162  24.662  26.675  1.00  0.00     0.338 C 
ATOM     27  O   UNL A   1      41.131  24.164  26.129  1.00  0.00    -0.246 OA
BRANCH  26  28
ATOM     28  C   UNL A   1      40.290  25.636  27.774  1.00  0.00     0.060 A 
ATOM     29  C   UNL A   1      39.280  25.652  28.744  1.00  0.00     0.016 A 
ATOM     30  C   UNL A   1      41.338  26.553  27.832  1.00  0.00     0.016 A 
ATOM     31  C   UNL A   1      39.316  26.574  29.783  1.00  0.00     0.010 A 
ATOM     32  C   UNL A   1      41.364  27.497  28.862  1.00  0.00     0.010 A 
ATOM     33  C   UNL A   1      40.348  27.517  29.836  1.00  0.00    -0.014 A 
BRANCH  33  34
ATOM     34  C   UNL A   1      40.300  28.586  30.859  1.00  0.00     0.031 A 
ATOM     35  C   UNL A   1      41.242  28.520  32.026  1.00  0.00     0.074 A 
ATOM     36  C   UNL A   1      39.452  29.621  30.720  1.00  0.00     0.049 A 
ATOM     37  N   UNL A   1      41.324  29.305  33.069  1.00  0.00    -0.248 NA
ATOM     38  C   UNL A   1      42.225  27.424  32.015  1.00  0.00     0.031 C 
ATOM     39  C   UNL A   1      38.539  29.816  29.594  1.00  0.00     0.029 A 
ATOM     40  N   UNL A   1      39.218  30.698  31.535  1.00  0.00    -0.354 N 
ATOM     41  C   UNL A   1      42.355  28.792  33.845  1.00  0.00     0.074 A 
ATOM     42  C   UNL A   1      42.860  27.621  33.162  1.00  0.00     0.031 C 
ATOM     43  C   UNL A   1      37.833  30.943  29.796  1.00  0.00     0.029 A 
ATOM     44  C   UNL A   1      38.217  31.523  31.082  1.00  0.00     0.049 A 
ATOM     45  H   UNL A   1      39.719  30.865  32.366  1.00  0.00     0.167 HD
ATOM     46  C   UNL A   1      42.834  29.257  35.023  1.00  0.00     0.037 A 
ATOM     47  C   UNL A   1      37.656  32.607  31.655  1.00  0.00     0.037 A 
ATOM     48  C   UNL A   1      42.323  30.425  35.693  1.00  0.00     0.049 A 
ATOM     49  C   UNL A   1      38.161  33.067  32.997  1.00  0.00     0.074 A 
ATOM     50  C   UNL A   1      42.731  30.977  36.895  1.00  0.00     0.029 A 
ATOM     51  N   UNL A   1      41.289  31.219  35.219  1.00  0.00    -0.354 N 
ATOM     52  N   UNL A   1      39.125  32.564  33.732  1.00  0.00    -0.248 NA
ATOM     53  C   UNL A   1      37.500  34.238  33.590  1.00  0.00     0.031 C 
ATOM     54  C   UNL A   1      41.919  32.085  37.164  1.00  0.00     0.029 A 
ATOM     55  C   UNL A   1      41.033  32.248  36.110  1.00  0.00     0.049 A 
ATOM     56  H   UNL A   1      40.807  31.073  34.372  1.00  0.00     0.167 HD
ATOM     57  C   UNL A   1      39.201  33.369  34.864  1.00  0.00     0.074 A 
ATOM     58  C   UNL A   1      38.192  34.398  34.710  1.00  0.00     0.031 C 
ATOM     59  C   UNL A   1      40.028  33.266  35.933  1.00  0.00     0.037 A 
BRANCH  46  60
ATOM     60  C   UNL A   1      43.942  28.480  35.675  1.00  0.00     0.058 A 
ATOM     61  C   UNL A   1      43.683  27.448  36.591  1.00  0.00     0.135 A 
ATOM     62  C   UNL A   1      45.283  28.762  35.368  1.00  0.00     0.135 A 
ATOM     63  F   UNL A   1      42.419  27.152  36.936  1.00  0.00    -0.206 F 
ATOM     64  C   UNL A   1      44.714  26.741  37.200  1.00  0.00     0.059 A 
ATOM     65  C   UNL A   1      46.330  28.051  35.947  1.00  0.00     0.059 A 
ATOM     66  F   UNL A   1      45.586  29.741  34.502  1.00  0.00    -0.206 F 
ATOM     67  C   UNL A   1      46.036  27.052  36.874  1.00  0.00     0.060 A 
BRANCH  67  68
ATOM     68  S   UNL A   1      47.366  26.129  37.674  1.00  0.00     0.124 S 
ATOM     69  O   UNL A   1      47.188  24.802  37.093  1.00  0.00    -0.237 OA
ATOM     70  O   UNL A   1      48.556  26.856  37.241  1.00  0.00    -0.237 OA
ATOM     71  O   UNL A   1      47.050  26.240  39.094  1.00  0.00    -0.744 OA
ENDBRANCH  67  68
ENDBRANCH  46  60
BRANCH  47  72
ATOM     72  C   UNL A   1      36.538  33.312  30.975  1.00  0.00     0.058 A 
ATOM     73  C   UNL A   1      35.218  33.191  31.432  1.00  0.00     0.135 A 
ATOM     74  C   UNL A   1      36.769  34.128  29.856  1.00  0.00     0.135 A 
ATOM     75  F   UNL A   1      34.944  32.412  32.491  1.00  0.00    -0.206 F 
ATOM     76  C   UNL A   1      34.165  33.843  30.798  1.00  0.00     0.059 A 
ATOM     77  C   UNL A   1      35.737  34.810  29.221  1.00  0.00     0.059 A 
ATOM     78  F   UNL A   1      38.016  34.285  29.384  1.00  0.00    -0.206 F 
ATOM     79  C   UNL A   1      34.435  34.654  29.695  1.00  0.00     0.060 A 
BRANCH  79  80
ATOM     80  S   UNL A   1      33.070  35.541  28.912  1.00  0.00     0.124 S 
ATOM     81  O   UNL A   1      32.287  35.955  30.070  1.00  0.00    -0.237 OA
ATOM     82  O   UNL A   1      33.766  36.607  28.196  1.00  0.00    -0.237 OA
ATOM     83  O   UNL A   1      32.456  34.526  28.062  1.00  0.00    -0.744 OA
ENDBRANCH  79  80
ENDBRANCH  47  72
BRANCH  59  84
ATOM     84  C   UNL A   1      39.903  34.313  37.004  1.00  0.00     0.058 A 
ATOM     85  C   UNL A   1      40.546  35.556  36.899  1.00  0.00     0.135 A 
ATOM     86  C   UNL A   1      39.088  34.087  38.126  1.00  0.00     0.135 A 
ATOM     87  F   UNL A   1      41.341  35.818  35.850  1.00  0.00    -0.206 F 
ATOM     88  C   UNL A   1      40.402  36.533  37.879  1.00  0.00     0.059 A 
ATOM     89  C   UNL A   1      38.911  35.057  39.106  1.00  0.00     0.059 A 
ATOM     90  F   UNL A   1      38.443  32.917  38.268  1.00  0.00    -0.206 F 
ATOM     91  C   UNL A   1      39.581  36.273  38.980  1.00  0.00     0.060 A 
BRANCH  91  92
ATOM     92  S   UNL A   1      39.376  37.559  40.230  1.00  0.00     0.124 S 
ATOM     93  O   UNL A   1      38.441  38.464  39.570  1.00  0.00    -0.237 OA
ATOM     94  O   UNL A   1      38.840  36.812  41.365  1.00  0.00    -0.237 OA
ATOM     95  O   UNL A   1      40.729  38.076  40.411  1.00  0.00    -0.744 OA
ENDBRANCH  91  92
ENDBRANCH  59  84
ENDBRANCH  33  34
ENDBRANCH  26  28
ENDBRANCH  25  26
ENDBRANCH   1  25
TORSDOF 17
ENDMDL
