MODEL 1
REMARK VINA RESULT:     -13.0      0.000      0.000
REMARK SMILES CC(C)c1cc(C#N)cc2nc(-c3ccc(C(=O)OCCOC(=O)c4ccc(-c5c6nc(c(-c7c(F)cc(S(=O)(=O)[O-])cc7F)c7ccc([nH]7)c(-c7c(F)cc(S(=O)(=O)[O-])cc7F)c7nc(c(-c8c(F)cc(S(=O)(=O)[O-])cc8F)c8ccc5[nH]8)C=C7)C=C6)cc4)cc3)oc12
REMARK SMILES IDX 21 1 20 2 19 3 17 4 18 5 16 6 13 7 14 8 92 9 15 10 91 11
REMARK SMILES IDX 12 12 4 13 5 14 94 15 6 16 10 17 93 18 9 19 11 20 2 21 1 22
REMARK SMILES IDX 3 23 7 24 8 25 22 26 23 27 24 28 25 29 26 30 90 31 27 32
REMARK SMILES IDX 89 33 28 34 29 35 30 36 83 37 31 38 88 39 82 40 84 41 32 42
REMARK SMILES IDX 87 43 81 44 80 45 33 47 67 48 46 49 66 50 47 51 50 52 65 53
REMARK SMILES IDX 85 54 48 55 49 56 64 58 86 59 51 60 34 61 35 62 44 63 36 64
REMARK SMILES IDX 37 65 43 66 45 67 38 68 39 69 40 70 41 71 42 72 68 73 69 74
REMARK SMILES IDX 78 75 70 76 71 77 77 78 79 79 72 80 73 81 74 82 75 83 76 84
REMARK SMILES IDX 52 85 53 86 62 87 54 88 55 89 61 90 63 91 56 92 57 93 58 94
REMARK SMILES IDX 59 95 60 96
REMARK H PARENT 84 46 50 57
REMARK Flexibility Score: inf
ROOT
ATOM      1  C   UNL A   1      40.416  21.412  26.967  1.00  0.00     0.275 C 
ENDROOT
BRANCH   1   2
ATOM      2  C   UNL A   1      39.316  20.848  26.057  1.00  0.00     0.275 C 
BRANCH   2   3
ATOM      3  O   UNL A   1      38.579  21.899  25.377  1.00  0.00    -0.458 OA
BRANCH   3   4
ATOM      4  C   UNL A   1      37.313  21.563  25.017  1.00  0.00     0.338 C 
ATOM      5  O   UNL A   1      36.926  20.411  24.927  1.00  0.00    -0.246 OA
BRANCH   4   6
ATOM      6  C   UNL A   1      36.410  22.754  24.909  1.00  0.00     0.060 A 
ATOM      7  C   UNL A   1      34.436  24.733  24.430  1.00  0.00     0.037 A 
ATOM      8  C   UNL A   1      34.937  23.998  23.378  1.00  0.00     0.014 A 
ATOM      9  C   UNL A   1      34.986  24.530  25.711  1.00  0.00     0.014 A 
ATOM     10  C   UNL A   1      35.969  23.109  23.638  1.00  0.00     0.016 A 
ATOM     11  C   UNL A   1      35.938  23.515  25.961  1.00  0.00     0.016 A 
BRANCH   7  12
ATOM     12  C   UNL A   1      33.546  25.833  24.129  1.00  0.00     0.227 A 
ATOM     13  C   UNL A   1      31.647  28.667  25.117  1.00  0.00     0.001 A 
ATOM     14  C   UNL A   1      30.718  29.268  24.219  1.00  0.00     0.027 A 
ATOM     15  C   UNL A   1      32.290  27.546  24.566  1.00  0.00     0.158 A 
ATOM     16  C   UNL A   1      30.484  28.801  22.912  1.00  0.00     0.055 A 
ATOM     17  C   UNL A   1      32.077  27.069  23.275  1.00  0.00     0.111 A 
ATOM     18  O   UNL A   1      33.229  26.714  25.137  1.00  0.00    -0.436 OA
ATOM     19  C   UNL A   1      31.147  27.677  22.432  1.00  0.00     0.052 A 
ATOM     20  N   UNL A   1      32.898  26.017  23.005  1.00  0.00    -0.209 NA
BRANCH  13  21
ATOM     21  C   UNL A   1      31.840  29.278  26.501  1.00  0.00     0.017 C 
ATOM     22  C   UNL A   1      31.626  28.321  27.676  1.00  0.00     0.012 C 
ATOM     23  C   UNL A   1      33.234  29.915  26.648  1.00  0.00     0.012 C 
ENDBRANCH  13  21
BRANCH  16  24
ATOM     24  C   UNL A   1      29.610  29.540  22.036  1.00  0.00     0.099 C 
ATOM     25  N   UNL A   1      28.861  30.064  21.337  1.00  0.00    -0.192 NA
ENDBRANCH  16  24
ENDBRANCH   7  12
ENDBRANCH   4   6
ENDBRANCH   3   4
ENDBRANCH   2   3
ENDBRANCH   1   2
BRANCH   1  26
ATOM     26  O   UNL A   1      40.692  22.777  26.623  1.00  0.00    -0.458 OA
BRANCH  26  27
ATOM     27  C   UNL A   1      41.905  23.002  26.070  1.00  0.00     0.338 C 
ATOM     28  O   UNL A   1      42.517  22.271  25.309  1.00  0.00    -0.246 OA
BRANCH  27  29
ATOM     29  C   UNL A   1      42.138  24.446  26.209  1.00  0.00     0.060 A 
ATOM     30  C   UNL A   1      43.304  25.042  26.714  1.00  0.00     0.016 A 
ATOM     31  C   UNL A   1      41.021  25.220  26.038  1.00  0.00     0.016 A 
ATOM     32  C   UNL A   1      43.194  26.241  27.452  1.00  0.00     0.010 A 
ATOM     33  C   UNL A   1      41.097  26.500  26.527  1.00  0.00     0.010 A 
ATOM     34  C   UNL A   1      41.945  26.825  27.596  1.00  0.00    -0.014 A 
BRANCH  34  35
ATOM     35  C   UNL A   1      41.571  28.031  28.441  1.00  0.00     0.031 A 
ATOM     36  C   UNL A   1      42.611  29.066  28.170  1.00  0.00     0.074 A 
ATOM     37  C   UNL A   1      40.439  28.339  29.187  1.00  0.00     0.049 A 
ATOM     38  N   UNL A   1      43.709  29.187  28.847  1.00  0.00    -0.248 NA
ATOM     39  C   UNL A   1      42.679  29.744  26.852  1.00  0.00     0.031 C 
ATOM     40  C   UNL A   1      39.197  27.587  29.478  1.00  0.00     0.029 A 
ATOM     41  N   UNL A   1      40.121  29.531  29.851  1.00  0.00    -0.354 N 
ATOM     42  C   UNL A   1      44.409  30.193  28.203  1.00  0.00     0.074 A 
ATOM     43  C   UNL A   1      43.941  30.187  26.852  1.00  0.00     0.031 C 
ATOM     44  C   UNL A   1      38.197  28.393  29.930  1.00  0.00     0.029 A 
ATOM     45  C   UNL A   1      38.731  29.716  30.167  1.00  0.00     0.049 A 
ATOM     46  H   UNL A   1      40.806  30.199  30.086  1.00  0.00     0.167 HD
ATOM     47  C   UNL A   1      44.985  31.197  28.916  1.00  0.00     0.037 A 
ATOM     48  C   UNL A   1      38.106  30.802  30.756  1.00  0.00     0.037 A 
ATOM     49  C   UNL A   1      45.010  30.851  30.318  1.00  0.00     0.049 A 
ATOM     50  C   UNL A   1      39.191  31.569  31.432  1.00  0.00     0.074 A 
ATOM     51  C   UNL A   1      45.553  29.811  31.046  1.00  0.00     0.029 A 
ATOM     52  N   UNL A   1      43.987  31.363  31.080  1.00  0.00    -0.354 N 
ATOM     53  N   UNL A   1      39.865  31.074  32.440  1.00  0.00    -0.248 NA
ATOM     54  C   UNL A   1      39.898  32.509  30.571  1.00  0.00     0.031 C 
ATOM     55  C   UNL A   1      44.547  29.452  31.990  1.00  0.00     0.029 A 
ATOM     56  C   UNL A   1      43.508  30.378  31.907  1.00  0.00     0.049 A 
ATOM     57  H   UNL A   1      43.652  32.288  31.040  1.00  0.00     0.167 HD
ATOM     58  C   UNL A   1      41.189  31.244  32.067  1.00  0.00     0.074 A 
ATOM     59  C   UNL A   1      41.136  32.106  30.876  1.00  0.00     0.031 C 
ATOM     60  C   UNL A   1      42.185  30.414  32.500  1.00  0.00     0.037 A 
BRANCH  47  61
ATOM     61  C   UNL A   1      45.109  32.621  28.430  1.00  0.00     0.058 A 
ATOM     62  C   UNL A   1      46.396  33.157  28.241  1.00  0.00     0.135 A 
ATOM     63  C   UNL A   1      44.047  33.555  28.358  1.00  0.00     0.135 A 
ATOM     64  F   UNL A   1      47.480  32.369  28.321  1.00  0.00    -0.206 F 
ATOM     65  C   UNL A   1      46.614  34.517  28.018  1.00  0.00     0.059 A 
ATOM     66  C   UNL A   1      44.238  34.906  28.087  1.00  0.00     0.059 A 
ATOM     67  F   UNL A   1      42.779  33.231  28.630  1.00  0.00    -0.206 F 
ATOM     68  C   UNL A   1      45.527  35.382  27.934  1.00  0.00     0.060 A 
BRANCH  68  69
ATOM     69  S   UNL A   1      45.819  37.133  27.639  1.00  0.00     0.124 S 
ATOM     70  O   UNL A   1      46.630  37.100  26.428  1.00  0.00    -0.237 OA
ATOM     71  O   UNL A   1      44.458  37.635  27.485  1.00  0.00    -0.237 OA
ATOM     72  O   UNL A   1      46.507  37.569  28.850  1.00  0.00    -0.744 OA
ENDBRANCH  68  69
ENDBRANCH  47  61
BRANCH  48  73
ATOM     73  C   UNL A   1      36.797  31.482  30.374  1.00  0.00     0.058 A 
ATOM     74  C   UNL A   1      35.818  31.971  31.288  1.00  0.00     0.135 A 
ATOM     75  C   UNL A   1      36.625  31.930  29.054  1.00  0.00     0.135 A 
ATOM     76  F   UNL A   1      35.876  31.635  32.588  1.00  0.00    -0.206 F 
ATOM     77  C   UNL A   1      34.779  32.866  30.910  1.00  0.00     0.059 A 
ATOM     78  C   UNL A   1      35.616  32.816  28.659  1.00  0.00     0.059 A 
ATOM     79  F   UNL A   1      37.505  31.583  28.106  1.00  0.00    -0.206 F 
ATOM     80  C   UNL A   1      34.704  33.302  29.587  1.00  0.00     0.060 A 
BRANCH  80  81
ATOM     81  S   UNL A   1      33.500  34.566  29.067  1.00  0.00     0.124 S 
ATOM     82  O   UNL A   1      32.853  34.921  30.325  1.00  0.00    -0.237 OA
ATOM     83  O   UNL A   1      34.354  35.592  28.479  1.00  0.00    -0.237 OA
ATOM     84  O   UNL A   1      32.651  33.852  28.114  1.00  0.00    -0.744 OA
ENDBRANCH  80  81
ENDBRANCH  48  73
BRANCH  60  85
ATOM     85  C   UNL A   1      41.902  29.383  33.572  1.00  0.00     0.058 A 
ATOM     86  C   UNL A   1      41.590  28.026  33.348  1.00  0.00     0.135 A 
ATOM     87  C   UNL A   1      42.174  29.751  34.897  1.00  0.00     0.135 A 
ATOM     88  F   UNL A   1      41.407  27.561  32.105  1.00  0.00    -0.206 F 
ATOM     89  C   UNL A   1      41.528  27.093  34.396  1.00  0.00     0.059 A 
ATOM     90  C   UNL A   1      42.145  28.840  35.948  1.00  0.00     0.059 A 
ATOM     91  F   UNL A   1      42.545  31.012  35.175  1.00  0.00    -0.206 F 
ATOM     92  C   UNL A   1      41.808  27.514  35.695  1.00  0.00     0.060 A 
BRANCH  92  93
ATOM     93  S   UNL A   1      41.748  26.327  37.059  1.00  0.00     0.124 S 
ATOM     94  O   UNL A   1      41.820  25.048  36.359  1.00  0.00    -0.237 OA
ATOM     95  O   UNL A   1      42.923  26.685  37.846  1.00  0.00    -0.237 OA
ATOM     96  O   UNL A   1      40.466  26.609  37.703  1.00  0.00    -0.744 OA
ENDBRANCH  92  93
ENDBRANCH  60  85
ENDBRANCH  34  35
ENDBRANCH  27  29
ENDBRANCH  26  27
ENDBRANCH   1  26
TORSDOF 17
ENDMDL
MODEL 2
REMARK VINA RESULT:     -12.6      2.648      3.901
REMARK SMILES CC(C)c1cc(C#N)cc2nc(-c3ccc(C(=O)OCCOC(=O)c4ccc(-c5c6nc(c(-c7c(F)cc(S(=O)(=O)[O-])cc7F)c7ccc([nH]7)c(-c7c(F)cc(S(=O)(=O)[O-])cc7F)c7nc(c(-c8c(F)cc(S(=O)(=O)[O-])cc8F)c8ccc5[nH]8)C=C7)C=C6)cc4)cc3)oc12
REMARK SMILES IDX 21 1 20 2 19 3 17 4 18 5 16 6 13 7 14 8 92 9 15 10 91 11
REMARK SMILES IDX 12 12 4 13 5 14 94 15 6 16 10 17 93 18 9 19 11 20 2 21 1 22
REMARK SMILES IDX 3 23 7 24 8 25 22 26 23 27 24 28 25 29 26 30 90 31 27 32
REMARK SMILES IDX 89 33 28 34 29 35 30 36 83 37 31 38 88 39 82 40 84 41 32 42
REMARK SMILES IDX 87 43 81 44 80 45 33 47 67 48 46 49 66 50 47 51 50 52 65 53
REMARK SMILES IDX 85 54 48 55 49 56 64 58 86 59 51 60 34 61 35 62 44 63 36 64
REMARK SMILES IDX 37 65 43 66 45 67 38 68 39 69 40 70 41 71 42 72 68 73 69 74
REMARK SMILES IDX 78 75 70 76 71 77 77 78 79 79 72 80 73 81 74 82 75 83 76 84
REMARK SMILES IDX 52 85 53 86 62 87 54 88 55 89 61 90 63 91 56 92 57 93 58 94
REMARK SMILES IDX 59 95 60 96
REMARK H PARENT 84 46 50 57
REMARK Flexibility Score: inf
ROOT
ATOM      1  C   UNL A   1      43.139  19.198  25.710  1.00  0.00     0.275 C 
ENDROOT
BRANCH   1   2
ATOM      2  C   UNL A   1      41.891  19.317  26.595  1.00  0.00     0.275 C 
BRANCH   2   3
ATOM      3  O   UNL A   1      40.903  20.217  26.026  1.00  0.00    -0.458 OA
BRANCH   3   4
ATOM      4  C   UNL A   1      40.555  21.258  26.827  1.00  0.00     0.338 C 
ATOM      5  O   UNL A   1      41.228  21.630  27.772  1.00  0.00    -0.246 OA
BRANCH   4   6
ATOM      6  C   UNL A   1      39.351  21.995  26.322  1.00  0.00     0.060 A 
ATOM      7  C   UNL A   1      36.829  23.026  25.537  1.00  0.00     0.037 A 
ATOM      8  C   UNL A   1      37.142  21.711  25.273  1.00  0.00     0.014 A 
ATOM      9  C   UNL A   1      37.815  23.845  26.123  1.00  0.00     0.014 A 
ATOM     10  C   UNL A   1      38.420  21.271  25.585  1.00  0.00     0.016 A 
ATOM     11  C   UNL A   1      39.056  23.325  26.555  1.00  0.00     0.016 A 
BRANCH   7  12
ATOM     12  C   UNL A   1      35.600  23.556  24.989  1.00  0.00     0.227 A 
ATOM     13  C   UNL A   1      32.403  23.115  23.504  1.00  0.00     0.001 A 
ATOM     14  C   UNL A   1      31.691  24.226  22.970  1.00  0.00     0.027 A 
ATOM     15  C   UNL A   1      33.657  23.472  24.029  1.00  0.00     0.158 A 
ATOM     16  C   UNL A   1      32.181  25.546  22.984  1.00  0.00     0.055 A 
ATOM     17  C   UNL A   1      34.160  24.770  24.057  1.00  0.00     0.111 A 
ATOM     18  O   UNL A   1      34.616  22.671  24.611  1.00  0.00    -0.436 OA
ATOM     19  C   UNL A   1      33.437  25.830  23.509  1.00  0.00     0.052 A 
ATOM     20  N   UNL A   1      35.362  24.810  24.694  1.00  0.00    -0.209 NA
BRANCH  13  21
ATOM     21  C   UNL A   1      31.759  21.733  23.462  1.00  0.00     0.017 C 
ATOM     22  C   UNL A   1      32.044  20.915  22.199  1.00  0.00     0.012 C 
ATOM     23  C   UNL A   1      32.158  20.885  24.684  1.00  0.00     0.012 C 
ENDBRANCH  13  21
BRANCH  16  24
ATOM     24  C   UNL A   1      31.343  26.624  22.522  1.00  0.00     0.099 C 
ATOM     25  N   UNL A   1      30.656  27.438  22.087  1.00  0.00    -0.192 NA
ENDBRANCH  16  24
ENDBRANCH   7  12
ENDBRANCH   4   6
ENDBRANCH   3   4
ENDBRANCH   2   3
ENDBRANCH   1   2
BRANCH   1  26
ATOM     26  O   UNL A   1      43.361  20.424  24.999  1.00  0.00    -0.458 OA
BRANCH  26  27
ATOM     27  C   UNL A   1      44.656  20.737  24.772  1.00  0.00     0.338 C 
ATOM     28  O   UNL A   1      45.502  20.041  24.234  1.00  0.00    -0.246 OA
BRANCH  27  29
ATOM     29  C   UNL A   1      44.735  22.199  24.898  1.00  0.00     0.060 A 
ATOM     30  C   UNL A   1      45.850  22.923  25.347  1.00  0.00     0.016 A 
ATOM     31  C   UNL A   1      43.533  22.844  24.778  1.00  0.00     0.016 A 
ATOM     32  C   UNL A   1      45.643  24.108  26.087  1.00  0.00     0.010 A 
ATOM     33  C   UNL A   1      43.490  24.127  25.262  1.00  0.00     0.010 A 
ATOM     34  C   UNL A   1      44.345  24.552  26.289  1.00  0.00    -0.014 A 
BRANCH  34  35
ATOM     35  C   UNL A   1      43.879  25.714  27.148  1.00  0.00     0.031 A 
ATOM     36  C   UNL A   1      44.802  26.848  26.848  1.00  0.00     0.074 A 
ATOM     37  C   UNL A   1      42.747  25.909  27.931  1.00  0.00     0.049 A 
ATOM     38  N   UNL A   1      45.903  27.077  27.490  1.00  0.00    -0.248 NA
ATOM     39  C   UNL A   1      44.761  27.529  25.530  1.00  0.00     0.031 C 
ATOM     40  C   UNL A   1      41.596  25.036  28.259  1.00  0.00     0.029 A 
ATOM     41  N   UNL A   1      42.333  27.063  28.608  1.00  0.00    -0.354 N 
ATOM     42  C   UNL A   1      46.479  28.148  26.827  1.00  0.00     0.074 A 
ATOM     43  C   UNL A   1      45.972  28.095  25.492  1.00  0.00     0.031 C 
ATOM     44  C   UNL A   1      40.535  25.739  28.744  1.00  0.00     0.029 A 
ATOM     45  C   UNL A   1      40.942  27.108  28.967  1.00  0.00     0.049 A 
ATOM     46  H   UNL A   1      42.954  27.796  28.823  1.00  0.00     0.167 HD
ATOM     47  C   UNL A   1      46.974  29.205  27.525  1.00  0.00     0.037 A 
ATOM     48  C   UNL A   1      40.230  28.127  29.579  1.00  0.00     0.037 A 
ATOM     49  C   UNL A   1      47.078  28.864  28.924  1.00  0.00     0.049 A 
ATOM     50  C   UNL A   1      41.254  28.998  30.222  1.00  0.00     0.074 A 
ATOM     51  C   UNL A   1      47.744  27.883  29.632  1.00  0.00     0.029 A 
ATOM     52  N   UNL A   1      46.034  29.271  29.720  1.00  0.00    -0.354 N 
ATOM     53  N   UNL A   1      42.005  28.574  31.208  1.00  0.00    -0.248 NA
ATOM     54  C   UNL A   1      41.837  30.004  29.343  1.00  0.00     0.031 C 
ATOM     55  C   UNL A   1      46.809  27.426  30.606  1.00  0.00     0.029 A 
ATOM     56  C   UNL A   1      45.681  28.244  30.559  1.00  0.00     0.049 A 
ATOM     57  H   UNL A   1      45.607  30.159  29.692  1.00  0.00     0.167 HD
ATOM     58  C   UNL A   1      43.293  28.875  30.793  1.00  0.00     0.074 A 
ATOM     59  C   UNL A   1      43.118  29.727  29.607  1.00  0.00     0.031 C 
ATOM     60  C   UNL A   1      44.381  28.149  31.192  1.00  0.00     0.037 A 
BRANCH  47  61
ATOM     61  C   UNL A   1      46.940  30.634  27.039  1.00  0.00     0.058 A 
ATOM     62  C   UNL A   1      48.136  31.377  27.051  1.00  0.00     0.135 A 
ATOM     63  C   UNL A   1      45.766  31.381  26.779  1.00  0.00     0.135 A 
ATOM     64  F   UNL A   1      49.306  30.777  27.319  1.00  0.00    -0.206 F 
ATOM     65  C   UNL A   1      48.161  32.755  26.841  1.00  0.00     0.059 A 
ATOM     66  C   UNL A   1      45.774  32.747  26.517  1.00  0.00     0.059 A 
ATOM     67  F   UNL A   1      44.541  30.850  26.848  1.00  0.00    -0.206 F 
ATOM     68  C   UNL A   1      46.975  33.430  26.567  1.00  0.00     0.060 A 
BRANCH  68  69
ATOM     69  S   UNL A   1      47.020  35.208  26.290  1.00  0.00     0.124 S 
ATOM     70  O   UNL A   1      45.661  35.472  25.832  1.00  0.00    -0.237 OA
ATOM     71  O   UNL A   1      47.355  35.703  27.621  1.00  0.00    -0.237 OA
ATOM     72  O   UNL A   1      48.067  35.367  25.287  1.00  0.00    -0.744 OA
ENDBRANCH  68  69
ENDBRANCH  47  61
BRANCH  48  73
ATOM     73  C   UNL A   1      38.848  28.674  29.240  1.00  0.00     0.058 A 
ATOM     74  C   UNL A   1      37.790  28.887  30.170  1.00  0.00     0.135 A 
ATOM     75  C   UNL A   1      38.648  29.283  27.991  1.00  0.00     0.135 A 
ATOM     76  F   UNL A   1      37.862  28.374  31.410  1.00  0.00    -0.206 F 
ATOM     77  C   UNL A   1      36.645  29.679  29.878  1.00  0.00     0.059 A 
ATOM     78  C   UNL A   1      37.535  30.073  27.682  1.00  0.00     0.059 A 
ATOM     79  F   UNL A   1      39.590  29.201  27.042  1.00  0.00    -0.206 F 
ATOM     80  C   UNL A   1      36.541  30.290  28.628  1.00  0.00     0.060 A 
BRANCH  80  81
ATOM     81  S   UNL A   1      35.186  31.443  28.241  1.00  0.00     0.124 S 
ATOM     82  O   UNL A   1      35.874  32.506  27.518  1.00  0.00    -0.237 OA
ATOM     83  O   UNL A   1      34.283  30.616  27.449  1.00  0.00    -0.237 OA
ATOM     84  O   UNL A   1      34.676  31.820  29.559  1.00  0.00    -0.744 OA
ENDBRANCH  80  81
ENDBRANCH  48  73
BRANCH  60  85
ATOM     85  C   UNL A   1      44.235  27.094  32.270  1.00  0.00     0.058 A 
ATOM     86  C   UNL A   1      44.157  25.703  32.056  1.00  0.00     0.135 A 
ATOM     87  C   UNL A   1      44.400  27.515  33.597  1.00  0.00     0.135 A 
ATOM     88  F   UNL A   1      44.093  25.203  30.815  1.00  0.00    -0.206 F 
ATOM     89  C   UNL A   1      44.215  24.782  33.115  1.00  0.00     0.059 A 
ATOM     90  C   UNL A   1      44.487  26.620  34.660  1.00  0.00     0.059 A 
ATOM     91  F   UNL A   1      44.550  28.821  33.868  1.00  0.00    -0.206 F 
ATOM     92  C   UNL A   1      44.380  25.255  34.416  1.00  0.00     0.060 A 
BRANCH  92  93
ATOM     93  S   UNL A   1      44.471  24.086  35.795  1.00  0.00     0.124 S 
ATOM     94  O   UNL A   1      43.702  24.769  36.830  1.00  0.00    -0.237 OA
ATOM     95  O   UNL A   1      43.856  22.886  35.236  1.00  0.00    -0.237 OA
ATOM     96  O   UNL A   1      45.904  23.978  36.058  1.00  0.00    -0.744 OA
ENDBRANCH  92  93
ENDBRANCH  60  85
ENDBRANCH  34  35
ENDBRANCH  27  29
ENDBRANCH  26  27
ENDBRANCH   1  26
TORSDOF 17
ENDMDL
MODEL 3
REMARK VINA RESULT:     -12.5      3.039      9.733
REMARK SMILES CC(C)c1cc(C#N)cc2nc(-c3ccc(C(=O)OCCOC(=O)c4ccc(-c5c6nc(c(-c7c(F)cc(S(=O)(=O)[O-])cc7F)c7ccc([nH]7)c(-c7c(F)cc(S(=O)(=O)[O-])cc7F)c7nc(c(-c8c(F)cc(S(=O)(=O)[O-])cc8F)c8ccc5[nH]8)C=C7)C=C6)cc4)cc3)oc12
REMARK SMILES IDX 21 1 20 2 19 3 17 4 18 5 16 6 13 7 14 8 92 9 15 10 91 11
REMARK SMILES IDX 12 12 4 13 5 14 94 15 6 16 10 17 93 18 9 19 11 20 2 21 1 22
REMARK SMILES IDX 3 23 7 24 8 25 22 26 23 27 24 28 25 29 26 30 90 31 27 32
REMARK SMILES IDX 89 33 28 34 29 35 30 36 83 37 31 38 88 39 82 40 84 41 32 42
REMARK SMILES IDX 87 43 81 44 80 45 33 47 67 48 46 49 66 50 47 51 50 52 65 53
REMARK SMILES IDX 85 54 48 55 49 56 64 58 86 59 51 60 34 61 35 62 44 63 36 64
REMARK SMILES IDX 37 65 43 66 45 67 38 68 39 69 40 70 41 71 42 72 68 73 69 74
REMARK SMILES IDX 78 75 70 76 71 77 77 78 79 79 72 80 73 81 74 82 75 83 76 84
REMARK SMILES IDX 52 85 53 86 62 87 54 88 55 89 61 90 63 91 56 92 57 93 58 94
REMARK SMILES IDX 59 95 60 96
REMARK H PARENT 84 46 50 57
REMARK Flexibility Score: inf
ROOT
ATOM      1  C   UNL A   1      34.899  32.954  28.716  1.00  0.00     0.275 C 
ENDROOT
BRANCH   1   2
ATOM      2  C   UNL A   1      33.678  32.605  27.855  1.00  0.00     0.275 C 
BRANCH   2   3
ATOM      3  O   UNL A   1      33.674  31.208  27.455  1.00  0.00    -0.458 OA
BRANCH   3   4
ATOM      4  C   UNL A   1      32.505  30.776  26.915  1.00  0.00     0.338 C 
ATOM      5  O   UNL A   1      31.621  31.527  26.542  1.00  0.00    -0.246 OA
BRANCH   4   6
ATOM      6  C   UNL A   1      32.495  29.296  26.675  1.00  0.00     0.060 A 
ATOM      7  C   UNL A   1      32.910  26.504  26.401  1.00  0.00     0.037 A 
ATOM      8  C   UNL A   1      33.888  27.384  25.992  1.00  0.00     0.014 A 
ATOM      9  C   UNL A   1      31.690  27.030  26.872  1.00  0.00     0.014 A 
ATOM     10  C   UNL A   1      33.609  28.741  26.052  1.00  0.00     0.016 A 
ATOM     11  C   UNL A   1      31.496  28.418  27.051  1.00  0.00     0.016 A 
BRANCH   7  12
ATOM     12  C   UNL A   1      33.092  25.099  26.107  1.00  0.00     0.227 A 
ATOM     13  C   UNL A   1      35.031  22.405  24.843  1.00  0.00     0.001 A 
ATOM     14  C   UNL A   1      34.452  21.117  24.659  1.00  0.00     0.027 A 
ATOM     15  C   UNL A   1      34.113  23.352  25.328  1.00  0.00     0.158 A 
ATOM     16  C   UNL A   1      33.108  20.818  24.950  1.00  0.00     0.055 A 
ATOM     17  C   UNL A   1      32.781  23.077  25.627  1.00  0.00     0.111 A 
ATOM     18  O   UNL A   1      34.308  24.686  25.612  1.00  0.00    -0.436 OA
ATOM     19  C   UNL A   1      32.247  21.806  25.417  1.00  0.00     0.052 A 
ATOM     20  N   UNL A   1      32.165  24.175  26.147  1.00  0.00    -0.209 NA
BRANCH  13  21
ATOM     21  C   UNL A   1      36.509  22.605  24.521  1.00  0.00     0.017 C 
ATOM     22  C   UNL A   1      37.434  21.463  24.948  1.00  0.00     0.012 C 
ATOM     23  C   UNL A   1      36.730  22.868  23.020  1.00  0.00     0.012 C 
ENDBRANCH  13  21
BRANCH  16  24
ATOM     24  C   UNL A   1      32.638  19.460  24.839  1.00  0.00     0.099 C 
ATOM     25  N   UNL A   1      32.187  18.407  24.734  1.00  0.00    -0.192 NA
ENDBRANCH  16  24
ENDBRANCH   7  12
ENDBRANCH   4   6
ENDBRANCH   3   4
ENDBRANCH   2   3
ENDBRANCH   1   2
BRANCH   1  26
ATOM     26  O   UNL A   1      35.339  31.799  29.445  1.00  0.00    -0.458 OA
BRANCH  26  27
ATOM     27  C   UNL A   1      35.347  31.931  30.790  1.00  0.00     0.338 C 
ATOM     28  O   UNL A   1      34.493  32.453  31.486  1.00  0.00    -0.246 OA
BRANCH  27  29
ATOM     29  C   UNL A   1      36.341  30.962  31.273  1.00  0.00     0.060 A 
ATOM     30  C   UNL A   1      37.379  31.236  32.176  1.00  0.00     0.016 A 
ATOM     31  C   UNL A   1      36.357  29.777  30.588  1.00  0.00     0.016 A 
ATOM     32  C   UNL A   1      38.609  30.558  32.030  1.00  0.00     0.010 A 
ATOM     33  C   UNL A   1      37.488  29.014  30.734  1.00  0.00     0.010 A 
ATOM     34  C   UNL A   1      38.728  29.595  31.039  1.00  0.00    -0.014 A 
BRANCH  34  35
ATOM     35  C   UNL A   1      39.975  28.837  30.620  1.00  0.00     0.031 A 
ATOM     36  C   UNL A   1      40.738  28.566  31.874  1.00  0.00     0.074 A 
ATOM     37  C   UNL A   1      40.365  28.264  29.414  1.00  0.00     0.049 A 
ATOM     38  N   UNL A   1      41.633  29.364  32.365  1.00  0.00    -0.248 NA
ATOM     39  C   UNL A   1      40.228  27.598  32.876  1.00  0.00     0.031 C 
ATOM     40  C   UNL A   1      39.732  28.223  28.076  1.00  0.00     0.029 A 
ATOM     41  N   UNL A   1      41.490  27.477  29.137  1.00  0.00    -0.354 N 
ATOM     42  C   UNL A   1      42.005  28.777  33.563  1.00  0.00     0.074 A 
ATOM     43  C   UNL A   1      40.885  27.990  33.973  1.00  0.00     0.031 C 
ATOM     44  C   UNL A   1      40.257  27.248  27.284  1.00  0.00     0.029 A 
ATOM     45  C   UNL A   1      41.413  26.681  27.943  1.00  0.00     0.049 A 
ATOM     46  H   UNL A   1      42.282  27.471  29.722  1.00  0.00     0.167 HD
ATOM     47  C   UNL A   1      43.319  28.651  33.889  1.00  0.00     0.037 A 
ATOM     48  C   UNL A   1      42.327  25.768  27.442  1.00  0.00     0.037 A 
ATOM     49  C   UNL A   1      44.124  29.463  33.007  1.00  0.00     0.049 A 
ATOM     50  C   UNL A   1      43.619  26.087  28.112  1.00  0.00     0.074 A 
ATOM     51  C   UNL A   1      44.166  30.811  32.706  1.00  0.00     0.029 A 
ATOM     52  N   UNL A   1      44.684  28.811  31.935  1.00  0.00    -0.354 N 
ATOM     53  N   UNL A   1      44.243  27.221  27.909  1.00  0.00    -0.248 NA
ATOM     54  C   UNL A   1      43.796  25.469  29.419  1.00  0.00     0.031 C 
ATOM     55  C   UNL A   1      44.321  30.871  31.290  1.00  0.00     0.029 A 
ATOM     56  C   UNL A   1      44.524  29.579  30.808  1.00  0.00     0.049 A 
ATOM     57  H   UNL A   1      45.130  27.933  31.970  1.00  0.00     0.167 HD
ATOM     58  C   UNL A   1      44.478  27.700  29.189  1.00  0.00     0.074 A 
ATOM     59  C   UNL A   1      44.139  26.580  30.079  1.00  0.00     0.031 C 
ATOM     60  C   UNL A   1      44.575  29.036  29.466  1.00  0.00     0.037 A 
BRANCH  47  61
ATOM     61  C   UNL A   1      43.892  27.496  34.676  1.00  0.00     0.058 A 
ATOM     62  C   UNL A   1      44.567  27.772  35.880  1.00  0.00     0.135 A 
ATOM     63  C   UNL A   1      44.015  26.167  34.203  1.00  0.00     0.135 A 
ATOM     64  F   UNL A   1      44.547  29.008  36.403  1.00  0.00    -0.206 F 
ATOM     65  C   UNL A   1      45.319  26.809  36.552  1.00  0.00     0.059 A 
ATOM     66  C   UNL A   1      44.718  25.179  34.884  1.00  0.00     0.059 A 
ATOM     67  F   UNL A   1      43.534  25.773  33.019  1.00  0.00    -0.206 F 
ATOM     68  C   UNL A   1      45.382  25.512  36.049  1.00  0.00     0.060 A 
BRANCH  68  69
ATOM     69  S   UNL A   1      46.350  24.275  36.928  1.00  0.00     0.124 S 
ATOM     70  O   UNL A   1      46.933  25.065  38.006  1.00  0.00    -0.237 OA
ATOM     71  O   UNL A   1      45.319  23.320  37.319  1.00  0.00    -0.237 OA
ATOM     72  O   UNL A   1      47.287  23.799  35.916  1.00  0.00    -0.744 OA
ENDBRANCH  68  69
ENDBRANCH  47  61
BRANCH  48  73
ATOM     73  C   UNL A   1      42.079  24.384  26.853  1.00  0.00     0.058 A 
ATOM     74  C   UNL A   1      42.931  23.712  25.929  1.00  0.00     0.135 A 
ATOM     75  C   UNL A   1      41.104  23.562  27.440  1.00  0.00     0.135 A 
ATOM     76  F   UNL A   1      43.919  24.378  25.308  1.00  0.00    -0.206 F 
ATOM     77  C   UNL A   1      42.832  22.320  25.650  1.00  0.00     0.059 A 
ATOM     78  C   UNL A   1      40.991  22.190  27.188  1.00  0.00     0.059 A 
ATOM     79  F   UNL A   1      40.270  24.059  28.363  1.00  0.00    -0.206 F 
ATOM     80  C   UNL A   1      41.865  21.561  26.310  1.00  0.00     0.060 A 
BRANCH  80  81
ATOM     81  S   UNL A   1      41.784  19.751  26.124  1.00  0.00     0.124 S 
ATOM     82  O   UNL A   1      40.392  19.537  25.745  1.00  0.00    -0.237 OA
ATOM     83  O   UNL A   1      42.773  19.495  25.083  1.00  0.00    -0.237 OA
ATOM     84  O   UNL A   1      42.147  19.259  27.452  1.00  0.00    -0.744 OA
ENDBRANCH  80  81
ENDBRANCH  48  73
BRANCH  60  85
ATOM     85  C   UNL A   1      44.622  30.044  28.336  1.00  0.00     0.058 A 
ATOM     86  C   UNL A   1      43.510  30.528  27.618  1.00  0.00     0.135 A 
ATOM     87  C   UNL A   1      45.839  30.705  28.124  1.00  0.00     0.135 A 
ATOM     88  F   UNL A   1      42.287  30.021  27.824  1.00  0.00    -0.206 F 
ATOM     89  C   UNL A   1      43.614  31.599  26.716  1.00  0.00     0.059 A 
ATOM     90  C   UNL A   1      45.962  31.786  27.256  1.00  0.00     0.059 A 
ATOM     91  F   UNL A   1      46.926  30.342  28.825  1.00  0.00    -0.206 F 
ATOM     92  C   UNL A   1      44.850  32.222  26.543  1.00  0.00     0.060 A 
BRANCH  92  93
ATOM     93  S   UNL A   1      45.005  33.613  25.397  1.00  0.00     0.124 S 
ATOM     94  O   UNL A   1      46.446  33.844  25.385  1.00  0.00    -0.237 OA
ATOM     95  O   UNL A   1      44.439  33.075  24.164  1.00  0.00    -0.237 OA
ATOM     96  O   UNL A   1      44.214  34.667  26.029  1.00  0.00    -0.744 OA
ENDBRANCH  92  93
ENDBRANCH  60  85
ENDBRANCH  34  35
ENDBRANCH  27  29
ENDBRANCH  26  27
ENDBRANCH   1  26
TORSDOF 17
ENDMDL
