MODEL 1
REMARK VINA RESULT:     -10.9      0.000      0.000
REMARK SMILES CC[N@@H+]1CCO[C@H](C[NH2+][C@@H]2CCC[C@H](C(=O)OCCOC(=O)c3ccc(-c4c5nc(c(-c6c(F)cc(S(=O)(=O)[O-])cc6F)c6ccc([nH]6)c(-c6c(F)cc(S(=O)(=O)[O-])cc6F)c6nc(c(-c7c(F)cc(S(=O)(=O)[O-])cc7F)c7ccc4[nH]7)C=C6)C=C5)cc3)C2)C1
REMARK SMILES IDX 18 1 17 2 15 3 16 4 14 5 10 6 11 7 89 8 12 9 13 10 9 11 8 14
REMARK SMILES IDX 7 15 3 16 4 17 90 18 5 20 6 21 2 22 1 23 19 24 20 25 21 26
REMARK SMILES IDX 22 27 23 28 24 29 88 30 25 31 87 32 26 33 27 34 28 35 81 36
REMARK SMILES IDX 29 37 86 38 80 39 82 40 30 41 85 42 79 43 78 44 31 46 65 47
REMARK SMILES IDX 44 48 64 49 45 50 48 51 63 52 83 53 46 54 47 55 62 57 84 58
REMARK SMILES IDX 49 59 32 60 33 61 42 62 34 63 35 64 41 65 43 66 36 67 37 68
REMARK SMILES IDX 38 69 39 70 40 71 66 72 67 73 76 74 68 75 69 76 75 77 77 78
REMARK SMILES IDX 70 79 71 80 72 81 73 82 74 83 50 84 51 85 60 86 52 87 53 88
REMARK SMILES IDX 59 89 61 90 54 91 55 92 56 93 57 94 58 95
REMARK H PARENT 9 12 9 13 3 19 82 45 48 56
REMARK Flexibility Score: inf
ROOT
ATOM      1  C   UNL A   1      40.572  20.990  27.023  1.00  0.00     0.274 C 
ENDROOT
BRANCH   1   2
ATOM      2  O   UNL A   1      41.947  21.018  26.602  1.00  0.00    -0.462 OA
BRANCH   2   3
ATOM      3  C   UNL A   1      42.395  19.879  26.017  1.00  0.00     0.309 C 
ATOM      4  O   UNL A   1      41.684  18.949  25.655  1.00  0.00    -0.252 OA
BRANCH   3   5
ATOM      5  C   UNL A   1      43.897  19.853  25.849  1.00  0.00     0.105 C 
ATOM      6  C   UNL A   1      45.889  21.075  24.962  1.00  0.00     0.183 C 
ATOM      7  C   UNL A   1      46.555  19.707  24.658  1.00  0.00     0.065 C 
ATOM      8  C   UNL A   1      44.359  20.961  24.910  1.00  0.00     0.080 C 
ATOM      9  C   UNL A   1      46.010  18.562  25.505  1.00  0.00     0.007 C 
ATOM     10  C   UNL A   1      44.488  18.504  25.436  1.00  0.00     0.016 C 
BRANCH   6  11
ATOM     11  N   UNL A   1      46.277  22.217  24.115  1.00  0.00    -0.341 N 
ATOM     12  H   UNL A   1      47.270  22.399  24.257  1.00  0.00     0.346 HD
ATOM     13  H   UNL A   1      46.062  21.957  23.152  1.00  0.00     0.346 HD
BRANCH  11  14
ATOM     14  C   UNL A   1      45.538  23.442  24.400  1.00  0.00     0.299 C 
BRANCH  14  15
ATOM     15  C   UNL A   1      46.359  24.594  25.000  1.00  0.00     0.227 C 
ATOM     16  N   UNL A   1      45.622  24.525  27.477  1.00  0.00    -0.331 N 
ATOM     17  C   UNL A   1      45.030  25.856  27.211  1.00  0.00     0.291 C 
ATOM     18  C   UNL A   1      46.700  24.301  26.486  1.00  0.00     0.300 C 
ATOM     19  H   UNL A   1      46.084  24.460  28.384  1.00  0.00     0.348 HD
ATOM     20  C   UNL A   1      44.624  26.072  25.743  1.00  0.00     0.222 C 
ATOM     21  O   UNL A   1      45.725  25.878  24.851  1.00  0.00    -0.361 OA
BRANCH  16  22
ATOM     22  C   UNL A   1      44.569  23.506  27.599  1.00  0.00     0.258 C 
ATOM     23  C   UNL A   1      43.805  23.476  28.919  1.00  0.00     0.071 C 
ENDBRANCH  16  22
ENDBRANCH  14  15
ENDBRANCH  11  14
ENDBRANCH   6  11
ENDBRANCH   3   5
ENDBRANCH   2   3
ENDBRANCH   1   2
BRANCH   1  24
ATOM     24  C   UNL A   1      39.800  22.191  26.472  1.00  0.00     0.275 C 
BRANCH  24  25
ATOM     25  O   UNL A   1      39.858  23.320  27.364  1.00  0.00    -0.458 OA
BRANCH  25  26
ATOM     26  C   UNL A   1      40.721  24.300  27.000  1.00  0.00     0.338 C 
ATOM     27  O   UNL A   1      41.481  24.298  26.048  1.00  0.00    -0.246 OA
BRANCH  26  28
ATOM     28  C   UNL A   1      40.554  25.467  27.880  1.00  0.00     0.060 A 
ATOM     29  C   UNL A   1      41.590  26.401  27.947  1.00  0.00     0.016 A 
ATOM     30  C   UNL A   1      39.448  25.582  28.722  1.00  0.00     0.016 A 
ATOM     31  C   UNL A   1      41.529  27.458  28.849  1.00  0.00     0.010 A 
ATOM     32  C   UNL A   1      39.386  26.646  29.630  1.00  0.00     0.010 A 
ATOM     33  C   UNL A   1      40.431  27.584  29.707  1.00  0.00    -0.014 A 
BRANCH  33  34
ATOM     34  C   UNL A   1      40.409  28.665  30.723  1.00  0.00     0.031 A 
ATOM     35  C   UNL A   1      41.369  28.620  31.879  1.00  0.00     0.074 A 
ATOM     36  C   UNL A   1      39.550  29.693  30.599  1.00  0.00     0.049 A 
ATOM     37  N   UNL A   1      41.424  29.385  32.937  1.00  0.00    -0.248 NA
ATOM     38  C   UNL A   1      42.402  27.572  31.836  1.00  0.00     0.031 C 
ATOM     39  C   UNL A   1      38.612  29.879  29.490  1.00  0.00     0.029 A 
ATOM     40  N   UNL A   1      39.322  30.772  31.415  1.00  0.00    -0.354 N 
ATOM     41  C   UNL A   1      42.477  28.897  33.703  1.00  0.00     0.074 A 
ATOM     42  C   UNL A   1      43.031  27.767  32.988  1.00  0.00     0.031 C 
ATOM     43  C   UNL A   1      37.904  31.001  29.701  1.00  0.00     0.029 A 
ATOM     44  C   UNL A   1      38.301  31.583  30.980  1.00  0.00     0.049 A 
ATOM     45  H   UNL A   1      39.839  30.948  32.234  1.00  0.00     0.167 HD
ATOM     46  C   UNL A   1      42.936  29.353  34.893  1.00  0.00     0.037 A 
ATOM     47  C   UNL A   1      37.724  32.652  31.563  1.00  0.00     0.037 A 
ATOM     48  C   UNL A   1      42.391  30.490  35.588  1.00  0.00     0.049 A 
ATOM     49  C   UNL A   1      38.223  33.115  32.905  1.00  0.00     0.074 A 
ATOM     50  C   UNL A   1      42.776  31.022  36.806  1.00  0.00     0.029 A 
ATOM     51  N   UNL A   1      41.350  31.279  35.120  1.00  0.00    -0.354 N 
ATOM     52  N   UNL A   1      39.186  32.615  33.642  1.00  0.00    -0.248 NA
ATOM     53  C   UNL A   1      37.552  34.280  33.499  1.00  0.00     0.031 C 
ATOM     54  C   UNL A   1      41.949  32.116  37.089  1.00  0.00     0.029 A 
ATOM     55  C   UNL A   1      41.074  32.287  36.028  1.00  0.00     0.049 A 
ATOM     56  H   UNL A   1      40.876  31.141  34.269  1.00  0.00     0.167 HD
ATOM     57  C   UNL A   1      39.244  33.410  34.781  1.00  0.00     0.074 A 
ATOM     58  C   UNL A   1      38.230  34.433  34.629  1.00  0.00     0.031 C 
ATOM     59  C   UNL A   1      40.061  33.299  35.857  1.00  0.00     0.037 A 
BRANCH  46  60
ATOM     60  C   UNL A   1      44.065  28.600  35.536  1.00  0.00     0.058 A 
ATOM     61  C   UNL A   1      45.407  28.931  35.292  1.00  0.00     0.135 A 
ATOM     62  C   UNL A   1      43.800  27.553  36.433  1.00  0.00     0.135 A 
ATOM     63  F   UNL A   1      45.715  29.910  34.428  1.00  0.00    -0.206 F 
ATOM     64  C   UNL A   1      46.448  28.237  35.902  1.00  0.00     0.059 A 
ATOM     65  C   UNL A   1      44.825  26.858  37.070  1.00  0.00     0.059 A 
ATOM     66  F   UNL A   1      42.533  27.194  36.697  1.00  0.00    -0.206 F 
ATOM     67  C   UNL A   1      46.146  27.201  36.788  1.00  0.00     0.060 A 
BRANCH  67  68
ATOM     68  S   UNL A   1      47.505  26.311  37.577  1.00  0.00     0.124 S 
ATOM     69  O   UNL A   1      47.127  26.390  38.983  1.00  0.00    -0.237 OA
ATOM     70  O   UNL A   1      47.410  24.987  36.968  1.00  0.00    -0.237 OA
ATOM     71  O   UNL A   1      48.683  27.086  37.198  1.00  0.00    -0.744 OA
ENDBRANCH  67  68
ENDBRANCH  46  60
BRANCH  47  72
ATOM     72  C   UNL A   1      36.584  33.330  30.895  1.00  0.00     0.058 A 
ATOM     73  C   UNL A   1      35.276  33.201  31.384  1.00  0.00     0.135 A 
ATOM     74  C   UNL A   1      36.786  34.143  29.769  1.00  0.00     0.135 A 
ATOM     75  F   UNL A   1      35.032  32.425  32.450  1.00  0.00    -0.206 F 
ATOM     76  C   UNL A   1      34.207  33.852  30.778  1.00  0.00     0.059 A 
ATOM     77  C   UNL A   1      35.736  34.823  29.161  1.00  0.00     0.059 A 
ATOM     78  F   UNL A   1      38.021  34.305  29.271  1.00  0.00    -0.206 F 
ATOM     79  C   UNL A   1      34.447  34.666  29.669  1.00  0.00     0.060 A 
BRANCH  79  80
ATOM     80  S   UNL A   1      33.066  35.563  28.929  1.00  0.00     0.124 S 
ATOM     81  O   UNL A   1      33.758  36.632  28.218  1.00  0.00    -0.237 OA
ATOM     82  O   UNL A   1      32.442  34.541  28.095  1.00  0.00    -0.237 OA
ATOM     83  O   UNL A   1      32.279  35.979  30.087  1.00  0.00    -0.744 OA
ENDBRANCH  79  80
ENDBRANCH  47  72
BRANCH  59  84
ATOM     84  C   UNL A   1      39.909  34.323  36.945  1.00  0.00     0.058 A 
ATOM     85  C   UNL A   1      40.549  35.570  36.875  1.00  0.00     0.135 A 
ATOM     86  C   UNL A   1      39.073  34.074  38.045  1.00  0.00     0.135 A 
ATOM     87  F   UNL A   1      41.364  35.853  35.846  1.00  0.00    -0.206 F 
ATOM     88  C   UNL A   1      40.380  36.529  37.868  1.00  0.00     0.059 A 
ATOM     89  C   UNL A   1      38.873  35.025  39.039  1.00  0.00     0.059 A 
ATOM     90  F   UNL A   1      38.432  32.899  38.153  1.00  0.00    -0.206 F 
ATOM     91  C   UNL A   1      39.540  36.247  38.947  1.00  0.00     0.060 A 
BRANCH  91  92
ATOM     92  S   UNL A   1      39.299  37.511  40.214  1.00  0.00     0.124 S 
ATOM     93  O   UNL A   1      38.302  38.370  39.585  1.00  0.00    -0.237 OA
ATOM     94  O   UNL A   1      38.832  36.728  41.355  1.00  0.00    -0.237 OA
ATOM     95  O   UNL A   1      40.628  38.095  40.367  1.00  0.00    -0.744 OA
ENDBRANCH  91  92
ENDBRANCH  59  84
ENDBRANCH  33  34
ENDBRANCH  26  28
ENDBRANCH  25  26
ENDBRANCH  24  25
ENDBRANCH   1  24
TORSDOF 18
ENDMDL
MODEL 2
REMARK VINA RESULT:     -10.3      6.694     13.540
REMARK SMILES CC[N@@H+]1CCO[C@H](C[NH2+][C@@H]2CCC[C@H](C(=O)OCCOC(=O)c3ccc(-c4c5nc(c(-c6c(F)cc(S(=O)(=O)[O-])cc6F)c6ccc([nH]6)c(-c6c(F)cc(S(=O)(=O)[O-])cc6F)c6nc(c(-c7c(F)cc(S(=O)(=O)[O-])cc7F)c7ccc4[nH]7)C=C6)C=C5)cc3)C2)C1
REMARK SMILES IDX 18 1 17 2 15 3 16 4 14 5 10 6 11 7 89 8 12 9 13 10 9 11 8 14
REMARK SMILES IDX 7 15 3 16 4 17 90 18 5 20 6 21 2 22 1 23 19 24 20 25 21 26
REMARK SMILES IDX 22 27 23 28 24 29 88 30 25 31 87 32 26 33 27 34 28 35 81 36
REMARK SMILES IDX 29 37 86 38 80 39 82 40 30 41 85 42 79 43 78 44 31 46 65 47
REMARK SMILES IDX 44 48 64 49 45 50 48 51 63 52 83 53 46 54 47 55 62 57 84 58
REMARK SMILES IDX 49 59 32 60 33 61 42 62 34 63 35 64 41 65 43 66 36 67 37 68
REMARK SMILES IDX 38 69 39 70 40 71 66 72 67 73 76 74 68 75 69 76 75 77 77 78
REMARK SMILES IDX 70 79 71 80 72 81 73 82 74 83 50 84 51 85 60 86 52 87 53 88
REMARK SMILES IDX 59 89 61 90 54 91 55 92 56 93 57 94 58 95
REMARK H PARENT 9 12 9 13 3 19 82 45 48 56
REMARK Flexibility Score: inf
ROOT
ATOM      1  C   UNL A   1      33.377  31.258  27.267  1.00  0.00     0.274 C 
ENDROOT
BRANCH   1   2
ATOM      2  O   UNL A   1      32.918  29.941  27.618  1.00  0.00    -0.462 OA
BRANCH   2   3
ATOM      3  C   UNL A   1      33.239  28.963  26.733  1.00  0.00     0.309 C 
ATOM      4  O   UNL A   1      34.381  28.637  26.432  1.00  0.00    -0.252 OA
BRANCH   3   5
ATOM      5  C   UNL A   1      32.027  28.292  26.130  1.00  0.00     0.105 C 
ATOM      6  C   UNL A   1      30.646  26.209  26.068  1.00  0.00     0.183 C 
ATOM      7  C   UNL A   1      30.334  26.497  24.575  1.00  0.00     0.065 C 
ATOM      8  C   UNL A   1      32.004  26.805  26.466  1.00  0.00     0.080 C 
ATOM      9  C   UNL A   1      30.478  27.967  24.195  1.00  0.00     0.007 C 
ATOM     10  C   UNL A   1      31.832  28.516  24.629  1.00  0.00     0.016 C 
BRANCH   6  11
ATOM     11  N   UNL A   1      30.638  24.800  26.498  1.00  0.00    -0.341 N 
ATOM     12  H   UNL A   1      30.552  24.775  27.514  1.00  0.00     0.346 HD
ATOM     13  H   UNL A   1      29.852  24.351  26.029  1.00  0.00     0.346 HD
BRANCH  11  14
ATOM     14  C   UNL A   1      31.837  24.059  26.120  1.00  0.00     0.299 C 
BRANCH  14  15
ATOM     15  C   UNL A   1      31.927  22.619  26.644  1.00  0.00     0.227 C 
ATOM     16  N   UNL A   1      34.287  21.920  25.851  1.00  0.00    -0.331 N 
ATOM     17  C   UNL A   1      33.577  20.947  24.990  1.00  0.00     0.291 C 
ATOM     18  C   UNL A   1      33.398  22.256  26.987  1.00  0.00     0.300 C 
ATOM     19  H   UNL A   1      35.130  21.541  26.282  1.00  0.00     0.348 HD
ATOM     20  C   UNL A   1      32.154  21.386  24.600  1.00  0.00     0.222 C 
ATOM     21  O   UNL A   1      31.345  21.653  25.748  1.00  0.00    -0.361 OA
BRANCH  16  22
ATOM     22  C   UNL A   1      34.829  23.024  25.044  1.00  0.00     0.258 C 
ATOM     23  C   UNL A   1      35.812  23.956  25.745  1.00  0.00     0.071 C 
ENDBRANCH  16  22
ENDBRANCH  14  15
ENDBRANCH  11  14
ENDBRANCH   6  11
ENDBRANCH   3   5
ENDBRANCH   2   3
ENDBRANCH   1   2
BRANCH   1  24
ATOM     24  C   UNL A   1      34.400  31.775  28.281  1.00  0.00     0.275 C 
BRANCH  24  25
ATOM     25  O   UNL A   1      35.663  31.093  28.164  1.00  0.00    -0.458 OA
BRANCH  25  26
ATOM     26  C   UNL A   1      36.249  30.757  29.339  1.00  0.00     0.338 C 
ATOM     27  O   UNL A   1      35.774  30.859  30.457  1.00  0.00    -0.246 OA
BRANCH  26  28
ATOM     28  C   UNL A   1      37.558  30.135  29.087  1.00  0.00     0.060 A 
ATOM     29  C   UNL A   1      38.441  29.989  30.158  1.00  0.00     0.016 A 
ATOM     30  C   UNL A   1      37.962  29.809  27.792  1.00  0.00     0.016 A 
ATOM     31  C   UNL A   1      39.732  29.513  29.949  1.00  0.00     0.010 A 
ATOM     32  C   UNL A   1      39.261  29.330  27.581  1.00  0.00     0.010 A 
ATOM     33  C   UNL A   1      40.157  29.189  28.657  1.00  0.00    -0.014 A 
BRANCH  33  34
ATOM     34  C   UNL A   1      41.559  28.761  28.427  1.00  0.00     0.031 A 
ATOM     35  C   UNL A   1      42.667  29.773  28.497  1.00  0.00     0.074 A 
ATOM     36  C   UNL A   1      41.839  27.468  28.180  1.00  0.00     0.049 A 
ATOM     37  N   UNL A   1      43.933  29.635  28.199  1.00  0.00    -0.248 NA
ATOM     38  C   UNL A   1      42.301  31.121  28.963  1.00  0.00     0.031 C 
ATOM     39  C   UNL A   1      40.857  26.384  28.147  1.00  0.00     0.029 A 
ATOM     40  N   UNL A   1      43.032  26.849  27.905  1.00  0.00    -0.354 N 
ATOM     41  C   UNL A   1      44.511  30.881  28.412  1.00  0.00     0.074 A 
ATOM     42  C   UNL A   1      43.456  31.765  28.862  1.00  0.00     0.031 C 
ATOM     43  C   UNL A   1      41.487  25.233  27.859  1.00  0.00     0.029 A 
ATOM     44  C   UNL A   1      42.904  25.507  27.638  1.00  0.00     0.049 A 
ATOM     45  H   UNL A   1      43.896  27.320  27.899  1.00  0.00     0.167 HD
ATOM     46  C   UNL A   1      45.803  31.250  28.247  1.00  0.00     0.037 A 
ATOM     47  C   UNL A   1      43.818  24.606  27.224  1.00  0.00     0.037 A 
ATOM     48  C   UNL A   1      46.850  30.360  27.817  1.00  0.00     0.049 A 
ATOM     49  C   UNL A   1      45.239  25.049  27.006  1.00  0.00     0.074 A 
ATOM     50  C   UNL A   1      48.189  30.642  27.604  1.00  0.00     0.029 A 
ATOM     51  N   UNL A   1      46.679  29.010  27.545  1.00  0.00    -0.354 N 
ATOM     52  N   UNL A   1      45.763  26.241  27.163  1.00  0.00    -0.248 NA
ATOM     53  C   UNL A   1      46.191  24.028  26.546  1.00  0.00     0.031 C 
ATOM     54  C   UNL A   1      48.821  29.468  27.176  1.00  0.00     0.029 A 
ATOM     55  C   UNL A   1      47.883  28.447  27.159  1.00  0.00     0.049 A 
ATOM     56  H   UNL A   1      45.825  28.525  27.615  1.00  0.00     0.167 HD
ATOM     57  C   UNL A   1      47.107  26.112  26.832  1.00  0.00     0.074 A 
ATOM     58  C   UNL A   1      47.320  24.724  26.481  1.00  0.00     0.031 C 
ATOM     59  C   UNL A   1      48.076  27.060  26.816  1.00  0.00     0.037 A 
BRANCH  46  60
ATOM     60  C   UNL A   1      46.152  32.689  28.500  1.00  0.00     0.058 A 
ATOM     61  C   UNL A   1      46.007  33.671  27.507  1.00  0.00     0.135 A 
ATOM     62  C   UNL A   1      46.608  33.097  29.763  1.00  0.00     0.135 A 
ATOM     63  F   UNL A   1      45.594  33.330  26.276  1.00  0.00    -0.206 F 
ATOM     64  C   UNL A   1      46.319  35.004  27.753  1.00  0.00     0.059 A 
ATOM     65  C   UNL A   1      46.908  34.429  30.039  1.00  0.00     0.059 A 
ATOM     66  F   UNL A   1      46.769  32.197  30.747  1.00  0.00    -0.206 F 
ATOM     67  C   UNL A   1      46.771  35.372  29.022  1.00  0.00     0.060 A 
BRANCH  67  68
ATOM     68  S   UNL A   1      47.170  37.106  29.330  1.00  0.00     0.124 S 
ATOM     69  O   UNL A   1      48.376  37.275  28.526  1.00  0.00    -0.237 OA
ATOM     70  O   UNL A   1      45.980  37.795  28.838  1.00  0.00    -0.237 OA
ATOM     71  O   UNL A   1      47.365  37.158  30.776  1.00  0.00    -0.744 OA
ENDBRANCH  67  68
ENDBRANCH  46  60
BRANCH  47  72
ATOM     72  C   UNL A   1      43.401  23.207  26.952  1.00  0.00     0.058 A 
ATOM     73  C   UNL A   1      43.283  22.727  25.640  1.00  0.00     0.135 A 
ATOM     74  C   UNL A   1      43.141  22.313  28.003  1.00  0.00     0.135 A 
ATOM     75  F   UNL A   1      43.510  23.548  24.603  1.00  0.00    -0.206 F 
ATOM     76  C   UNL A   1      42.918  21.411  25.377  1.00  0.00     0.059 A 
ATOM     77  C   UNL A   1      42.798  20.986  27.766  1.00  0.00     0.059 A 
ATOM     78  F   UNL A   1      43.251  22.723  29.276  1.00  0.00    -0.206 F 
ATOM     79  C   UNL A   1      42.681  20.545  26.448  1.00  0.00     0.060 A 
BRANCH  79  80
ATOM     80  S   UNL A   1      42.275  18.821  26.102  1.00  0.00     0.124 S 
ATOM     81  O   UNL A   1      43.182  18.521  24.999  1.00  0.00    -0.237 OA
ATOM     82  O   UNL A   1      42.577  18.169  27.372  1.00  0.00    -0.237 OA
ATOM     83  O   UNL A   1      40.857  18.874  25.758  1.00  0.00    -0.744 OA
ENDBRANCH  79  80
ENDBRANCH  47  72
BRANCH  59  84
ATOM     84  C   UNL A   1      49.459  26.624  26.428  1.00  0.00     0.058 A 
ATOM     85  C   UNL A   1      50.322  26.014  27.352  1.00  0.00     0.135 A 
ATOM     86  C   UNL A   1      49.908  26.771  25.106  1.00  0.00     0.135 A 
ATOM     87  F   UNL A   1      49.942  25.857  28.630  1.00  0.00    -0.206 F 
ATOM     88  C   UNL A   1      51.591  25.581  26.982  1.00  0.00     0.059 A 
ATOM     89  C   UNL A   1      51.164  26.327  24.709  1.00  0.00     0.059 A 
ATOM     90  F   UNL A   1      49.116  27.340  24.184  1.00  0.00    -0.206 F 
ATOM     91  C   UNL A   1      52.004  25.742  25.658  1.00  0.00     0.060 A 
BRANCH  91  92
ATOM     92  S   UNL A   1      53.639  25.146  25.178  1.00  0.00     0.124 S 
ATOM     93  O   UNL A   1      54.497  25.840  26.132  1.00  0.00    -0.237 OA
ATOM     94  O   UNL A   1      53.517  23.703  25.368  1.00  0.00    -0.237 OA
ATOM     95  O   UNL A   1      53.763  25.578  23.789  1.00  0.00    -0.744 OA
ENDBRANCH  91  92
ENDBRANCH  59  84
ENDBRANCH  33  34
ENDBRANCH  26  28
ENDBRANCH  25  26
ENDBRANCH  24  25
ENDBRANCH   1  24
TORSDOF 18
ENDMDL
MODEL 3
REMARK VINA RESULT:     -10.3      6.056     12.101
REMARK SMILES CC[N@@H+]1CCO[C@H](C[NH2+][C@@H]2CCC[C@H](C(=O)OCCOC(=O)c3ccc(-c4c5nc(c(-c6c(F)cc(S(=O)(=O)[O-])cc6F)c6ccc([nH]6)c(-c6c(F)cc(S(=O)(=O)[O-])cc6F)c6nc(c(-c7c(F)cc(S(=O)(=O)[O-])cc7F)c7ccc4[nH]7)C=C6)C=C5)cc3)C2)C1
REMARK SMILES IDX 18 1 17 2 15 3 16 4 14 5 10 6 11 7 89 8 12 9 13 10 9 11 8 14
REMARK SMILES IDX 7 15 3 16 4 17 90 18 5 20 6 21 2 22 1 23 19 24 20 25 21 26
REMARK SMILES IDX 22 27 23 28 24 29 88 30 25 31 87 32 26 33 27 34 28 35 81 36
REMARK SMILES IDX 29 37 86 38 80 39 82 40 30 41 85 42 79 43 78 44 31 46 65 47
REMARK SMILES IDX 44 48 64 49 45 50 48 51 63 52 83 53 46 54 47 55 62 57 84 58
REMARK SMILES IDX 49 59 32 60 33 61 42 62 34 63 35 64 41 65 43 66 36 67 37 68
REMARK SMILES IDX 38 69 39 70 40 71 66 72 67 73 76 74 68 75 69 76 75 77 77 78
REMARK SMILES IDX 70 79 71 80 72 81 73 82 74 83 50 84 51 85 60 86 52 87 53 88
REMARK SMILES IDX 59 89 61 90 54 91 55 92 56 93 57 94 58 95
REMARK H PARENT 9 12 9 13 3 19 82 45 48 56
REMARK Flexibility Score: inf
ROOT
ATOM      1  C   UNL A   1      32.427  29.445  25.606  1.00  0.00     0.274 C 
ENDROOT
BRANCH   1   2
ATOM      2  O   UNL A   1      32.283  29.367  24.178  1.00  0.00    -0.462 OA
BRANCH   2   3
ATOM      3  C   UNL A   1      31.073  28.935  23.742  1.00  0.00     0.309 C 
ATOM      4  O   UNL A   1      30.036  29.587  23.790  1.00  0.00    -0.252 OA
BRANCH   3   5
ATOM      5  C   UNL A   1      31.115  27.533  23.178  1.00  0.00     0.105 C 
ATOM      6  C   UNL A   1      30.634  25.121  23.622  1.00  0.00     0.183 C 
ATOM      7  C   UNL A   1      31.838  24.746  22.719  1.00  0.00     0.065 C 
ATOM      8  C   UNL A   1      30.842  26.500  24.264  1.00  0.00     0.080 C 
ATOM      9  C   UNL A   1      32.204  25.828  21.709  1.00  0.00     0.007 C 
ATOM     10  C   UNL A   1      32.378  27.180  22.391  1.00  0.00     0.016 C 
BRANCH   6  11
ATOM     11  N   UNL A   1      30.281  24.180  24.700  1.00  0.00    -0.341 N 
ATOM     12  H   UNL A   1      29.860  24.709  25.464  1.00  0.00     0.346 HD
ATOM     13  H   UNL A   1      29.639  23.497  24.298  1.00  0.00     0.346 HD
BRANCH  11  14
ATOM     14  C   UNL A   1      31.418  23.435  25.230  1.00  0.00     0.299 C 
BRANCH  14  15
ATOM     15  C   UNL A   1      32.145  24.080  26.420  1.00  0.00     0.227 C 
ATOM     16  N   UNL A   1      34.579  23.298  26.031  1.00  0.00    -0.331 N 
ATOM     17  C   UNL A   1      34.408  22.541  27.292  1.00  0.00     0.291 C 
ATOM     18  C   UNL A   1      33.612  24.420  26.040  1.00  0.00     0.300 C 
ATOM     19  H   UNL A   1      35.492  23.742  25.945  1.00  0.00     0.348 HD
ATOM     20  C   UNL A   1      32.950  22.146  27.586  1.00  0.00     0.222 C 
ATOM     21  O   UNL A   1      32.085  23.283  27.619  1.00  0.00    -0.361 OA
BRANCH  16  22
ATOM     22  C   UNL A   1      34.573  22.388  24.877  1.00  0.00     0.258 C 
ATOM     23  C   UNL A   1      34.948  22.999  23.530  1.00  0.00     0.071 C 
ENDBRANCH  16  22
ENDBRANCH  14  15
ENDBRANCH  11  14
ENDBRANCH   6  11
ENDBRANCH   3   5
ENDBRANCH   2   3
ENDBRANCH   1   2
BRANCH   1  24
ATOM     24  C   UNL A   1      33.688  28.717  26.076  1.00  0.00     0.275 C 
BRANCH  24  25
ATOM     25  O   UNL A   1      33.896  28.866  27.494  1.00  0.00    -0.458 OA
BRANCH  25  26
ATOM     26  C   UNL A   1      34.401  30.063  27.881  1.00  0.00     0.338 C 
ATOM     27  O   UNL A   1      33.794  31.112  28.014  1.00  0.00    -0.246 OA
BRANCH  26  28
ATOM     28  C   UNL A   1      35.822  29.918  28.231  1.00  0.00     0.060 A 
ATOM     29  C   UNL A   1      36.773  30.077  27.222  1.00  0.00     0.016 A 
ATOM     30  C   UNL A   1      36.211  29.511  29.508  1.00  0.00     0.016 A 
ATOM     31  C   UNL A   1      38.120  29.836  27.478  1.00  0.00     0.010 A 
ATOM     32  C   UNL A   1      37.566  29.269  29.765  1.00  0.00     0.010 A 
ATOM     33  C   UNL A   1      38.527  29.420  28.749  1.00  0.00    -0.014 A 
BRANCH  33  34
ATOM     34  C   UNL A   1      39.951  29.084  28.995  1.00  0.00     0.031 A 
ATOM     35  C   UNL A   1      40.878  30.130  29.548  1.00  0.00     0.074 A 
ATOM     36  C   UNL A   1      40.406  27.842  28.745  1.00  0.00     0.049 A 
ATOM     37  N   UNL A   1      42.174  30.084  29.708  1.00  0.00    -0.248 NA
ATOM     38  C   UNL A   1      40.262  31.396  29.976  1.00  0.00     0.031 C 
ATOM     39  C   UNL A   1      39.591  26.726  28.264  1.00  0.00     0.029 A 
ATOM     40  N   UNL A   1      41.667  27.313  28.856  1.00  0.00    -0.354 N 
ATOM     41  C   UNL A   1      42.537  31.321  30.228  1.00  0.00     0.074 A 
ATOM     42  C   UNL A   1      41.322  32.099  30.353  1.00  0.00     0.031 C 
ATOM     43  C   UNL A   1      40.375  25.646  28.113  1.00  0.00     0.029 A 
ATOM     44  C   UNL A   1      41.752  26.007  28.438  1.00  0.00     0.049 A 
ATOM     45  H   UNL A   1      42.436  27.820  29.201  1.00  0.00     0.167 HD
ATOM     46  C   UNL A   1      43.770  31.764  30.568  1.00  0.00     0.037 A 
ATOM     47  C   UNL A   1      42.824  25.202  28.294  1.00  0.00     0.037 A 
ATOM     48  C   UNL A   1      44.971  30.977  30.458  1.00  0.00     0.049 A 
ATOM     49  C   UNL A   1      44.189  25.730  28.638  1.00  0.00     0.074 A 
ATOM     50  C   UNL A   1      46.272  31.341  30.762  1.00  0.00     0.029 A 
ATOM     51  N   UNL A   1      45.018  29.662  30.019  1.00  0.00    -0.354 N 
ATOM     52  N   UNL A   1      44.525  26.918  29.081  1.00  0.00    -0.248 NA
ATOM     53  C   UNL A   1      45.323  24.813  28.455  1.00  0.00     0.031 C 
ATOM     54  C   UNL A   1      47.108  30.254  30.481  1.00  0.00     0.029 A 
ATOM     55  C   UNL A   1      46.323  29.202  30.037  1.00  0.00     0.049 A 
ATOM     56  H   UNL A   1      44.237  29.134  29.735  1.00  0.00     0.167 HD
ATOM     57  C   UNL A   1      45.906  26.889  29.239  1.00  0.00     0.074 A 
ATOM     58  C   UNL A   1      46.342  25.561  28.860  1.00  0.00     0.031 C 
ATOM     59  C   UNL A   1      46.738  27.874  29.657  1.00  0.00     0.037 A 
BRANCH  46  60
ATOM     60  C   UNL A   1      43.889  33.178  31.061  1.00  0.00     0.058 A 
ATOM     61  C   UNL A   1      44.000  34.262  30.176  1.00  0.00     0.135 A 
ATOM     62  C   UNL A   1      43.858  33.454  32.437  1.00  0.00     0.135 A 
ATOM     63  F   UNL A   1      44.053  34.051  28.852  1.00  0.00    -0.206 F 
ATOM     64  C   UNL A   1      44.095  35.571  30.641  1.00  0.00     0.059 A 
ATOM     65  C   UNL A   1      43.932  34.757  32.923  1.00  0.00     0.059 A 
ATOM     66  F   UNL A   1      43.758  32.452  33.325  1.00  0.00    -0.206 F 
ATOM     67  C   UNL A   1      44.063  35.807  32.016  1.00  0.00     0.060 A 
BRANCH  67  68
ATOM     68  S   UNL A   1      44.184  37.510  32.606  1.00  0.00     0.124 S 
ATOM     69  O   UNL A   1      43.131  37.543  33.615  1.00  0.00    -0.237 OA
ATOM     70  O   UNL A   1      45.551  37.570  33.114  1.00  0.00    -0.237 OA
ATOM     71  O   UNL A   1      43.930  38.303  31.407  1.00  0.00    -0.744 OA
ENDBRANCH  67  68
ENDBRANCH  46  60
BRANCH  47  72
ATOM     72  C   UNL A   1      42.646  23.826  27.763  1.00  0.00     0.058 A 
ATOM     73  C   UNL A   1      42.516  22.728  28.623  1.00  0.00     0.135 A 
ATOM     74  C   UNL A   1      42.573  23.589  26.381  1.00  0.00     0.135 A 
ATOM     75  F   UNL A   1      42.591  22.903  29.951  1.00  0.00    -0.206 F 
ATOM     76  C   UNL A   1      42.324  21.440  28.134  1.00  0.00     0.059 A 
ATOM     77  C   UNL A   1      42.358  22.314  25.869  1.00  0.00     0.059 A 
ATOM     78  F   UNL A   1      42.682  24.610  25.518  1.00  0.00    -0.206 F 
ATOM     79  C   UNL A   1      42.242  21.243  26.754  1.00  0.00     0.060 A 
BRANCH  79  80
ATOM     80  S   UNL A   1      41.924  19.580  26.127  1.00  0.00     0.124 S 
ATOM     81  O   UNL A   1      42.826  19.521  24.982  1.00  0.00    -0.237 OA
ATOM     82  O   UNL A   1      42.284  18.744  27.268  1.00  0.00    -0.237 OA
ATOM     83  O   UNL A   1      40.499  19.610  25.808  1.00  0.00    -0.744 OA
ENDBRANCH  79  80
ENDBRANCH  47  72
BRANCH  59  84
ATOM     84  C   UNL A   1      48.201  27.548  29.748  1.00  0.00     0.058 A 
ATOM     85  C   UNL A   1      49.049  27.666  28.636  1.00  0.00     0.135 A 
ATOM     86  C   UNL A   1      48.770  27.163  30.973  1.00  0.00     0.135 A 
ATOM     87  F   UNL A   1      48.551  28.025  27.443  1.00  0.00    -0.206 F 
ATOM     88  C   UNL A   1      50.410  27.394  28.731  1.00  0.00     0.059 A 
ATOM     89  C   UNL A   1      50.131  26.906  31.095  1.00  0.00     0.059 A 
ATOM     90  F   UNL A   1      48.001  27.044  32.067  1.00  0.00    -0.206 F 
ATOM     91  C   UNL A   1      50.942  27.015  29.965  1.00  0.00     0.060 A 
BRANCH  91  92
ATOM     92  S   UNL A   1      52.715  26.699  30.087  1.00  0.00     0.124 S 
ATOM     93  O   UNL A   1      52.753  25.603  31.049  1.00  0.00    -0.237 OA
ATOM     94  O   UNL A   1      53.069  26.349  28.714  1.00  0.00    -0.237 OA
ATOM     95  O   UNL A   1      53.255  27.970  30.560  1.00  0.00    -0.744 OA
ENDBRANCH  91  92
ENDBRANCH  59  84
ENDBRANCH  33  34
ENDBRANCH  26  28
ENDBRANCH  25  26
ENDBRANCH  24  25
ENDBRANCH   1  24
TORSDOF 18
ENDMDL
