MODEL 1
REMARK VINA RESULT:      -9.1      0.000      0.000
REMARK SMILES O=C(CCCC[C@@H]1CCSS1)OCCOC(=O)c1ccc(-c2c3nc(c(-c4c(F)cc(S(=O)(=O)[O-])cc4F)c4ccc([nH]4)c(-c4c(F)cc(S(=O)(=O)[O-])cc4F)c4nc(c(-c5c(F)cc(S(=O)(=O)[O-])cc5F)c5ccc2[nH]5)C=C4)C=C3)cc1
REMARK SMILES IDX 13 1 12 2 2 3 1 4 3 5 4 6 5 7 6 8 7 9 8 10 11 11 9 12 10 13
REMARK SMILES IDX 14 14 15 15 16 16 17 17 18 18 19 19 83 20 20 21 82 22 21 23
REMARK SMILES IDX 22 24 23 25 76 26 24 27 81 28 75 29 77 30 25 31 80 32 74 33
REMARK SMILES IDX 73 34 26 36 60 37 39 38 59 39 40 40 43 41 58 42 78 43 41 44
REMARK SMILES IDX 42 45 57 47 79 48 44 49 27 50 28 51 37 52 29 53 30 54 36 55
REMARK SMILES IDX 38 56 31 57 32 58 33 59 34 60 35 61 61 62 62 63 71 64 63 65
REMARK SMILES IDX 64 66 70 67 72 68 65 69 66 70 67 71 68 72 69 73 45 74 46 75
REMARK SMILES IDX 55 76 47 77 48 78 54 79 56 80 49 81 50 82 51 83 52 84 53 85
REMARK H PARENT 77 35 43 46
REMARK Flexibility Score: inf
ROOT
ATOM      1  C   UNL A   1      41.434  19.915  26.363  1.00  0.00     0.274 C 
ENDROOT
BRANCH   1   2
ATOM      2  O   UNL A   1      42.271  19.500  25.271  1.00  0.00    -0.462 OA
BRANCH   2   3
ATOM      3  C   UNL A   1      43.326  18.676  25.504  1.00  0.00     0.305 C 
ATOM      4  O   UNL A   1      43.354  17.961  26.500  1.00  0.00    -0.252 OA
BRANCH   3   5
ATOM      5  C   UNL A   1      44.517  18.812  24.573  1.00  0.00     0.123 C 
BRANCH   5   6
ATOM      6  C   UNL A   1      45.746  19.443  25.222  1.00  0.00     0.012 C 
BRANCH   6   7
ATOM      7  C   UNL A   1      46.105  20.829  24.683  1.00  0.00     0.002 C 
BRANCH   7   8
ATOM      8  C   UNL A   1      44.968  21.861  24.614  1.00  0.00     0.015 C 
BRANCH   8   9
ATOM      9  C   UNL A   1      45.207  23.261  25.200  1.00  0.00     0.059 C 
ATOM     10  C   UNL A   1      46.547  23.814  24.676  1.00  0.00     0.027 C 
ATOM     11  S   UNL A   1      45.313  23.260  27.017  1.00  0.00    -0.091 SA
ATOM     12  C   UNL A   1      46.992  25.029  25.476  1.00  0.00     0.083 C 
ATOM     13  S   UNL A   1      46.898  24.541  27.211  1.00  0.00    -0.094 SA
ENDBRANCH   8   9
ENDBRANCH   7   8
ENDBRANCH   6   7
ENDBRANCH   5   6
ENDBRANCH   3   5
ENDBRANCH   2   3
ENDBRANCH   1   2
BRANCH   1  14
ATOM     14  C   UNL A   1      41.157  21.422  26.367  1.00  0.00     0.275 C 
BRANCH  14  15
ATOM     15  O   UNL A   1      39.937  21.735  27.057  1.00  0.00    -0.458 OA
BRANCH  15  16
ATOM     16  C   UNL A   1      39.169  22.669  26.434  1.00  0.00     0.338 C 
ATOM     17  O   UNL A   1      38.223  22.455  25.700  1.00  0.00    -0.246 OA
BRANCH  16  18
ATOM     18  C   UNL A   1      39.540  24.021  26.910  1.00  0.00     0.060 A 
ATOM     19  C   UNL A   1      40.074  24.915  25.972  1.00  0.00     0.016 A 
ATOM     20  C   UNL A   1      39.375  24.415  28.242  1.00  0.00     0.016 A 
ATOM     21  C   UNL A   1      40.471  26.192  26.367  1.00  0.00     0.010 A 
ATOM     22  C   UNL A   1      39.783  25.694  28.639  1.00  0.00     0.010 A 
ATOM     23  C   UNL A   1      40.355  26.579  27.709  1.00  0.00    -0.014 A 
BRANCH  23  24
ATOM     24  C   UNL A   1      40.947  27.861  28.164  1.00  0.00     0.031 A 
ATOM     25  C   UNL A   1      42.437  28.044  28.081  1.00  0.00     0.074 A 
ATOM     26  C   UNL A   1      40.173  28.848  28.652  1.00  0.00     0.049 A 
ATOM     27  N   UNL A   1      43.166  29.067  28.443  1.00  0.00    -0.248 NA
ATOM     28  C   UNL A   1      43.208  26.924  27.516  1.00  0.00     0.031 C 
ATOM     29  C   UNL A   1      38.717  28.800  28.771  1.00  0.00     0.029 A 
ATOM     30  N   UNL A   1      40.512  30.080  29.153  1.00  0.00    -0.354 N 
ATOM     31  C   UNL A   1      44.479  28.718  28.153  1.00  0.00     0.074 A 
ATOM     32  C   UNL A   1      44.451  27.378  27.607  1.00  0.00     0.031 C 
ATOM     33  C   UNL A   1      38.289  29.944  29.337  1.00  0.00     0.029 A 
ATOM     34  C   UNL A   1      39.440  30.793  29.635  1.00  0.00     0.049 A 
ATOM     35  H   UNL A   1      41.435  30.420  29.168  1.00  0.00     0.167 HD
ATOM     36  C   UNL A   1      45.606  29.449  28.320  1.00  0.00     0.037 A 
ATOM     37  C   UNL A   1      39.397  31.985  30.263  1.00  0.00     0.037 A 
ATOM     38  C   UNL A   1      45.637  30.782  28.857  1.00  0.00     0.049 A 
ATOM     39  C   UNL A   1      40.674  32.752  30.498  1.00  0.00     0.074 A 
ATOM     40  C   UNL A   1      46.726  31.624  29.003  1.00  0.00     0.029 A 
ATOM     41  N   UNL A   1      44.536  31.460  29.355  1.00  0.00    -0.354 N 
ATOM     42  N   UNL A   1      41.899  32.441  30.148  1.00  0.00    -0.248 NA
ATOM     43  C   UNL A   1      40.563  34.033  31.214  1.00  0.00     0.031 C 
ATOM     44  C   UNL A   1      46.291  32.794  29.635  1.00  0.00     0.029 A 
ATOM     45  C   UNL A   1      44.925  32.696  29.846  1.00  0.00     0.049 A 
ATOM     46  H   UNL A   1      43.613  31.116  29.359  1.00  0.00     0.167 HD
ATOM     47  C   UNL A   1      42.699  33.494  30.584  1.00  0.00     0.074 A 
ATOM     48  C   UNL A   1      41.820  34.456  31.214  1.00  0.00     0.031 C 
ATOM     49  C   UNL A   1      44.041  33.648  30.468  1.00  0.00     0.037 A 
BRANCH  36  50
ATOM     50  C   UNL A   1      46.909  28.816  27.930  1.00  0.00     0.058 A 
ATOM     51  C   UNL A   1      47.675  28.087  28.851  1.00  0.00     0.135 A 
ATOM     52  C   UNL A   1      47.371  28.900  26.608  1.00  0.00     0.135 A 
ATOM     53  F   UNL A   1      47.283  27.991  30.132  1.00  0.00    -0.206 F 
ATOM     54  C   UNL A   1      48.867  27.475  28.479  1.00  0.00     0.059 A 
ATOM     55  C   UNL A   1      48.551  28.281  26.208  1.00  0.00     0.059 A 
ATOM     56  F   UNL A   1      46.675  29.592  25.692  1.00  0.00    -0.206 F 
ATOM     57  C   UNL A   1      49.297  27.579  27.154  1.00  0.00     0.060 A 
BRANCH  57  58
ATOM     58  S   UNL A   1      50.842  26.772  26.681  1.00  0.00     0.124 S 
ATOM     59  O   UNL A   1      50.555  25.380  27.017  1.00  0.00    -0.237 OA
ATOM     60  O   UNL A   1      50.931  27.074  25.257  1.00  0.00    -0.237 OA
ATOM     61  O   UNL A   1      51.838  27.427  27.522  1.00  0.00    -0.744 OA
ENDBRANCH  57  58
ENDBRANCH  36  50
BRANCH  37  62
ATOM     62  C   UNL A   1      38.100  32.525  30.752  1.00  0.00     0.058 A 
ATOM     63  C   UNL A   1      37.264  33.276  29.914  1.00  0.00     0.135 A 
ATOM     64  C   UNL A   1      37.689  32.321  32.079  1.00  0.00     0.135 A 
ATOM     65  F   UNL A   1      37.622  33.507  28.642  1.00  0.00    -0.206 F 
ATOM     66  C   UNL A   1      36.074  33.826  30.380  1.00  0.00     0.059 A 
ATOM     67  C   UNL A   1      36.493  32.843  32.561  1.00  0.00     0.059 A 
ATOM     68  F   UNL A   1      38.453  31.602  32.917  1.00  0.00    -0.206 F 
ATOM     69  C   UNL A   1      35.700  33.607  31.707  1.00  0.00     0.060 A 
BRANCH  69  70
ATOM     70  S   UNL A   1      34.144  34.308  32.300  1.00  0.00     0.124 S 
ATOM     71  O   UNL A   1      33.484  34.657  31.047  1.00  0.00    -0.237 OA
ATOM     72  O   UNL A   1      33.563  33.190  33.038  1.00  0.00    -0.237 OA
ATOM     73  O   UNL A   1      34.577  35.433  33.121  1.00  0.00    -0.744 OA
ENDBRANCH  69  70
ENDBRANCH  37  62
BRANCH  49  74
ATOM     74  C   UNL A   1      44.653  34.905  31.020  1.00  0.00     0.058 A 
ATOM     75  C   UNL A   1      45.189  34.950  32.315  1.00  0.00     0.135 A 
ATOM     76  C   UNL A   1      44.783  36.049  30.215  1.00  0.00     0.135 A 
ATOM     77  F   UNL A   1      45.085  33.886  33.127  1.00  0.00    -0.206 F 
ATOM     78  C   UNL A   1      45.831  36.087  32.796  1.00  0.00     0.059 A 
ATOM     79  C   UNL A   1      45.440  37.189  30.667  1.00  0.00     0.059 A 
ATOM     80  F   UNL A   1      44.295  36.054  28.964  1.00  0.00    -0.206 F 
ATOM     81  C   UNL A   1      45.958  37.200  31.962  1.00  0.00     0.060 A 
BRANCH  81  82
ATOM     82  S   UNL A   1      46.852  38.645  32.572  1.00  0.00     0.124 S 
ATOM     83  O   UNL A   1      46.990  39.442  31.357  1.00  0.00    -0.237 OA
ATOM     84  O   UNL A   1      45.940  39.179  33.579  1.00  0.00    -0.237 OA
ATOM     85  O   UNL A   1      48.092  38.080  33.096  1.00  0.00    -0.744 OA
ENDBRANCH  81  82
ENDBRANCH  49  74
ENDBRANCH  23  24
ENDBRANCH  16  18
ENDBRANCH  15  16
ENDBRANCH  14  15
ENDBRANCH   1  14
TORSDOF 18
ENDMDL
MODEL 2
REMARK VINA RESULT:      -9.0      5.541      7.225
REMARK SMILES O=C(CCCC[C@@H]1CCSS1)OCCOC(=O)c1ccc(-c2c3nc(c(-c4c(F)cc(S(=O)(=O)[O-])cc4F)c4ccc([nH]4)c(-c4c(F)cc(S(=O)(=O)[O-])cc4F)c4nc(c(-c5c(F)cc(S(=O)(=O)[O-])cc5F)c5ccc2[nH]5)C=C4)C=C3)cc1
REMARK SMILES IDX 13 1 12 2 2 3 1 4 3 5 4 6 5 7 6 8 7 9 8 10 11 11 9 12 10 13
REMARK SMILES IDX 14 14 15 15 16 16 17 17 18 18 19 19 83 20 20 21 82 22 21 23
REMARK SMILES IDX 22 24 23 25 76 26 24 27 81 28 75 29 77 30 25 31 80 32 74 33
REMARK SMILES IDX 73 34 26 36 60 37 39 38 59 39 40 40 43 41 58 42 78 43 41 44
REMARK SMILES IDX 42 45 57 47 79 48 44 49 27 50 28 51 37 52 29 53 30 54 36 55
REMARK SMILES IDX 38 56 31 57 32 58 33 59 34 60 35 61 61 62 62 63 71 64 63 65
REMARK SMILES IDX 64 66 70 67 72 68 65 69 66 70 67 71 68 72 69 73 45 74 46 75
REMARK SMILES IDX 55 76 47 77 48 78 54 79 56 80 49 81 50 82 51 83 52 84 53 85
REMARK H PARENT 77 35 43 46
REMARK Flexibility Score: inf
ROOT
ATOM      1  C   UNL A   1      43.254  22.027  25.866  1.00  0.00     0.274 C 
ENDROOT
BRANCH   1   2
ATOM      2  O   UNL A   1      42.991  20.793  26.553  1.00  0.00    -0.462 OA
BRANCH   2   3
ATOM      3  C   UNL A   1      41.869  20.083  26.262  1.00  0.00     0.305 C 
ATOM      4  O   UNL A   1      41.874  19.246  25.365  1.00  0.00    -0.252 OA
BRANCH   3   5
ATOM      5  C   UNL A   1      40.596  20.492  26.979  1.00  0.00     0.123 C 
BRANCH   5   6
ATOM      6  C   UNL A   1      39.435  20.822  26.045  1.00  0.00     0.012 C 
BRANCH   6   7
ATOM      7  C   UNL A   1      38.915  22.257  26.164  1.00  0.00     0.002 C 
BRANCH   7   8
ATOM      8  C   UNL A   1      37.650  22.604  25.362  1.00  0.00     0.015 C 
BRANCH   8   9
ATOM      9  C   UNL A   1      36.311  21.991  25.797  1.00  0.00     0.059 C 
ATOM     10  C   UNL A   1      35.972  20.797  24.882  1.00  0.00     0.027 C 
ATOM     11  S   UNL A   1      34.922  23.160  25.673  1.00  0.00    -0.091 SA
ATOM     12  C   UNL A   1      34.520  20.373  25.046  1.00  0.00     0.083 C 
ATOM     13  S   UNL A   1      33.541  21.879  24.871  1.00  0.00    -0.094 SA
ENDBRANCH   8   9
ENDBRANCH   7   8
ENDBRANCH   6   7
ENDBRANCH   5   6
ENDBRANCH   3   5
ENDBRANCH   2   3
ENDBRANCH   1   2
BRANCH   1  14
ATOM     14  C   UNL A   1      43.055  23.261  26.751  1.00  0.00     0.275 C 
BRANCH  14  15
ATOM     15  O   UNL A   1      41.823  23.937  26.450  1.00  0.00    -0.458 OA
BRANCH  15  16
ATOM     16  C   UNL A   1      41.975  25.244  26.107  1.00  0.00     0.338 C 
ATOM     17  O   UNL A   1      42.040  25.692  24.977  1.00  0.00    -0.246 OA
BRANCH  16  18
ATOM     18  C   UNL A   1      41.882  26.094  27.316  1.00  0.00     0.060 A 
ATOM     19  C   UNL A   1      40.798  25.877  28.178  1.00  0.00     0.016 A 
ATOM     20  C   UNL A   1      42.825  27.084  27.608  1.00  0.00     0.016 A 
ATOM     21  C   UNL A   1      40.639  26.668  29.316  1.00  0.00     0.010 A 
ATOM     22  C   UNL A   1      42.658  27.882  28.745  1.00  0.00     0.010 A 
ATOM     23  C   UNL A   1      41.553  27.694  29.591  1.00  0.00    -0.014 A 
BRANCH  23  24
ATOM     24  C   UNL A   1      41.282  28.651  30.692  1.00  0.00     0.031 A 
ATOM     25  C   UNL A   1      42.081  28.544  31.962  1.00  0.00     0.074 A 
ATOM     26  C   UNL A   1      40.333  29.597  30.571  1.00  0.00     0.049 A 
ATOM     27  N   UNL A   1      41.995  29.255  33.055  1.00  0.00    -0.248 NA
ATOM     28  C   UNL A   1      43.113  27.494  32.005  1.00  0.00     0.031 C 
ATOM     29  C   UNL A   1      39.501  29.813  29.388  1.00  0.00     0.029 A 
ATOM     30  N   UNL A   1      39.901  30.545  31.465  1.00  0.00    -0.354 N 
ATOM     31  C   UNL A   1      42.957  28.743  33.917  1.00  0.00     0.074 A 
ATOM     32  C   UNL A   1      43.599  27.644  33.229  1.00  0.00     0.031 C 
ATOM     33  C   UNL A   1      38.639  30.816  29.641  1.00  0.00     0.029 A 
ATOM     34  C   UNL A   1      38.846  31.297  31.005  1.00  0.00     0.049 A 
ATOM     35  H   UNL A   1      40.308  30.674  32.352  1.00  0.00     0.167 HD
ATOM     36  C   UNL A   1      43.281  29.155  35.165  1.00  0.00     0.037 A 
ATOM     37  C   UNL A   1      38.119  32.249  31.623  1.00  0.00     0.037 A 
ATOM     38  C   UNL A   1      42.648  30.250  35.849  1.00  0.00     0.049 A 
ATOM     39  C   UNL A   1      38.456  32.645  33.039  1.00  0.00     0.074 A 
ATOM     40  C   UNL A   1      42.955  30.779  37.089  1.00  0.00     0.029 A 
ATOM     41  N   UNL A   1      41.569  30.970  35.360  1.00  0.00    -0.354 N 
ATOM     42  N   UNL A   1      39.418  32.203  33.811  1.00  0.00    -0.248 NA
ATOM     43  C   UNL A   1      37.607  33.670  33.667  1.00  0.00     0.031 C 
ATOM     44  C   UNL A   1      42.029  31.789  37.374  1.00  0.00     0.029 A 
ATOM     45  C   UNL A   1      41.172  31.914  36.293  1.00  0.00     0.049 A 
ATOM     46  H   UNL A   1      41.148  30.833  34.481  1.00  0.00     0.167 HD
ATOM     47  C   UNL A   1      39.302  32.908  35.007  1.00  0.00     0.074 A 
ATOM     48  C   UNL A   1      38.183  33.812  34.853  1.00  0.00     0.031 C 
ATOM     49  C   UNL A   1      40.058  32.813  36.128  1.00  0.00     0.037 A 
BRANCH  36  50
ATOM     50  C   UNL A   1      44.363  28.406  35.884  1.00  0.00     0.058 A 
ATOM     51  C   UNL A   1      44.070  27.329  36.733  1.00  0.00     0.135 A 
ATOM     52  C   UNL A   1      45.711  28.741  35.684  1.00  0.00     0.135 A 
ATOM     53  F   UNL A   1      42.796  26.981  36.970  1.00  0.00    -0.206 F 
ATOM     54  C   UNL A   1      45.079  26.617  37.375  1.00  0.00     0.059 A 
ATOM     55  C   UNL A   1      46.737  28.031  36.300  1.00  0.00     0.059 A 
ATOM     56  F   UNL A   1      46.041  29.768  34.884  1.00  0.00    -0.206 F 
ATOM     57  C   UNL A   1      46.409  26.977  37.152  1.00  0.00     0.060 A 
BRANCH  57  58
ATOM     58  S   UNL A   1      47.709  26.039  37.983  1.00  0.00     0.124 S 
ATOM     59  O   UNL A   1      48.890  26.835  37.663  1.00  0.00    -0.237 OA
ATOM     60  O   UNL A   1      47.280  26.074  39.377  1.00  0.00    -0.237 OA
ATOM     61  O   UNL A   1      47.643  24.729  37.343  1.00  0.00    -0.744 OA
ENDBRANCH  57  58
ENDBRANCH  36  50
BRANCH  37  62
ATOM     62  C   UNL A   1      36.969  32.881  30.924  1.00  0.00     0.058 A 
ATOM     63  C   UNL A   1      35.649  32.503  31.209  1.00  0.00     0.135 A 
ATOM     64  C   UNL A   1      37.173  33.856  29.935  1.00  0.00     0.135 A 
ATOM     65  F   UNL A   1      35.405  31.565  32.137  1.00  0.00    -0.206 F 
ATOM     66  C   UNL A   1      34.571  33.053  30.522  1.00  0.00     0.059 A 
ATOM     67  C   UNL A   1      36.111  34.436  29.250  1.00  0.00     0.059 A 
ATOM     68  F   UNL A   1      38.419  34.256  29.633  1.00  0.00    -0.206 F 
ATOM     69  C   UNL A   1      34.814  34.017  29.541  1.00  0.00     0.060 A 
BRANCH  69  70
ATOM     70  S   UNL A   1      33.409  34.742  28.667  1.00  0.00     0.124 S 
ATOM     71  O   UNL A   1      33.068  33.679  27.729  1.00  0.00    -0.237 OA
ATOM     72  O   UNL A   1      32.455  34.969  29.749  1.00  0.00    -0.237 OA
ATOM     73  O   UNL A   1      33.973  35.951  28.076  1.00  0.00    -0.744 OA
ENDBRANCH  69  70
ENDBRANCH  37  62
BRANCH  49  74
ATOM     74  C   UNL A   1      39.718  33.715  37.281  1.00  0.00     0.058 A 
ATOM     75  C   UNL A   1      38.854  33.300  38.305  1.00  0.00     0.135 A 
ATOM     76  C   UNL A   1      40.331  34.973  37.409  1.00  0.00     0.135 A 
ATOM     77  F   UNL A   1      38.238  32.110  38.228  1.00  0.00    -0.206 F 
ATOM     78  C   UNL A   1      38.606  34.101  39.415  1.00  0.00     0.059 A 
ATOM     79  C   UNL A   1      40.114  35.782  38.520  1.00  0.00     0.059 A 
ATOM     80  F   UNL A   1      41.173  35.413  36.461  1.00  0.00    -0.206 F 
ATOM     81  C   UNL A   1      39.246  35.338  39.518  1.00  0.00     0.060 A 
BRANCH  81  82
ATOM     82  S   UNL A   1      38.969  36.340  40.994  1.00  0.00     0.124 S 
ATOM     83  O   UNL A   1      38.618  37.632  40.413  1.00  0.00    -0.237 OA
ATOM     84  O   UNL A   1      37.881  35.628  41.658  1.00  0.00    -0.237 OA
ATOM     85  O   UNL A   1      40.255  36.290  41.684  1.00  0.00    -0.744 OA
ENDBRANCH  81  82
ENDBRANCH  49  74
ENDBRANCH  23  24
ENDBRANCH  16  18
ENDBRANCH  15  16
ENDBRANCH  14  15
ENDBRANCH   1  14
TORSDOF 18
ENDMDL
MODEL 3
REMARK VINA RESULT:      -8.8      3.820     11.010
REMARK SMILES O=C(CCCC[C@@H]1CCSS1)OCCOC(=O)c1ccc(-c2c3nc(c(-c4c(F)cc(S(=O)(=O)[O-])cc4F)c4ccc([nH]4)c(-c4c(F)cc(S(=O)(=O)[O-])cc4F)c4nc(c(-c5c(F)cc(S(=O)(=O)[O-])cc5F)c5ccc2[nH]5)C=C4)C=C3)cc1
REMARK SMILES IDX 13 1 12 2 2 3 1 4 3 5 4 6 5 7 6 8 7 9 8 10 11 11 9 12 10 13
REMARK SMILES IDX 14 14 15 15 16 16 17 17 18 18 19 19 83 20 20 21 82 22 21 23
REMARK SMILES IDX 22 24 23 25 76 26 24 27 81 28 75 29 77 30 25 31 80 32 74 33
REMARK SMILES IDX 73 34 26 36 60 37 39 38 59 39 40 40 43 41 58 42 78 43 41 44
REMARK SMILES IDX 42 45 57 47 79 48 44 49 27 50 28 51 37 52 29 53 30 54 36 55
REMARK SMILES IDX 38 56 31 57 32 58 33 59 34 60 35 61 61 62 62 63 71 64 63 65
REMARK SMILES IDX 64 66 70 67 72 68 65 69 66 70 67 71 68 72 69 73 45 74 46 75
REMARK SMILES IDX 55 76 47 77 48 78 54 79 56 80 49 81 50 82 51 83 52 84 53 85
REMARK H PARENT 77 35 43 46
REMARK Flexibility Score: inf
ROOT
ATOM      1  C   UNL A   1      34.684  32.214  27.899  1.00  0.00     0.274 C 
ENDROOT
BRANCH   1   2
ATOM      2  O   UNL A   1      33.866  31.043  28.053  1.00  0.00    -0.462 OA
BRANCH   2   3
ATOM      3  C   UNL A   1      34.062  29.970  27.242  1.00  0.00     0.305 C 
ATOM      4  O   UNL A   1      35.007  29.209  27.428  1.00  0.00    -0.252 OA
BRANCH   3   5
ATOM      5  C   UNL A   1      33.166  29.863  26.022  1.00  0.00     0.123 C 
BRANCH   5   6
ATOM      6  C   UNL A   1      31.823  29.191  26.292  1.00  0.00     0.012 C 
BRANCH   6   7
ATOM      7  C   UNL A   1      31.924  27.832  26.989  1.00  0.00     0.002 C 
BRANCH   7   8
ATOM      8  C   UNL A   1      31.224  26.648  26.302  1.00  0.00     0.015 C 
BRANCH   8   9
ATOM      9  C   UNL A   1      32.083  25.487  25.779  1.00  0.00     0.059 C 
ATOM     10  C   UNL A   1      33.562  25.919  25.746  1.00  0.00     0.027 C 
ATOM     11  S   UNL A   1      31.642  24.986  24.086  1.00  0.00    -0.091 SA
ATOM     12  C   UNL A   1      34.401  24.946  24.929  1.00  0.00     0.083 C 
ATOM     13  S   UNL A   1      33.540  24.750  23.355  1.00  0.00    -0.094 SA
ENDBRANCH   8   9
ENDBRANCH   7   8
ENDBRANCH   6   7
ENDBRANCH   5   6
ENDBRANCH   3   5
ENDBRANCH   2   3
ENDBRANCH   1   2
BRANCH   1  14
ATOM     14  C   UNL A   1      34.926  32.955  29.217  1.00  0.00     0.275 C 
BRANCH  14  15
ATOM     15  O   UNL A   1      36.281  32.804  29.670  1.00  0.00    -0.458 OA
BRANCH  15  16
ATOM     16  C   UNL A   1      36.487  31.716  30.459  1.00  0.00     0.338 C 
ATOM     17  O   UNL A   1      35.713  31.260  31.280  1.00  0.00    -0.246 OA
BRANCH  16  18
ATOM     18  C   UNL A   1      37.742  31.038  30.060  1.00  0.00     0.060 A 
ATOM     19  C   UNL A   1      38.722  30.856  31.046  1.00  0.00     0.016 A 
ATOM     20  C   UNL A   1      37.967  30.590  28.755  1.00  0.00     0.016 A 
ATOM     21  C   UNL A   1      39.938  30.253  30.723  1.00  0.00     0.010 A 
ATOM     22  C   UNL A   1      39.192  29.995  28.431  1.00  0.00     0.010 A 
ATOM     23  C   UNL A   1      40.191  29.845  29.407  1.00  0.00    -0.014 A 
BRANCH  23  24
ATOM     24  C   UNL A   1      41.546  29.378  29.025  1.00  0.00     0.031 A 
ATOM     25  C   UNL A   1      42.670  30.376  28.965  1.00  0.00     0.074 A 
ATOM     26  C   UNL A   1      41.776  28.087  28.726  1.00  0.00     0.049 A 
ATOM     27  N   UNL A   1      43.920  30.194  28.632  1.00  0.00    -0.248 NA
ATOM     28  C   UNL A   1      42.337  31.765  29.326  1.00  0.00     0.031 C 
ATOM     29  C   UNL A   1      40.776  27.020  28.760  1.00  0.00     0.029 A 
ATOM     30  N   UNL A   1      42.926  27.457  28.319  1.00  0.00    -0.354 N 
ATOM     31  C   UNL A   1      44.526  31.439  28.742  1.00  0.00     0.074 A 
ATOM     32  C   UNL A   1      43.500  32.375  29.149  1.00  0.00     0.031 C 
ATOM     33  C   UNL A   1      41.353  25.870  28.364  1.00  0.00     0.029 A 
ATOM     34  C   UNL A   1      42.754  26.124  28.031  1.00  0.00     0.049 A 
ATOM     35  H   UNL A   1      43.793  27.917  28.241  1.00  0.00     0.167 HD
ATOM     36  C   UNL A   1      45.821  31.772  28.531  1.00  0.00     0.037 A 
ATOM     37  C   UNL A   1      43.622  25.219  27.536  1.00  0.00     0.037 A 
ATOM     38  C   UNL A   1      46.844  30.843  28.132  1.00  0.00     0.049 A 
ATOM     39  C   UNL A   1      45.043  25.630  27.246  1.00  0.00     0.074 A 
ATOM     40  C   UNL A   1      48.196  31.078  27.957  1.00  0.00     0.029 A 
ATOM     41  N   UNL A   1      46.626  29.509  27.827  1.00  0.00    -0.354 N 
ATOM     42  N   UNL A   1      45.619  26.794  27.427  1.00  0.00    -0.248 NA
ATOM     43  C   UNL A   1      45.933  24.603  26.680  1.00  0.00     0.031 C 
ATOM     44  C   UNL A   1      48.789  29.896  27.498  1.00  0.00     0.029 A 
ATOM     45  C   UNL A   1      47.812  28.916  27.426  1.00  0.00     0.049 A 
ATOM     46  H   UNL A   1      45.757  29.049  27.888  1.00  0.00     0.167 HD
ATOM     47  C   UNL A   1      46.940  26.634  27.018  1.00  0.00     0.074 A 
ATOM     48  C   UNL A   1      47.083  25.260  26.588  1.00  0.00     0.031 C 
ATOM     49  C   UNL A   1      47.943  27.546  27.003  1.00  0.00     0.037 A 
BRANCH  36  50
ATOM     50  C   UNL A   1      46.207  33.210  28.711  1.00  0.00     0.058 A 
ATOM     51  C   UNL A   1      46.663  33.699  29.944  1.00  0.00     0.135 A 
ATOM     52  C   UNL A   1      46.165  34.097  27.625  1.00  0.00     0.135 A 
ATOM     53  F   UNL A   1      46.706  32.893  31.017  1.00  0.00    -0.206 F 
ATOM     54  C   UNL A   1      47.049  35.026  30.099  1.00  0.00     0.059 A 
ATOM     55  C   UNL A   1      46.564  35.423  27.752  1.00  0.00     0.059 A 
ATOM     56  F   UNL A   1      45.730  33.677  26.426  1.00  0.00    -0.206 F 
ATOM     57  C   UNL A   1      46.995  35.881  28.996  1.00  0.00     0.060 A 
BRANCH  57  58
ATOM     58  S   UNL A   1      47.509  37.599  29.209  1.00  0.00     0.124 S 
ATOM     59  O   UNL A   1      46.707  38.000  30.361  1.00  0.00    -0.237 OA
ATOM     60  O   UNL A   1      48.942  37.471  29.449  1.00  0.00    -0.237 OA
ATOM     61  O   UNL A   1      47.141  38.222  27.942  1.00  0.00    -0.744 OA
ENDBRANCH  57  58
ENDBRANCH  36  50
BRANCH  37  62
ATOM     62  C   UNL A   1      43.170  23.832  27.248  1.00  0.00     0.058 A 
ATOM     63  C   UNL A   1      42.707  23.470  25.975  1.00  0.00     0.135 A 
ATOM     64  C   UNL A   1      43.166  22.851  28.251  1.00  0.00     0.135 A 
ATOM     65  F   UNL A   1      42.679  24.377  24.987  1.00  0.00    -0.206 F 
ATOM     66  C   UNL A   1      42.235  22.188  25.711  1.00  0.00     0.059 A 
ATOM     67  C   UNL A   1      42.720  21.557  28.006  1.00  0.00     0.059 A 
ATOM     68  F   UNL A   1      43.608  23.148  29.484  1.00  0.00    -0.206 F 
ATOM     69  C   UNL A   1      42.242  21.239  26.736  1.00  0.00     0.060 A 
BRANCH  69  70
ATOM     70  S   UNL A   1      41.646  19.571  26.382  1.00  0.00     0.124 S 
ATOM     71  O   UNL A   1      40.231  19.813  26.129  1.00  0.00    -0.237 OA
ATOM     72  O   UNL A   1      42.448  19.197  25.220  1.00  0.00    -0.237 OA
ATOM     73  O   UNL A   1      41.955  18.841  27.607  1.00  0.00    -0.744 OA
ENDBRANCH  69  70
ENDBRANCH  37  62
BRANCH  49  74
ATOM     74  C   UNL A   1      49.294  27.095  26.520  1.00  0.00     0.058 A 
ATOM     75  C   UNL A   1      50.224  26.510  27.392  1.00  0.00     0.135 A 
ATOM     76  C   UNL A   1      49.626  27.168  25.158  1.00  0.00     0.135 A 
ATOM     77  F   UNL A   1      49.958  26.423  28.705  1.00  0.00    -0.206 F 
ATOM     78  C   UNL A   1      51.440  26.016  26.930  1.00  0.00     0.059 A 
ATOM     79  C   UNL A   1      50.826  26.661  24.670  1.00  0.00     0.059 A 
ATOM     80  F   UNL A   1      48.766  27.711  24.281  1.00  0.00    -0.206 F 
ATOM     81  C   UNL A   1      51.730  26.090  25.566  1.00  0.00     0.060 A 
BRANCH  81  82
ATOM     82  S   UNL A   1      53.281  25.384  24.968  1.00  0.00     0.124 S 
ATOM     83  O   UNL A   1      53.145  23.988  25.374  1.00  0.00    -0.237 OA
ATOM     84  O   UNL A   1      53.209  25.635  23.532  1.00  0.00    -0.237 OA
ATOM     85  O   UNL A   1      54.299  26.149  25.681  1.00  0.00    -0.744 OA
ENDBRANCH  81  82
ENDBRANCH  49  74
ENDBRANCH  23  24
ENDBRANCH  16  18
ENDBRANCH  15  16
ENDBRANCH  14  15
ENDBRANCH   1  14
TORSDOF 18
ENDMDL
