MODEL 1
REMARK VINA RESULT:     -12.5      0.000      0.000
REMARK SMILES NS(=O)(=O)c1ccc(-c2cc(Cl)cc3c2O[C@H](C(F)(F)F)C(C(=O)OCCOC(=O)c2ccc(-c4c5nc(c(-c6c(F)cc(S(=O)(=O)[O-])cc6F)c6ccc([nH]6)c(-c6c(F)cc(S(=O)(=O)[O-])cc6F)c6nc(c(-c7c(F)cc(S(=O)(=O)[O-])cc7F)c7ccc4[nH]7)C=C6)C=C5)cc2)=C3)cc1
REMARK SMILES IDX 26 1 25 2 23 3 24 4 22 5 9 6 10 7 15 8 11 9 14 10 16 11
REMARK SMILES IDX 12 12 13 13 97 14 17 15 8 16 5 17 6 18 99 19 7 20 98 21 2 22
REMARK SMILES IDX 3 23 4 24 1 25 18 28 19 29 20 30 21 31 27 32 28 33 29 34
REMARK SMILES IDX 30 35 31 36 32 37 96 38 33 39 95 40 34 41 35 42 36 43 89 44
REMARK SMILES IDX 37 45 94 46 88 47 90 48 38 49 93 50 87 51 86 52 39 54 73 55
REMARK SMILES IDX 52 56 72 57 53 58 56 59 71 60 91 61 54 62 55 63 70 65 92 66
REMARK SMILES IDX 57 67 40 68 41 69 50 70 42 71 43 72 49 73 51 74 44 75 45 76
REMARK SMILES IDX 46 77 47 78 48 79 74 80 75 81 84 82 76 83 77 84 83 85 85 86
REMARK SMILES IDX 78 87 79 88 80 89 81 90 82 91 58 92 59 93 68 94 60 95 61 96
REMARK SMILES IDX 67 97 69 98 62 99 63 100 64 101 65 102 66 103
REMARK H PARENT 1 26 1 27 90 53 56 64
REMARK Flexibility Score: inf
ROOT
ATOM      1  C   UNL A   1      33.034  28.544  27.203  1.00  0.00     0.275 C 
ENDROOT
BRANCH   1   2
ATOM      2  O   UNL A   1      33.454  27.337  26.524  1.00  0.00    -0.459 OA
BRANCH   2   3
ATOM      3  C   UNL A   1      33.325  27.435  25.175  1.00  0.00     0.338 C 
ATOM      4  O   UNL A   1      33.833  28.321  24.496  1.00  0.00    -0.246 OA
BRANCH   3   5
ATOM      5  C   UNL A   1      32.590  26.307  24.558  1.00  0.00     0.087 C 
ATOM      6  C   UNL A   1      33.623  22.376  25.045  1.00  0.00     0.026 A 
ATOM      7  C   UNL A   1      35.020  22.442  25.288  1.00  0.00     0.033 A 
ATOM      8  C   UNL A   1      33.051  23.586  24.650  1.00  0.00     0.135 A 
ATOM      9  C   UNL A   1      35.809  23.559  25.005  1.00  0.00     0.042 A 
ATOM     10  C   UNL A   1      33.891  24.598  24.121  1.00  0.00     0.019 A 
ATOM     11  O   UNL A   1      31.726  23.949  24.853  1.00  0.00    -0.475 OA
ATOM     12  Cl  UNL A   1      37.457  23.696  25.459  1.00  0.00    -0.084 Cl
ATOM     13  C   UNL A   1      35.259  24.610  24.320  1.00  0.00     0.032 A 
ATOM     14  C   UNL A   1      33.266  25.789  23.521  1.00  0.00     0.027 C 
ATOM     15  C   UNL A   1      31.603  25.398  25.267  1.00  0.00     0.316 C 
BRANCH   6  16
ATOM     16  C   UNL A   1      33.064  20.984  25.056  1.00  0.00    -0.015 A 
ATOM     17  C   UNL A   1      33.043  18.134  24.800  1.00  0.00     0.082 A 
ATOM     18  C   UNL A   1      33.081  18.737  26.061  1.00  0.00     0.022 A 
ATOM     19  C   UNL A   1      32.940  18.935  23.667  1.00  0.00     0.022 A 
ATOM     20  C   UNL A   1      33.045  20.147  26.185  1.00  0.00     0.010 A 
ATOM     21  C   UNL A   1      32.942  20.336  23.801  1.00  0.00     0.010 A 
BRANCH  17  22
ATOM     22  S   UNL A   1      33.332  16.387  24.635  1.00  0.00     0.238 S 
ATOM     23  O   UNL A   1      33.637  16.079  23.269  1.00  0.00    -0.207 OA
ATOM     24  O   UNL A   1      32.342  15.669  25.410  1.00  0.00    -0.207 OA
BRANCH  22  25
ATOM     25  N   UNL A   1      34.762  16.130  25.488  1.00  0.00    -0.225 NA
ATOM     26  H   UNL A   1      35.100  15.184  25.309  1.00  0.00     0.137 HD
ATOM     27  H   UNL A   1      34.587  16.246  26.486  1.00  0.00     0.137 HD
ENDBRANCH  22  25
ENDBRANCH  17  22
ENDBRANCH   6  16
BRANCH  15  28
ATOM     28  C   UNL A   1      30.214  25.947  24.914  1.00  0.00     0.430 C 
ATOM     29  F   UNL A   1      30.263  27.257  24.568  1.00  0.00    -0.167 F 
ATOM     30  F   UNL A   1      29.634  25.275  23.899  1.00  0.00    -0.167 F 
ATOM     31  F   UNL A   1      29.373  25.856  25.978  1.00  0.00    -0.167 F 
ENDBRANCH  15  28
ENDBRANCH   3   5
ENDBRANCH   2   3
ENDBRANCH   1   2
BRANCH   1  32
ATOM     32  C   UNL A   1      34.125  29.620  27.245  1.00  0.00     0.275 C 
BRANCH  32  33
ATOM     33  O   UNL A   1      35.332  29.118  27.850  1.00  0.00    -0.458 OA
BRANCH  33  34
ATOM     34  C   UNL A   1      35.948  30.013  28.661  1.00  0.00     0.338 C 
ATOM     35  O   UNL A   1      35.388  30.892  29.303  1.00  0.00    -0.246 OA
BRANCH  34  36
ATOM     36  C   UNL A   1      37.400  29.731  28.799  1.00  0.00     0.060 A 
ATOM     37  C   UNL A   1      38.122  29.667  27.612  1.00  0.00     0.016 A 
ATOM     38  C   UNL A   1      38.069  29.503  30.012  1.00  0.00     0.016 A 
ATOM     39  C   UNL A   1      39.492  29.410  27.646  1.00  0.00     0.010 A 
ATOM     40  C   UNL A   1      39.465  29.252  30.033  1.00  0.00     0.010 A 
ATOM     41  C   UNL A   1      40.206  29.228  28.845  1.00  0.00    -0.014 A 
BRANCH  41  42
ATOM     42  C   UNL A   1      41.675  28.911  28.710  1.00  0.00     0.031 A 
ATOM     43  C   UNL A   1      42.035  27.530  28.236  1.00  0.00     0.074 A 
ATOM     44  C   UNL A   1      42.661  29.837  28.776  1.00  0.00     0.049 A 
ATOM     45  N   UNL A   1      43.162  27.091  27.746  1.00  0.00    -0.248 NA
ATOM     46  C   UNL A   1      40.970  26.517  28.313  1.00  0.00     0.031 C 
ATOM     47  C   UNL A   1      42.485  31.207  29.221  1.00  0.00     0.029 A 
ATOM     48  N   UNL A   1      43.987  29.814  28.386  1.00  0.00    -0.354 N 
ATOM     49  C   UNL A   1      42.947  25.754  27.452  1.00  0.00     0.074 A 
ATOM     50  C   UNL A   1      41.567  25.462  27.782  1.00  0.00     0.031 C 
ATOM     51  C   UNL A   1      43.557  31.945  28.891  1.00  0.00     0.029 A 
ATOM     52  C   UNL A   1      44.592  31.064  28.363  1.00  0.00     0.049 A 
ATOM     53  H   UNL A   1      44.461  28.985  28.145  1.00  0.00     0.167 HD
ATOM     54  C   UNL A   1      43.830  24.833  27.004  1.00  0.00     0.037 A 
ATOM     55  C   UNL A   1      45.832  31.459  27.989  1.00  0.00     0.037 A 
ATOM     56  C   UNL A   1      45.230  25.082  26.793  1.00  0.00     0.049 A 
ATOM     57  C   UNL A   1      46.823  30.381  27.610  1.00  0.00     0.074 A 
ATOM     58  C   UNL A   1      46.221  24.174  26.467  1.00  0.00     0.029 A 
ATOM     59  N   UNL A   1      45.845  26.319  26.910  1.00  0.00    -0.354 N 
ATOM     60  N   UNL A   1      46.620  29.095  27.441  1.00  0.00    -0.248 NA
ATOM     61  C   UNL A   1      48.222  30.795  27.420  1.00  0.00     0.031 C 
ATOM     62  C   UNL A   1      47.448  24.846  26.470  1.00  0.00     0.029 A 
ATOM     63  C   UNL A   1      47.211  26.190  26.716  1.00  0.00     0.049 A 
ATOM     64  H   UNL A   1      45.380  27.165  27.104  1.00  0.00     0.167 HD
ATOM     65  C   UNL A   1      47.847  28.560  27.060  1.00  0.00     0.074 A 
ATOM     66  C   UNL A   1      48.794  29.656  27.053  1.00  0.00     0.031 C 
ATOM     67  C   UNL A   1      48.155  27.281  26.728  1.00  0.00     0.037 A 
BRANCH  54  68
ATOM     68  C   UNL A   1      43.312  23.432  26.861  1.00  0.00     0.058 A 
ATOM     69  C   UNL A   1      43.163  22.577  27.963  1.00  0.00     0.135 A 
ATOM     70  C   UNL A   1      43.008  22.929  25.586  1.00  0.00     0.135 A 
ATOM     71  F   UNL A   1      43.485  22.997  29.196  1.00  0.00    -0.206 F 
ATOM     72  C   UNL A   1      42.750  21.259  27.801  1.00  0.00     0.059 A 
ATOM     73  C   UNL A   1      42.569  21.624  25.405  1.00  0.00     0.059 A 
ATOM     74  F   UNL A   1      43.159  23.702  24.499  1.00  0.00    -0.206 F 
ATOM     75  C   UNL A   1      42.460  20.792  26.517  1.00  0.00     0.060 A 
BRANCH  75  76
ATOM     76  S   UNL A   1      41.952  19.071  26.318  1.00  0.00     0.124 S 
ATOM     77  O   UNL A   1      42.063  18.576  27.686  1.00  0.00    -0.237 OA
ATOM     78  O   UNL A   1      40.595  19.206  25.799  1.00  0.00    -0.237 OA
ATOM     79  O   UNL A   1      42.930  18.535  25.376  1.00  0.00    -0.744 OA
ENDBRANCH  75  76
ENDBRANCH  54  68
BRANCH  55  80
ATOM     80  C   UNL A   1      46.256  32.907  27.973  1.00  0.00     0.058 A 
ATOM     81  C   UNL A   1      46.849  33.522  29.094  1.00  0.00     0.135 A 
ATOM     82  C   UNL A   1      46.037  33.737  26.861  1.00  0.00     0.135 A 
ATOM     83  F   UNL A   1      47.069  32.833  30.218  1.00  0.00    -0.206 F 
ATOM     84  C   UNL A   1      47.197  34.872  29.118  1.00  0.00     0.059 A 
ATOM     85  C   UNL A   1      46.410  35.085  26.847  1.00  0.00     0.059 A 
ATOM     86  F   UNL A   1      45.456  33.243  25.756  1.00  0.00    -0.206 F 
ATOM     87  C   UNL A   1      46.979  35.647  27.987  1.00  0.00     0.060 A 
BRANCH  87  88
ATOM     88  S   UNL A   1      47.475  37.383  28.021  1.00  0.00     0.124 S 
ATOM     89  O   UNL A   1      46.840  37.851  29.248  1.00  0.00    -0.237 OA
ATOM     90  O   UNL A   1      48.932  37.288  28.054  1.00  0.00    -0.237 OA
ATOM     91  O   UNL A   1      46.919  37.914  26.780  1.00  0.00    -0.744 OA
ENDBRANCH  87  88
ENDBRANCH  55  80
BRANCH  67  92
ATOM     92  C   UNL A   1      49.568  26.987  26.295  1.00  0.00     0.058 A 
ATOM     93  C   UNL A   1      50.560  26.570  27.198  1.00  0.00     0.135 A 
ATOM     94  C   UNL A   1      49.920  27.078  24.937  1.00  0.00     0.135 A 
ATOM     95  F   UNL A   1      50.282  26.462  28.507  1.00  0.00    -0.206 F 
ATOM     96  C   UNL A   1      51.856  26.286  26.776  1.00  0.00     0.059 A 
ATOM     97  C   UNL A   1      51.200  26.765  24.490  1.00  0.00     0.059 A 
ATOM     98  F   UNL A   1      49.012  27.463  24.026  1.00  0.00    -0.206 F 
ATOM     99  C   UNL A   1      52.167  26.388  25.419  1.00  0.00     0.060 A 
BRANCH  99 100
ATOM    100  S   UNL A   1      53.843  25.993  24.876  1.00  0.00     0.124 S 
ATOM    101  O   UNL A   1      54.642  26.551  25.962  1.00  0.00    -0.237 OA
ATOM    102  O   UNL A   1      53.814  24.537  24.794  1.00  0.00    -0.237 OA
ATOM    103  O   UNL A   1      53.957  26.684  23.595  1.00  0.00    -0.744 OA
ENDBRANCH  99 100
ENDBRANCH  67  92
ENDBRANCH  41  42
ENDBRANCH  34  36
ENDBRANCH  33  34
ENDBRANCH  32  33
ENDBRANCH   1  32
TORSDOF 18
ENDMDL
MODEL 2
REMARK VINA RESULT:     -12.2      3.938      9.654
REMARK SMILES NS(=O)(=O)c1ccc(-c2cc(Cl)cc3c2O[C@H](C(F)(F)F)C(C(=O)OCCOC(=O)c2ccc(-c4c5nc(c(-c6c(F)cc(S(=O)(=O)[O-])cc6F)c6ccc([nH]6)c(-c6c(F)cc(S(=O)(=O)[O-])cc6F)c6nc(c(-c7c(F)cc(S(=O)(=O)[O-])cc7F)c7ccc4[nH]7)C=C6)C=C5)cc2)=C3)cc1
REMARK SMILES IDX 26 1 25 2 23 3 24 4 22 5 9 6 10 7 15 8 11 9 14 10 16 11
REMARK SMILES IDX 12 12 13 13 97 14 17 15 8 16 5 17 6 18 99 19 7 20 98 21 2 22
REMARK SMILES IDX 3 23 4 24 1 25 18 28 19 29 20 30 21 31 27 32 28 33 29 34
REMARK SMILES IDX 30 35 31 36 32 37 96 38 33 39 95 40 34 41 35 42 36 43 89 44
REMARK SMILES IDX 37 45 94 46 88 47 90 48 38 49 93 50 87 51 86 52 39 54 73 55
REMARK SMILES IDX 52 56 72 57 53 58 56 59 71 60 91 61 54 62 55 63 70 65 92 66
REMARK SMILES IDX 57 67 40 68 41 69 50 70 42 71 43 72 49 73 51 74 44 75 45 76
REMARK SMILES IDX 46 77 47 78 48 79 74 80 75 81 84 82 76 83 77 84 83 85 85 86
REMARK SMILES IDX 78 87 79 88 80 89 81 90 82 91 58 92 59 93 68 94 60 95 61 96
REMARK SMILES IDX 67 97 69 98 62 99 63 100 64 101 65 102 66 103
REMARK H PARENT 1 26 1 27 90 53 56 64
REMARK Flexibility Score: inf
ROOT
ATOM      1  C   UNL A   1      36.825  33.711  32.566  1.00  0.00     0.275 C 
ENDROOT
BRANCH   1   2
ATOM      2  O   UNL A   1      35.968  33.393  31.444  1.00  0.00    -0.459 OA
BRANCH   2   3
ATOM      3  C   UNL A   1      36.484  33.825  30.265  1.00  0.00     0.338 C 
ATOM      4  O   UNL A   1      37.645  34.186  30.111  1.00  0.00    -0.246 OA
BRANCH   3   5
ATOM      5  C   UNL A   1      35.542  33.729  29.125  1.00  0.00     0.087 C 
ATOM      6  C   UNL A   1      34.229  30.189  27.546  1.00  0.00     0.026 A 
ATOM      7  C   UNL A   1      35.292  29.295  27.839  1.00  0.00     0.033 A 
ATOM      8  C   UNL A   1      34.514  31.528  27.814  1.00  0.00     0.135 A 
ATOM      9  C   UNL A   1      36.576  29.705  28.206  1.00  0.00     0.042 A 
ATOM     10  C   UNL A   1      35.869  31.930  27.916  1.00  0.00     0.019 A 
ATOM     11  O   UNL A   1      33.572  32.500  28.125  1.00  0.00    -0.475 OA
ATOM     12  Cl  UNL A   1      37.804  28.626  28.727  1.00  0.00    -0.084 Cl
ATOM     13  C   UNL A   1      36.897  31.035  28.144  1.00  0.00     0.032 A 
ATOM     14  C   UNL A   1      36.172  33.370  27.997  1.00  0.00     0.027 C 
ATOM     15  C   UNL A   1      34.060  33.416  29.224  1.00  0.00     0.316 C 
BRANCH   6  16
ATOM     16  C   UNL A   1      33.082  29.557  26.814  1.00  0.00    -0.015 A 
ATOM     17  C   UNL A   1      31.459  28.792  24.585  1.00  0.00     0.082 A 
ATOM     18  C   UNL A   1      32.318  27.871  25.191  1.00  0.00     0.022 A 
ATOM     19  C   UNL A   1      31.343  30.070  25.124  1.00  0.00     0.022 A 
ATOM     20  C   UNL A   1      33.085  28.240  26.323  1.00  0.00     0.010 A 
ATOM     21  C   UNL A   1      32.139  30.436  26.226  1.00  0.00     0.010 A 
BRANCH  17  22
ATOM     22  S   UNL A   1      30.686  28.405  23.030  1.00  0.00     0.238 S 
ATOM     23  O   UNL A   1      30.269  29.617  22.388  1.00  0.00    -0.207 OA
ATOM     24  O   UNL A   1      29.819  27.260  23.206  1.00  0.00    -0.207 OA
BRANCH  22  25
ATOM     25  N   UNL A   1      31.947  27.804  22.089  1.00  0.00    -0.225 NA
ATOM     26  H   UNL A   1      32.582  27.263  22.677  1.00  0.00     0.137 HD
ATOM     27  H   UNL A   1      32.455  28.581  21.665  1.00  0.00     0.137 HD
ENDBRANCH  22  25
ENDBRANCH  17  22
ENDBRANCH   6  16
BRANCH  15  28
ATOM     28  C   UNL A   1      33.350  34.774  29.155  1.00  0.00     0.430 C 
ATOM     29  F   UNL A   1      32.389  34.793  28.199  1.00  0.00    -0.167 F 
ATOM     30  F   UNL A   1      32.773  35.117  30.325  1.00  0.00    -0.167 F 
ATOM     31  F   UNL A   1      34.228  35.765  28.844  1.00  0.00    -0.167 F 
ENDBRANCH  15  28
ENDBRANCH   3   5
ENDBRANCH   2   3
ENDBRANCH   1   2
BRANCH   1  32
ATOM     32  C   UNL A   1      36.786  32.653  33.672  1.00  0.00     0.275 C 
BRANCH  32  33
ATOM     33  O   UNL A   1      37.916  31.764  33.587  1.00  0.00    -0.458 OA
BRANCH  33  34
ATOM     34  C   UNL A   1      37.697  30.679  32.804  1.00  0.00     0.338 C 
ATOM     35  O   UNL A   1      36.670  30.014  32.783  1.00  0.00    -0.246 OA
BRANCH  34  36
ATOM     36  C   UNL A   1      38.813  30.446  31.851  1.00  0.00     0.060 A 
ATOM     37  C   UNL A   1      39.612  29.338  32.108  1.00  0.00     0.016 A 
ATOM     38  C   UNL A   1      39.124  31.265  30.754  1.00  0.00     0.016 A 
ATOM     39  C   UNL A   1      40.681  29.041  31.264  1.00  0.00     0.010 A 
ATOM     40  C   UNL A   1      40.209  30.947  29.897  1.00  0.00     0.010 A 
ATOM     41  C   UNL A   1      40.992  29.809  30.126  1.00  0.00    -0.014 A 
BRANCH  41  42
ATOM     42  C   UNL A   1      42.209  29.383  29.342  1.00  0.00     0.031 A 
ATOM     43  C   UNL A   1      43.458  30.200  29.523  1.00  0.00     0.074 A 
ATOM     44  C   UNL A   1      42.308  28.211  28.670  1.00  0.00     0.049 A 
ATOM     45  N   UNL A   1      44.694  29.899  29.231  1.00  0.00    -0.248 NA
ATOM     46  C   UNL A   1      43.284  31.529  30.132  1.00  0.00     0.031 C 
ATOM     47  C   UNL A   1      41.202  27.313  28.400  1.00  0.00     0.029 A 
ATOM     48  N   UNL A   1      43.393  27.515  28.170  1.00  0.00    -0.354 N 
ATOM     49  C   UNL A   1      45.448  30.994  29.621  1.00  0.00     0.074 A 
ATOM     50  C   UNL A   1      44.535  31.953  30.208  1.00  0.00     0.031 C 
ATOM     51  C   UNL A   1      41.661  26.119  27.992  1.00  0.00     0.029 A 
ATOM     52  C   UNL A   1      43.102  26.210  27.795  1.00  0.00     0.049 A 
ATOM     53  H   UNL A   1      44.292  27.909  28.087  1.00  0.00     0.167 HD
ATOM     54  C   UNL A   1      46.773  31.213  29.454  1.00  0.00     0.037 A 
ATOM     55  C   UNL A   1      43.887  25.210  27.326  1.00  0.00     0.037 A 
ATOM     56  C   UNL A   1      47.664  30.323  28.760  1.00  0.00     0.049 A 
ATOM     57  C   UNL A   1      45.336  25.536  27.041  1.00  0.00     0.074 A 
ATOM     58  C   UNL A   1      48.992  30.527  28.431  1.00  0.00     0.029 A 
ATOM     59  N   UNL A   1      47.317  29.073  28.269  1.00  0.00    -0.354 N 
ATOM     60  N   UNL A   1      46.008  26.628  27.323  1.00  0.00    -0.248 NA
ATOM     61  C   UNL A   1      46.124  24.517  26.330  1.00  0.00     0.031 C 
ATOM     62  C   UNL A   1      49.424  29.438  27.666  1.00  0.00     0.029 A 
ATOM     63  C   UNL A   1      48.391  28.517  27.592  1.00  0.00     0.049 A 
ATOM     64  H   UNL A   1      46.439  28.645  28.384  1.00  0.00     0.167 HD
ATOM     65  C   UNL A   1      47.309  26.401  26.886  1.00  0.00     0.074 A 
ATOM     66  C   UNL A   1      47.324  25.081  26.293  1.00  0.00     0.031 C 
ATOM     67  C   UNL A   1      48.396  27.208  26.985  1.00  0.00     0.037 A 
BRANCH  54  68
ATOM     68  C   UNL A   1      47.287  32.546  29.910  1.00  0.00     0.058 A 
ATOM     69  C   UNL A   1      47.281  33.673  29.073  1.00  0.00     0.135 A 
ATOM     70  C   UNL A   1      47.840  32.677  31.193  1.00  0.00     0.135 A 
ATOM     71  F   UNL A   1      46.805  33.586  27.821  1.00  0.00    -0.206 F 
ATOM     72  C   UNL A   1      47.829  34.882  29.489  1.00  0.00     0.059 A 
ATOM     73  C   UNL A   1      48.369  33.882  31.638  1.00  0.00     0.059 A 
ATOM     74  F   UNL A   1      47.891  31.621  32.019  1.00  0.00    -0.206 F 
ATOM     75  C   UNL A   1      48.374  34.974  30.772  1.00  0.00     0.060 A 
BRANCH  75  76
ATOM     76  S   UNL A   1      49.107  36.540  31.289  1.00  0.00     0.124 S 
ATOM     77  O   UNL A   1      48.045  37.482  30.952  1.00  0.00    -0.237 OA
ATOM     78  O   UNL A   1      49.334  36.322  32.713  1.00  0.00    -0.237 OA
ATOM     79  O   UNL A   1      50.312  36.637  30.471  1.00  0.00    -0.744 OA
ENDBRANCH  75  76
ENDBRANCH  54  68
BRANCH  55  80
ATOM     80  C   UNL A   1      43.362  23.822  27.053  1.00  0.00     0.058 A 
ATOM     81  C   UNL A   1      43.194  22.874  28.083  1.00  0.00     0.135 A 
ATOM     82  C   UNL A   1      43.061  23.379  25.755  1.00  0.00     0.135 A 
ATOM     83  F   UNL A   1      43.486  23.179  29.351  1.00  0.00    -0.206 F 
ATOM     84  C   UNL A   1      42.762  21.570  27.845  1.00  0.00     0.059 A 
ATOM     85  C   UNL A   1      42.591  22.087  25.494  1.00  0.00     0.059 A 
ATOM     86  F   UNL A   1      43.213  24.207  24.709  1.00  0.00    -0.206 F 
ATOM     87  C   UNL A   1      42.457  21.185  26.546  1.00  0.00     0.060 A 
BRANCH  87  88
ATOM     88  S   UNL A   1      41.860  19.505  26.262  1.00  0.00     0.124 S 
ATOM     89  O   UNL A   1      42.576  19.134  25.047  1.00  0.00    -0.237 OA
ATOM     90  O   UNL A   1      42.275  18.818  27.481  1.00  0.00    -0.237 OA
ATOM     91  O   UNL A   1      40.418  19.683  26.115  1.00  0.00    -0.744 OA
ENDBRANCH  87  88
ENDBRANCH  55  80
BRANCH  67  92
ATOM     92  C   UNL A   1      49.711  26.682  26.470  1.00  0.00     0.058 A 
ATOM     93  C   UNL A   1      50.128  26.869  25.142  1.00  0.00     0.135 A 
ATOM     94  C   UNL A   1      50.594  26.021  27.342  1.00  0.00     0.135 A 
ATOM     95  F   UNL A   1      49.329  27.496  24.263  1.00  0.00    -0.206 F 
ATOM     96  C   UNL A   1      51.355  26.390  24.689  1.00  0.00     0.059 A 
ATOM     97  C   UNL A   1      51.839  25.567  26.920  1.00  0.00     0.059 A 
ATOM     98  F   UNL A   1      50.255  25.821  28.626  1.00  0.00    -0.206 F 
ATOM     99  C   UNL A   1      52.204  25.740  25.586  1.00  0.00     0.060 A 
BRANCH  99 100
ATOM    100  S   UNL A   1      53.804  25.145  24.998  1.00  0.00     0.124 S 
ATOM    101  O   UNL A   1      53.931  25.852  23.727  1.00  0.00    -0.237 OA
ATOM    102  O   UNL A   1      54.710  25.577  26.057  1.00  0.00    -0.237 OA
ATOM    103  O   UNL A   1      53.613  23.701  24.895  1.00  0.00    -0.744 OA
ENDBRANCH  99 100
ENDBRANCH  67  92
ENDBRANCH  41  42
ENDBRANCH  34  36
ENDBRANCH  33  34
ENDBRANCH  32  33
ENDBRANCH   1  32
TORSDOF 18
ENDMDL
MODEL 3
REMARK VINA RESULT:     -12.0      3.859      5.465
REMARK SMILES NS(=O)(=O)c1ccc(-c2cc(Cl)cc3c2O[C@H](C(F)(F)F)C(C(=O)OCCOC(=O)c2ccc(-c4c5nc(c(-c6c(F)cc(S(=O)(=O)[O-])cc6F)c6ccc([nH]6)c(-c6c(F)cc(S(=O)(=O)[O-])cc6F)c6nc(c(-c7c(F)cc(S(=O)(=O)[O-])cc7F)c7ccc4[nH]7)C=C6)C=C5)cc2)=C3)cc1
REMARK SMILES IDX 26 1 25 2 23 3 24 4 22 5 9 6 10 7 15 8 11 9 14 10 16 11
REMARK SMILES IDX 12 12 13 13 97 14 17 15 8 16 5 17 6 18 99 19 7 20 98 21 2 22
REMARK SMILES IDX 3 23 4 24 1 25 18 28 19 29 20 30 21 31 27 32 28 33 29 34
REMARK SMILES IDX 30 35 31 36 32 37 96 38 33 39 95 40 34 41 35 42 36 43 89 44
REMARK SMILES IDX 37 45 94 46 88 47 90 48 38 49 93 50 87 51 86 52 39 54 73 55
REMARK SMILES IDX 52 56 72 57 53 58 56 59 71 60 91 61 54 62 55 63 70 65 92 66
REMARK SMILES IDX 57 67 40 68 41 69 50 70 42 71 43 72 49 73 51 74 44 75 45 76
REMARK SMILES IDX 46 77 47 78 48 79 74 80 75 81 84 82 76 83 77 84 83 85 85 86
REMARK SMILES IDX 78 87 79 88 80 89 81 90 82 91 58 92 59 93 68 94 60 95 61 96
REMARK SMILES IDX 67 97 69 98 62 99 63 100 64 101 65 102 66 103
REMARK H PARENT 1 26 1 27 90 53 56 64
REMARK Flexibility Score: inf
ROOT
ATOM      1  C   UNL A   1      36.958  33.496  32.454  1.00  0.00     0.275 C 
ENDROOT
BRANCH   1   2
ATOM      2  O   UNL A   1      35.959  33.743  31.436  1.00  0.00    -0.459 OA
BRANCH   2   3
ATOM      3  C   UNL A   1      36.503  33.834  30.195  1.00  0.00     0.338 C 
ATOM      4  O   UNL A   1      37.708  33.889  29.972  1.00  0.00    -0.246 OA
BRANCH   3   5
ATOM      5  C   UNL A   1      35.513  33.757  29.096  1.00  0.00     0.087 C 
ATOM      6  C   UNL A   1      34.033  30.245  27.603  1.00  0.00     0.026 A 
ATOM      7  C   UNL A   1      35.081  29.323  27.860  1.00  0.00     0.033 A 
ATOM      8  C   UNL A   1      34.367  31.578  27.847  1.00  0.00     0.135 A 
ATOM      9  C   UNL A   1      36.391  29.698  28.169  1.00  0.00     0.042 A 
ATOM     10  C   UNL A   1      35.737  31.941  27.890  1.00  0.00     0.019 A 
ATOM     11  O   UNL A   1      33.468  32.579  28.189  1.00  0.00    -0.475 OA
ATOM     12  Cl  UNL A   1      37.608  28.588  28.647  1.00  0.00    -0.084 Cl
ATOM     13  C   UNL A   1      36.747  31.017  28.082  1.00  0.00     0.032 A 
ATOM     14  C   UNL A   1      36.084  33.372  27.946  1.00  0.00     0.027 C 
ATOM     15  C   UNL A   1      34.028  33.489  29.259  1.00  0.00     0.316 C 
BRANCH   6  16
ATOM     16  C   UNL A   1      32.839  29.641  26.925  1.00  0.00    -0.015 A 
ATOM     17  C   UNL A   1      31.381  27.963  25.123  1.00  0.00     0.082 A 
ATOM     18  C   UNL A   1      31.487  27.634  26.477  1.00  0.00     0.022 A 
ATOM     19  C   UNL A   1      31.929  29.160  24.670  1.00  0.00     0.022 A 
ATOM     20  C   UNL A   1      32.170  28.490  27.375  1.00  0.00     0.010 A 
ATOM     21  C   UNL A   1      32.637  29.984  25.565  1.00  0.00     0.010 A 
BRANCH  17  22
ATOM     22  S   UNL A   1      30.739  26.779  23.961  1.00  0.00     0.238 S 
ATOM     23  O   UNL A   1      31.547  25.596  23.989  1.00  0.00    -0.207 OA
ATOM     24  O   UNL A   1      30.374  27.465  22.740  1.00  0.00    -0.207 OA
BRANCH  22  25
ATOM     25  N   UNL A   1      29.254  26.330  24.619  1.00  0.00    -0.225 NA
ATOM     26  H   UNL A   1      28.573  26.210  23.870  1.00  0.00     0.137 HD
ATOM     27  H   UNL A   1      28.932  27.058  25.258  1.00  0.00     0.137 HD
ENDBRANCH  22  25
ENDBRANCH  17  22
ENDBRANCH   6  16
BRANCH  15  28
ATOM     28  C   UNL A   1      33.354  34.866  29.208  1.00  0.00     0.430 C 
ATOM     29  F   UNL A   1      32.305  34.883  28.351  1.00  0.00    -0.167 F 
ATOM     30  F   UNL A   1      32.906  35.269  30.415  1.00  0.00    -0.167 F 
ATOM     31  F   UNL A   1      34.226  35.816  28.775  1.00  0.00    -0.167 F 
ENDBRANCH  15  28
ENDBRANCH   3   5
ENDBRANCH   2   3
ENDBRANCH   1   2
BRANCH   1  32
ATOM     32  C   UNL A   1      36.556  32.390  33.435  1.00  0.00     0.275 C 
BRANCH  32  33
ATOM     33  O   UNL A   1      37.474  31.282  33.378  1.00  0.00    -0.458 OA
BRANCH  33  34
ATOM     34  C   UNL A   1      37.336  30.517  32.266  1.00  0.00     0.338 C 
ATOM     35  O   UNL A   1      36.273  30.132  31.797  1.00  0.00    -0.246 OA
BRANCH  34  36
ATOM     36  C   UNL A   1      38.635  30.292  31.581  1.00  0.00     0.060 A 
ATOM     37  C   UNL A   1      39.449  29.308  32.128  1.00  0.00     0.016 A 
ATOM     38  C   UNL A   1      39.095  31.008  30.464  1.00  0.00     0.016 A 
ATOM     39  C   UNL A   1      40.686  29.027  31.548  1.00  0.00     0.010 A 
ATOM     40  C   UNL A   1      40.350  30.706  29.877  1.00  0.00     0.010 A 
ATOM     41  C   UNL A   1      41.157  29.688  30.399  1.00  0.00    -0.014 A 
BRANCH  41  42
ATOM     42  C   UNL A   1      42.536  29.302  29.921  1.00  0.00     0.031 A 
ATOM     43  C   UNL A   1      42.673  27.973  29.231  1.00  0.00     0.074 A 
ATOM     44  C   UNL A   1      43.590  30.151  29.880  1.00  0.00     0.049 A 
ATOM     45  N   UNL A   1      43.636  27.532  28.469  1.00  0.00    -0.248 NA
ATOM     46  C   UNL A   1      41.563  27.025  29.419  1.00  0.00     0.031 C 
ATOM     47  C   UNL A   1      43.626  31.461  30.501  1.00  0.00     0.029 A 
ATOM     48  N   UNL A   1      44.803  30.097  29.218  1.00  0.00    -0.354 N 
ATOM     49  C   UNL A   1      43.251  26.258  28.080  1.00  0.00     0.074 A 
ATOM     50  C   UNL A   1      41.947  26.011  28.660  1.00  0.00     0.031 C 
ATOM     51  C   UNL A   1      44.668  32.169  30.036  1.00  0.00     0.029 A 
ATOM     52  C   UNL A   1      45.495  31.301  29.207  1.00  0.00     0.049 A 
ATOM     53  H   UNL A   1      45.146  29.278  28.791  1.00  0.00     0.167 HD
ATOM     54  C   UNL A   1      43.943  25.349  27.356  1.00  0.00     0.037 A 
ATOM     55  C   UNL A   1      46.664  31.664  28.625  1.00  0.00     0.037 A 
ATOM     56  C   UNL A   1      45.288  25.537  26.883  1.00  0.00     0.049 A 
ATOM     57  C   UNL A   1      47.461  30.585  27.928  1.00  0.00     0.074 A 
ATOM     58  C   UNL A   1      46.111  24.620  26.256  1.00  0.00     0.029 A 
ATOM     59  N   UNL A   1      46.017  26.711  27.004  1.00  0.00    -0.354 N 
ATOM     60  N   UNL A   1      47.118  29.345  27.664  1.00  0.00    -0.248 NA
ATOM     61  C   UNL A   1      48.822  30.934  27.493  1.00  0.00     0.031 C 
ATOM     62  C   UNL A   1      47.366  25.210  26.074  1.00  0.00     0.029 A 
ATOM     63  C   UNL A   1      47.299  26.524  26.512  1.00  0.00     0.049 A 
ATOM     64  H   UNL A   1      45.675  27.552  27.384  1.00  0.00     0.167 HD
ATOM     65  C   UNL A   1      48.193  28.789  26.975  1.00  0.00     0.074 A 
ATOM     66  C   UNL A   1      49.208  29.817  26.890  1.00  0.00     0.031 C 
ATOM     67  C   UNL A   1      48.316  27.546  26.446  1.00  0.00     0.037 A 
BRANCH  54  68
ATOM     68  C   UNL A   1      43.289  24.012  27.171  1.00  0.00     0.058 A 
ATOM     69  C   UNL A   1      43.272  23.044  28.188  1.00  0.00     0.135 A 
ATOM     70  C   UNL A   1      42.714  23.684  25.934  1.00  0.00     0.135 A 
ATOM     71  F   UNL A   1      43.851  23.294  29.372  1.00  0.00    -0.206 F 
ATOM     72  C   UNL A   1      42.724  21.784  27.973  1.00  0.00     0.059 A 
ATOM     73  C   UNL A   1      42.138  22.440  25.706  1.00  0.00     0.059 A 
ATOM     74  F   UNL A   1      42.729  24.567  24.924  1.00  0.00    -0.206 F 
ATOM     75  C   UNL A   1      42.164  21.491  26.727  1.00  0.00     0.060 A 
BRANCH  75  76
ATOM     76  S   UNL A   1      41.482  19.843  26.453  1.00  0.00     0.124 S 
ATOM     77  O   UNL A   1      41.715  19.213  27.748  1.00  0.00    -0.237 OA
ATOM     78  O   UNL A   1      40.089  20.133  26.129  1.00  0.00    -0.237 OA
ATOM     79  O   UNL A   1      42.284  19.323  25.349  1.00  0.00    -0.744 OA
ENDBRANCH  75  76
ENDBRANCH  54  68
BRANCH  55  80
ATOM     80  C   UNL A   1      47.197  33.074  28.680  1.00  0.00     0.058 A 
ATOM     81  C   UNL A   1      46.908  34.020  27.675  1.00  0.00     0.135 A 
ATOM     82  C   UNL A   1      48.052  33.510  29.706  1.00  0.00     0.135 A 
ATOM     83  F   UNL A   1      46.134  33.699  26.634  1.00  0.00    -0.206 F 
ATOM     84  C   UNL A   1      47.435  35.310  27.679  1.00  0.00     0.059 A 
ATOM     85  C   UNL A   1      48.564  34.811  29.753  1.00  0.00     0.059 A 
ATOM     86  F   UNL A   1      48.400  32.671  30.694  1.00  0.00    -0.206 F 
ATOM     87  C   UNL A   1      48.260  35.701  28.726  1.00  0.00     0.060 A 
BRANCH  87  88
ATOM     88  S   UNL A   1      48.899  37.390  28.737  1.00  0.00     0.124 S 
ATOM     89  O   UNL A   1      47.681  38.171  28.555  1.00  0.00    -0.237 OA
ATOM     90  O   UNL A   1      49.521  37.477  30.055  1.00  0.00    -0.237 OA
ATOM     91  O   UNL A   1      49.831  37.402  27.613  1.00  0.00    -0.744 OA
ENDBRANCH  87  88
ENDBRANCH  55  80
BRANCH  67  92
ATOM     92  C   UNL A   1      49.582  27.224  25.694  1.00  0.00     0.058 A 
ATOM     93  C   UNL A   1      49.694  27.393  24.304  1.00  0.00     0.135 A 
ATOM     94  C   UNL A   1      50.720  26.783  26.391  1.00  0.00     0.135 A 
ATOM     95  F   UNL A   1      48.641  27.813  23.585  1.00  0.00    -0.206 F 
ATOM     96  C   UNL A   1      50.878  27.105  23.629  1.00  0.00     0.059 A 
ATOM     97  C   UNL A   1      51.923  26.525  25.740  1.00  0.00     0.059 A 
ATOM     98  F   UNL A   1      50.677  26.612  27.722  1.00  0.00    -0.206 F 
ATOM     99  C   UNL A   1      51.987  26.671  24.356  1.00  0.00     0.060 A 
BRANCH  99 100
ATOM    100  S   UNL A   1      53.526  26.325  23.477  1.00  0.00     0.124 S 
ATOM    101  O   UNL A   1      53.031  25.953  22.155  1.00  0.00    -0.237 OA
ATOM    102  O   UNL A   1      54.228  27.602  23.555  1.00  0.00    -0.237 OA
ATOM    103  O   UNL A   1      54.123  25.241  24.251  1.00  0.00    -0.744 OA
ENDBRANCH  99 100
ENDBRANCH  67  92
ENDBRANCH  41  42
ENDBRANCH  34  36
ENDBRANCH  33  34
ENDBRANCH  32  33
ENDBRANCH   1  32
TORSDOF 18
ENDMDL
