MODEL 1
REMARK VINA RESULT:     -13.2      0.000      0.000
REMARK SMILES C[C@]1(C(=O)OCCOC(=O)c2ccc(-c3c4nc(c(-c5c(F)cc(S(=O)(=O)[O-])cc5F)c5ccc([nH]5)c(-c5c(F)cc(S(=O)(=O)[O-])cc5F)c5nc(c(-c6c(F)cc(S(=O)(=O)[O-])cc6F)c6ccc3[nH]6)C=C5)C=C4)cc2)[NH2+]C2(C(=O)c3ccccc3C2=O)[C@@H]2C(=O)N(c3ccccc3)C(=O)[C@H]21
REMARK SMILES IDX 7 1 6 2 5 3 3 4 4 5 2 6 1 7 77 8 101 9 78 10 89 13 99 14
REMARK SMILES IDX 79 15 87 16 90 17 92 18 100 19 80 20 81 21 86 22 88 23 91 24
REMARK SMILES IDX 82 25 85 26 83 27 84 28 93 29 94 30 98 31 95 32 97 33 96 34
REMARK SMILES IDX 8 35 9 36 10 37 11 38 12 39 76 40 13 41 75 42 14 43 15 44
REMARK SMILES IDX 16 45 69 46 17 47 74 48 68 49 70 50 18 51 73 52 67 53 66 54
REMARK SMILES IDX 19 56 53 57 32 58 52 59 33 60 36 61 51 62 71 63 34 64 35 65
REMARK SMILES IDX 50 67 72 68 37 69 20 70 21 71 30 72 22 73 23 74 29 75 31 76
REMARK SMILES IDX 24 77 25 78 26 79 27 80 28 81 54 82 55 83 64 84 56 85 57 86
REMARK SMILES IDX 63 87 65 88 58 89 59 90 60 91 61 92 62 93 38 94 39 95 48 96
REMARK SMILES IDX 40 97 41 98 47 99 49 100 42 101 43 102 44 103 45 104 46 105
REMARK H PARENT 77 11 77 12 70 55 36 66
REMARK Flexibility Score: inf
ROOT
ATOM      1  C   UNL A   1      39.493  22.751  26.348  1.00  0.00     0.275 C 
ENDROOT
BRANCH   1   2
ATOM      2  C   UNL A   1      38.341  22.333  25.435  1.00  0.00     0.274 C 
BRANCH   2   3
ATOM      3  O   UNL A   1      37.727  23.483  24.821  1.00  0.00    -0.457 OA
BRANCH   3   4
ATOM      4  C   UNL A   1      36.491  23.330  24.270  1.00  0.00     0.368 C 
ATOM      5  O   UNL A   1      36.299  22.935  23.128  1.00  0.00    -0.245 OA
BRANCH   4   6
ATOM      6  C   UNL A   1      35.353  23.819  25.222  1.00  0.00     0.205 C 
ATOM      7  C   UNL A   1      35.874  24.173  26.615  1.00  0.00     0.093 C 
ATOM      8  N   UNL A   1      34.589  24.993  24.645  1.00  0.00    -0.313 N 
ATOM      9  C   UNL A   1      34.271  22.780  25.315  1.00  0.00     0.172 C 
ATOM     10  C   UNL A   1      33.282  24.464  24.087  1.00  0.00     0.237 C 
ATOM     11  H   UNL A   1      35.133  25.429  23.901  1.00  0.00     0.348 HD
ATOM     12  H   UNL A   1      34.413  25.693  25.366  1.00  0.00     0.348 HD
ATOM     13  C   UNL A   1      33.530  22.993  24.013  1.00  0.00     0.177 C 
ATOM     14  C   UNL A   1      34.464  21.311  25.318  1.00  0.00     0.244 C 
ATOM     15  C   UNL A   1      32.127  24.951  24.960  1.00  0.00     0.232 C 
ATOM     16  C   UNL A   1      32.999  25.127  22.738  1.00  0.00     0.232 C 
ATOM     17  C   UNL A   1      32.600  21.832  24.062  1.00  0.00     0.245 C 
ATOM     18  N   UNL A   1      33.353  20.810  24.644  1.00  0.00    -0.250 N 
ATOM     19  O   UNL A   1      35.372  20.732  25.886  1.00  0.00    -0.273 OA
ATOM     20  O   UNL A   1      31.898  24.659  26.120  1.00  0.00    -0.286 OA
ATOM     21  C   UNL A   1      31.374  25.950  24.207  1.00  0.00     0.036 A 
ATOM     22  C   UNL A   1      31.884  26.058  22.919  1.00  0.00     0.036 A 
ATOM     23  O   UNL A   1      33.553  24.936  21.671  1.00  0.00    -0.286 OA
ATOM     24  O   UNL A   1      31.486  21.819  23.569  1.00  0.00    -0.273 OA
ATOM     25  C   UNL A   1      30.330  26.741  24.650  1.00  0.00     0.013 A 
ATOM     26  C   UNL A   1      31.355  26.953  22.007  1.00  0.00     0.013 A 
ATOM     27  C   UNL A   1      29.786  27.654  23.743  1.00  0.00     0.001 A 
ATOM     28  C   UNL A   1      30.292  27.757  22.433  1.00  0.00     0.001 A 
BRANCH  18  29
ATOM     29  C   UNL A   1      33.127  19.426  24.491  1.00  0.00     0.052 A 
ATOM     30  C   UNL A   1      32.853  18.621  25.606  1.00  0.00     0.027 A 
ATOM     31  C   UNL A   1      33.304  18.815  23.245  1.00  0.00     0.027 A 
ATOM     32  C   UNL A   1      32.781  17.233  25.488  1.00  0.00     0.002 A 
ATOM     33  C   UNL A   1      33.273  17.421  23.134  1.00  0.00     0.002 A 
ATOM     34  C   UNL A   1      33.012  16.632  24.254  1.00  0.00     0.000 A 
ENDBRANCH  18  29
ENDBRANCH   4   6
ENDBRANCH   3   4
ENDBRANCH   2   3
ENDBRANCH   1   2
BRANCH   1  35
ATOM     35  O   UNL A   1      39.384  24.143  26.690  1.00  0.00    -0.458 OA
BRANCH  35  36
ATOM     36  C   UNL A   1      40.545  24.838  26.651  1.00  0.00     0.338 C 
ATOM     37  O   UNL A   1      41.398  24.825  25.783  1.00  0.00    -0.246 OA
BRANCH  36  38
ATOM     38  C   UNL A   1      40.548  25.788  27.770  1.00  0.00     0.060 A 
ATOM     39  C   UNL A   1      41.525  26.763  27.914  1.00  0.00     0.016 A 
ATOM     40  C   UNL A   1      39.490  25.713  28.671  1.00  0.00     0.016 A 
ATOM     41  C   UNL A   1      41.435  27.648  28.994  1.00  0.00     0.010 A 
ATOM     42  C   UNL A   1      39.363  26.620  29.708  1.00  0.00     0.010 A 
ATOM     43  C   UNL A   1      40.352  27.583  29.894  1.00  0.00    -0.014 A 
BRANCH  43  44
ATOM     44  C   UNL A   1      40.217  28.539  31.016  1.00  0.00     0.031 A 
ATOM     45  C   UNL A   1      41.097  28.426  32.231  1.00  0.00     0.074 A 
ATOM     46  C   UNL A   1      39.253  29.476  30.946  1.00  0.00     0.049 A 
ATOM     47  N   UNL A   1      41.165  29.220  33.269  1.00  0.00    -0.248 NA
ATOM     48  C   UNL A   1      41.995  27.262  32.309  1.00  0.00     0.031 C 
ATOM     49  C   UNL A   1      38.273  29.595  29.863  1.00  0.00     0.029 A 
ATOM     50  N   UNL A   1      38.942  30.507  31.792  1.00  0.00    -0.354 N 
ATOM     51  C   UNL A   1      42.120  28.662  34.111  1.00  0.00     0.074 A 
ATOM     52  C   UNL A   1      42.548  27.422  33.504  1.00  0.00     0.031 C 
ATOM     53  C   UNL A   1      37.514  30.680  30.077  1.00  0.00     0.029 A 
ATOM     54  C   UNL A   1      37.937  31.316  31.319  1.00  0.00     0.049 A 
ATOM     55  H   UNL A   1      39.396  30.655  32.653  1.00  0.00     0.167 HD
ATOM     56  C   UNL A   1      42.622  29.163  35.265  1.00  0.00     0.037 A 
ATOM     57  C   UNL A   1      37.434  32.459  31.822  1.00  0.00     0.037 A 
ATOM     58  C   UNL A   1      42.190  30.407  35.846  1.00  0.00     0.049 A 
ATOM     59  C   UNL A   1      38.027  33.013  33.087  1.00  0.00     0.074 A 
ATOM     60  C   UNL A   1      42.667  31.043  36.979  1.00  0.00     0.029 A 
ATOM     61  N   UNL A   1      41.175  31.206  35.337  1.00  0.00    -0.354 N 
ATOM     62  N   UNL A   1      38.997  32.524  33.824  1.00  0.00    -0.248 NA
ATOM     63  C   UNL A   1      37.469  34.276  33.583  1.00  0.00     0.031 C 
ATOM     64  C   UNL A   1      41.917  32.206  37.174  1.00  0.00     0.029 A 
ATOM     65  C   UNL A   1      41.001  32.321  36.139  1.00  0.00     0.049 A 
ATOM     66  H   UNL A   1      40.655  31.009  34.524  1.00  0.00     0.167 HD
ATOM     67  C   UNL A   1      39.177  33.428  34.863  1.00  0.00     0.074 A 
ATOM     68  C   UNL A   1      38.228  34.503  34.646  1.00  0.00     0.031 C 
ATOM     69  C   UNL A   1      40.045  33.375  35.903  1.00  0.00     0.037 A 
BRANCH  56  70
ATOM     70  C   UNL A   1      43.718  28.391  35.951  1.00  0.00     0.058 A 
ATOM     71  C   UNL A   1      45.071  28.705  35.740  1.00  0.00     0.135 A 
ATOM     72  C   UNL A   1      43.423  27.374  36.874  1.00  0.00     0.135 A 
ATOM     73  F   UNL A   1      45.415  29.660  34.860  1.00  0.00    -0.206 F 
ATOM     74  C   UNL A   1      46.090  28.029  36.402  1.00  0.00     0.059 A 
ATOM     75  C   UNL A   1      44.427  26.703  37.569  1.00  0.00     0.059 A 
ATOM     76  F   UNL A   1      42.148  27.031  37.117  1.00  0.00    -0.206 F 
ATOM     77  C   UNL A   1      45.758  27.032  37.320  1.00  0.00     0.060 A 
BRANCH  77  78
ATOM     78  S   UNL A   1      47.096  26.192  38.195  1.00  0.00     0.124 S 
ATOM     79  O   UNL A   1      48.229  27.067  37.910  1.00  0.00    -0.237 OA
ATOM     80  O   UNL A   1      46.620  26.203  39.574  1.00  0.00    -0.237 OA
ATOM     81  O   UNL A   1      47.146  24.878  37.562  1.00  0.00    -0.744 OA
ENDBRANCH  77  78
ENDBRANCH  56  70
BRANCH  57  82
ATOM     82  C   UNL A   1      36.372  33.183  31.077  1.00  0.00     0.058 A 
ATOM     83  C   UNL A   1      35.050  33.195  31.547  1.00  0.00     0.135 A 
ATOM     84  C   UNL A   1      36.662  33.923  29.922  1.00  0.00     0.135 A 
ATOM     85  F   UNL A   1      34.725  32.503  32.650  1.00  0.00    -0.206 F 
ATOM     86  C   UNL A   1      34.051  33.906  30.892  1.00  0.00     0.059 A 
ATOM     87  C   UNL A   1      35.684  34.661  29.262  1.00  0.00     0.059 A 
ATOM     88  F   UNL A   1      37.917  33.963  29.446  1.00  0.00    -0.206 F 
ATOM     89  C   UNL A   1      34.379  34.641  29.753  1.00  0.00     0.060 A 
BRANCH  89  90
ATOM     90  S   UNL A   1      33.084  35.610  28.950  1.00  0.00     0.124 S 
ATOM     91  O   UNL A   1      32.419  34.597  28.139  1.00  0.00    -0.237 OA
ATOM     92  O   UNL A   1      32.327  36.114  30.092  1.00  0.00    -0.237 OA
ATOM     93  O   UNL A   1      33.832  36.621  28.208  1.00  0.00    -0.744 OA
ENDBRANCH  89  90
ENDBRANCH  57  82
BRANCH  69  94
ATOM     94  C   UNL A   1      40.012  34.512  36.884  1.00  0.00     0.058 A 
ATOM     95  C   UNL A   1      39.092  34.538  37.943  1.00  0.00     0.135 A 
ATOM     96  C   UNL A   1      40.951  35.554  36.800  1.00  0.00     0.135 A 
ATOM     97  F   UNL A   1      38.172  33.568  38.063  1.00  0.00    -0.206 F 
ATOM     98  C   UNL A   1      39.088  35.570  38.873  1.00  0.00     0.059 A 
ATOM     99  C   UNL A   1      40.983  36.582  37.736  1.00  0.00     0.059 A 
ATOM    100  F   UNL A   1      41.859  35.568  35.812  1.00  0.00    -0.206 F 
ATOM    101  C   UNL A   1      40.041  36.586  38.764  1.00  0.00     0.060 A 
BRANCH 101 102
ATOM    102  S   UNL A   1      40.043  37.900  40.001  1.00  0.00     0.124 S 
ATOM    103  O   UNL A   1      41.307  38.571  39.716  1.00  0.00    -0.237 OA
ATOM    104  O   UNL A   1      38.837  38.648  39.662  1.00  0.00    -0.237 OA
ATOM    105  O   UNL A   1      39.989  37.176  41.268  1.00  0.00    -0.744 OA
ENDBRANCH 101 102
ENDBRANCH  69  94
ENDBRANCH  43  44
ENDBRANCH  36  38
ENDBRANCH  35  36
ENDBRANCH   1  35
TORSDOF 15
ENDMDL
MODEL 2
REMARK VINA RESULT:     -13.2      6.635     11.576
REMARK SMILES C[C@]1(C(=O)OCCOC(=O)c2ccc(-c3c4nc(c(-c5c(F)cc(S(=O)(=O)[O-])cc5F)c5ccc([nH]5)c(-c5c(F)cc(S(=O)(=O)[O-])cc5F)c5nc(c(-c6c(F)cc(S(=O)(=O)[O-])cc6F)c6ccc3[nH]6)C=C5)C=C4)cc2)[NH2+]C2(C(=O)c3ccccc3C2=O)[C@@H]2C(=O)N(c3ccccc3)C(=O)[C@H]21
REMARK SMILES IDX 7 1 6 2 5 3 3 4 4 5 2 6 1 7 77 8 101 9 78 10 89 13 99 14
REMARK SMILES IDX 79 15 87 16 90 17 92 18 100 19 80 20 81 21 86 22 88 23 91 24
REMARK SMILES IDX 82 25 85 26 83 27 84 28 93 29 94 30 98 31 95 32 97 33 96 34
REMARK SMILES IDX 8 35 9 36 10 37 11 38 12 39 76 40 13 41 75 42 14 43 15 44
REMARK SMILES IDX 16 45 69 46 17 47 74 48 68 49 70 50 18 51 73 52 67 53 66 54
REMARK SMILES IDX 19 56 53 57 32 58 52 59 33 60 36 61 51 62 71 63 34 64 35 65
REMARK SMILES IDX 50 67 72 68 37 69 20 70 21 71 30 72 22 73 23 74 29 75 31 76
REMARK SMILES IDX 24 77 25 78 26 79 27 80 28 81 54 82 55 83 64 84 56 85 57 86
REMARK SMILES IDX 63 87 65 88 58 89 59 90 60 91 61 92 62 93 38 94 39 95 48 96
REMARK SMILES IDX 40 97 41 98 47 99 49 100 42 101 43 102 44 103 45 104 46 105
REMARK H PARENT 77 11 77 12 70 55 36 66
REMARK Flexibility Score: inf
ROOT
ATOM      1  C   UNL A   1      34.375  31.251  28.084  1.00  0.00     0.275 C 
ENDROOT
BRANCH   1   2
ATOM      2  C   UNL A   1      33.218  30.426  27.523  1.00  0.00     0.274 C 
BRANCH   2   3
ATOM      3  O   UNL A   1      33.379  29.029  27.839  1.00  0.00    -0.457 OA
BRANCH   3   4
ATOM      4  C   UNL A   1      32.596  28.129  27.182  1.00  0.00     0.368 C 
ATOM      5  O   UNL A   1      31.453  27.849  27.519  1.00  0.00    -0.245 OA
BRANCH   4   6
ATOM      6  C   UNL A   1      33.358  27.418  26.019  1.00  0.00     0.205 C 
ATOM      7  C   UNL A   1      34.765  27.982  25.816  1.00  0.00     0.093 C 
ATOM      8  N   UNL A   1      33.429  25.917  26.215  1.00  0.00    -0.313 N 
ATOM      9  C   UNL A   1      32.566  27.511  24.745  1.00  0.00     0.172 C 
ATOM     10  C   UNL A   1      32.384  25.285  25.318  1.00  0.00     0.237 C 
ATOM     11  H   UNL A   1      33.237  25.686  27.189  1.00  0.00     0.348 HD
ATOM     12  H   UNL A   1      34.359  25.570  25.980  1.00  0.00     0.348 HD
ATOM     13  C   UNL A   1      31.514  26.446  24.960  1.00  0.00     0.177 C 
ATOM     14  C   UNL A   1      31.745  28.665  24.307  1.00  0.00     0.244 C 
ATOM     15  C   UNL A   1      33.079  24.536  24.182  1.00  0.00     0.232 C 
ATOM     16  C   UNL A   1      31.667  24.169  26.079  1.00  0.00     0.232 C 
ATOM     17  C   UNL A   1      30.651  26.704  23.775  1.00  0.00     0.245 C 
ATOM     18  N   UNL A   1      30.672  28.093  23.629  1.00  0.00    -0.250 N 
ATOM     19  O   UNL A   1      32.052  29.833  24.460  1.00  0.00    -0.273 OA
ATOM     20  O   UNL A   1      33.750  25.008  23.282  1.00  0.00    -0.286 OA
ATOM     21  C   UNL A   1      32.913  23.103  24.410  1.00  0.00     0.036 A 
ATOM     22  C   UNL A   1      32.098  22.889  25.515  1.00  0.00     0.036 A 
ATOM     23  O   UNL A   1      30.856  24.269  26.983  1.00  0.00    -0.286 OA
ATOM     24  O   UNL A   1      30.005  25.850  23.193  1.00  0.00    -0.273 OA
ATOM     25  C   UNL A   1      33.481  22.058  23.705  1.00  0.00     0.013 A 
ATOM     26  C   UNL A   1      31.801  21.612  25.954  1.00  0.00     0.013 A 
ATOM     27  C   UNL A   1      33.194  20.760  24.137  1.00  0.00     0.001 A 
ATOM     28  C   UNL A   1      32.359  20.540  25.249  1.00  0.00     0.001 A 
BRANCH  18  29
ATOM     29  C   UNL A   1      29.683  28.872  22.991  1.00  0.00     0.052 A 
ATOM     30  C   UNL A   1      30.031  29.769  21.970  1.00  0.00     0.027 A 
ATOM     31  C   UNL A   1      28.364  28.859  23.456  1.00  0.00     0.027 A 
ATOM     32  C   UNL A   1      29.091  30.652  21.442  1.00  0.00     0.002 A 
ATOM     33  C   UNL A   1      27.432  29.772  22.955  1.00  0.00     0.002 A 
ATOM     34  C   UNL A   1      27.795  30.667  21.949  1.00  0.00     0.000 A 
ENDBRANCH  18  29
ENDBRANCH   4   6
ENDBRANCH   3   4
ENDBRANCH   2   3
ENDBRANCH   1   2
BRANCH   1  35
ATOM     35  O   UNL A   1      35.598  30.496  28.043  1.00  0.00    -0.458 OA
BRANCH  35  36
ATOM     36  C   UNL A   1      36.328  30.520  29.181  1.00  0.00     0.338 C 
ATOM     37  O   UNL A   1      35.943  30.738  30.315  1.00  0.00    -0.246 OA
BRANCH  36  38
ATOM     38  C   UNL A   1      37.683  30.051  28.867  1.00  0.00     0.060 A 
ATOM     39  C   UNL A   1      38.087  29.760  27.570  1.00  0.00     0.016 A 
ATOM     40  C   UNL A   1      38.584  29.954  29.923  1.00  0.00     0.016 A 
ATOM     41  C   UNL A   1      39.406  29.347  27.356  1.00  0.00     0.010 A 
ATOM     42  C   UNL A   1      39.905  29.602  29.712  1.00  0.00     0.010 A 
ATOM     43  C   UNL A   1      40.323  29.269  28.425  1.00  0.00    -0.014 A 
BRANCH  43  44
ATOM     44  C   UNL A   1      41.733  28.877  28.210  1.00  0.00     0.031 A 
ATOM     45  C   UNL A   1      42.096  27.448  27.909  1.00  0.00     0.074 A 
ATOM     46  C   UNL A   1      42.687  29.818  28.345  1.00  0.00     0.049 A 
ATOM     47  N   UNL A   1      43.269  26.945  27.620  1.00  0.00    -0.248 NA
ATOM     48  C   UNL A   1      41.015  26.450  27.966  1.00  0.00     0.031 C 
ATOM     49  C   UNL A   1      42.447  31.206  28.748  1.00  0.00     0.029 A 
ATOM     50  N   UNL A   1      44.040  29.756  28.149  1.00  0.00    -0.354 N 
ATOM     51  C   UNL A   1      43.063  25.581  27.446  1.00  0.00     0.074 A 
ATOM     52  C   UNL A   1      41.671  25.321  27.738  1.00  0.00     0.031 C 
ATOM     53  C   UNL A   1      43.605  31.880  28.706  1.00  0.00     0.029 A 
ATOM     54  C   UNL A   1      44.669  30.970  28.297  1.00  0.00     0.049 A 
ATOM     55  H   UNL A   1      44.517  28.924  27.924  1.00  0.00     0.167 HD
ATOM     56  C   UNL A   1      43.949  24.640  27.039  1.00  0.00     0.037 A 
ATOM     57  C   UNL A   1      45.955  31.311  28.095  1.00  0.00     0.037 A 
ATOM     58  C   UNL A   1      45.329  24.924  26.741  1.00  0.00     0.049 A 
ATOM     59  C   UNL A   1      46.914  30.259  27.613  1.00  0.00     0.074 A 
ATOM     60  C   UNL A   1      46.303  24.065  26.264  1.00  0.00     0.029 A 
ATOM     61  N   UNL A   1      45.930  26.166  26.893  1.00  0.00    -0.354 N 
ATOM     62  N   UNL A   1      46.685  28.991  27.360  1.00  0.00    -0.248 NA
ATOM     63  C   UNL A   1      48.299  30.681  27.378  1.00  0.00     0.031 C 
ATOM     64  C   UNL A   1      47.501  24.778  26.162  1.00  0.00     0.029 A 
ATOM     65  C   UNL A   1      47.265  26.094  26.532  1.00  0.00     0.049 A 
ATOM     66  H   UNL A   1      45.474  26.980  27.209  1.00  0.00     0.167 HD
ATOM     67  C   UNL A   1      47.894  28.468  26.920  1.00  0.00     0.074 A 
ATOM     68  C   UNL A   1      48.845  29.562  26.923  1.00  0.00     0.031 C 
ATOM     69  C   UNL A   1      48.192  27.198  26.549  1.00  0.00     0.037 A 
BRANCH  56  70
ATOM     70  C   UNL A   1      43.447  23.233  26.852  1.00  0.00     0.058 A 
ATOM     71  C   UNL A   1      43.277  22.686  25.569  1.00  0.00     0.135 A 
ATOM     72  C   UNL A   1      43.194  22.399  27.953  1.00  0.00     0.135 A 
ATOM     73  F   UNL A   1      43.492  23.439  24.478  1.00  0.00    -0.206 F 
ATOM     74  C   UNL A   1      42.857  21.373  25.385  1.00  0.00     0.059 A 
ATOM     75  C   UNL A   1      42.799  21.073  27.792  1.00  0.00     0.059 A 
ATOM     76  F   UNL A   1      43.340  22.867  29.203  1.00  0.00    -0.206 F 
ATOM     77  C   UNL A   1      42.625  20.571  26.503  1.00  0.00     0.060 A 
BRANCH  77  78
ATOM     78  S   UNL A   1      42.116  18.859  26.240  1.00  0.00     0.124 S 
ATOM     79  O   UNL A   1      42.276  18.295  27.577  1.00  0.00    -0.237 OA
ATOM     80  O   UNL A   1      40.740  19.012  25.780  1.00  0.00    -0.237 OA
ATOM     81  O   UNL A   1      43.058  18.372  25.238  1.00  0.00    -0.744 OA
ENDBRANCH  77  78
ENDBRANCH  56  70
BRANCH  57  82
ATOM     82  C   UNL A   1      46.375  32.725  28.272  1.00  0.00     0.058 A 
ATOM     83  C   UNL A   1      46.247  33.646  27.221  1.00  0.00     0.135 A 
ATOM     84  C   UNL A   1      46.854  33.199  29.502  1.00  0.00     0.135 A 
ATOM     85  F   UNL A   1      45.792  33.240  26.026  1.00  0.00    -0.206 F 
ATOM     86  C   UNL A   1      46.589  34.984  27.380  1.00  0.00     0.059 A 
ATOM     87  C   UNL A   1      47.180  34.538  29.693  1.00  0.00     0.059 A 
ATOM     88  F   UNL A   1      46.971  32.361  30.545  1.00  0.00    -0.206 F 
ATOM     89  C   UNL A   1      47.048  35.422  28.623  1.00  0.00     0.060 A 
BRANCH  89  90
ATOM     90  S   UNL A   1      47.427  37.175  28.832  1.00  0.00     0.124 S 
ATOM     91  O   UNL A   1      46.130  37.789  28.574  1.00  0.00    -0.237 OA
ATOM     92  O   UNL A   1      47.894  37.224  30.215  1.00  0.00    -0.237 OA
ATOM     93  O   UNL A   1      48.453  37.420  27.823  1.00  0.00    -0.744 OA
ENDBRANCH  89  90
ENDBRANCH  57  82
BRANCH  69  94
ATOM     94  C   UNL A   1      49.604  26.924  26.113  1.00  0.00     0.058 A 
ATOM     95  C   UNL A   1      50.582  26.502  27.025  1.00  0.00     0.135 A 
ATOM     96  C   UNL A   1      49.963  27.025  24.759  1.00  0.00     0.135 A 
ATOM     97  F   UNL A   1      50.289  26.396  28.331  1.00  0.00    -0.206 F 
ATOM     98  C   UNL A   1      51.877  26.210  26.614  1.00  0.00     0.059 A 
ATOM     99  C   UNL A   1      51.246  26.711  24.321  1.00  0.00     0.059 A 
ATOM    100  F   UNL A   1      49.060  27.413  23.846  1.00  0.00    -0.206 F 
ATOM    101  C   UNL A   1      52.199  26.313  25.258  1.00  0.00     0.060 A 
BRANCH 101 102
ATOM    102  S   UNL A   1      53.876  25.897  24.737  1.00  0.00     0.124 S 
ATOM    103  O   UNL A   1      53.870  24.443  24.860  1.00  0.00    -0.237 OA
ATOM    104  O   UNL A   1      53.916  26.419  23.375  1.00  0.00    -0.237 OA
ATOM    105  O   UNL A   1      54.716  26.604  25.699  1.00  0.00    -0.744 OA
ENDBRANCH 101 102
ENDBRANCH  69  94
ENDBRANCH  43  44
ENDBRANCH  36  38
ENDBRANCH  35  36
ENDBRANCH   1  35
TORSDOF 15
ENDMDL
MODEL 3
REMARK VINA RESULT:     -13.0      0.535      7.936
REMARK SMILES C[C@]1(C(=O)OCCOC(=O)c2ccc(-c3c4nc(c(-c5c(F)cc(S(=O)(=O)[O-])cc5F)c5ccc([nH]5)c(-c5c(F)cc(S(=O)(=O)[O-])cc5F)c5nc(c(-c6c(F)cc(S(=O)(=O)[O-])cc6F)c6ccc3[nH]6)C=C5)C=C4)cc2)[NH2+]C2(C(=O)c3ccccc3C2=O)[C@@H]2C(=O)N(c3ccccc3)C(=O)[C@H]21
REMARK SMILES IDX 7 1 6 2 5 3 3 4 4 5 2 6 1 7 77 8 101 9 78 10 89 13 99 14
REMARK SMILES IDX 79 15 87 16 90 17 92 18 100 19 80 20 81 21 86 22 88 23 91 24
REMARK SMILES IDX 82 25 85 26 83 27 84 28 93 29 94 30 98 31 95 32 97 33 96 34
REMARK SMILES IDX 8 35 9 36 10 37 11 38 12 39 76 40 13 41 75 42 14 43 15 44
REMARK SMILES IDX 16 45 69 46 17 47 74 48 68 49 70 50 18 51 73 52 67 53 66 54
REMARK SMILES IDX 19 56 53 57 32 58 52 59 33 60 36 61 51 62 71 63 34 64 35 65
REMARK SMILES IDX 50 67 72 68 37 69 20 70 21 71 30 72 22 73 23 74 29 75 31 76
REMARK SMILES IDX 24 77 25 78 26 79 27 80 28 81 54 82 55 83 64 84 56 85 57 86
REMARK SMILES IDX 63 87 65 88 58 89 59 90 60 91 61 92 62 93 38 94 39 95 48 96
REMARK SMILES IDX 40 97 41 98 47 99 49 100 42 101 43 102 44 103 45 104 46 105
REMARK H PARENT 77 11 77 12 70 55 36 66
REMARK Flexibility Score: inf
ROOT
ATOM      1  C   UNL A   1      39.433  22.397  26.390  1.00  0.00     0.275 C 
ENDROOT
BRANCH   1   2
ATOM      2  C   UNL A   1      38.312  22.061  25.408  1.00  0.00     0.274 C 
BRANCH   2   3
ATOM      3  O   UNL A   1      37.796  23.254  24.785  1.00  0.00    -0.457 OA
BRANCH   3   4
ATOM      4  C   UNL A   1      36.561  23.195  24.214  1.00  0.00     0.368 C 
ATOM      5  O   UNL A   1      36.364  22.859  23.054  1.00  0.00    -0.245 OA
BRANCH   4   6
ATOM      6  C   UNL A   1      35.439  23.708  25.173  1.00  0.00     0.205 C 
ATOM      7  C   UNL A   1      35.978  24.065  26.558  1.00  0.00     0.093 C 
ATOM      8  N   UNL A   1      34.687  24.890  24.593  1.00  0.00    -0.313 N 
ATOM      9  C   UNL A   1      34.343  22.687  25.283  1.00  0.00     0.172 C 
ATOM     10  C   UNL A   1      33.368  24.376  24.051  1.00  0.00     0.237 C 
ATOM     11  H   UNL A   1      35.232  25.311  23.841  1.00  0.00     0.348 HD
ATOM     12  H   UNL A   1      34.528  25.597  25.309  1.00  0.00     0.348 HD
ATOM     13  C   UNL A   1      33.594  22.900  23.986  1.00  0.00     0.177 C 
ATOM     14  C   UNL A   1      34.515  21.214  25.296  1.00  0.00     0.244 C 
ATOM     15  C   UNL A   1      32.228  24.886  24.930  1.00  0.00     0.232 C 
ATOM     16  C   UNL A   1      33.083  25.031  22.699  1.00  0.00     0.232 C 
ATOM     17  C   UNL A   1      32.647  21.753  24.052  1.00  0.00     0.245 C 
ATOM     18  N   UNL A   1      33.390  20.725  24.636  1.00  0.00    -0.250 N 
ATOM     19  O   UNL A   1      35.419  20.627  25.860  1.00  0.00    -0.273 OA
ATOM     20  O   UNL A   1      32.005  24.606  26.094  1.00  0.00    -0.286 OA
ATOM     21  C   UNL A   1      31.484  25.890  24.176  1.00  0.00     0.036 A 
ATOM     22  C   UNL A   1      31.983  25.980  22.882  1.00  0.00     0.036 A 
ATOM     23  O   UNL A   1      33.624  24.824  21.628  1.00  0.00    -0.286 OA
ATOM     24  O   UNL A   1      31.528  21.753  23.569  1.00  0.00    -0.273 OA
ATOM     25  C   UNL A   1      30.455  26.700  24.622  1.00  0.00     0.013 A 
ATOM     26  C   UNL A   1      31.459  26.876  21.969  1.00  0.00     0.013 A 
ATOM     27  C   UNL A   1      29.916  27.614  23.713  1.00  0.00     0.001 A 
ATOM     28  C   UNL A   1      30.412  27.699  22.397  1.00  0.00     0.001 A 
BRANCH  18  29
ATOM     29  C   UNL A   1      33.143  19.343  24.496  1.00  0.00     0.052 A 
ATOM     30  C   UNL A   1      32.887  18.547  25.622  1.00  0.00     0.027 A 
ATOM     31  C   UNL A   1      33.280  18.724  23.249  1.00  0.00     0.027 A 
ATOM     32  C   UNL A   1      32.794  17.160  25.512  1.00  0.00     0.002 A 
ATOM     33  C   UNL A   1      33.228  17.330  23.146  1.00  0.00     0.002 A 
ATOM     34  C   UNL A   1      32.986  16.550  24.276  1.00  0.00     0.000 A 
ENDBRANCH  18  29
ENDBRANCH   4   6
ENDBRANCH   3   4
ENDBRANCH   2   3
ENDBRANCH   1   2
BRANCH   1  35
ATOM     35  O   UNL A   1      39.325  23.762  26.828  1.00  0.00    -0.458 OA
BRANCH  35  36
ATOM     36  C   UNL A   1      40.491  24.447  26.872  1.00  0.00     0.338 C 
ATOM     37  O   UNL A   1      41.444  24.353  26.121  1.00  0.00    -0.246 OA
BRANCH  36  38
ATOM     38  C   UNL A   1      40.370  25.494  27.894  1.00  0.00     0.060 A 
ATOM     39  C   UNL A   1      39.269  25.587  28.736  1.00  0.00     0.016 A 
ATOM     40  C   UNL A   1      41.437  26.375  28.031  1.00  0.00     0.016 A 
ATOM     41  C   UNL A   1      39.249  26.597  29.703  1.00  0.00     0.010 A 
ATOM     42  C   UNL A   1      41.450  27.341  29.021  1.00  0.00     0.010 A 
ATOM     43  C   UNL A   1      40.341  27.477  29.853  1.00  0.00    -0.014 A 
BRANCH  43  44
ATOM     44  C   UNL A   1      40.356  28.523  30.899  1.00  0.00     0.031 A 
ATOM     45  C   UNL A   1      39.402  29.685  30.837  1.00  0.00     0.074 A 
ATOM     46  C   UNL A   1      41.278  28.439  31.876  1.00  0.00     0.049 A 
ATOM     47  N   UNL A   1      39.227  30.649  31.706  1.00  0.00    -0.248 NA
ATOM     48  C   UNL A   1      38.555  29.801  29.638  1.00  0.00     0.031 C 
ATOM     49  C   UNL A   1      42.322  27.414  31.960  1.00  0.00     0.029 A 
ATOM     50  N   UNL A   1      41.483  29.215  32.985  1.00  0.00    -0.354 N 
ATOM     51  C   UNL A   1      38.244  31.471  31.167  1.00  0.00     0.074 A 
ATOM     52  C   UNL A   1      37.916  30.941  29.863  1.00  0.00     0.031 C 
ATOM     53  C   UNL A   1      43.014  27.586  33.096  1.00  0.00     0.029 A 
ATOM     54  C   UNL A   1      42.480  28.743  33.805  1.00  0.00     0.049 A 
ATOM     55  H   UNL A   1      40.966  30.031  33.177  1.00  0.00     0.167 HD
ATOM     56  C   UNL A   1      37.644  32.547  31.730  1.00  0.00     0.037 A 
ATOM     57  C   UNL A   1      42.894  29.182  35.009  1.00  0.00     0.037 A 
ATOM     58  C   UNL A   1      37.978  33.050  33.037  1.00  0.00     0.049 A 
ATOM     59  C   UNL A   1      42.193  30.357  35.628  1.00  0.00     0.074 A 
ATOM     60  C   UNL A   1      37.397  34.094  33.734  1.00  0.00     0.029 A 
ATOM     61  N   UNL A   1      38.987  32.543  33.844  1.00  0.00    -0.354 N 
ATOM     62  N   UNL A   1      41.199  31.068  35.150  1.00  0.00    -0.248 NA
ATOM     63  C   UNL A   1      42.658  30.783  36.954  1.00  0.00     0.031 C 
ATOM     64  C   UNL A   1      38.077  34.241  34.946  1.00  0.00     0.029 A 
ATOM     65  C   UNL A   1      39.055  33.260  35.027  1.00  0.00     0.049 A 
ATOM     66  H   UNL A   1      39.569  31.783  33.611  1.00  0.00     0.167 HD
ATOM     67  C   UNL A   1      40.908  32.017  36.122  1.00  0.00     0.074 A 
ATOM     68  C   UNL A   1      41.818  31.773  37.224  1.00  0.00     0.031 C 
ATOM     69  C   UNL A   1      39.975  33.001  36.106  1.00  0.00     0.037 A 
BRANCH  56  70
ATOM     70  C   UNL A   1      36.540  33.222  30.960  1.00  0.00     0.058 A 
ATOM     71  C   UNL A   1      35.198  33.107  31.358  1.00  0.00     0.135 A 
ATOM     72  C   UNL A   1      36.822  34.042  29.855  1.00  0.00     0.135 A 
ATOM     73  F   UNL A   1      34.866  32.327  32.400  1.00  0.00    -0.206 F 
ATOM     74  C   UNL A   1      34.176  33.763  30.681  1.00  0.00     0.059 A 
ATOM     75  C   UNL A   1      35.818  34.729  29.178  1.00  0.00     0.059 A 
ATOM     76  F   UNL A   1      38.087  34.190  29.428  1.00  0.00    -0.206 F 
ATOM     77  C   UNL A   1      34.496  34.577  29.594  1.00  0.00     0.060 A 
BRANCH  77  78
ATOM     78  S   UNL A   1      33.157  35.448  28.752  1.00  0.00     0.124 S 
ATOM     79  O   UNL A   1      32.528  34.365  28.001  1.00  0.00    -0.237 OA
ATOM     80  O   UNL A   1      32.380  35.977  29.867  1.00  0.00    -0.237 OA
ATOM     81  O   UNL A   1      33.852  36.447  27.946  1.00  0.00    -0.744 OA
ENDBRANCH  77  78
ENDBRANCH  56  70
BRANCH  57  82
ATOM     82  C   UNL A   1      43.970  28.450  35.725  1.00  0.00     0.058 A 
ATOM     83  C   UNL A   1      43.658  27.408  36.612  1.00  0.00     0.135 A 
ATOM     84  C   UNL A   1      45.325  28.731  35.497  1.00  0.00     0.135 A 
ATOM     85  F   UNL A   1      42.376  27.101  36.861  1.00  0.00    -0.206 F 
ATOM     86  C   UNL A   1      44.651  26.678  37.256  1.00  0.00     0.059 A 
ATOM     87  C   UNL A   1      46.337  28.000  36.111  1.00  0.00     0.059 A 
ATOM     88  F   UNL A   1      45.675  29.702  34.639  1.00  0.00    -0.206 F 
ATOM     89  C   UNL A   1      45.989  26.978  36.994  1.00  0.00     0.060 A 
BRANCH  89  90
ATOM     90  S   UNL A   1      47.266  25.979  37.789  1.00  0.00     0.124 S 
ATOM     91  O   UNL A   1      47.956  26.976  38.600  1.00  0.00    -0.237 OA
ATOM     92  O   UNL A   1      46.474  24.996  38.521  1.00  0.00    -0.237 OA
ATOM     93  O   UNL A   1      48.027  25.447  36.662  1.00  0.00    -0.744 OA
ENDBRANCH  89  90
ENDBRANCH  57  82
BRANCH  69  94
ATOM     94  C   UNL A   1      39.889  33.886  37.317  1.00  0.00     0.058 A 
ATOM     95  C   UNL A   1      40.587  35.101  37.384  1.00  0.00     0.135 A 
ATOM     96  C   UNL A   1      39.054  33.544  38.393  1.00  0.00     0.135 A 
ATOM     97  F   UNL A   1      41.402  35.470  36.384  1.00  0.00    -0.206 F 
ATOM     98  C   UNL A   1      40.475  35.939  38.488  1.00  0.00     0.059 A 
ATOM     99  C   UNL A   1      38.906  34.380  39.494  1.00  0.00     0.059 A 
ATOM    100  F   UNL A   1      38.358  32.396  38.370  1.00  0.00    -0.206 F 
ATOM    101  C   UNL A   1      39.629  35.571  39.537  1.00  0.00     0.060 A 
BRANCH 101 102
ATOM    102  S   UNL A   1      39.471  36.687  40.946  1.00  0.00     0.124 S 
ATOM    103  O   UNL A   1      39.168  37.953  40.287  1.00  0.00    -0.237 OA
ATOM    104  O   UNL A   1      38.374  36.086  41.697  1.00  0.00    -0.237 OA
ATOM    105  O   UNL A   1      40.779  36.611  41.589  1.00  0.00    -0.744 OA
ENDBRANCH 101 102
ENDBRANCH  69  94
ENDBRANCH  43  44
ENDBRANCH  36  38
ENDBRANCH  35  36
ENDBRANCH   1  35
TORSDOF 15
ENDMDL
