MODEL 1
REMARK VINA RESULT:     -11.6      0.000      0.000
REMARK SMILES CC1=C(C)C[C@@H](C(=O)OCCOC(=O)c2ccc(-c3c4nc(c(-c5c(F)cc(S(=O)(=O)[O-])cc5F)c5ccc([nH]5)c(-c5c(F)cc(S(=O)(=O)[O-])cc5F)c5nc(c(-c6c(F)cc(S(=O)(=O)[O-])cc6F)c6ccc3[nH]6)C=C5)C=C4)cc2)[C@H](C(=O)NCc2cccnc2)C1
REMARK SMILES IDX 10 1 9 2 7 3 8 4 6 5 1 6 2 7 3 8 92 9 4 10 5 11 81 12 82 13
REMARK SMILES IDX 83 14 84 15 85 17 86 18 87 19 91 20 88 21 90 22 89 23 11 24
REMARK SMILES IDX 12 25 13 26 14 27 15 28 16 29 80 30 17 31 79 32 18 33 19 34
REMARK SMILES IDX 20 35 73 36 21 37 78 38 72 39 74 40 22 41 77 42 71 43 70 44
REMARK SMILES IDX 23 46 57 47 36 48 56 49 37 50 40 51 55 52 75 53 38 54 39 55
REMARK SMILES IDX 54 57 76 58 41 59 24 60 25 61 34 62 26 63 27 64 33 65 35 66
REMARK SMILES IDX 28 67 29 68 30 69 31 70 32 71 58 72 59 73 68 74 60 75 61 76
REMARK SMILES IDX 67 77 69 78 62 79 63 80 64 81 65 82 66 83 42 84 43 85 52 86
REMARK SMILES IDX 44 87 45 88 51 89 53 90 46 91 47 92 48 93 49 94 50 95
REMARK H PARENT 84 16 74 45 40 56
REMARK Flexibility Score: inf
ROOT
ATOM      1  C   UNL A   1      38.153  21.861  25.606  1.00  0.00     0.274 C 
ENDROOT
BRANCH   1   2
ATOM      2  O   UNL A   1      37.263  22.958  25.318  1.00  0.00    -0.462 OA
BRANCH   2   3
ATOM      3  C   UNL A   1      36.509  22.825  24.195  1.00  0.00     0.310 C 
ATOM      4  O   UNL A   1      36.961  22.580  23.082  1.00  0.00    -0.252 OA
BRANCH   3   5
ATOM      5  C   UNL A   1      35.032  23.124  24.418  1.00  0.00     0.116 C 
ATOM      6  C   UNL A   1      33.292  27.207  25.050  1.00  0.00     0.039 C 
ATOM      7  C   UNL A   1      33.867  25.845  24.747  1.00  0.00    -0.074 C 
ATOM      8  C   UNL A   1      33.988  25.338  23.505  1.00  0.00    -0.073 C 
ATOM      9  C   UNL A   1      34.305  25.095  25.981  1.00  0.00     0.045 C 
ATOM     10  C   UNL A   1      33.593  26.061  22.240  1.00  0.00     0.039 C 
ATOM     11  C   UNL A   1      34.566  23.973  23.232  1.00  0.00     0.046 C 
ATOM     12  C   UNL A   1      34.716  23.631  25.830  1.00  0.00     0.097 C 
BRANCH  12  13
ATOM     13  C   UNL A   1      33.789  22.699  26.615  1.00  0.00     0.224 C 
ATOM     14  O   UNL A   1      34.108  22.325  27.748  1.00  0.00    -0.275 OA
ATOM     15  N   UNL A   1      32.602  22.239  26.162  1.00  0.00    -0.352 N 
ATOM     16  H   UNL A   1      32.145  21.638  26.792  1.00  0.00     0.163 HD
BRANCH  15  17
ATOM     17  C   UNL A   1      31.873  22.457  24.934  1.00  0.00     0.153 C 
BRANCH  17  18
ATOM     18  C   UNL A   1      31.033  23.702  24.947  1.00  0.00    -0.010 A 
ATOM     19  C   UNL A   1      30.656  24.319  23.748  1.00  0.00     0.009 A 
ATOM     20  C   UNL A   1      30.662  24.345  26.125  1.00  0.00     0.116 A 
ATOM     21  C   UNL A   1      29.901  25.487  23.769  1.00  0.00     0.020 A 
ATOM     22  N   UNL A   1      29.940  25.487  26.173  1.00  0.00    -0.264 NA
ATOM     23  C   UNL A   1      29.565  26.028  24.997  1.00  0.00     0.111 A 
ENDBRANCH  17  18
ENDBRANCH  15  17
ENDBRANCH  12  13
ENDBRANCH   3   5
ENDBRANCH   2   3
ENDBRANCH   1   2
BRANCH   1  24
ATOM     24  C   UNL A   1      39.457  22.320  26.268  1.00  0.00     0.275 C 
BRANCH  24  25
ATOM     25  O   UNL A   1      39.377  23.685  26.713  1.00  0.00    -0.458 OA
BRANCH  25  26
ATOM     26  C   UNL A   1      40.573  24.282  26.933  1.00  0.00     0.338 C 
ATOM     27  O   UNL A   1      41.634  24.007  26.396  1.00  0.00    -0.246 OA
BRANCH  26  28
ATOM     28  C   UNL A   1      40.394  25.421  27.848  1.00  0.00     0.060 A 
ATOM     29  C   UNL A   1      41.366  26.424  27.854  1.00  0.00     0.016 A 
ATOM     30  C   UNL A   1      39.325  25.469  28.742  1.00  0.00     0.016 A 
ATOM     31  C   UNL A   1      41.285  27.478  28.759  1.00  0.00     0.010 A 
ATOM     32  C   UNL A   1      39.243  26.527  29.654  1.00  0.00     0.010 A 
ATOM     33  C   UNL A   1      40.230  27.529  29.675  1.00  0.00    -0.014 A 
BRANCH  33  34
ATOM     34  C   UNL A   1      40.199  28.598  30.701  1.00  0.00     0.031 A 
ATOM     35  C   UNL A   1      41.145  28.535  31.865  1.00  0.00     0.074 A 
ATOM     36  C   UNL A   1      39.345  29.630  30.574  1.00  0.00     0.049 A 
ATOM     37  N   UNL A   1      41.208  29.303  32.922  1.00  0.00    -0.248 NA
ATOM     38  C   UNL A   1      42.153  27.463  31.837  1.00  0.00     0.031 C 
ATOM     39  C   UNL A   1      38.423  29.830  29.455  1.00  0.00     0.029 A 
ATOM     40  N   UNL A   1      39.114  30.703  31.396  1.00  0.00    -0.354 N 
ATOM     41  C   UNL A   1      42.247  28.798  33.694  1.00  0.00     0.074 A 
ATOM     42  C   UNL A   1      42.781  27.651  32.989  1.00  0.00     0.031 C 
ATOM     43  C   UNL A   1      37.720  30.955  29.665  1.00  0.00     0.029 A 
ATOM     44  C   UNL A   1      38.113  31.531  30.949  1.00  0.00     0.049 A 
ATOM     45  H   UNL A   1      39.615  30.863  32.228  1.00  0.00     0.167 HD
ATOM     46  C   UNL A   1      42.710  29.250  34.884  1.00  0.00     0.037 A 
ATOM     47  C   UNL A   1      37.558  32.615  31.524  1.00  0.00     0.037 A 
ATOM     48  C   UNL A   1      42.183  30.400  35.573  1.00  0.00     0.049 A 
ATOM     49  C   UNL A   1      38.058  33.073  32.867  1.00  0.00     0.074 A 
ATOM     50  C   UNL A   1      42.571  30.930  36.791  1.00  0.00     0.029 A 
ATOM     51  N   UNL A   1      41.156  31.203  35.098  1.00  0.00    -0.354 N 
ATOM     52  N   UNL A   1      39.011  32.561  33.609  1.00  0.00    -0.248 NA
ATOM     53  C   UNL A   1      37.400  34.246  33.457  1.00  0.00     0.031 C 
ATOM     54  C   UNL A   1      41.764  32.040  37.063  1.00  0.00     0.029 A 
ATOM     55  C   UNL A   1      40.892  32.219  36.001  1.00  0.00     0.049 A 
ATOM     56  H   UNL A   1      40.684  31.069  34.244  1.00  0.00     0.167 HD
ATOM     57  C   UNL A   1      39.077  33.357  34.747  1.00  0.00     0.074 A 
ATOM     58  C   UNL A   1      38.074  34.391  34.591  1.00  0.00     0.031 C 
ATOM     59  C   UNL A   1      39.890  33.240  35.825  1.00  0.00     0.037 A 
BRANCH  46  60
ATOM     60  C   UNL A   1      43.823  28.476  35.528  1.00  0.00     0.058 A 
ATOM     61  C   UNL A   1      43.568  27.430  36.429  1.00  0.00     0.135 A 
ATOM     62  C   UNL A   1      45.162  28.776  35.231  1.00  0.00     0.135 A 
ATOM     63  F   UNL A   1      42.306  27.116  36.759  1.00  0.00    -0.206 F 
ATOM     64  C   UNL A   1      44.605  26.724  37.032  1.00  0.00     0.059 A 
ATOM     65  C   UNL A   1      46.213  28.070  35.808  1.00  0.00     0.059 A 
ATOM     66  F   UNL A   1      45.458  29.769  34.378  1.00  0.00    -0.206 F 
ATOM     67  C   UNL A   1      45.924  27.056  36.720  1.00  0.00     0.060 A 
BRANCH  67  68
ATOM     68  S   UNL A   1      47.263  26.137  37.511  1.00  0.00     0.124 S 
ATOM     69  O   UNL A   1      46.602  24.874  37.826  1.00  0.00    -0.237 OA
ATOM     70  O   UNL A   1      48.273  26.078  36.459  1.00  0.00    -0.237 OA
ATOM     71  O   UNL A   1      47.610  26.967  38.660  1.00  0.00    -0.744 OA
ENDBRANCH  67  68
ENDBRANCH  46  60
BRANCH  47  72
ATOM     72  C   UNL A   1      36.445  33.324  30.843  1.00  0.00     0.058 A 
ATOM     73  C   UNL A   1      35.124  33.209  31.302  1.00  0.00     0.135 A 
ATOM     74  C   UNL A   1      36.682  34.142  29.728  1.00  0.00     0.135 A 
ATOM     75  F   UNL A   1      34.846  32.428  32.357  1.00  0.00    -0.206 F 
ATOM     76  C   UNL A   1      34.076  33.876  30.675  1.00  0.00     0.059 A 
ATOM     77  C   UNL A   1      35.653  34.834  29.097  1.00  0.00     0.059 A 
ATOM     78  F   UNL A   1      37.931  34.290  29.256  1.00  0.00    -0.206 F 
ATOM     79  C   UNL A   1      34.351  34.688  29.573  1.00  0.00     0.060 A 
BRANCH  79  80
ATOM     80  S   UNL A   1      32.998  35.597  28.798  1.00  0.00     0.124 S 
ATOM     81  O   UNL A   1      32.262  36.077  29.961  1.00  0.00    -0.237 OA
ATOM     82  O   UNL A   1      33.705  36.615  28.026  1.00  0.00    -0.237 OA
ATOM     83  O   UNL A   1      32.324  34.576  28.000  1.00  0.00    -0.744 OA
ENDBRANCH  79  80
ENDBRANCH  47  72
BRANCH  59  84
ATOM     84  C   UNL A   1      39.743  34.268  36.909  1.00  0.00     0.058 A 
ATOM     85  C   UNL A   1      38.973  34.016  38.055  1.00  0.00     0.135 A 
ATOM     86  C   UNL A   1      40.413  35.498  36.821  1.00  0.00     0.135 A 
ATOM     87  F   UNL A   1      38.309  32.857  38.182  1.00  0.00    -0.206 F 
ATOM     88  C   UNL A   1      38.860  34.959  39.072  1.00  0.00     0.059 A 
ATOM     89  C   UNL A   1      40.327  36.447  37.834  1.00  0.00     0.059 A 
ATOM     90  F   UNL A   1      41.167  35.782  35.747  1.00  0.00    -0.206 F 
ATOM     91  C   UNL A   1      39.539  36.172  38.952  1.00  0.00     0.060 A 
BRANCH  91  92
ATOM     92  S   UNL A   1      39.413  37.379  40.290  1.00  0.00     0.124 S 
ATOM     93  O   UNL A   1      38.475  38.345  39.727  1.00  0.00    -0.237 OA
ATOM     94  O   UNL A   1      38.904  36.573  41.396  1.00  0.00    -0.237 OA
ATOM     95  O   UNL A   1      40.785  37.851  40.449  1.00  0.00    -0.744 OA
ENDBRANCH  91  92
ENDBRANCH  59  84
ENDBRANCH  33  34
ENDBRANCH  26  28
ENDBRANCH  25  26
ENDBRANCH  24  25
ENDBRANCH   1  24
TORSDOF 17
ENDMDL
MODEL 2
REMARK VINA RESULT:     -11.5      1.430      2.405
REMARK SMILES CC1=C(C)C[C@@H](C(=O)OCCOC(=O)c2ccc(-c3c4nc(c(-c5c(F)cc(S(=O)(=O)[O-])cc5F)c5ccc([nH]5)c(-c5c(F)cc(S(=O)(=O)[O-])cc5F)c5nc(c(-c6c(F)cc(S(=O)(=O)[O-])cc6F)c6ccc3[nH]6)C=C5)C=C4)cc2)[C@H](C(=O)NCc2cccnc2)C1
REMARK SMILES IDX 10 1 9 2 7 3 8 4 6 5 1 6 2 7 3 8 92 9 4 10 5 11 81 12 82 13
REMARK SMILES IDX 83 14 84 15 85 17 86 18 87 19 91 20 88 21 90 22 89 23 11 24
REMARK SMILES IDX 12 25 13 26 14 27 15 28 16 29 80 30 17 31 79 32 18 33 19 34
REMARK SMILES IDX 20 35 73 36 21 37 78 38 72 39 74 40 22 41 77 42 71 43 70 44
REMARK SMILES IDX 23 46 57 47 36 48 56 49 37 50 40 51 55 52 75 53 38 54 39 55
REMARK SMILES IDX 54 57 76 58 41 59 24 60 25 61 34 62 26 63 27 64 33 65 35 66
REMARK SMILES IDX 28 67 29 68 30 69 31 70 32 71 58 72 59 73 68 74 60 75 61 76
REMARK SMILES IDX 67 77 69 78 62 79 63 80 64 81 65 82 66 83 42 84 43 85 52 86
REMARK SMILES IDX 44 87 45 88 51 89 53 90 46 91 47 92 48 93 49 94 50 95
REMARK H PARENT 84 16 74 45 40 56
REMARK Flexibility Score: inf
ROOT
ATOM      1  C   UNL A   1      38.471  21.900  25.424  1.00  0.00     0.274 C 
ENDROOT
BRANCH   1   2
ATOM      2  O   UNL A   1      37.100  21.980  25.862  1.00  0.00    -0.462 OA
BRANCH   2   3
ATOM      3  C   UNL A   1      36.330  22.898  25.221  1.00  0.00     0.310 C 
ATOM      4  O   UNL A   1      36.679  24.050  24.984  1.00  0.00    -0.252 OA
BRANCH   3   5
ATOM      5  C   UNL A   1      34.922  22.402  24.915  1.00  0.00     0.116 C 
ATOM      6  C   UNL A   1      31.474  25.003  23.718  1.00  0.00     0.039 C 
ATOM      7  C   UNL A   1      32.656  24.121  24.032  1.00  0.00    -0.074 C 
ATOM      8  C   UNL A   1      33.475  23.598  23.099  1.00  0.00    -0.073 C 
ATOM      9  C   UNL A   1      32.844  23.879  25.509  1.00  0.00     0.045 C 
ATOM     10  C   UNL A   1      33.346  23.837  21.613  1.00  0.00     0.039 C 
ATOM     11  C   UNL A   1      34.650  22.719  23.441  1.00  0.00     0.046 C 
ATOM     12  C   UNL A   1      33.880  22.844  25.948  1.00  0.00     0.097 C 
BRANCH  12  13
ATOM     13  C   UNL A   1      33.230  21.675  26.692  1.00  0.00     0.224 C 
ATOM     14  O   UNL A   1      33.313  21.606  27.922  1.00  0.00    -0.275 OA
ATOM     15  N   UNL A   1      32.541  20.676  26.098  1.00  0.00    -0.352 N 
ATOM     16  H   UNL A   1      32.206  19.999  26.727  1.00  0.00     0.163 HD
BRANCH  15  17
ATOM     17  C   UNL A   1      32.200  20.408  24.720  1.00  0.00     0.153 C 
BRANCH  17  18
ATOM     18  C   UNL A   1      32.850  19.169  24.171  1.00  0.00    -0.010 A 
ATOM     19  C   UNL A   1      34.066  18.714  24.692  1.00  0.00     0.009 A 
ATOM     20  C   UNL A   1      32.332  18.470  23.084  1.00  0.00     0.116 A 
ATOM     21  C   UNL A   1      34.675  17.581  24.160  1.00  0.00     0.020 A 
ATOM     22  N   UNL A   1      32.910  17.375  22.541  1.00  0.00    -0.264 NA
ATOM     23  C   UNL A   1      34.061  16.946  23.095  1.00  0.00     0.111 A 
ENDBRANCH  17  18
ENDBRANCH  15  17
ENDBRANCH  12  13
ENDBRANCH   3   5
ENDBRANCH   2   3
ENDBRANCH   1   2
BRANCH   1  24
ATOM     24  C   UNL A   1      39.457  22.404  26.484  1.00  0.00     0.275 C 
BRANCH  24  25
ATOM     25  O   UNL A   1      39.527  23.840  26.507  1.00  0.00    -0.458 OA
BRANCH  25  26
ATOM     26  C   UNL A   1      40.734  24.344  26.859  1.00  0.00     0.338 C 
ATOM     27  O   UNL A   1      41.821  24.003  26.422  1.00  0.00    -0.246 OA
BRANCH  26  28
ATOM     28  C   UNL A   1      40.544  25.477  27.780  1.00  0.00     0.060 A 
ATOM     29  C   UNL A   1      41.532  26.463  27.827  1.00  0.00     0.016 A 
ATOM     30  C   UNL A   1      39.449  25.532  28.641  1.00  0.00     0.016 A 
ATOM     31  C   UNL A   1      41.439  27.509  28.740  1.00  0.00     0.010 A 
ATOM     32  C   UNL A   1      39.356  26.582  29.562  1.00  0.00     0.010 A 
ATOM     33  C   UNL A   1      40.357  27.567  29.624  1.00  0.00    -0.014 A 
BRANCH  33  34
ATOM     34  C   UNL A   1      40.312  28.626  30.660  1.00  0.00     0.031 A 
ATOM     35  C   UNL A   1      41.254  28.562  31.827  1.00  0.00     0.074 A 
ATOM     36  C   UNL A   1      39.447  29.651  30.540  1.00  0.00     0.049 A 
ATOM     37  N   UNL A   1      41.305  29.320  32.892  1.00  0.00    -0.248 NA
ATOM     38  C   UNL A   1      42.273  27.500  31.793  1.00  0.00     0.031 C 
ATOM     39  C   UNL A   1      38.528  29.852  29.419  1.00  0.00     0.029 A 
ATOM     40  N   UNL A   1      39.202  30.713  31.372  1.00  0.00    -0.354 N 
ATOM     41  C   UNL A   1      42.346  28.818  33.663  1.00  0.00     0.074 A 
ATOM     42  C   UNL A   1      42.894  27.684  32.949  1.00  0.00     0.031 C 
ATOM     43  C   UNL A   1      37.813  30.968  29.637  1.00  0.00     0.029 A 
ATOM     44  C   UNL A   1      38.194  31.535  30.928  1.00  0.00     0.049 A 
ATOM     45  H   UNL A   1      39.699  30.870  32.207  1.00  0.00     0.167 HD
ATOM     46  C   UNL A   1      42.800  29.264  34.859  1.00  0.00     0.037 A 
ATOM     47  C   UNL A   1      37.626  32.608  31.512  1.00  0.00     0.037 A 
ATOM     48  C   UNL A   1      42.258  30.401  35.557  1.00  0.00     0.049 A 
ATOM     49  C   UNL A   1      38.116  33.058  32.861  1.00  0.00     0.074 A 
ATOM     50  C   UNL A   1      42.637  30.923  36.781  1.00  0.00     0.029 A 
ATOM     51  N   UNL A   1      41.225  31.198  35.086  1.00  0.00    -0.354 N 
ATOM     52  N   UNL A   1      39.072  32.548  33.602  1.00  0.00    -0.248 NA
ATOM     53  C   UNL A   1      37.444  34.218  33.460  1.00  0.00     0.031 C 
ATOM     54  C   UNL A   1      41.817  32.022  37.061  1.00  0.00     0.029 A 
ATOM     55  C   UNL A   1      40.947  32.203  35.997  1.00  0.00     0.049 A 
ATOM     56  H   UNL A   1      40.758  31.068  34.228  1.00  0.00     0.167 HD
ATOM     57  C   UNL A   1      39.125  33.334  34.747  1.00  0.00     0.074 A 
ATOM     58  C   UNL A   1      38.112  34.360  34.597  1.00  0.00     0.031 C 
ATOM     59  C   UNL A   1      39.935  33.215  35.827  1.00  0.00     0.037 A 
BRANCH  46  60
ATOM     60  C   UNL A   1      43.918  28.495  35.500  1.00  0.00     0.058 A 
ATOM     61  C   UNL A   1      45.263  28.773  35.215  1.00  0.00     0.135 A 
ATOM     62  C   UNL A   1      43.639  27.475  36.424  1.00  0.00     0.135 A 
ATOM     63  F   UNL A   1      45.582  29.727  34.325  1.00  0.00    -0.206 F 
ATOM     64  C   UNL A   1      46.295  28.048  35.804  1.00  0.00     0.059 A 
ATOM     65  C   UNL A   1      44.656  26.751  37.039  1.00  0.00     0.059 A 
ATOM     66  F   UNL A   1      42.369  27.168  36.730  1.00  0.00    -0.206 F 
ATOM     67  C   UNL A   1      45.981  27.035  36.711  1.00  0.00     0.060 A 
BRANCH  67  68
ATOM     68  S   UNL A   1      47.326  26.097  37.467  1.00  0.00     0.124 S 
ATOM     69  O   UNL A   1      46.594  25.023  38.132  1.00  0.00    -0.237 OA
ATOM     70  O   UNL A   1      48.125  25.699  36.313  1.00  0.00    -0.237 OA
ATOM     71  O   UNL A   1      47.958  27.068  38.356  1.00  0.00    -0.744 OA
ENDBRANCH  67  68
ENDBRANCH  46  60
BRANCH  47  72
ATOM     72  C   UNL A   1      36.508  33.312  30.834  1.00  0.00     0.058 A 
ATOM     73  C   UNL A   1      35.186  33.168  31.277  1.00  0.00     0.135 A 
ATOM     74  C   UNL A   1      36.743  34.155  29.736  1.00  0.00     0.135 A 
ATOM     75  F   UNL A   1      34.910  32.363  32.314  1.00  0.00    -0.206 F 
ATOM     76  C   UNL A   1      34.133  33.830  30.653  1.00  0.00     0.059 A 
ATOM     77  C   UNL A   1      35.710  34.842  29.108  1.00  0.00     0.059 A 
ATOM     78  F   UNL A   1      37.994  34.331  29.279  1.00  0.00    -0.206 F 
ATOM     79  C   UNL A   1      34.406  34.667  29.569  1.00  0.00     0.060 A 
BRANCH  79  80
ATOM     80  S   UNL A   1      33.045  35.569  28.798  1.00  0.00     0.124 S 
ATOM     81  O   UNL A   1      33.761  36.569  28.015  1.00  0.00    -0.237 OA
ATOM     82  O   UNL A   1      32.371  34.524  28.033  1.00  0.00    -0.237 OA
ATOM     83  O   UNL A   1      32.293  36.079  29.941  1.00  0.00    -0.744 OA
ENDBRANCH  79  80
ENDBRANCH  47  72
BRANCH  59  84
ATOM     84  C   UNL A   1      39.773  34.231  36.921  1.00  0.00     0.058 A 
ATOM     85  C   UNL A   1      39.074  33.930  38.099  1.00  0.00     0.135 A 
ATOM     86  C   UNL A   1      40.360  35.501  36.807  1.00  0.00     0.135 A 
ATOM     87  F   UNL A   1      38.491  32.732  38.252  1.00  0.00    -0.206 F 
ATOM     88  C   UNL A   1      38.948  34.863  39.124  1.00  0.00     0.059 A 
ATOM     89  C   UNL A   1      40.262  36.442  37.826  1.00  0.00     0.059 A 
ATOM     90  F   UNL A   1      41.046  35.832  35.701  1.00  0.00    -0.206 F 
ATOM     91  C   UNL A   1      39.544  36.117  38.978  1.00  0.00     0.060 A 
BRANCH  91  92
ATOM     92  S   UNL A   1      39.403  37.312  40.324  1.00  0.00     0.124 S 
ATOM     93  O   UNL A   1      38.662  38.393  39.683  1.00  0.00    -0.237 OA
ATOM     94  O   UNL A   1      38.674  36.559  41.341  1.00  0.00    -0.237 OA
ATOM     95  O   UNL A   1      40.793  37.612  40.656  1.00  0.00    -0.744 OA
ENDBRANCH  91  92
ENDBRANCH  59  84
ENDBRANCH  33  34
ENDBRANCH  26  28
ENDBRANCH  25  26
ENDBRANCH  24  25
ENDBRANCH   1  24
TORSDOF 17
ENDMDL
MODEL 3
REMARK VINA RESULT:     -11.4      5.127     10.483
REMARK SMILES CC1=C(C)C[C@@H](C(=O)OCCOC(=O)c2ccc(-c3c4nc(c(-c5c(F)cc(S(=O)(=O)[O-])cc5F)c5ccc([nH]5)c(-c5c(F)cc(S(=O)(=O)[O-])cc5F)c5nc(c(-c6c(F)cc(S(=O)(=O)[O-])cc6F)c6ccc3[nH]6)C=C5)C=C4)cc2)[C@H](C(=O)NCc2cccnc2)C1
REMARK SMILES IDX 10 1 9 2 7 3 8 4 6 5 1 6 2 7 3 8 92 9 4 10 5 11 81 12 82 13
REMARK SMILES IDX 83 14 84 15 85 17 86 18 87 19 91 20 88 21 90 22 89 23 11 24
REMARK SMILES IDX 12 25 13 26 14 27 15 28 16 29 80 30 17 31 79 32 18 33 19 34
REMARK SMILES IDX 20 35 73 36 21 37 78 38 72 39 74 40 22 41 77 42 71 43 70 44
REMARK SMILES IDX 23 46 57 47 36 48 56 49 37 50 40 51 55 52 75 53 38 54 39 55
REMARK SMILES IDX 54 57 76 58 41 59 24 60 25 61 34 62 26 63 27 64 33 65 35 66
REMARK SMILES IDX 28 67 29 68 30 69 31 70 32 71 58 72 59 73 68 74 60 75 61 76
REMARK SMILES IDX 67 77 69 78 62 79 63 80 64 81 65 82 66 83 42 84 43 85 52 86
REMARK SMILES IDX 44 87 45 88 51 89 53 90 46 91 47 92 48 93 49 94 50 95
REMARK H PARENT 84 16 74 45 40 56
REMARK Flexibility Score: inf
ROOT
ATOM      1  C   UNL A   1      31.895  27.398  27.106  1.00  0.00     0.274 C 
ENDROOT
BRANCH   1   2
ATOM      2  O   UNL A   1      32.340  26.549  26.029  1.00  0.00    -0.462 OA
BRANCH   2   3
ATOM      3  C   UNL A   1      31.365  25.853  25.386  1.00  0.00     0.310 C 
ATOM      4  O   UNL A   1      30.229  25.692  25.820  1.00  0.00    -0.252 OA
BRANCH   3   5
ATOM      5  C   UNL A   1      31.844  25.179  24.107  1.00  0.00     0.116 C 
ATOM      6  C   UNL A   1      35.480  22.579  23.765  1.00  0.00     0.039 C 
ATOM      7  C   UNL A   1      34.208  23.380  23.902  1.00  0.00    -0.074 C 
ATOM      8  C   UNL A   1      33.011  22.844  24.211  1.00  0.00    -0.073 C 
ATOM      9  C   UNL A   1      34.404  24.856  23.663  1.00  0.00     0.045 C 
ATOM     10  C   UNL A   1      32.771  21.380  24.488  1.00  0.00     0.039 C 
ATOM     11  C   UNL A   1      31.755  23.668  24.340  1.00  0.00     0.046 C 
ATOM     12  C   UNL A   1      33.164  25.746  23.574  1.00  0.00     0.097 C 
BRANCH  12  13
ATOM     13  C   UNL A   1      33.032  26.394  22.193  1.00  0.00     0.224 C 
ATOM     14  O   UNL A   1      33.368  25.766  21.184  1.00  0.00    -0.275 OA
ATOM     15  N   UNL A   1      32.554  27.639  21.974  1.00  0.00    -0.352 N 
ATOM     16  H   UNL A   1      32.555  27.900  21.025  1.00  0.00     0.163 HD
BRANCH  15  17
ATOM     17  C   UNL A   1      32.044  28.661  22.857  1.00  0.00     0.153 C 
BRANCH  17  18
ATOM     18  C   UNL A   1      30.581  28.943  22.667  1.00  0.00    -0.010 A 
ATOM     19  C   UNL A   1      29.615  28.142  23.289  1.00  0.00     0.009 A 
ATOM     20  C   UNL A   1      30.113  29.940  21.816  1.00  0.00     0.116 A 
ATOM     21  C   UNL A   1      28.262  28.394  23.086  1.00  0.00     0.020 A 
ATOM     22  N   UNL A   1      28.805  30.197  21.592  1.00  0.00    -0.264 NA
ATOM     23  C   UNL A   1      27.907  29.427  22.239  1.00  0.00     0.111 A 
ENDBRANCH  17  18
ENDBRANCH  15  17
ENDBRANCH  12  13
ENDBRANCH   3   5
ENDBRANCH   2   3
ENDBRANCH   1   2
BRANCH   1  24
ATOM     24  C   UNL A   1      32.537  28.788  27.062  1.00  0.00     0.275 C 
BRANCH  24  25
ATOM     25  O   UNL A   1      33.908  28.757  27.496  1.00  0.00    -0.458 OA
BRANCH  25  26
ATOM     26  C   UNL A   1      34.435  29.966  27.802  1.00  0.00     0.338 C 
ATOM     27  O   UNL A   1      33.832  31.023  27.886  1.00  0.00    -0.246 OA
BRANCH  26  28
ATOM     28  C   UNL A   1      35.857  29.809  28.149  1.00  0.00     0.060 A 
ATOM     29  C   UNL A   1      36.807  29.989  27.141  1.00  0.00     0.016 A 
ATOM     30  C   UNL A   1      36.250  29.416  29.427  1.00  0.00     0.016 A 
ATOM     31  C   UNL A   1      38.157  29.769  27.398  1.00  0.00     0.010 A 
ATOM     32  C   UNL A   1      37.607  29.192  29.687  1.00  0.00     0.010 A 
ATOM     33  C   UNL A   1      38.565  29.355  28.670  1.00  0.00    -0.014 A 
BRANCH  33  34
ATOM     34  C   UNL A   1      39.990  29.028  28.914  1.00  0.00     0.031 A 
ATOM     35  C   UNL A   1      40.902  30.073  29.488  1.00  0.00     0.074 A 
ATOM     36  C   UNL A   1      40.454  27.794  28.644  1.00  0.00     0.049 A 
ATOM     37  N   UNL A   1      42.196  30.028  29.675  1.00  0.00    -0.248 NA
ATOM     38  C   UNL A   1      40.274  31.337  29.905  1.00  0.00     0.031 C 
ATOM     39  C   UNL A   1      39.648  26.680  28.143  1.00  0.00     0.029 A 
ATOM     40  N   UNL A   1      41.717  27.273  28.753  1.00  0.00    -0.354 N 
ATOM     41  C   UNL A   1      42.542  31.262  30.212  1.00  0.00     0.074 A 
ATOM     42  C   UNL A   1      41.323  32.038  30.313  1.00  0.00     0.031 C 
ATOM     43  C   UNL A   1      40.439  25.607  27.981  1.00  0.00     0.029 A 
ATOM     44  C   UNL A   1      41.811  25.969  28.327  1.00  0.00     0.049 A 
ATOM     45  H   UNL A   1      42.483  27.783  29.100  1.00  0.00     0.167 HD
ATOM     46  C   UNL A   1      43.766  31.705  30.585  1.00  0.00     0.037 A 
ATOM     47  C   UNL A   1      42.888  25.169  28.205  1.00  0.00     0.037 A 
ATOM     48  C   UNL A   1      44.972  30.923  30.494  1.00  0.00     0.049 A 
ATOM     49  C   UNL A   1      44.245  25.699  28.583  1.00  0.00     0.074 A 
ATOM     50  C   UNL A   1      46.265  31.287  30.830  1.00  0.00     0.029 A 
ATOM     51  N   UNL A   1      45.031  29.614  30.041  1.00  0.00    -0.354 N 
ATOM     52  N   UNL A   1      44.567  26.882  29.048  1.00  0.00    -0.248 NA
ATOM     53  C   UNL A   1      45.385  24.790  28.407  1.00  0.00     0.031 C 
ATOM     54  C   UNL A   1      47.109  30.205  30.557  1.00  0.00     0.029 A 
ATOM     55  C   UNL A   1      46.338  29.156  30.079  1.00  0.00     0.049 A 
ATOM     56  H   UNL A   1      44.257  29.087  29.734  1.00  0.00     0.167 HD
ATOM     57  C   UNL A   1      45.944  26.856  29.234  1.00  0.00     0.074 A 
ATOM     58  C   UNL A   1      46.393  25.536  28.841  1.00  0.00     0.031 C 
ATOM     59  C   UNL A   1      46.764  27.837  29.685  1.00  0.00     0.037 A 
BRANCH  46  60
ATOM     60  C   UNL A   1      43.862  33.114  31.093  1.00  0.00     0.058 A 
ATOM     61  C   UNL A   1      43.698  33.421  32.453  1.00  0.00     0.135 A 
ATOM     62  C   UNL A   1      44.136  34.171  30.210  1.00  0.00     0.135 A 
ATOM     63  F   UNL A   1      43.418  32.448  33.335  1.00  0.00    -0.206 F 
ATOM     64  C   UNL A   1      43.777  34.730  32.917  1.00  0.00     0.059 A 
ATOM     65  C   UNL A   1      44.237  35.486  30.655  1.00  0.00     0.059 A 
ATOM     66  F   UNL A   1      44.298  33.931  28.900  1.00  0.00    -0.206 F 
ATOM     67  C   UNL A   1      44.041  35.757  32.009  1.00  0.00     0.060 A 
BRANCH  67  68
ATOM     68  S   UNL A   1      44.137  37.455  32.618  1.00  0.00     0.124 S 
ATOM     69  O   UNL A   1      43.095  37.456  33.640  1.00  0.00    -0.237 OA
ATOM     70  O   UNL A   1      45.508  37.538  33.112  1.00  0.00    -0.237 OA
ATOM     71  O   UNL A   1      43.854  38.256  31.431  1.00  0.00    -0.744 OA
ENDBRANCH  67  68
ENDBRANCH  46  60
BRANCH  47  72
ATOM     72  C   UNL A   1      42.728  23.791  27.675  1.00  0.00     0.058 A 
ATOM     73  C   UNL A   1      42.529  22.703  28.536  1.00  0.00     0.135 A 
ATOM     74  C   UNL A   1      42.758  23.539  26.295  1.00  0.00     0.135 A 
ATOM     75  F   UNL A   1      42.506  22.892  29.863  1.00  0.00    -0.206 F 
ATOM     76  C   UNL A   1      42.370  21.409  28.047  1.00  0.00     0.059 A 
ATOM     77  C   UNL A   1      42.583  22.258  25.782  1.00  0.00     0.059 A 
ATOM     78  F   UNL A   1      42.939  24.551  25.430  1.00  0.00    -0.206 F 
ATOM     79  C   UNL A   1      42.398  21.197  26.667  1.00  0.00     0.060 A 
BRANCH  79  80
ATOM     80  S   UNL A   1      42.134  19.527  26.034  1.00  0.00     0.124 S 
ATOM     81  O   UNL A   1      40.686  19.500  25.869  1.00  0.00    -0.237 OA
ATOM     82  O   UNL A   1      42.917  19.532  24.802  1.00  0.00    -0.237 OA
ATOM     83  O   UNL A   1      42.667  18.679  27.099  1.00  0.00    -0.744 OA
ENDBRANCH  79  80
ENDBRANCH  47  72
BRANCH  59  84
ATOM     84  C   UNL A   1      48.225  27.512  29.796  1.00  0.00     0.058 A 
ATOM     85  C   UNL A   1      49.112  27.766  28.740  1.00  0.00     0.135 A 
ATOM     86  C   UNL A   1      48.749  26.983  30.986  1.00  0.00     0.135 A 
ATOM     87  F   UNL A   1      48.658  28.266  27.580  1.00  0.00    -0.206 F 
ATOM     88  C   UNL A   1      50.471  27.490  28.854  1.00  0.00     0.059 A 
ATOM     89  C   UNL A   1      50.106  26.716  31.128  1.00  0.00     0.059 A 
ATOM     90  F   UNL A   1      47.940  26.730  32.028  1.00  0.00    -0.206 F 
ATOM     91  C   UNL A   1      50.959  26.964  30.051  1.00  0.00     0.060 A 
BRANCH  91  92
ATOM     92  S   UNL A   1      52.729  26.637  30.204  1.00  0.00     0.124 S 
ATOM     93  O   UNL A   1      53.071  26.228  28.846  1.00  0.00    -0.237 OA
ATOM     94  O   UNL A   1      53.254  27.933  30.627  1.00  0.00    -0.237 OA
ATOM     95  O   UNL A   1      52.791  25.585  31.214  1.00  0.00    -0.744 OA
ENDBRANCH  91  92
ENDBRANCH  59  84
ENDBRANCH  33  34
ENDBRANCH  26  28
ENDBRANCH  25  26
ENDBRANCH  24  25
ENDBRANCH   1  24
TORSDOF 17
ENDMDL
