MODEL 1
REMARK VINA RESULT:     -12.0      0.000      0.000
REMARK SMILES COc1cccc([C@@H]2CC(c3cccc(C)c3)=NN2C(=O)CCC(=O)OCCOC(=O)c2ccc(-c3c4nc(c(-c5c(F)cc(S(=O)(=O)[O-])cc5F)c5ccc([nH]5)c(-c5c(F)cc(S(=O)(=O)[O-])cc5F)c5nc(c(-c6c(F)cc(S(=O)(=O)[O-])cc6F)c6ccc3[nH]6)C=C5)C=C4)cc2)c1
REMARK SMILES IDX 27 1 26 2 24 3 25 4 23 5 22 6 20 7 21 8 19 9 8 10 9 11 10 12
REMARK SMILES IDX 18 13 7 14 3 15 4 16 98 17 5 18 6 19 2 20 1 21 11 22 12 23
REMARK SMILES IDX 17 24 13 25 15 26 14 27 16 28 28 29 29 30 30 31 31 32 32 33
REMARK SMILES IDX 33 34 97 35 34 36 96 37 35 38 36 39 37 40 90 41 38 42 95 43
REMARK SMILES IDX 89 44 91 45 39 46 94 47 88 48 87 49 40 51 74 52 53 53 73 54
REMARK SMILES IDX 54 55 57 56 72 57 92 58 55 59 56 60 71 62 93 63 58 64 41 65
REMARK SMILES IDX 42 66 51 67 43 68 44 69 50 70 52 71 45 72 46 73 47 74 48 75
REMARK SMILES IDX 49 76 75 77 76 78 85 79 77 80 78 81 84 82 86 83 79 84 80 85
REMARK SMILES IDX 81 86 82 87 83 88 59 89 60 90 69 91 61 92 62 93 68 94 70 95
REMARK SMILES IDX 63 96 64 97 65 98 66 99 67 100
REMARK H PARENT 91 50 57 61
REMARK Flexibility Score: inf
ROOT
ATOM      1  C   UNL A   1      41.114  22.243  26.210  1.00  0.00     0.274 C 
ENDROOT
BRANCH   1   2
ATOM      2  O   UNL A   1      39.835  21.876  26.771  1.00  0.00    -0.462 OA
BRANCH   2   3
ATOM      3  C   UNL A   1      38.745  22.382  26.135  1.00  0.00     0.306 C 
ATOM      4  O   UNL A   1      38.290  23.504  26.331  1.00  0.00    -0.252 OA
BRANCH   3   5
ATOM      5  C   UNL A   1      38.085  21.391  25.208  1.00  0.00     0.132 C 
BRANCH   5   6
ATOM      6  C   UNL A   1      36.580  21.190  25.396  1.00  0.00     0.114 C 
BRANCH   6   7
ATOM      7  C   UNL A   1      35.810  21.888  24.295  1.00  0.00     0.243 C 
ATOM      8  O   UNL A   1      36.452  22.500  23.432  1.00  0.00    -0.273 OA
BRANCH   7   9
ATOM      9  N   UNL A   1      34.423  21.874  24.337  1.00  0.00    -0.225 N 
ATOM     10  C   UNL A   1      33.509  20.910  24.981  1.00  0.00     0.147 C 
ATOM     11  C   UNL A   1      32.220  21.691  25.194  1.00  0.00     0.091 C 
ATOM     12  C   UNL A   1      32.616  23.000  24.595  1.00  0.00     0.071 C 
ATOM     13  N   UNL A   1      33.790  23.070  24.061  1.00  0.00    -0.174 NA
BRANCH  10  14
ATOM     14  C   UNL A   1      33.245  19.604  24.248  1.00  0.00    -0.019 A 
ATOM     15  C   UNL A   1      33.716  17.199  24.077  1.00  0.00     0.119 A 
ATOM     16  C   UNL A   1      32.926  17.150  22.929  1.00  0.00     0.046 A 
ATOM     17  C   UNL A   1      33.833  18.415  24.749  1.00  0.00     0.052 A 
ATOM     18  C   UNL A   1      32.281  18.294  22.455  1.00  0.00     0.004 A 
ATOM     19  C   UNL A   1      32.444  19.519  23.105  1.00  0.00     0.006 A 
BRANCH  15  20
ATOM     20  O   UNL A   1      34.320  16.018  24.397  1.00  0.00    -0.497 OA
ATOM     21  C   UNL A   1      35.411  15.999  25.303  1.00  0.00     0.278 C 
ENDBRANCH  15  20
ENDBRANCH  10  14
BRANCH  12  22
ATOM     22  C   UNL A   1      31.727  24.157  24.688  1.00  0.00    -0.002 A 
ATOM     23  C   UNL A   1      30.720  24.333  23.744  1.00  0.00     0.010 A 
ATOM     24  C   UNL A   1      31.971  25.109  25.681  1.00  0.00     0.013 A 
ATOM     25  C   UNL A   1      29.921  25.470  23.818  1.00  0.00     0.001 A 
ATOM     26  C   UNL A   1      31.189  26.265  25.740  1.00  0.00    -0.050 A 
ATOM     27  C   UNL A   1      30.152  26.430  24.811  1.00  0.00     0.003 A 
ATOM     28  C   UNL A   1      31.464  27.325  26.764  1.00  0.00     0.044 C 
ENDBRANCH  12  22
ENDBRANCH   7   9
ENDBRANCH   6   7
ENDBRANCH   5   6
ENDBRANCH   3   5
ENDBRANCH   2   3
ENDBRANCH   1   2
BRANCH   1  29
ATOM     29  C   UNL A   1      41.867  23.275  27.056  1.00  0.00     0.275 C 
BRANCH  29  30
ATOM     30  O   UNL A   1      42.254  24.439  26.303  1.00  0.00    -0.458 OA
BRANCH  30  31
ATOM     31  C   UNL A   1      41.350  25.432  26.353  1.00  0.00     0.338 C 
ATOM     32  O   UNL A   1      40.571  25.743  25.461  1.00  0.00    -0.246 OA
BRANCH  31  33
ATOM     33  C   UNL A   1      41.432  26.258  27.538  1.00  0.00     0.060 A 
ATOM     34  C   UNL A   1      42.545  27.055  27.799  1.00  0.00     0.016 A 
ATOM     35  C   UNL A   1      40.406  26.099  28.471  1.00  0.00     0.016 A 
ATOM     36  C   UNL A   1      42.587  27.757  29.000  1.00  0.00     0.010 A 
ATOM     37  C   UNL A   1      40.423  26.838  29.637  1.00  0.00     0.010 A 
ATOM     38  C   UNL A   1      41.496  27.697  29.891  1.00  0.00    -0.014 A 
BRANCH  38  39
ATOM     39  C   UNL A   1      41.335  28.693  30.969  1.00  0.00     0.031 A 
ATOM     40  C   UNL A   1      42.164  28.637  32.215  1.00  0.00     0.074 A 
ATOM     41  C   UNL A   1      40.289  29.533  30.851  1.00  0.00     0.049 A 
ATOM     42  N   UNL A   1      42.053  29.352  33.303  1.00  0.00    -0.248 NA
ATOM     43  C   UNL A   1      43.226  27.618  32.271  1.00  0.00     0.031 C 
ATOM     44  C   UNL A   1      39.349  29.555  29.721  1.00  0.00     0.029 A 
ATOM     45  N   UNL A   1      39.824  30.514  31.681  1.00  0.00    -0.354 N 
ATOM     46  C   UNL A   1      43.008  28.858  34.183  1.00  0.00     0.074 A 
ATOM     47  C   UNL A   1      43.671  27.760  33.513  1.00  0.00     0.031 C 
ATOM     48  C   UNL A   1      38.453  30.532  29.908  1.00  0.00     0.029 A 
ATOM     49  C   UNL A   1      38.728  31.176  31.183  1.00  0.00     0.049 A 
ATOM     50  H   UNL A   1      40.234  30.724  32.551  1.00  0.00     0.167 HD
ATOM     51  C   UNL A   1      43.300  29.298  35.431  1.00  0.00     0.037 A 
ATOM     52  C   UNL A   1      38.027  32.200  31.698  1.00  0.00     0.037 A 
ATOM     53  C   UNL A   1      42.629  30.412  36.055  1.00  0.00     0.049 A 
ATOM     54  C   UNL A   1      38.458  32.748  33.022  1.00  0.00     0.074 A 
ATOM     55  C   UNL A   1      42.864  30.983  37.293  1.00  0.00     0.029 A 
ATOM     56  N   UNL A   1      41.599  31.138  35.471  1.00  0.00    -0.354 N 
ATOM     57  N   UNL A   1      39.400  32.307  33.822  1.00  0.00    -0.248 NA
ATOM     58  C   UNL A   1      37.747  33.933  33.511  1.00  0.00     0.031 C 
ATOM     59  C   UNL A   1      41.970  32.047  37.461  1.00  0.00     0.029 A 
ATOM     60  C   UNL A   1      41.197  32.159  36.315  1.00  0.00     0.049 A 
ATOM     61  H   UNL A   1      41.209  30.953  34.586  1.00  0.00     0.167 HD
ATOM     62  C   UNL A   1      39.408  33.169  34.906  1.00  0.00     0.074 A 
ATOM     63  C   UNL A   1      38.388  34.169  34.648  1.00  0.00     0.031 C 
ATOM     64  C   UNL A   1      40.182  33.138  36.018  1.00  0.00     0.037 A 
BRANCH  51  65
ATOM     65  C   UNL A   1      44.394  28.596  36.190  1.00  0.00     0.058 A 
ATOM     66  C   UNL A   1      44.121  27.493  37.014  1.00  0.00     0.135 A 
ATOM     67  C   UNL A   1      45.736  28.995  36.060  1.00  0.00     0.135 A 
ATOM     68  F   UNL A   1      42.858  27.074  37.185  1.00  0.00    -0.206 F 
ATOM     69  C   UNL A   1      45.132  26.825  37.700  1.00  0.00     0.059 A 
ATOM     70  C   UNL A   1      46.767  28.326  36.718  1.00  0.00     0.059 A 
ATOM     71  F   UNL A   1      46.057  30.042  35.286  1.00  0.00    -0.206 F 
ATOM     72  C   UNL A   1      46.452  27.250  37.547  1.00  0.00     0.060 A 
BRANCH  72  73
ATOM     73  S   UNL A   1      47.755  26.363  38.429  1.00  0.00     0.124 S 
ATOM     74  O   UNL A   1      47.081  25.111  38.762  1.00  0.00    -0.237 OA
ATOM     75  O   UNL A   1      48.808  26.265  37.422  1.00  0.00    -0.237 OA
ATOM     76  O   UNL A   1      48.055  27.235  39.560  1.00  0.00    -0.744 OA
ENDBRANCH  72  73
ENDBRANCH  51  65
BRANCH  52  77
ATOM     77  C   UNL A   1      36.920  32.799  30.916  1.00  0.00     0.058 A 
ATOM     78  C   UNL A   1      35.587  32.510  31.240  1.00  0.00     0.135 A 
ATOM     79  C   UNL A   1      37.160  33.721  29.885  1.00  0.00     0.135 A 
ATOM     80  F   UNL A   1      35.310  31.648  32.231  1.00  0.00    -0.206 F 
ATOM     81  C   UNL A   1      34.527  33.095  30.557  1.00  0.00     0.059 A 
ATOM     82  C   UNL A   1      36.116  34.335  29.200  1.00  0.00     0.059 A 
ATOM     83  F   UNL A   1      38.418  34.061  29.566  1.00  0.00    -0.206 F 
ATOM     84  C   UNL A   1      34.803  34.006  29.535  1.00  0.00     0.060 A 
BRANCH  84  85
ATOM     85  S   UNL A   1      33.422  34.796  28.680  1.00  0.00     0.124 S 
ATOM     86  O   UNL A   1      33.033  33.757  27.734  1.00  0.00    -0.237 OA
ATOM     87  O   UNL A   1      32.485  35.051  29.769  1.00  0.00    -0.237 OA
ATOM     88  O   UNL A   1      34.031  35.988  28.097  1.00  0.00    -0.744 OA
ENDBRANCH  84  85
ENDBRANCH  52  77
BRANCH  64  89
ATOM     89  C   UNL A   1      39.961  34.233  37.015  1.00  0.00     0.058 A 
ATOM     90  C   UNL A   1      39.114  34.054  38.117  1.00  0.00     0.135 A 
ATOM     91  C   UNL A   1      40.620  35.463  36.873  1.00  0.00     0.135 A 
ATOM     92  F   UNL A   1      38.454  32.897  38.284  1.00  0.00    -0.206 F 
ATOM     93  C   UNL A   1      38.909  35.072  39.041  1.00  0.00     0.059 A 
ATOM     94  C   UNL A   1      40.446  36.487  37.795  1.00  0.00     0.059 A 
ATOM     95  F   UNL A   1      41.442  35.674  35.833  1.00  0.00    -0.206 F 
ATOM     96  C   UNL A   1      39.579  36.286  38.870  1.00  0.00     0.060 A 
BRANCH  96  97
ATOM     97  S   UNL A   1      39.327  37.592  40.088  1.00  0.00     0.124 S 
ATOM     98  O   UNL A   1      38.996  36.821  41.281  1.00  0.00    -0.237 OA
ATOM     99  O   UNL A   1      40.625  38.261  40.106  1.00  0.00    -0.237 OA
ATOM    100  O   UNL A   1      38.234  38.376  39.520  1.00  0.00    -0.744 OA
ENDBRANCH  96  97
ENDBRANCH  64  89
ENDBRANCH  38  39
ENDBRANCH  31  33
ENDBRANCH  30  31
ENDBRANCH  29  30
ENDBRANCH   1  29
TORSDOF 20
ENDMDL
MODEL 2
REMARK VINA RESULT:     -11.9      1.278      3.678
REMARK SMILES COc1cccc([C@@H]2CC(c3cccc(C)c3)=NN2C(=O)CCC(=O)OCCOC(=O)c2ccc(-c3c4nc(c(-c5c(F)cc(S(=O)(=O)[O-])cc5F)c5ccc([nH]5)c(-c5c(F)cc(S(=O)(=O)[O-])cc5F)c5nc(c(-c6c(F)cc(S(=O)(=O)[O-])cc6F)c6ccc3[nH]6)C=C5)C=C4)cc2)c1
REMARK SMILES IDX 27 1 26 2 24 3 25 4 23 5 22 6 20 7 21 8 19 9 8 10 9 11 10 12
REMARK SMILES IDX 18 13 7 14 3 15 4 16 98 17 5 18 6 19 2 20 1 21 11 22 12 23
REMARK SMILES IDX 17 24 13 25 15 26 14 27 16 28 28 29 29 30 30 31 31 32 32 33
REMARK SMILES IDX 33 34 97 35 34 36 96 37 35 38 36 39 37 40 90 41 38 42 95 43
REMARK SMILES IDX 89 44 91 45 39 46 94 47 88 48 87 49 40 51 74 52 53 53 73 54
REMARK SMILES IDX 54 55 57 56 72 57 92 58 55 59 56 60 71 62 93 63 58 64 41 65
REMARK SMILES IDX 42 66 51 67 43 68 44 69 50 70 52 71 45 72 46 73 47 74 48 75
REMARK SMILES IDX 49 76 75 77 76 78 85 79 77 80 78 81 84 82 86 83 79 84 80 85
REMARK SMILES IDX 81 86 82 87 83 88 59 89 60 90 69 91 61 92 62 93 68 94 70 95
REMARK SMILES IDX 63 96 64 97 65 98 66 99 67 100
REMARK H PARENT 91 50 57 61
REMARK Flexibility Score: inf
ROOT
ATOM      1  C   UNL A   1      39.992  21.926  26.146  1.00  0.00     0.274 C 
ENDROOT
BRANCH   1   2
ATOM      2  O   UNL A   1      38.575  21.986  26.417  1.00  0.00    -0.462 OA
BRANCH   2   3
ATOM      3  C   UNL A   1      37.761  21.819  25.340  1.00  0.00     0.306 C 
ATOM      4  O   UNL A   1      37.760  20.823  24.625  1.00  0.00    -0.252 OA
BRANCH   3   5
ATOM      5  C   UNL A   1      36.902  23.025  25.051  1.00  0.00     0.132 C 
BRANCH   5   6
ATOM      6  C   UNL A   1      35.850  23.373  26.106  1.00  0.00     0.114 C 
BRANCH   6   7
ATOM      7  C   UNL A   1      34.700  24.132  25.478  1.00  0.00     0.243 C 
ATOM      8  O   UNL A   1      34.612  25.346  25.702  1.00  0.00    -0.273 OA
BRANCH   7   9
ATOM      9  N   UNL A   1      33.758  23.429  24.741  1.00  0.00    -0.225 N 
ATOM     10  C   UNL A   1      33.037  23.822  23.514  1.00  0.00     0.147 C 
ATOM     11  C   UNL A   1      32.624  22.503  22.876  1.00  0.00     0.091 C 
ATOM     12  C   UNL A   1      33.172  21.551  23.887  1.00  0.00     0.071 C 
ATOM     13  N   UNL A   1      33.721  22.064  24.938  1.00  0.00    -0.174 NA
BRANCH  10  14
ATOM     14  C   UNL A   1      31.843  24.751  23.674  1.00  0.00    -0.019 A 
ATOM     15  C   UNL A   1      30.610  26.696  22.821  1.00  0.00     0.119 A 
ATOM     16  C   UNL A   1      29.744  26.596  23.909  1.00  0.00     0.046 A 
ATOM     17  C   UNL A   1      31.624  25.749  22.691  1.00  0.00     0.052 A 
ATOM     18  C   UNL A   1      29.899  25.580  24.855  1.00  0.00     0.004 A 
ATOM     19  C   UNL A   1      30.948  24.664  24.745  1.00  0.00     0.006 A 
BRANCH  15  20
ATOM     20  O   UNL A   1      30.367  27.762  22.005  1.00  0.00    -0.497 OA
ATOM     21  C   UNL A   1      29.982  29.011  22.558  1.00  0.00     0.278 C 
ENDBRANCH  15  20
ENDBRANCH  10  14
BRANCH  12  22
ATOM     22  C   UNL A   1      33.144  20.111  23.641  1.00  0.00    -0.002 A 
ATOM     23  C   UNL A   1      32.198  19.576  22.772  1.00  0.00     0.010 A 
ATOM     24  C   UNL A   1      34.019  19.292  24.359  1.00  0.00     0.013 A 
ATOM     25  C   UNL A   1      32.152  18.196  22.593  1.00  0.00     0.001 A 
ATOM     26  C   UNL A   1      33.956  17.905  24.203  1.00  0.00    -0.050 A 
ATOM     27  C   UNL A   1      33.027  17.366  23.303  1.00  0.00     0.003 A 
ATOM     28  C   UNL A   1      34.851  17.003  25.001  1.00  0.00     0.044 C 
ENDBRANCH  12  22
ENDBRANCH   7   9
ENDBRANCH   6   7
ENDBRANCH   5   6
ENDBRANCH   3   5
ENDBRANCH   2   3
ENDBRANCH   1   2
BRANCH   1  29
ATOM     29  C   UNL A   1      40.728  23.220  26.511  1.00  0.00     0.275 C 
BRANCH  29  30
ATOM     30  O   UNL A   1      39.869  24.374  26.498  1.00  0.00    -0.458 OA
BRANCH  30  31
ATOM     31  C   UNL A   1      40.524  25.524  26.267  1.00  0.00     0.338 C 
ATOM     32  O   UNL A   1      41.056  25.852  25.213  1.00  0.00    -0.246 OA
BRANCH  31  33
ATOM     33  C   UNL A   1      40.696  26.360  27.435  1.00  0.00     0.060 A 
ATOM     34  C   UNL A   1      41.771  27.239  27.552  1.00  0.00     0.016 A 
ATOM     35  C   UNL A   1      39.813  26.131  28.492  1.00  0.00     0.016 A 
ATOM     36  C   UNL A   1      41.916  27.949  28.741  1.00  0.00     0.010 A 
ATOM     37  C   UNL A   1      39.926  26.876  29.649  1.00  0.00     0.010 A 
ATOM     38  C   UNL A   1      40.956  27.814  29.765  1.00  0.00    -0.014 A 
BRANCH  38  39
ATOM     39  C   UNL A   1      40.862  28.801  30.859  1.00  0.00     0.031 A 
ATOM     40  C   UNL A   1      41.732  28.706  32.075  1.00  0.00     0.074 A 
ATOM     41  C   UNL A   1      39.838  29.673  30.786  1.00  0.00     0.049 A 
ATOM     42  N   UNL A   1      41.679  29.410  33.174  1.00  0.00    -0.248 NA
ATOM     43  C   UNL A   1      42.763  27.655  32.083  1.00  0.00     0.031 C 
ATOM     44  C   UNL A   1      38.862  29.736  29.690  1.00  0.00     0.029 A 
ATOM     45  N   UNL A   1      39.432  30.657  31.643  1.00  0.00    -0.354 N 
ATOM     46  C   UNL A   1      42.649  28.878  34.014  1.00  0.00     0.074 A 
ATOM     47  C   UNL A   1      43.255  27.769  33.310  1.00  0.00     0.031 C 
ATOM     48  C   UNL A   1      38.002  30.738  29.918  1.00  0.00     0.029 A 
ATOM     49  C   UNL A   1      38.340  31.358  31.189  1.00  0.00     0.049 A 
ATOM     50  H   UNL A   1      39.877  30.845  32.500  1.00  0.00     0.167 HD
ATOM     51  C   UNL A   1      42.996  29.294  35.257  1.00  0.00     0.037 A 
ATOM     52  C   UNL A   1      37.689  32.395  31.740  1.00  0.00     0.037 A 
ATOM     53  C   UNL A   1      42.381  30.421  35.915  1.00  0.00     0.049 A 
ATOM     54  C   UNL A   1      38.180  32.915  33.054  1.00  0.00     0.074 A 
ATOM     55  C   UNL A   1      42.675  30.969  37.150  1.00  0.00     0.029 A 
ATOM     56  N   UNL A   1      41.353  31.183  35.375  1.00  0.00    -0.354 N 
ATOM     57  N   UNL A   1      39.135  32.437  33.816  1.00  0.00    -0.248 NA
ATOM     58  C   UNL A   1      37.523  34.115  33.580  1.00  0.00     0.031 C 
ATOM     59  C   UNL A   1      41.820  32.058  37.361  1.00  0.00     0.029 A 
ATOM     60  C   UNL A   1      41.012  32.206  36.244  1.00  0.00     0.049 A 
ATOM     61  H   UNL A   1      40.928  31.020  34.502  1.00  0.00     0.167 HD
ATOM     62  C   UNL A   1      39.207  33.285  34.908  1.00  0.00     0.074 A 
ATOM     63  C   UNL A   1      38.209  34.318  34.697  1.00  0.00     0.031 C 
ATOM     64  C   UNL A   1      40.017  33.218  35.992  1.00  0.00     0.037 A 
BRANCH  51  65
ATOM     65  C   UNL A   1      44.094  28.552  35.970  1.00  0.00     0.058 A 
ATOM     66  C   UNL A   1      43.817  27.444  36.787  1.00  0.00     0.135 A 
ATOM     67  C   UNL A   1      45.441  28.915  35.801  1.00  0.00     0.135 A 
ATOM     68  F   UNL A   1      42.548  27.058  36.993  1.00  0.00    -0.206 F 
ATOM     69  C   UNL A   1      44.830  26.738  37.430  1.00  0.00     0.059 A 
ATOM     70  C   UNL A   1      46.474  28.208  36.417  1.00  0.00     0.059 A 
ATOM     71  F   UNL A   1      45.767  29.964  35.032  1.00  0.00    -0.206 F 
ATOM     72  C   UNL A   1      46.156  27.129  37.240  1.00  0.00     0.060 A 
BRANCH  72  73
ATOM     73  S   UNL A   1      47.461  26.193  38.067  1.00  0.00     0.124 S 
ATOM     74  O   UNL A   1      48.501  26.177  37.041  1.00  0.00    -0.237 OA
ATOM     75  O   UNL A   1      47.744  27.014  39.240  1.00  0.00    -0.237 OA
ATOM     76  O   UNL A   1      46.833  24.906  38.344  1.00  0.00    -0.744 OA
ENDBRANCH  72  73
ENDBRANCH  51  65
BRANCH  52  77
ATOM     77  C   UNL A   1      36.573  33.037  31.003  1.00  0.00     0.058 A 
ATOM     78  C   UNL A   1      35.259  32.942  31.483  1.00  0.00     0.135 A 
ATOM     79  C   UNL A   1      36.798  33.813  29.855  1.00  0.00     0.135 A 
ATOM     80  F   UNL A   1      35.001  32.225  32.588  1.00  0.00    -0.206 F 
ATOM     81  C   UNL A   1      34.201  33.573  30.842  1.00  0.00     0.059 A 
ATOM     82  C   UNL A   1      35.758  34.471  29.206  1.00  0.00     0.059 A 
ATOM     83  F   UNL A   1      38.043  33.968  29.381  1.00  0.00    -0.206 F 
ATOM     84  C   UNL A   1      34.460  34.335  29.701  1.00  0.00     0.060 A 
BRANCH  84  85
ATOM     85  S   UNL A   1      33.088  35.189  28.896  1.00  0.00     0.124 S 
ATOM     86  O   UNL A   1      32.678  34.206  27.900  1.00  0.00    -0.237 OA
ATOM     87  O   UNL A   1      32.161  35.402  30.003  1.00  0.00    -0.237 OA
ATOM     88  O   UNL A   1      33.712  36.400  28.371  1.00  0.00    -0.744 OA
ENDBRANCH  84  85
ENDBRANCH  52  77
BRANCH  64  89
ATOM     89  C   UNL A   1      39.863  34.308  37.008  1.00  0.00     0.058 A 
ATOM     90  C   UNL A   1      39.021  34.154  38.119  1.00  0.00     0.135 A 
ATOM     91  C   UNL A   1      40.582  35.504  36.877  1.00  0.00     0.135 A 
ATOM     92  F   UNL A   1      38.306  33.029  38.276  1.00  0.00    -0.206 F 
ATOM     93  C   UNL A   1      38.879  35.166  39.060  1.00  0.00     0.059 A 
ATOM     94  C   UNL A   1      40.470  36.522  37.816  1.00  0.00     0.059 A 
ATOM     95  F   UNL A   1      41.401  35.690  35.829  1.00  0.00    -0.206 F 
ATOM     96  C   UNL A   1      39.607  36.347  38.899  1.00  0.00     0.060 A 
BRANCH  96  97
ATOM     97  S   UNL A   1      39.436  37.646  40.139  1.00  0.00     0.124 S 
ATOM     98  O   UNL A   1      40.732  38.309  40.050  1.00  0.00    -0.237 OA
ATOM     99  O   UNL A   1      38.297  38.411  39.639  1.00  0.00    -0.237 OA
ATOM    100  O   UNL A   1      39.190  36.903  41.372  1.00  0.00    -0.744 OA
ENDBRANCH  96  97
ENDBRANCH  64  89
ENDBRANCH  38  39
ENDBRANCH  31  33
ENDBRANCH  30  31
ENDBRANCH  29  30
ENDBRANCH   1  29
TORSDOF 20
ENDMDL
MODEL 3
REMARK VINA RESULT:     -11.8      2.755      8.692
REMARK SMILES COc1cccc([C@@H]2CC(c3cccc(C)c3)=NN2C(=O)CCC(=O)OCCOC(=O)c2ccc(-c3c4nc(c(-c5c(F)cc(S(=O)(=O)[O-])cc5F)c5ccc([nH]5)c(-c5c(F)cc(S(=O)(=O)[O-])cc5F)c5nc(c(-c6c(F)cc(S(=O)(=O)[O-])cc6F)c6ccc3[nH]6)C=C5)C=C4)cc2)c1
REMARK SMILES IDX 27 1 26 2 24 3 25 4 23 5 22 6 20 7 21 8 19 9 8 10 9 11 10 12
REMARK SMILES IDX 18 13 7 14 3 15 4 16 98 17 5 18 6 19 2 20 1 21 11 22 12 23
REMARK SMILES IDX 17 24 13 25 15 26 14 27 16 28 28 29 29 30 30 31 31 32 32 33
REMARK SMILES IDX 33 34 97 35 34 36 96 37 35 38 36 39 37 40 90 41 38 42 95 43
REMARK SMILES IDX 89 44 91 45 39 46 94 47 88 48 87 49 40 51 74 52 53 53 73 54
REMARK SMILES IDX 54 55 57 56 72 57 92 58 55 59 56 60 71 62 93 63 58 64 41 65
REMARK SMILES IDX 42 66 51 67 43 68 44 69 50 70 52 71 45 72 46 73 47 74 48 75
REMARK SMILES IDX 49 76 75 77 76 78 85 79 77 80 78 81 84 82 86 83 79 84 80 85
REMARK SMILES IDX 81 86 82 87 83 88 59 89 60 90 69 91 61 92 62 93 68 94 70 95
REMARK SMILES IDX 63 96 64 97 65 98 66 99 67 100
REMARK H PARENT 91 50 57 61
REMARK Flexibility Score: inf
ROOT
ATOM      1  C   UNL A   1      34.045  31.627  27.676  1.00  0.00     0.274 C 
ENDROOT
BRANCH   1   2
ATOM      2  O   UNL A   1      33.518  30.370  27.201  1.00  0.00    -0.462 OA
BRANCH   2   3
ATOM      3  C   UNL A   1      34.421  29.360  27.081  1.00  0.00     0.306 C 
ATOM      4  O   UNL A   1      35.471  29.295  27.711  1.00  0.00    -0.252 OA
BRANCH   3   5
ATOM      5  C   UNL A   1      34.047  28.350  26.023  1.00  0.00     0.132 C 
BRANCH   5   6
ATOM      6  C   UNL A   1      33.137  27.207  26.475  1.00  0.00     0.114 C 
BRANCH   6   7
ATOM      7  C   UNL A   1      31.682  27.612  26.365  1.00  0.00     0.243 C 
ATOM      8  O   UNL A   1      31.069  27.870  27.409  1.00  0.00    -0.273 OA
BRANCH   7   9
ATOM      9  N   UNL A   1      31.080  27.609  25.115  1.00  0.00    -0.225 N 
ATOM     10  C   UNL A   1      30.295  26.550  24.451  1.00  0.00     0.147 C 
ATOM     11  C   UNL A   1      29.442  27.291  23.430  1.00  0.00     0.091 C 
ATOM     12  C   UNL A   1      29.916  28.686  23.671  1.00  0.00     0.071 C 
ATOM     13  N   UNL A   1      30.863  28.843  24.536  1.00  0.00    -0.174 NA
BRANCH  10  14
ATOM     14  C   UNL A   1      31.068  25.414  23.799  1.00  0.00    -0.019 A 
ATOM     15  C   UNL A   1      31.756  23.058  23.899  1.00  0.00     0.119 A 
ATOM     16  C   UNL A   1      32.531  23.260  22.759  1.00  0.00     0.046 A 
ATOM     17  C   UNL A   1      30.999  24.124  24.383  1.00  0.00     0.052 A 
ATOM     18  C   UNL A   1      32.562  24.504  22.126  1.00  0.00     0.004 A 
ATOM     19  C   UNL A   1      31.840  25.581  22.646  1.00  0.00     0.006 A 
BRANCH  15  20
ATOM     20  O   UNL A   1      31.857  21.808  24.436  1.00  0.00    -0.497 OA
ATOM     21  C   UNL A   1      32.838  20.903  23.954  1.00  0.00     0.278 C 
ENDBRANCH  15  20
ENDBRANCH  10  14
BRANCH  12  22
ATOM     22  C   UNL A   1      29.270  29.814  23.003  1.00  0.00    -0.002 A 
ATOM     23  C   UNL A   1      28.567  29.606  21.820  1.00  0.00     0.010 A 
ATOM     24  C   UNL A   1      29.452  31.096  23.527  1.00  0.00     0.013 A 
ATOM     25  C   UNL A   1      28.007  30.702  21.169  1.00  0.00     0.001 A 
ATOM     26  C   UNL A   1      28.916  32.200  22.861  1.00  0.00    -0.050 A 
ATOM     27  C   UNL A   1      28.178  31.991  21.687  1.00  0.00     0.003 A 
ATOM     28  C   UNL A   1      29.141  33.590  23.377  1.00  0.00     0.044 C 
ENDBRANCH  12  22
ENDBRANCH   7   9
ENDBRANCH   6   7
ENDBRANCH   5   6
ENDBRANCH   3   5
ENDBRANCH   2   3
ENDBRANCH   1   2
BRANCH   1  29
ATOM     29  C   UNL A   1      33.005  32.753  27.676  1.00  0.00     0.275 C 
BRANCH  29  30
ATOM     30  O   UNL A   1      33.592  34.055  27.850  1.00  0.00    -0.458 OA
BRANCH  30  31
ATOM     31  C   UNL A   1      33.475  34.531  29.101  1.00  0.00     0.338 C 
ATOM     32  O   UNL A   1      32.686  35.391  29.474  1.00  0.00    -0.246 OA
BRANCH  31  33
ATOM     33  C   UNL A   1      34.477  34.044  30.023  1.00  0.00     0.060 A 
ATOM     34  C   UNL A   1      34.129  33.448  31.233  1.00  0.00     0.016 A 
ATOM     35  C   UNL A   1      35.804  34.336  29.702  1.00  0.00     0.016 A 
ATOM     36  C   UNL A   1      35.149  33.080  32.106  1.00  0.00     0.010 A 
ATOM     37  C   UNL A   1      36.817  33.922  30.543  1.00  0.00     0.010 A 
ATOM     38  C   UNL A   1      36.496  33.260  31.732  1.00  0.00    -0.014 A 
BRANCH  38  39
ATOM     39  C   UNL A   1      37.586  32.559  32.441  1.00  0.00     0.031 A 
ATOM     40  C   UNL A   1      38.109  33.053  33.754  1.00  0.00     0.074 A 
ATOM     41  C   UNL A   1      38.198  31.571  31.760  1.00  0.00     0.049 A 
ATOM     42  N   UNL A   1      39.143  32.631  34.433  1.00  0.00    -0.248 NA
ATOM     43  C   UNL A   1      37.415  34.200  34.365  1.00  0.00     0.031 C 
ATOM     44  C   UNL A   1      37.828  31.122  30.411  1.00  0.00     0.029 A 
ATOM     45  N   UNL A   1      39.260  30.776  32.088  1.00  0.00    -0.354 N 
ATOM     46  C   UNL A   1      39.242  33.469  35.536  1.00  0.00     0.074 A 
ATOM     47  C   UNL A   1      38.181  34.446  35.421  1.00  0.00     0.031 C 
ATOM     48  C   UNL A   1      38.617  30.102  30.049  1.00  0.00     0.029 A 
ATOM     49  C   UNL A   1      39.570  29.853  31.119  1.00  0.00     0.049 A 
ATOM     50  H   UNL A   1      39.754  30.857  32.936  1.00  0.00     0.167 HD
ATOM     51  C   UNL A   1      40.139  33.410  36.551  1.00  0.00     0.037 A 
ATOM     52  C   UNL A   1      40.518  28.902  31.102  1.00  0.00     0.037 A 
ATOM     53  C   UNL A   1      41.169  32.404  36.639  1.00  0.00     0.049 A 
ATOM     54  C   UNL A   1      41.411  28.779  32.297  1.00  0.00     0.074 A 
ATOM     55  C   UNL A   1      42.106  32.209  37.638  1.00  0.00     0.029 A 
ATOM     56  N   UNL A   1      41.381  31.409  35.694  1.00  0.00    -0.354 N 
ATOM     57  N   UNL A   1      41.460  29.545  33.362  1.00  0.00    -0.248 NA
ATOM     58  C   UNL A   1      42.364  27.666  32.301  1.00  0.00     0.031 C 
ATOM     59  C   UNL A   1      42.890  31.102  37.292  1.00  0.00     0.029 A 
ATOM     60  C   UNL A   1      42.423  30.589  36.092  1.00  0.00     0.049 A 
ATOM     61  H   UNL A   1      40.866  31.302  34.861  1.00  0.00     0.167 HD
ATOM     62  C   UNL A   1      42.440  28.998  34.174  1.00  0.00     0.074 A 
ATOM     63  C   UNL A   1      42.943  27.825  33.484  1.00  0.00     0.031 C 
ATOM     64  C   UNL A   1      42.889  29.426  35.378  1.00  0.00     0.037 A 
BRANCH  51  65
ATOM     65  C   UNL A   1      40.035  34.436  37.647  1.00  0.00     0.058 A 
ATOM     66  C   UNL A   1      40.678  35.681  37.547  1.00  0.00     0.135 A 
ATOM     67  C   UNL A   1      39.249  34.200  38.788  1.00  0.00     0.135 A 
ATOM     68  F   UNL A   1      41.451  35.958  36.486  1.00  0.00    -0.206 F 
ATOM     69  C   UNL A   1      40.565  36.644  38.546  1.00  0.00     0.059 A 
ATOM     70  C   UNL A   1      39.103  35.159  39.790  1.00  0.00     0.059 A 
ATOM     71  F   UNL A   1      38.610  33.030  38.938  1.00  0.00    -0.206 F 
ATOM     72  C   UNL A   1      39.777  36.373  39.665  1.00  0.00     0.060 A 
BRANCH  72  73
ATOM     73  S   UNL A   1      39.627  37.638  40.945  1.00  0.00     0.124 S 
ATOM     74  O   UNL A   1      39.256  36.834  42.106  1.00  0.00    -0.237 OA
ATOM     75  O   UNL A   1      40.968  38.215  40.978  1.00  0.00    -0.237 OA
ATOM     76  O   UNL A   1      38.583  38.519  40.432  1.00  0.00    -0.744 OA
ENDBRANCH  72  73
ENDBRANCH  51  65
BRANCH  52  77
ATOM     77  C   UNL A   1      40.599  27.965  29.956  1.00  0.00     0.058 A 
ATOM     78  C   UNL A   1      39.670  26.922  29.828  1.00  0.00     0.135 A 
ATOM     79  C   UNL A   1      41.547  28.128  28.935  1.00  0.00     0.135 A 
ATOM     80  F   UNL A   1      38.734  26.739  30.772  1.00  0.00    -0.206 F 
ATOM     81  C   UNL A   1      39.690  26.058  28.739  1.00  0.00     0.059 A 
ATOM     82  C   UNL A   1      41.575  27.289  27.826  1.00  0.00     0.059 A 
ATOM     83  F   UNL A   1      42.431  29.137  28.992  1.00  0.00    -0.206 F 
ATOM     84  C   UNL A   1      40.650  26.248  27.743  1.00  0.00     0.060 A 
BRANCH  84  85
ATOM     85  S   UNL A   1      40.644  25.150  26.310  1.00  0.00     0.124 S 
ATOM     86  O   UNL A   1      41.091  26.049  25.253  1.00  0.00    -0.237 OA
ATOM     87  O   UNL A   1      41.590  24.112  26.708  1.00  0.00    -0.237 OA
ATOM     88  O   UNL A   1      39.252  24.718  26.228  1.00  0.00    -0.744 OA
ENDBRANCH  84  85
ENDBRANCH  52  77
BRANCH  64  89
ATOM     89  C   UNL A   1      43.960  28.600  36.022  1.00  0.00     0.058 A 
ATOM     90  C   UNL A   1      43.643  27.490  36.817  1.00  0.00     0.135 A 
ATOM     91  C   UNL A   1      45.312  28.913  35.822  1.00  0.00     0.135 A 
ATOM     92  F   UNL A   1      42.361  27.163  37.044  1.00  0.00    -0.206 F 
ATOM     93  C   UNL A   1      44.638  26.725  37.415  1.00  0.00     0.059 A 
ATOM     94  C   UNL A   1      46.323  28.151  36.394  1.00  0.00     0.059 A 
ATOM     95  F   UNL A   1      45.658  29.967  35.065  1.00  0.00    -0.206 F 
ATOM     96  C   UNL A   1      45.975  27.065  37.198  1.00  0.00     0.060 A 
BRANCH  96  97
ATOM     97  S   UNL A   1      47.260  26.051  37.957  1.00  0.00     0.124 S 
ATOM     98  O   UNL A   1      47.742  26.932  39.014  1.00  0.00    -0.237 OA
ATOM     99  O   UNL A   1      46.514  24.878  38.400  1.00  0.00    -0.237 OA
ATOM    100  O   UNL A   1      48.193  25.813  36.859  1.00  0.00    -0.744 OA
ENDBRANCH  96  97
ENDBRANCH  64  89
ENDBRANCH  38  39
ENDBRANCH  31  33
ENDBRANCH  30  31
ENDBRANCH  29  30
ENDBRANCH   1  29
TORSDOF 20
ENDMDL
