MODEL 1
REMARK VINA RESULT:     -11.7      0.000      0.000
REMARK SMILES Cc1cc(C)c(C(N)=O)c(N[C@H]2C=C[C@H](C(=O)OCCOC(=O)c3ccc(-c4c5nc(c(-c6c(F)cc(S(=O)(=O)[O-])cc6F)c6ccc([nH]6)c(-c6c(F)cc(S(=O)(=O)[O-])cc6F)c6nc(c(-c7c(F)cc(S(=O)(=O)[O-])cc7F)c7ccc4[nH]7)C=C6)C=C5)cc3)C2)n1
REMARK SMILES IDX 19 1 18 2 16 3 17 4 15 5 12 6 13 7 90 8 14 9 11 10 10 12
REMARK SMILES IDX 1 13 2 14 3 15 91 16 4 17 5 18 6 19 7 20 8 21 9 22 20 25
REMARK SMILES IDX 21 26 22 27 23 28 24 29 25 30 89 31 26 32 88 33 27 34 28 35
REMARK SMILES IDX 29 36 82 37 30 38 87 39 81 40 83 41 31 42 86 43 80 44 79 45
REMARK SMILES IDX 32 47 66 48 45 49 65 50 46 51 49 52 64 53 84 54 47 55 48 56
REMARK SMILES IDX 63 58 85 59 50 60 33 61 34 62 43 63 35 64 36 65 42 66 44 67
REMARK SMILES IDX 37 68 38 69 39 70 40 71 41 72 67 73 68 74 77 75 69 76 70 77
REMARK SMILES IDX 76 78 78 79 71 80 72 81 73 82 74 83 75 84 51 85 52 86 61 87
REMARK SMILES IDX 53 88 54 89 60 90 62 91 55 92 56 93 57 94 58 95 59 96
REMARK H PARENT 11 11 8 23 8 24 83 46 49 57
REMARK Flexibility Score: inf
ROOT
ATOM      1  C   UNL A   1      38.494  21.375  25.714  1.00  0.00     0.274 C 
ENDROOT
BRANCH   1   2
ATOM      2  O   UNL A   1      37.286  22.151  25.839  1.00  0.00    -0.462 OA
BRANCH   2   3
ATOM      3  C   UNL A   1      36.511  22.236  24.722  1.00  0.00     0.312 C 
ATOM      4  O   UNL A   1      36.861  22.756  23.669  1.00  0.00    -0.252 OA
BRANCH   3   5
ATOM      5  C   UNL A   1      35.152  21.579  24.948  1.00  0.00     0.124 C 
ATOM      6  C   UNL A   1      33.661  23.348  25.661  1.00  0.00     0.104 C 
ATOM      7  C   UNL A   1      34.000  22.452  26.807  1.00  0.00    -0.006 C 
ATOM      8  C   UNL A   1      34.025  22.489  24.442  1.00  0.00     0.048 C 
ATOM      9  C   UNL A   1      34.841  21.481  26.418  1.00  0.00    -0.014 C 
BRANCH   6  10
ATOM     10  N   UNL A   1      32.308  23.862  25.714  1.00  0.00    -0.363 N 
ATOM     11  H   UNL A   1      31.594  23.221  25.933  1.00  0.00     0.162 HD
BRANCH  10  12
ATOM     12  C   UNL A   1      31.929  25.175  25.484  1.00  0.00     0.139 A 
ATOM     13  C   UNL A   1      31.778  28.199  27.570  1.00  0.00     0.067 C 
ATOM     14  C   UNL A   1      31.664  27.322  26.362  1.00  0.00     0.040 A 
ATOM     15  C   UNL A   1      31.066  27.784  25.203  1.00  0.00     0.028 A 
ATOM     16  N   UNL A   1      32.121  26.060  26.485  1.00  0.00    -0.236 NA
ATOM     17  C   UNL A   1      30.936  26.918  24.112  1.00  0.00    -0.033 A 
ATOM     18  C   UNL A   1      30.290  27.441  22.858  1.00  0.00     0.045 C 
ATOM     19  C   UNL A   1      31.368  25.582  24.257  1.00  0.00     0.084 A 
BRANCH  19  20
ATOM     20  C   UNL A   1      31.183  24.621  23.130  1.00  0.00     0.252 C 
ATOM     21  N   UNL A   1      32.055  24.703  22.079  1.00  0.00    -0.365 N 
ATOM     22  O   UNL A   1      30.281  23.794  23.116  1.00  0.00    -0.269 OA
ATOM     23  H   UNL A   1      32.780  25.369  22.093  1.00  0.00     0.159 HD
ATOM     24  H   UNL A   1      31.957  24.097  21.309  1.00  0.00     0.159 HD
ENDBRANCH  19  20
ENDBRANCH  10  12
ENDBRANCH   6  10
ENDBRANCH   3   5
ENDBRANCH   2   3
ENDBRANCH   1   2
BRANCH   1  25
ATOM     25  C   UNL A   1      39.671  22.050  26.419  1.00  0.00     0.275 C 
BRANCH  25  26
ATOM     26  O   UNL A   1      39.480  23.473  26.519  1.00  0.00    -0.458 OA
BRANCH  26  27
ATOM     27  C   UNL A   1      40.617  24.192  26.647  1.00  0.00     0.338 C 
ATOM     28  O   UNL A   1      41.703  23.953  26.146  1.00  0.00    -0.246 OA
BRANCH  27  29
ATOM     29  C   UNL A   1      40.371  25.386  27.466  1.00  0.00     0.060 A 
ATOM     30  C   UNL A   1      41.248  26.464  27.356  1.00  0.00     0.016 A 
ATOM     31  C   UNL A   1      39.396  25.369  28.462  1.00  0.00     0.016 A 
ATOM     32  C   UNL A   1      41.236  27.469  28.319  1.00  0.00     0.010 A 
ATOM     33  C   UNL A   1      39.319  26.437  29.365  1.00  0.00     0.010 A 
ATOM     34  C   UNL A   1      40.266  27.477  29.333  1.00  0.00    -0.014 A 
BRANCH  34  35
ATOM     35  C   UNL A   1      40.267  28.545  30.374  1.00  0.00     0.031 A 
ATOM     36  C   UNL A   1      41.283  28.516  31.489  1.00  0.00     0.074 A 
ATOM     37  C   UNL A   1      39.371  29.552  30.325  1.00  0.00     0.049 A 
ATOM     38  N   UNL A   1      41.313  29.211  32.597  1.00  0.00    -0.248 NA
ATOM     39  C   UNL A   1      42.401  27.569  31.347  1.00  0.00     0.031 C 
ATOM     40  C   UNL A   1      38.358  29.741  29.285  1.00  0.00     0.029 A 
ATOM     41  N   UNL A   1      39.177  30.618  31.170  1.00  0.00    -0.354 N 
ATOM     42  C   UNL A   1      42.406  28.738  33.315  1.00  0.00     0.074 A 
ATOM     43  C   UNL A   1      43.025  27.707  32.509  1.00  0.00     0.031 C 
ATOM     44  C   UNL A   1      37.682  30.874  29.526  1.00  0.00     0.029 A 
ATOM     45  C   UNL A   1      38.150  31.447  30.784  1.00  0.00     0.049 A 
ATOM     46  H   UNL A   1      39.719  30.773  31.976  1.00  0.00     0.167 HD
ATOM     47  C   UNL A   1      42.844  29.121  34.539  1.00  0.00     0.037 A 
ATOM     48  C   UNL A   1      37.612  32.523  31.389  1.00  0.00     0.037 A 
ATOM     49  C   UNL A   1      42.272  30.197  35.305  1.00  0.00     0.049 A 
ATOM     50  C   UNL A   1      38.134  32.953  32.730  1.00  0.00     0.074 A 
ATOM     51  C   UNL A   1      42.628  30.647  36.565  1.00  0.00     0.029 A 
ATOM     52  N   UNL A   1      41.244  31.019  34.865  1.00  0.00    -0.354 N 
ATOM     53  N   UNL A   1      39.093  32.419  33.447  1.00  0.00    -0.248 NA
ATOM     54  C   UNL A   1      37.483  34.112  33.357  1.00  0.00     0.031 C 
ATOM     55  C   UNL A   1      41.811  31.736  36.891  1.00  0.00     0.029 A 
ATOM     56  C   UNL A   1      40.962  31.978  35.822  1.00  0.00     0.049 A 
ATOM     57  H   UNL A   1      40.784  30.933  33.999  1.00  0.00     0.167 HD
ATOM     58  C   UNL A   1      39.160  33.174  34.611  1.00  0.00     0.074 A 
ATOM     59  C   UNL A   1      38.159  34.215  34.495  1.00  0.00     0.031 C 
ATOM     60  C   UNL A   1      39.970  33.012  35.685  1.00  0.00     0.037 A 
BRANCH  47  61
ATOM     61  C   UNL A   1      43.977  28.344  35.146  1.00  0.00     0.058 A 
ATOM     62  C   UNL A   1      43.775  27.123  35.803  1.00  0.00     0.135 A 
ATOM     63  C   UNL A   1      45.295  28.822  35.038  1.00  0.00     0.135 A 
ATOM     64  F   UNL A   1      42.535  26.631  35.949  1.00  0.00    -0.206 F 
ATOM     65  C   UNL A   1      44.838  26.409  36.352  1.00  0.00     0.059 A 
ATOM     66  C   UNL A   1      46.373  28.117  35.562  1.00  0.00     0.059 A 
ATOM     67  F   UNL A   1      45.542  29.987  34.418  1.00  0.00    -0.206 F 
ATOM     68  C   UNL A   1      46.133  26.918  36.231  1.00  0.00     0.060 A 
BRANCH  68  69
ATOM     69  S   UNL A   1      47.508  25.990  36.946  1.00  0.00     0.124 S 
ATOM     70  O   UNL A   1      46.906  24.673  37.125  1.00  0.00    -0.237 OA
ATOM     71  O   UNL A   1      48.530  26.082  35.907  1.00  0.00    -0.237 OA
ATOM     72  O   UNL A   1      47.804  26.719  38.176  1.00  0.00    -0.744 OA
ENDBRANCH  68  69
ENDBRANCH  47  61
BRANCH  48  73
ATOM     73  C   UNL A   1      36.486  33.242  30.742  1.00  0.00     0.058 A 
ATOM     74  C   UNL A   1      35.180  33.133  31.242  1.00  0.00     0.135 A 
ATOM     75  C   UNL A   1      36.698  34.085  29.640  1.00  0.00     0.135 A 
ATOM     76  F   UNL A   1      34.928  32.332  32.289  1.00  0.00    -0.206 F 
ATOM     77  C   UNL A   1      34.123  33.836  30.674  1.00  0.00     0.059 A 
ATOM     78  C   UNL A   1      35.662  34.814  29.069  1.00  0.00     0.059 A 
ATOM     79  F   UNL A   1      37.933  34.232  29.135  1.00  0.00    -0.206 F 
ATOM     80  C   UNL A   1      34.375  34.679  29.590  1.00  0.00     0.060 A 
BRANCH  80  81
ATOM     81  S   UNL A   1      33.022  35.659  28.904  1.00  0.00     0.124 S 
ATOM     82  O   UNL A   1      32.319  36.074  30.112  1.00  0.00    -0.237 OA
ATOM     83  O   UNL A   1      33.729  36.712  28.182  1.00  0.00    -0.237 OA
ATOM     84  O   UNL A   1      32.317  34.700  28.058  1.00  0.00    -0.744 OA
ENDBRANCH  80  81
ENDBRANCH  48  73
BRANCH  60  85
ATOM     85  C   UNL A   1      39.823  33.992  36.809  1.00  0.00     0.058 A 
ATOM     86  C   UNL A   1      40.456  35.244  36.772  1.00  0.00     0.135 A 
ATOM     87  C   UNL A   1      38.999  33.699  37.907  1.00  0.00     0.135 A 
ATOM     88  F   UNL A   1      41.258  35.565  35.745  1.00  0.00    -0.206 F 
ATOM     89  C   UNL A   1      40.285  36.170  37.794  1.00  0.00     0.059 A 
ATOM     90  C   UNL A   1      38.804  34.617  38.933  1.00  0.00     0.059 A 
ATOM     91  F   UNL A   1      38.370  32.515  37.982  1.00  0.00    -0.206 F 
ATOM     92  C   UNL A   1      39.457  35.848  38.872  1.00  0.00     0.060 A 
BRANCH  92  93
ATOM     93  S   UNL A   1      39.206  37.071  40.175  1.00  0.00     0.124 S 
ATOM     94  O   UNL A   1      38.410  36.317  41.137  1.00  0.00    -0.237 OA
ATOM     95  O   UNL A   1      40.571  37.381  40.588  1.00  0.00    -0.237 OA
ATOM     96  O   UNL A   1      38.505  38.155  39.491  1.00  0.00    -0.744 OA
ENDBRANCH  92  93
ENDBRANCH  60  85
ENDBRANCH  34  35
ENDBRANCH  27  29
ENDBRANCH  26  27
ENDBRANCH  25  26
ENDBRANCH   1  25
TORSDOF 17
ENDMDL
MODEL 2
REMARK VINA RESULT:     -11.4      6.349     11.818
REMARK SMILES Cc1cc(C)c(C(N)=O)c(N[C@H]2C=C[C@H](C(=O)OCCOC(=O)c3ccc(-c4c5nc(c(-c6c(F)cc(S(=O)(=O)[O-])cc6F)c6ccc([nH]6)c(-c6c(F)cc(S(=O)(=O)[O-])cc6F)c6nc(c(-c7c(F)cc(S(=O)(=O)[O-])cc7F)c7ccc4[nH]7)C=C6)C=C5)cc3)C2)n1
REMARK SMILES IDX 19 1 18 2 16 3 17 4 15 5 12 6 13 7 90 8 14 9 11 10 10 12
REMARK SMILES IDX 1 13 2 14 3 15 91 16 4 17 5 18 6 19 7 20 8 21 9 22 20 25
REMARK SMILES IDX 21 26 22 27 23 28 24 29 25 30 89 31 26 32 88 33 27 34 28 35
REMARK SMILES IDX 29 36 82 37 30 38 87 39 81 40 83 41 31 42 86 43 80 44 79 45
REMARK SMILES IDX 32 47 66 48 45 49 65 50 46 51 49 52 64 53 84 54 47 55 48 56
REMARK SMILES IDX 63 58 85 59 50 60 33 61 34 62 43 63 35 64 36 65 42 66 44 67
REMARK SMILES IDX 37 68 38 69 39 70 40 71 41 72 67 73 68 74 77 75 69 76 70 77
REMARK SMILES IDX 76 78 78 79 71 80 72 81 73 82 74 83 75 84 51 85 52 86 61 87
REMARK SMILES IDX 53 88 54 89 60 90 62 91 55 92 56 93 57 94 58 95 59 96
REMARK H PARENT 11 11 8 23 8 24 83 46 49 57
REMARK Flexibility Score: inf
ROOT
ATOM      1  C   UNL A   1      32.616  30.714  27.191  1.00  0.00     0.274 C 
ENDROOT
BRANCH   1   2
ATOM      2  O   UNL A   1      32.563  30.464  25.772  1.00  0.00    -0.462 OA
BRANCH   2   3
ATOM      3  C   UNL A   1      32.080  29.248  25.397  1.00  0.00     0.312 C 
ATOM      4  O   UNL A   1      31.035  29.072  24.780  1.00  0.00    -0.252 OA
BRANCH   3   5
ATOM      5  C   UNL A   1      33.022  28.128  25.830  1.00  0.00     0.124 C 
ATOM      6  C   UNL A   1      32.844  26.407  24.137  1.00  0.00     0.104 C 
ATOM      7  C   UNL A   1      32.164  25.978  25.396  1.00  0.00    -0.006 C 
ATOM      8  C   UNL A   1      33.756  27.544  24.616  1.00  0.00     0.048 C 
ATOM      9  C   UNL A   1      32.246  26.937  26.330  1.00  0.00    -0.014 C 
BRANCH   6  10
ATOM     10  N   UNL A   1      33.480  25.317  23.427  1.00  0.00    -0.363 N 
ATOM     11  H   UNL A   1      33.510  25.378  22.445  1.00  0.00     0.162 HD
BRANCH  10  12
ATOM     12  C   UNL A   1      34.051  24.195  24.006  1.00  0.00     0.139 A 
ATOM     13  C   UNL A   1      37.233  23.542  25.731  1.00  0.00     0.067 C 
ATOM     14  C   UNL A   1      35.877  23.291  25.147  1.00  0.00     0.040 A 
ATOM     15  C   UNL A   1      35.366  22.007  25.063  1.00  0.00     0.028 A 
ATOM     16  N   UNL A   1      35.217  24.362  24.667  1.00  0.00    -0.236 NA
ATOM     17  C   UNL A   1      34.117  21.809  24.467  1.00  0.00    -0.033 A 
ATOM     18  C   UNL A   1      33.575  20.408  24.391  1.00  0.00     0.045 C 
ATOM     19  C   UNL A   1      33.447  22.924  23.918  1.00  0.00     0.084 A 
BRANCH  19  20
ATOM     20  C   UNL A   1      32.142  22.731  23.221  1.00  0.00     0.252 C 
ATOM     21  N   UNL A   1      32.160  22.104  22.006  1.00  0.00    -0.365 N 
ATOM     22  O   UNL A   1      31.084  23.128  23.691  1.00  0.00    -0.269 OA
ATOM     23  H   UNL A   1      33.012  21.786  21.629  1.00  0.00     0.159 HD
ATOM     24  H   UNL A   1      31.321  21.972  21.507  1.00  0.00     0.159 HD
ENDBRANCH  19  20
ENDBRANCH  10  12
ENDBRANCH   6  10
ENDBRANCH   3   5
ENDBRANCH   2   3
ENDBRANCH   1   2
BRANCH   1  25
ATOM     25  C   UNL A   1      33.975  31.271  27.613  1.00  0.00     0.275 C 
BRANCH  25  26
ATOM     26  O   UNL A   1      34.829  30.237  28.137  1.00  0.00    -0.458 OA
BRANCH  26  27
ATOM     27  C   UNL A   1      35.747  30.658  29.035  1.00  0.00     0.338 C 
ATOM     28  O   UNL A   1      35.588  31.471  29.930  1.00  0.00    -0.246 OA
BRANCH  27  29
ATOM     29  C   UNL A   1      37.018  29.949  28.829  1.00  0.00     0.060 A 
ATOM     30  C   UNL A   1      37.709  29.481  29.944  1.00  0.00     0.016 A 
ATOM     31  C   UNL A   1      37.607  29.912  27.566  1.00  0.00     0.016 A 
ATOM     32  C   UNL A   1      39.039  29.090  29.821  1.00  0.00     0.010 A 
ATOM     33  C   UNL A   1      38.910  29.417  27.432  1.00  0.00     0.010 A 
ATOM     34  C   UNL A   1      39.658  29.043  28.562  1.00  0.00    -0.014 A 
BRANCH  34  35
ATOM     35  C   UNL A   1      41.089  28.642  28.436  1.00  0.00     0.031 A 
ATOM     36  C   UNL A   1      42.183  29.655  28.664  1.00  0.00     0.074 A 
ATOM     37  C   UNL A   1      41.421  27.371  28.131  1.00  0.00     0.049 A 
ATOM     38  N   UNL A   1      43.460  29.567  28.390  1.00  0.00    -0.248 NA
ATOM     39  C   UNL A   1      41.787  30.940  29.262  1.00  0.00     0.031 C 
ATOM     40  C   UNL A   1      40.478  26.270  27.926  1.00  0.00     0.029 A 
ATOM     41  N   UNL A   1      42.651  26.787  27.947  1.00  0.00    -0.354 N 
ATOM     42  C   UNL A   1      44.006  30.805  28.712  1.00  0.00     0.074 A 
ATOM     43  C   UNL A   1      42.924  31.622  29.220  1.00  0.00     0.031 C 
ATOM     44  C   UNL A   1      41.161  25.139  27.693  1.00  0.00     0.029 A 
ATOM     45  C   UNL A   1      42.586  25.448  27.642  1.00  0.00     0.049 A 
ATOM     46  H   UNL A   1      43.499  27.280  28.027  1.00  0.00     0.167 HD
ATOM     47  C   UNL A   1      45.288  31.224  28.585  1.00  0.00     0.037 A 
ATOM     48  C   UNL A   1      43.555  24.572  27.315  1.00  0.00     0.037 A 
ATOM     49  C   UNL A   1      46.375  30.385  28.150  1.00  0.00     0.049 A 
ATOM     50  C   UNL A   1      44.975  25.046  27.211  1.00  0.00     0.074 A 
ATOM     51  C   UNL A   1      47.705  30.721  27.964  1.00  0.00     0.029 A 
ATOM     52  N   UNL A   1      46.263  29.032  27.867  1.00  0.00    -0.354 N 
ATOM     53  N   UNL A   1      45.454  26.251  27.406  1.00  0.00    -0.248 NA
ATOM     54  C   UNL A   1      45.982  24.052  26.814  1.00  0.00     0.031 C 
ATOM     55  C   UNL A   1      48.397  29.572  27.563  1.00  0.00     0.029 A 
ATOM     56  C   UNL A   1      47.500  28.517  27.521  1.00  0.00     0.049 A 
ATOM     57  H   UNL A   1      45.426  28.514  27.908  1.00  0.00     0.167 HD
ATOM     58  C   UNL A   1      46.818  26.161  27.156  1.00  0.00     0.074 A 
ATOM     59  C   UNL A   1      47.092  24.781  26.813  1.00  0.00     0.031 C 
ATOM     60  C   UNL A   1      47.756  27.139  27.194  1.00  0.00     0.037 A 
BRANCH  47  61
ATOM     61  C   UNL A   1      45.582  32.666  28.882  1.00  0.00     0.058 A 
ATOM     62  C   UNL A   1      45.410  33.675  27.924  1.00  0.00     0.135 A 
ATOM     63  C   UNL A   1      46.015  33.045  30.165  1.00  0.00     0.135 A 
ATOM     64  F   UNL A   1      45.015  33.364  26.680  1.00  0.00    -0.206 F 
ATOM     65  C   UNL A   1      45.676  35.010  28.219  1.00  0.00     0.059 A 
ATOM     66  C   UNL A   1      46.269  34.374  30.487  1.00  0.00     0.059 A 
ATOM     67  F   UNL A   1      46.196  32.117  31.119  1.00  0.00    -0.206 F 
ATOM     68  C   UNL A   1      46.111  35.349  29.502  1.00  0.00     0.060 A 
BRANCH  68  69
ATOM     69  S   UNL A   1      46.457  37.080  29.880  1.00  0.00     0.124 S 
ATOM     70  O   UNL A   1      47.829  37.000  30.373  1.00  0.00    -0.237 OA
ATOM     71  O   UNL A   1      46.287  37.731  28.584  1.00  0.00    -0.237 OA
ATOM     72  O   UNL A   1      45.448  37.415  30.881  1.00  0.00    -0.744 OA
ENDBRANCH  68  69
ENDBRANCH  47  61
BRANCH  48  73
ATOM     73  C   UNL A   1      43.198  23.160  27.021  1.00  0.00     0.058 A 
ATOM     74  C   UNL A   1      43.173  22.684  25.702  1.00  0.00     0.135 A 
ATOM     75  C   UNL A   1      42.919  22.251  28.052  1.00  0.00     0.135 A 
ATOM     76  F   UNL A   1      43.424  23.520  24.682  1.00  0.00    -0.206 F 
ATOM     77  C   UNL A   1      42.884  21.354  25.415  1.00  0.00     0.059 A 
ATOM     78  C   UNL A   1      42.650  20.913  27.792  1.00  0.00     0.059 A 
ATOM     79  F   UNL A   1      42.946  22.657  29.332  1.00  0.00    -0.206 F 
ATOM     80  C   UNL A   1      42.630  20.474  26.468  1.00  0.00     0.060 A 
BRANCH  80  81
ATOM     81  S   UNL A   1      42.340  18.728  26.104  1.00  0.00     0.124 S 
ATOM     82  O   UNL A   1      40.926  18.734  25.750  1.00  0.00    -0.237 OA
ATOM     83  O   UNL A   1      43.272  18.475  25.010  1.00  0.00    -0.237 OA
ATOM     84  O   UNL A   1      42.676  18.070  27.364  1.00  0.00    -0.744 OA
ENDBRANCH  80  81
ENDBRANCH  48  73
BRANCH  60  85
ATOM     85  C   UNL A   1      49.167  26.746  26.877  1.00  0.00     0.058 A 
ATOM     86  C   UNL A   1      50.061  26.361  27.888  1.00  0.00     0.135 A 
ATOM     87  C   UNL A   1      49.614  26.703  25.547  1.00  0.00     0.135 A 
ATOM     88  F   UNL A   1      49.680  26.392  29.174  1.00  0.00    -0.206 F 
ATOM     89  C   UNL A   1      51.357  25.956  27.591  1.00  0.00     0.059 A 
ATOM     90  C   UNL A   1      50.902  26.288  25.227  1.00  0.00     0.059 A 
ATOM     91  F   UNL A   1      48.792  27.059  24.547  1.00  0.00    -0.206 F 
ATOM     92  C   UNL A   1      51.769  25.923  26.257  1.00  0.00     0.060 A 
BRANCH  92  93
ATOM     93  S   UNL A   1      53.440  25.356  25.874  1.00  0.00     0.124 S 
ATOM     94  O   UNL A   1      53.186  24.009  25.373  1.00  0.00    -0.237 OA
ATOM     95  O   UNL A   1      53.885  26.328  24.880  1.00  0.00    -0.237 OA
ATOM     96  O   UNL A   1      54.124  25.430  27.162  1.00  0.00    -0.744 OA
ENDBRANCH  92  93
ENDBRANCH  60  85
ENDBRANCH  34  35
ENDBRANCH  27  29
ENDBRANCH  26  27
ENDBRANCH  25  26
ENDBRANCH   1  25
TORSDOF 17
ENDMDL
MODEL 3
REMARK VINA RESULT:     -11.3      1.057      1.945
REMARK SMILES Cc1cc(C)c(C(N)=O)c(N[C@H]2C=C[C@H](C(=O)OCCOC(=O)c3ccc(-c4c5nc(c(-c6c(F)cc(S(=O)(=O)[O-])cc6F)c6ccc([nH]6)c(-c6c(F)cc(S(=O)(=O)[O-])cc6F)c6nc(c(-c7c(F)cc(S(=O)(=O)[O-])cc7F)c7ccc4[nH]7)C=C6)C=C5)cc3)C2)n1
REMARK SMILES IDX 19 1 18 2 16 3 17 4 15 5 12 6 13 7 90 8 14 9 11 10 10 12
REMARK SMILES IDX 1 13 2 14 3 15 91 16 4 17 5 18 6 19 7 20 8 21 9 22 20 25
REMARK SMILES IDX 21 26 22 27 23 28 24 29 25 30 89 31 26 32 88 33 27 34 28 35
REMARK SMILES IDX 29 36 82 37 30 38 87 39 81 40 83 41 31 42 86 43 80 44 79 45
REMARK SMILES IDX 32 47 66 48 45 49 65 50 46 51 49 52 64 53 84 54 47 55 48 56
REMARK SMILES IDX 63 58 85 59 50 60 33 61 34 62 43 63 35 64 36 65 42 66 44 67
REMARK SMILES IDX 37 68 38 69 39 70 40 71 41 72 67 73 68 74 77 75 69 76 70 77
REMARK SMILES IDX 76 78 78 79 71 80 72 81 73 82 74 83 75 84 51 85 52 86 61 87
REMARK SMILES IDX 53 88 54 89 60 90 62 91 55 92 56 93 57 94 58 95 59 96
REMARK H PARENT 11 11 8 23 8 24 83 46 49 57
REMARK Flexibility Score: inf
ROOT
ATOM      1  C   UNL A   1      38.868  21.585  25.750  1.00  0.00     0.274 C 
ENDROOT
BRANCH   1   2
ATOM      2  O   UNL A   1      37.625  22.312  25.726  1.00  0.00    -0.462 OA
BRANCH   2   3
ATOM      3  C   UNL A   1      36.506  21.576  25.479  1.00  0.00     0.312 C 
ATOM      4  O   UNL A   1      36.505  20.453  24.987  1.00  0.00    -0.252 OA
BRANCH   3   5
ATOM      5  C   UNL A   1      35.250  22.327  25.912  1.00  0.00     0.124 C 
ATOM      6  C   UNL A   1      34.227  23.154  23.880  1.00  0.00     0.104 C 
ATOM      7  C   UNL A   1      34.853  24.273  24.647  1.00  0.00    -0.006 C 
ATOM      8  C   UNL A   1      34.096  22.051  24.938  1.00  0.00     0.048 C 
ATOM      9  C   UNL A   1      35.436  23.815  25.764  1.00  0.00    -0.014 C 
BRANCH   6  10
ATOM     10  N   UNL A   1      33.015  23.540  23.188  1.00  0.00    -0.363 N 
ATOM     11  H   UNL A   1      32.775  23.026  22.384  1.00  0.00     0.162 HD
BRANCH  10  12
ATOM     12  C   UNL A   1      32.161  24.568  23.557  1.00  0.00     0.139 A 
ATOM     13  C   UNL A   1      29.708  25.013  26.260  1.00  0.00     0.067 C 
ATOM     14  C   UNL A   1      30.538  25.327  25.055  1.00  0.00     0.040 A 
ATOM     15  C   UNL A   1      30.310  26.474  24.314  1.00  0.00     0.028 A 
ATOM     16  N   UNL A   1      31.469  24.417  24.706  1.00  0.00    -0.236 NA
ATOM     17  C   UNL A   1      31.076  26.707  23.167  1.00  0.00    -0.033 A 
ATOM     18  C   UNL A   1      30.818  27.962  22.379  1.00  0.00     0.045 C 
ATOM     19  C   UNL A   1      32.015  25.730  22.773  1.00  0.00     0.084 A 
BRANCH  19  20
ATOM     20  C   UNL A   1      32.800  25.924  21.519  1.00  0.00     0.252 C 
ATOM     21  N   UNL A   1      32.193  25.604  20.336  1.00  0.00    -0.365 N 
ATOM     22  O   UNL A   1      33.953  26.335  21.526  1.00  0.00    -0.269 OA
ATOM     23  H   UNL A   1      31.266  25.273  20.333  1.00  0.00     0.159 HD
ATOM     24  H   UNL A   1      32.683  25.704  19.488  1.00  0.00     0.159 HD
ENDBRANCH  19  20
ENDBRANCH  10  12
ENDBRANCH   6  10
ENDBRANCH   3   5
ENDBRANCH   2   3
ENDBRANCH   1   2
BRANCH   1  25
ATOM     25  C   UNL A   1      39.918  22.294  26.606  1.00  0.00     0.275 C 
BRANCH  25  26
ATOM     26  O   UNL A   1      39.651  23.704  26.707  1.00  0.00    -0.458 OA
BRANCH  26  27
ATOM     27  C   UNL A   1      40.745  24.496  26.648  1.00  0.00     0.338 C 
ATOM     28  O   UNL A   1      41.565  24.558  25.748  1.00  0.00    -0.246 OA
BRANCH  27  29
ATOM     29  C   UNL A   1      40.810  25.358  27.836  1.00  0.00     0.060 A 
ATOM     30  C   UNL A   1      39.651  25.554  28.583  1.00  0.00     0.016 A 
ATOM     31  C   UNL A   1      41.956  26.107  28.101  1.00  0.00     0.016 A 
ATOM     32  C   UNL A   1      39.592  26.588  29.514  1.00  0.00     0.010 A 
ATOM     33  C   UNL A   1      41.924  27.074  29.113  1.00  0.00     0.010 A 
ATOM     34  C   UNL A   1      40.730  27.358  29.800  1.00  0.00    -0.014 A 
BRANCH  34  35
ATOM     35  C   UNL A   1      40.660  28.477  30.784  1.00  0.00     0.031 A 
ATOM     36  C   UNL A   1      41.638  28.542  31.930  1.00  0.00     0.074 A 
ATOM     37  C   UNL A   1      39.734  29.449  30.652  1.00  0.00     0.049 A 
ATOM     38  N   UNL A   1      41.607  29.294  33.001  1.00  0.00    -0.248 NA
ATOM     39  C   UNL A   1      42.792  27.629  31.874  1.00  0.00     0.031 C 
ATOM     40  C   UNL A   1      38.751  29.547  29.571  1.00  0.00     0.029 A 
ATOM     41  N   UNL A   1      39.474  30.549  31.433  1.00  0.00    -0.354 N 
ATOM     42  C   UNL A   1      42.690  28.898  33.778  1.00  0.00     0.074 A 
ATOM     43  C   UNL A   1      43.370  27.849  33.047  1.00  0.00     0.031 C 
ATOM     44  C   UNL A   1      38.029  30.667  29.731  1.00  0.00     0.029 A 
ATOM     45  C   UNL A   1      38.434  31.320  30.971  1.00  0.00     0.049 A 
ATOM     46  H   UNL A   1      39.984  30.764  32.247  1.00  0.00     0.167 HD
ATOM     47  C   UNL A   1      43.074  29.359  34.993  1.00  0.00     0.037 A 
ATOM     48  C   UNL A   1      37.840  32.407  31.501  1.00  0.00     0.037 A 
ATOM     49  C   UNL A   1      42.439  30.452  35.682  1.00  0.00     0.049 A 
ATOM     50  C   UNL A   1      38.302  32.923  32.833  1.00  0.00     0.074 A 
ATOM     51  C   UNL A   1      42.738  30.978  36.927  1.00  0.00     0.029 A 
ATOM     52  N   UNL A   1      41.401  31.213  35.167  1.00  0.00    -0.354 N 
ATOM     53  N   UNL A   1      39.253  32.461  33.609  1.00  0.00    -0.248 NA
ATOM     54  C   UNL A   1      37.591  34.089  33.377  1.00  0.00     0.031 C 
ATOM     55  C   UNL A   1      41.874  32.053  37.169  1.00  0.00     0.029 A 
ATOM     56  C   UNL A   1      41.054  32.209  36.063  1.00  0.00     0.049 A 
ATOM     57  H   UNL A   1      40.973  31.066  34.292  1.00  0.00     0.167 HD
ATOM     58  C   UNL A   1      39.255  33.278  34.732  1.00  0.00     0.074 A 
ATOM     59  C   UNL A   1      38.224  34.275  34.529  1.00  0.00     0.031 C 
ATOM     60  C   UNL A   1      40.033  33.200  35.839  1.00  0.00     0.037 A 
BRANCH  47  61
ATOM     61  C   UNL A   1      44.211  28.655  35.677  1.00  0.00     0.058 A 
ATOM     62  C   UNL A   1      45.543  29.057  35.511  1.00  0.00     0.135 A 
ATOM     63  C   UNL A   1      43.952  27.576  36.540  1.00  0.00     0.135 A 
ATOM     64  F   UNL A   1      45.846  30.070  34.684  1.00  0.00    -0.206 F 
ATOM     65  C   UNL A   1      46.586  28.400  36.162  1.00  0.00     0.059 A 
ATOM     66  C   UNL A   1      44.975  26.918  37.214  1.00  0.00     0.059 A 
ATOM     67  F   UNL A   1      42.692  27.152  36.733  1.00  0.00    -0.206 F 
ATOM     68  C   UNL A   1      46.292  27.328  37.006  1.00  0.00     0.060 A 
BRANCH  68  69
ATOM     69  S   UNL A   1      47.646  26.478  37.846  1.00  0.00     0.124 S 
ATOM     70  O   UNL A   1      47.886  27.367  38.979  1.00  0.00    -0.237 OA
ATOM     71  O   UNL A   1      47.058  25.182  38.171  1.00  0.00    -0.237 OA
ATOM     72  O   UNL A   1      48.702  26.447  36.838  1.00  0.00    -0.744 OA
ENDBRANCH  68  69
ENDBRANCH  47  61
BRANCH  48  73
ATOM     73  C   UNL A   1      36.713  33.051  30.781  1.00  0.00     0.058 A 
ATOM     74  C   UNL A   1      35.386  32.828  31.175  1.00  0.00     0.135 A 
ATOM     75  C   UNL A   1      36.941  33.935  29.715  1.00  0.00     0.135 A 
ATOM     76  F   UNL A   1      35.119  31.984  32.183  1.00  0.00    -0.206 F 
ATOM     77  C   UNL A   1      34.322  33.460  30.538  1.00  0.00     0.059 A 
ATOM     78  C   UNL A   1      35.897  34.595  29.078  1.00  0.00     0.059 A 
ATOM     79  F   UNL A   1      38.196  34.192  29.312  1.00  0.00    -0.206 F 
ATOM     80  C   UNL A   1      34.589  34.347  29.494  1.00  0.00     0.060 A 
BRANCH  80  81
ATOM     81  S   UNL A   1      33.218  35.234  28.722  1.00  0.00     0.124 S 
ATOM     82  O   UNL A   1      32.558  34.165  27.982  1.00  0.00    -0.237 OA
ATOM     83  O   UNL A   1      32.491  35.756  29.876  1.00  0.00    -0.237 OA
ATOM     84  O   UNL A   1      33.894  36.244  27.912  1.00  0.00    -0.744 OA
ENDBRANCH  80  81
ENDBRANCH  48  73
BRANCH  60  85
ATOM     85  C   UNL A   1      39.815  34.231  36.905  1.00  0.00     0.058 A 
ATOM     86  C   UNL A   1      39.004  33.966  38.019  1.00  0.00     0.135 A 
ATOM     87  C   UNL A   1      40.463  35.473  36.838  1.00  0.00     0.135 A 
ATOM     88  F   UNL A   1      38.359  32.793  38.122  1.00  0.00    -0.206 F 
ATOM     89  C   UNL A   1      38.835  34.905  39.029  1.00  0.00     0.059 A 
ATOM     90  C   UNL A   1      40.318  36.422  37.844  1.00  0.00     0.059 A 
ATOM     91  F   UNL A   1      41.252  35.769  35.792  1.00  0.00    -0.206 F 
ATOM     92  C   UNL A   1      39.496  36.132  38.933  1.00  0.00     0.060 A 
BRANCH  92  93
ATOM     93  S   UNL A   1      39.306  37.332  40.269  1.00  0.00     0.124 S 
ATOM     94  O   UNL A   1      38.540  38.385  39.610  1.00  0.00    -0.237 OA
ATOM     95  O   UNL A   1      38.587  36.566  41.283  1.00  0.00    -0.237 OA
ATOM     96  O   UNL A   1      40.683  37.676  40.612  1.00  0.00    -0.744 OA
ENDBRANCH  92  93
ENDBRANCH  60  85
ENDBRANCH  34  35
ENDBRANCH  27  29
ENDBRANCH  26  27
ENDBRANCH  25  26
ENDBRANCH   1  25
TORSDOF 17
ENDMDL
