MODEL 1
REMARK VINA RESULT:     -13.7      0.000      0.000
REMARK SMILES CC[C@@](C)(NC(=O)Nc1c(C)cccc1Cl)C(=O)OCCOC(=O)c1ccc(-c2c3nc(c(-c4c(F)cc(S(=O)(=O)[O-])cc4F)c4ccc([nH]4)c(-c4c(F)cc(S(=O)(=O)[O-])cc4F)c4nc(c(-c5c(F)cc(S(=O)(=O)[O-])cc5F)c5ccc2[nH]5)C=C4)C=C3)cc1
REMARK SMILES IDX 21 1 20 2 19 3 17 4 18 5 3 6 4 7 2 8 1 9 5 10 6 11 7 13 8 14
REMARK SMILES IDX 9 16 10 17 15 18 11 19 12 20 14 21 16 22 13 23 22 24 23 25
REMARK SMILES IDX 24 26 25 27 26 28 90 29 27 30 89 31 28 32 29 33 30 34 83 35
REMARK SMILES IDX 31 36 88 37 82 38 84 39 32 40 87 41 81 42 80 43 33 45 67 46
REMARK SMILES IDX 46 47 66 48 47 49 50 50 65 51 85 52 48 53 49 54 64 56 86 57
REMARK SMILES IDX 51 58 34 59 35 60 44 61 36 62 37 63 43 64 45 65 38 66 39 67
REMARK SMILES IDX 40 68 41 69 42 70 68 71 69 72 78 73 70 74 71 75 77 76 79 77
REMARK SMILES IDX 72 78 73 79 74 80 75 81 76 82 52 83 53 84 62 85 54 86 55 87
REMARK SMILES IDX 61 88 63 89 56 90 57 91 58 92 59 93 60 94
REMARK H PARENT 5 12 8 15 84 44 50 55
REMARK Flexibility Score: inf
ROOT
ATOM      1  C   UNL A   1      36.497  22.591  24.365  1.00  0.00     0.275 C 
ENDROOT
BRANCH   1   2
ATOM      2  C   UNL A   1      35.546  21.054  24.640  1.00  0.00     0.274 C 
BRANCH   2   3
ATOM      3  O   UNL A   1      33.941  20.711  24.905  1.00  0.00    -0.460 OA
BRANCH   3   4
ATOM      4  C   UNL A   1      32.748  21.310  25.559  1.00  0.00     0.331 C 
ATOM      5  O   UNL A   1      31.626  20.824  25.381  1.00  0.00    -0.249 OA
BRANCH   4   6
ATOM      6  C   UNL A   1      32.876  22.873  26.440  1.00  0.00     0.136 C 
ATOM      7  C   UNL A   1      34.139  22.902  27.316  1.00  0.00     0.047 C 
BRANCH   6   8
ATOM      8  C   UNL A   1      32.637  24.472  26.126  1.00  0.00     0.037 C 
ATOM      9  C   UNL A   1      33.714  25.544  26.068  1.00  0.00     0.007 C 
ENDBRANCH   6   8
BRANCH   6  10
ATOM     10  N   UNL A   1      31.737  22.585  27.231  1.00  0.00    -0.322 N 
ATOM     11  C   UNL A   1      30.577  22.939  26.652  1.00  0.00     0.320 C 
ATOM     12  H   UNL A   1      31.789  22.165  28.120  1.00  0.00     0.166 HD
ATOM     13  O   UNL A   1      29.525  22.798  27.227  1.00  0.00    -0.248 OA
ATOM     14  N   UNL A   1      30.629  23.516  25.402  1.00  0.00    -0.306 N 
ATOM     15  H   UNL A   1      29.686  23.715  25.204  1.00  0.00     0.171 HD
BRANCH  14  16
ATOM     16  C   UNL A   1      31.345  24.000  24.189  1.00  0.00     0.064 A 
ATOM     17  C   UNL A   1      32.212  23.613  23.073  1.00  0.00    -0.026 A 
ATOM     18  C   UNL A   1      30.843  25.257  24.028  1.00  0.00     0.064 A 
ATOM     19  C   UNL A   1      32.583  22.299  22.390  1.00  0.00     0.046 C 
ATOM     20  C   UNL A   1      32.692  24.580  22.116  1.00  0.00     0.005 A 
ATOM     21  C   UNL A   1      31.047  26.009  22.804  1.00  0.00     0.023 A 
ATOM     22  Cl  UNL A   1      29.603  25.707  25.544  1.00  0.00    -0.082 Cl
ATOM     23  C   UNL A   1      32.048  25.753  21.919  1.00  0.00     0.002 A 
ENDBRANCH  14  16
ENDBRANCH   6  10
ENDBRANCH   4   6
ENDBRANCH   3   4
ENDBRANCH   2   3
ENDBRANCH   1   2
BRANCH   1  24
ATOM     24  O   UNL A   1      37.456  23.415  25.346  1.00  0.00    -0.458 OA
BRANCH  24  25
ATOM     25  C   UNL A   1      38.651  23.183  26.125  1.00  0.00     0.338 C 
ATOM     26  O   UNL A   1      39.206  22.089  26.081  1.00  0.00    -0.246 OA
BRANCH  25  27
ATOM     27  C   UNL A   1      39.394  24.459  27.052  1.00  0.00     0.060 A 
ATOM     28  C   UNL A   1      39.179  24.766  28.421  1.00  0.00     0.016 A 
ATOM     29  C   UNL A   1      40.162  25.491  26.507  1.00  0.00     0.016 A 
ATOM     30  C   UNL A   1      39.354  25.930  29.144  1.00  0.00     0.010 A 
ATOM     31  C   UNL A   1      40.556  26.668  27.297  1.00  0.00     0.010 A 
ATOM     32  C   UNL A   1      40.142  26.886  28.630  1.00  0.00    -0.014 A 
BRANCH  32  33
ATOM     33  C   UNL A   1      40.374  28.016  29.560  1.00  0.00     0.031 A 
ATOM     34  C   UNL A   1      41.543  27.950  30.476  1.00  0.00     0.074 A 
ATOM     35  C   UNL A   1      39.709  29.195  29.456  1.00  0.00     0.049 A 
ATOM     36  N   UNL A   1      41.718  28.550  31.616  1.00  0.00    -0.248 NA
ATOM     37  C   UNL A   1      42.670  27.104  30.045  1.00  0.00     0.031 C 
ATOM     38  C   UNL A   1      38.796  29.604  28.374  1.00  0.00     0.029 A 
ATOM     39  N   UNL A   1      39.674  30.271  30.314  1.00  0.00    -0.354 N 
ATOM     40  C   UNL A   1      42.909  28.047  32.114  1.00  0.00     0.074 A 
ATOM     41  C   UNL A   1      43.459  27.163  31.109  1.00  0.00     0.031 C 
ATOM     42  C   UNL A   1      38.226  30.778  28.686  1.00  0.00     0.029 A 
ATOM     43  C   UNL A   1      38.646  31.144  30.029  1.00  0.00     0.049 A 
ATOM     44  H   UNL A   1      40.314  30.403  31.051  1.00  0.00     0.167 HD
ATOM     45  C   UNL A   1      43.428  28.274  33.340  1.00  0.00     0.037 A 
ATOM     46  C   UNL A   1      38.021  32.043  30.816  1.00  0.00     0.037 A 
ATOM     47  C   UNL A   1      42.836  29.194  34.275  1.00  0.00     0.049 A 
ATOM     48  C   UNL A   1      38.492  32.181  32.237  1.00  0.00     0.074 A 
ATOM     49  C   UNL A   1      43.208  29.469  35.577  1.00  0.00     0.029 A 
ATOM     50  N   UNL A   1      41.744  30.006  33.991  1.00  0.00    -0.354 N 
ATOM     51  N   UNL A   1      39.484  31.563  32.836  1.00  0.00    -0.248 NA
ATOM     52  C   UNL A   1      37.752  33.110  33.099  1.00  0.00     0.031 C 
ATOM     53  C   UNL A   1      42.312  30.412  36.094  1.00  0.00     0.029 A 
ATOM     54  C   UNL A   1      41.419  30.772  35.095  1.00  0.00     0.049 A 
ATOM     55  H   UNL A   1      41.270  30.031  33.129  1.00  0.00     0.167 HD
ATOM     56  C   UNL A   1      39.510  32.054  34.136  1.00  0.00     0.074 A 
ATOM     57  C   UNL A   1      38.432  33.019  34.234  1.00  0.00     0.031 C 
ATOM     58  C   UNL A   1      40.351  31.741  35.154  1.00  0.00     0.037 A 
BRANCH  45  59
ATOM     59  C   UNL A   1      44.584  27.422  33.770  1.00  0.00     0.058 A 
ATOM     60  C   UNL A   1      44.423  26.148  34.334  1.00  0.00     0.135 A 
ATOM     61  C   UNL A   1      45.893  27.912  33.622  1.00  0.00     0.135 A 
ATOM     62  F   UNL A   1      43.194  25.645  34.529  1.00  0.00    -0.206 F 
ATOM     63  C   UNL A   1      45.518  25.400  34.756  1.00  0.00     0.059 A 
ATOM     64  C   UNL A   1      47.002  27.171  34.009  1.00  0.00     0.059 A 
ATOM     65  F   UNL A   1      46.103  29.133  33.105  1.00  0.00    -0.206 F 
ATOM     66  C   UNL A   1      46.804  25.920  34.590  1.00  0.00     0.060 A 
BRANCH  66  67
ATOM     67  S   UNL A   1      48.214  24.939  35.142  1.00  0.00     0.124 S 
ATOM     68  O   UNL A   1      49.075  25.966  35.721  1.00  0.00    -0.237 OA
ATOM     69  O   UNL A   1      47.600  24.017  36.092  1.00  0.00    -0.237 OA
ATOM     70  O   UNL A   1      48.708  24.329  33.912  1.00  0.00    -0.744 OA
ENDBRANCH  66  67
ENDBRANCH  45  59
BRANCH  46  71
ATOM     71  C   UNL A   1      36.820  32.775  30.321  1.00  0.00     0.058 A 
ATOM     72  C   UNL A   1      35.528  32.386  30.699  1.00  0.00     0.135 A 
ATOM     73  C   UNL A   1      36.938  33.888  29.467  1.00  0.00     0.135 A 
ATOM     74  F   UNL A   1      35.358  31.320  31.495  1.00  0.00    -0.206 F 
ATOM     75  C   UNL A   1      34.399  33.071  30.258  1.00  0.00     0.059 A 
ATOM     76  C   UNL A   1      35.826  34.606  29.034  1.00  0.00     0.059 A 
ATOM     77  F   UNL A   1      38.149  34.308  29.069  1.00  0.00    -0.206 F 
ATOM     78  C   UNL A   1      34.558  34.187  29.433  1.00  0.00     0.060 A 
BRANCH  78  79
ATOM     79  S   UNL A   1      33.089  35.112  28.934  1.00  0.00     0.124 S 
ATOM     80  O   UNL A   1      33.678  36.323  28.376  1.00  0.00    -0.237 OA
ATOM     81  O   UNL A   1      32.467  34.203  27.978  1.00  0.00    -0.237 OA
ATOM     82  O   UNL A   1      32.359  35.285  30.188  1.00  0.00    -0.744 OA
ENDBRANCH  78  79
ENDBRANCH  46  71
BRANCH  58  83
ATOM     83  C   UNL A   1      40.190  32.504  36.437  1.00  0.00     0.058 A 
ATOM     84  C   UNL A   1      41.030  33.573  36.778  1.00  0.00     0.135 A 
ATOM     85  C   UNL A   1      39.128  32.196  37.303  1.00  0.00     0.135 A 
ATOM     86  F   UNL A   1      42.066  33.900  35.989  1.00  0.00    -0.206 F 
ATOM     87  C   UNL A   1      40.833  34.302  37.946  1.00  0.00     0.059 A 
ATOM     88  C   UNL A   1      38.894  32.930  38.459  1.00  0.00     0.059 A 
ATOM     89  F   UNL A   1      38.291  31.186  37.014  1.00  0.00    -0.206 F 
ATOM     90  C   UNL A   1      39.758  33.977  38.776  1.00  0.00     0.060 A 
BRANCH  90  91
ATOM     91  S   UNL A   1      39.483  34.961  40.263  1.00  0.00     0.124 S 
ATOM     92  O   UNL A   1      38.571  34.106  41.017  1.00  0.00    -0.237 OA
ATOM     93  O   UNL A   1      40.831  35.086  40.808  1.00  0.00    -0.237 OA
ATOM     94  O   UNL A   1      38.903  36.199  39.751  1.00  0.00    -0.744 OA
ENDBRANCH  90  91
ENDBRANCH  58  83
ENDBRANCH  32  33
ENDBRANCH  25  27
ENDBRANCH  24  25
ENDBRANCH   1  24
TORSDOF 17
ENDMDL
MODEL 2
REMARK VINA RESULT:     -13.6      5.281     10.639
REMARK SMILES CC[C@@](C)(NC(=O)Nc1c(C)cccc1Cl)C(=O)OCCOC(=O)c1ccc(-c2c3nc(c(-c4c(F)cc(S(=O)(=O)[O-])cc4F)c4ccc([nH]4)c(-c4c(F)cc(S(=O)(=O)[O-])cc4F)c4nc(c(-c5c(F)cc(S(=O)(=O)[O-])cc5F)c5ccc2[nH]5)C=C4)C=C3)cc1
REMARK SMILES IDX 21 1 20 2 19 3 17 4 18 5 3 6 4 7 2 8 1 9 5 10 6 11 7 13 8 14
REMARK SMILES IDX 9 16 10 17 15 18 11 19 12 20 14 21 16 22 13 23 22 24 23 25
REMARK SMILES IDX 24 26 25 27 26 28 90 29 27 30 89 31 28 32 29 33 30 34 83 35
REMARK SMILES IDX 31 36 88 37 82 38 84 39 32 40 87 41 81 42 80 43 33 45 67 46
REMARK SMILES IDX 46 47 66 48 47 49 50 50 65 51 85 52 48 53 49 54 64 56 86 57
REMARK SMILES IDX 51 58 34 59 35 60 44 61 36 62 37 63 43 64 45 65 38 66 39 67
REMARK SMILES IDX 40 68 41 69 42 70 68 71 69 72 78 73 70 74 71 75 77 76 79 77
REMARK SMILES IDX 72 78 73 79 74 80 75 81 76 82 52 83 53 84 62 85 54 86 55 87
REMARK SMILES IDX 61 88 63 89 56 90 57 91 58 92 59 93 60 94
REMARK H PARENT 5 12 8 15 84 44 50 55
REMARK Flexibility Score: inf
ROOT
ATOM      1  C   UNL A   1      32.055  28.462  27.442  1.00  0.00     0.275 C 
ENDROOT
BRANCH   1   2
ATOM      2  C   UNL A   1      30.943  27.474  26.380  1.00  0.00     0.274 C 
BRANCH   2   3
ATOM      3  O   UNL A   1      30.994  25.934  25.756  1.00  0.00    -0.460 OA
BRANCH   3   4
ATOM      4  C   UNL A   1      31.050  25.247  24.439  1.00  0.00     0.331 C 
ATOM      5  O   UNL A   1      30.837  25.874  23.395  1.00  0.00    -0.249 OA
BRANCH   4   6
ATOM      6  C   UNL A   1      31.210  23.457  24.347  1.00  0.00     0.136 C 
ATOM      7  C   UNL A   1      30.628  22.927  23.027  1.00  0.00     0.047 C 
BRANCH   6   8
ATOM      8  C   UNL A   1      32.339  22.315  24.709  1.00  0.00     0.037 C 
ATOM      9  C   UNL A   1      32.656  21.076  23.887  1.00  0.00     0.007 C 
ENDBRANCH   6   8
BRANCH   6  10
ATOM     10  N   UNL A   1      30.288  23.263  25.403  1.00  0.00    -0.322 N 
ATOM     11  C   UNL A   1      30.848  23.320  26.624  1.00  0.00     0.320 C 
ATOM     12  H   UNL A   1      29.327  23.103  25.258  1.00  0.00     0.166 HD
ATOM     13  O   UNL A   1      30.193  23.127  27.619  1.00  0.00    -0.248 OA
ATOM     14  N   UNL A   1      32.203  23.555  26.701  1.00  0.00    -0.306 N 
ATOM     15  H   UNL A   1      32.385  23.520  27.667  1.00  0.00     0.171 HD
BRANCH  14  16
ATOM     16  C   UNL A   1      33.541  23.834  26.110  1.00  0.00     0.064 A 
ATOM     17  C   UNL A   1      34.311  24.750  25.264  1.00  0.00    -0.026 A 
ATOM     18  C   UNL A   1      34.345  22.946  26.758  1.00  0.00     0.064 A 
ATOM     19  C   UNL A   1      34.140  26.189  24.782  1.00  0.00     0.046 C 
ATOM     20  C   UNL A   1      35.697  24.504  24.948  1.00  0.00     0.005 A 
ATOM     21  C   UNL A   1      35.792  23.047  26.706  1.00  0.00     0.023 A 
ATOM     22  Cl  UNL A   1      33.248  21.768  27.961  1.00  0.00    -0.082 Cl
ATOM     23  C   UNL A   1      36.467  23.713  25.730  1.00  0.00     0.002 A 
ENDBRANCH  14  16
ENDBRANCH   6  10
ENDBRANCH   4   6
ENDBRANCH   3   4
ENDBRANCH   2   3
ENDBRANCH   1   2
BRANCH   1  24
ATOM     24  O   UNL A   1      33.546  28.988  27.191  1.00  0.00    -0.458 OA
BRANCH  24  25
ATOM     25  C   UNL A   1      34.341  30.153  27.506  1.00  0.00     0.338 C 
ATOM     26  O   UNL A   1      33.840  31.271  27.437  1.00  0.00    -0.246 OA
BRANCH  25  27
ATOM     27  C   UNL A   1      35.977  30.006  28.088  1.00  0.00     0.060 A 
ATOM     28  C   UNL A   1      37.173  30.082  27.326  1.00  0.00     0.016 A 
ATOM     29  C   UNL A   1      36.326  29.586  29.374  1.00  0.00     0.016 A 
ATOM     30  C   UNL A   1      38.444  29.592  27.554  1.00  0.00     0.010 A 
ATOM     31  C   UNL A   1      37.712  29.247  29.732  1.00  0.00     0.010 A 
ATOM     32  C   UNL A   1      38.780  29.248  28.806  1.00  0.00    -0.014 A 
BRANCH  32  33
ATOM     33  C   UNL A   1      40.208  28.884  28.952  1.00  0.00     0.031 A 
ATOM     34  C   UNL A   1      41.160  29.927  29.417  1.00  0.00     0.074 A 
ATOM     35  C   UNL A   1      40.643  27.599  28.898  1.00  0.00     0.049 A 
ATOM     36  N   UNL A   1      42.444  30.000  29.223  1.00  0.00    -0.248 NA
ATOM     37  C   UNL A   1      40.593  31.026  30.217  1.00  0.00     0.031 C 
ATOM     38  C   UNL A   1      39.810  26.385  28.842  1.00  0.00     0.029 A 
ATOM     39  N   UNL A   1      41.924  27.099  28.845  1.00  0.00    -0.354 N 
ATOM     40  C   UNL A   1      42.823  31.225  29.750  1.00  0.00     0.074 A 
ATOM     41  C   UNL A   1      41.649  31.818  30.353  1.00  0.00     0.031 C 
ATOM     42  C   UNL A   1      40.593  25.311  28.661  1.00  0.00     0.029 A 
ATOM     43  C   UNL A   1      41.960  25.770  28.479  1.00  0.00     0.049 A 
ATOM     44  H   UNL A   1      42.727  27.632  29.047  1.00  0.00     0.167 HD
ATOM     45  C   UNL A   1      44.041  31.800  29.653  1.00  0.00     0.037 A 
ATOM     46  C   UNL A   1      42.952  25.044  27.927  1.00  0.00     0.037 A 
ATOM     47  C   UNL A   1      45.170  31.131  29.062  1.00  0.00     0.049 A 
ATOM     48  C   UNL A   1      44.264  25.730  27.666  1.00  0.00     0.074 A 
ATOM     49  C   UNL A   1      46.442  31.616  28.830  1.00  0.00     0.029 A 
ATOM     50  N   UNL A   1      45.158  29.812  28.623  1.00  0.00    -0.354 N 
ATOM     51  N   UNL A   1      44.614  26.965  27.943  1.00  0.00    -0.248 NA
ATOM     52  C   UNL A   1      45.307  24.945  26.996  1.00  0.00     0.031 C 
ATOM     53  C   UNL A   1      47.184  30.606  28.206  1.00  0.00     0.029 A 
ATOM     54  C   UNL A   1      46.394  29.470  28.108  1.00  0.00     0.049 A 
ATOM     55  H   UNL A   1      44.382  29.210  28.671  1.00  0.00     0.167 HD
ATOM     56  C   UNL A   1      45.928  27.096  27.514  1.00  0.00     0.074 A 
ATOM     57  C   UNL A   1      46.310  25.812  26.956  1.00  0.00     0.031 C 
ATOM     58  C   UNL A   1      46.749  28.175  27.579  1.00  0.00     0.037 A 
BRANCH  45  59
ATOM     59  C   UNL A   1      44.160  33.238  30.058  1.00  0.00     0.058 A 
ATOM     60  C   UNL A   1      44.567  33.637  31.339  1.00  0.00     0.135 A 
ATOM     61  C   UNL A   1      43.838  34.244  29.130  1.00  0.00     0.135 A 
ATOM     62  F   UNL A   1      44.853  32.718  32.275  1.00  0.00    -0.206 F 
ATOM     63  C   UNL A   1      44.630  34.982  31.693  1.00  0.00     0.059 A 
ATOM     64  C   UNL A   1      43.922  35.593  29.452  1.00  0.00     0.059 A 
ATOM     65  F   UNL A   1      43.425  33.917  27.895  1.00  0.00    -0.206 F 
ATOM     66  C   UNL A   1      44.305  35.953  30.742  1.00  0.00     0.060 A 
BRANCH  66  67
ATOM     67  S   UNL A   1      44.391  37.692  31.214  1.00  0.00     0.124 S 
ATOM     68  O   UNL A   1      45.832  37.923  31.216  1.00  0.00    -0.237 OA
ATOM     69  O   UNL A   1      43.647  38.344  30.142  1.00  0.00    -0.237 OA
ATOM     70  O   UNL A   1      43.750  37.722  32.525  1.00  0.00    -0.744 OA
ENDBRANCH  66  67
ENDBRANCH  45  59
BRANCH  46  71
ATOM     71  C   UNL A   1      42.704  23.645  27.474  1.00  0.00     0.058 A 
ATOM     72  C   UNL A   1      42.532  23.344  26.116  1.00  0.00     0.135 A 
ATOM     73  C   UNL A   1      42.643  22.577  28.387  1.00  0.00     0.135 A 
ATOM     74  F   UNL A   1      42.560  24.328  25.204  1.00  0.00    -0.206 F 
ATOM     75  C   UNL A   1      42.315  22.040  25.677  1.00  0.00     0.059 A 
ATOM     76  C   UNL A   1      42.455  21.261  27.971  1.00  0.00     0.059 A 
ATOM     77  F   UNL A   1      42.799  22.802  29.701  1.00  0.00    -0.206 F 
ATOM     78  C   UNL A   1      42.288  21.003  26.612  1.00  0.00     0.060 A 
BRANCH  78  79
ATOM     79  S   UNL A   1      42.087  19.308  26.020  1.00  0.00     0.124 S 
ATOM     80  O   UNL A   1      40.651  19.249  25.775  1.00  0.00    -0.237 OA
ATOM     81  O   UNL A   1      42.938  19.297  24.835  1.00  0.00    -0.237 OA
ATOM     82  O   UNL A   1      42.571  18.502  27.137  1.00  0.00    -0.744 OA
ENDBRANCH  78  79
ENDBRANCH  46  71
BRANCH  58  83
ATOM     83  C   UNL A   1      48.163  27.993  27.107  1.00  0.00     0.058 A 
ATOM     84  C   UNL A   1      49.213  27.708  27.992  1.00  0.00     0.135 A 
ATOM     85  C   UNL A   1      48.450  28.037  25.733  1.00  0.00     0.135 A 
ATOM     86  F   UNL A   1      48.991  27.666  29.315  1.00  0.00    -0.206 F 
ATOM     87  C   UNL A   1      50.506  27.490  27.530  1.00  0.00     0.059 A 
ATOM     88  C   UNL A   1      49.729  27.792  25.248  1.00  0.00     0.059 A 
ATOM     89  F   UNL A   1      47.476  28.297  24.846  1.00  0.00    -0.206 F 
ATOM     90  C   UNL A   1      50.752  27.528  26.156  1.00  0.00     0.060 A 
BRANCH  90  91
ATOM     91  S   UNL A   1      52.425  27.195  25.566  1.00  0.00     0.124 S 
ATOM     92  O   UNL A   1      52.161  26.552  24.282  1.00  0.00    -0.237 OA
ATOM     93  O   UNL A   1      53.004  28.533  25.498  1.00  0.00    -0.237 OA
ATOM     94  O   UNL A   1      52.985  26.328  26.599  1.00  0.00    -0.744 OA
ENDBRANCH  90  91
ENDBRANCH  58  83
ENDBRANCH  32  33
ENDBRANCH  25  27
ENDBRANCH  24  25
ENDBRANCH   1  24
TORSDOF 17
ENDMDL
MODEL 3
REMARK VINA RESULT:     -13.5      5.102     10.452
REMARK SMILES CC[C@@](C)(NC(=O)Nc1c(C)cccc1Cl)C(=O)OCCOC(=O)c1ccc(-c2c3nc(c(-c4c(F)cc(S(=O)(=O)[O-])cc4F)c4ccc([nH]4)c(-c4c(F)cc(S(=O)(=O)[O-])cc4F)c4nc(c(-c5c(F)cc(S(=O)(=O)[O-])cc5F)c5ccc2[nH]5)C=C4)C=C3)cc1
REMARK SMILES IDX 21 1 20 2 19 3 17 4 18 5 3 6 4 7 2 8 1 9 5 10 6 11 7 13 8 14
REMARK SMILES IDX 9 16 10 17 15 18 11 19 12 20 14 21 16 22 13 23 22 24 23 25
REMARK SMILES IDX 24 26 25 27 26 28 90 29 27 30 89 31 28 32 29 33 30 34 83 35
REMARK SMILES IDX 31 36 88 37 82 38 84 39 32 40 87 41 81 42 80 43 33 45 67 46
REMARK SMILES IDX 46 47 66 48 47 49 50 50 65 51 85 52 48 53 49 54 64 56 86 57
REMARK SMILES IDX 51 58 34 59 35 60 44 61 36 62 37 63 43 64 45 65 38 66 39 67
REMARK SMILES IDX 40 68 41 69 42 70 68 71 69 72 78 73 70 74 71 75 77 76 79 77
REMARK SMILES IDX 72 78 73 79 74 80 75 81 76 82 52 83 53 84 62 85 54 86 55 87
REMARK SMILES IDX 61 88 63 89 56 90 57 91 58 92 59 93 60 94
REMARK H PARENT 5 12 8 15 84 44 50 55
REMARK Flexibility Score: inf
ROOT
ATOM      1  C   UNL A   1      33.807  27.832  25.928  1.00  0.00     0.275 C 
ENDROOT
BRANCH   1   2
ATOM      2  C   UNL A   1      33.414  27.423  24.190  1.00  0.00     0.274 C 
BRANCH   2   3
ATOM      3  O   UNL A   1      32.907  26.049  23.404  1.00  0.00    -0.460 OA
BRANCH   3   4
ATOM      4  C   UNL A   1      33.437  24.726  22.981  1.00  0.00     0.331 C 
ATOM      5  O   UNL A   1      34.570  24.630  22.497  1.00  0.00    -0.249 OA
BRANCH   4   6
ATOM      6  C   UNL A   1      32.370  23.277  22.959  1.00  0.00     0.136 C 
ATOM      7  C   UNL A   1      32.547  22.491  21.650  1.00  0.00     0.047 C 
BRANCH   6   8
ATOM      8  C   UNL A   1      31.894  22.099  24.007  1.00  0.00     0.037 C 
ATOM      9  C   UNL A   1      32.281  20.631  23.940  1.00  0.00     0.007 C 
ENDBRANCH   6   8
BRANCH   6  10
ATOM     10  N   UNL A   1      31.199  24.070  22.901  1.00  0.00    -0.322 N 
ATOM     11  C   UNL A   1      30.814  24.549  24.097  1.00  0.00     0.320 C 
ATOM     12  H   UNL A   1      30.713  24.254  22.065  1.00  0.00     0.166 HD
ATOM     13  O   UNL A   1      29.806  25.204  24.210  1.00  0.00    -0.248 OA
ATOM     14  N   UNL A   1      31.577  24.227  25.197  1.00  0.00    -0.306 N 
ATOM     15  H   UNL A   1      31.093  24.650  25.941  1.00  0.00     0.171 HD
BRANCH  14  16
ATOM     16  C   UNL A   1      32.741  23.583  25.866  1.00  0.00     0.064 A 
ATOM     17  C   UNL A   1      34.203  23.536  25.948  1.00  0.00    -0.026 A 
ATOM     18  C   UNL A   1      32.155  22.890  26.883  1.00  0.00     0.064 A 
ATOM     19  C   UNL A   1      35.345  24.464  25.539  1.00  0.00     0.046 C 
ATOM     20  C   UNL A   1      34.885  22.609  26.818  1.00  0.00     0.005 A 
ATOM     21  C   UNL A   1      32.933  22.331  27.974  1.00  0.00     0.023 A 
ATOM     22  Cl  UNL A   1      30.155  23.051  26.768  1.00  0.00    -0.082 Cl
ATOM     23  C   UNL A   1      34.266  22.071  27.893  1.00  0.00     0.002 A 
ENDBRANCH  14  16
ENDBRANCH   6  10
ENDBRANCH   4   6
ENDBRANCH   3   4
ENDBRANCH   2   3
ENDBRANCH   1   2
BRANCH   1  24
ATOM     24  O   UNL A   1      33.459  29.128  26.801  1.00  0.00    -0.458 OA
BRANCH  24  25
ATOM     25  C   UNL A   1      34.157  30.261  27.365  1.00  0.00     0.338 C 
ATOM     26  O   UNL A   1      33.583  31.341  27.470  1.00  0.00    -0.246 OA
BRANCH  25  27
ATOM     27  C   UNL A   1      35.771  30.108  28.004  1.00  0.00     0.060 A 
ATOM     28  C   UNL A   1      36.994  30.198  27.287  1.00  0.00     0.016 A 
ATOM     29  C   UNL A   1      36.075  29.670  29.295  1.00  0.00     0.016 A 
ATOM     30  C   UNL A   1      38.257  29.707  27.553  1.00  0.00     0.010 A 
ATOM     31  C   UNL A   1      37.448  29.327  29.698  1.00  0.00     0.010 A 
ATOM     32  C   UNL A   1      38.548  29.344  28.811  1.00  0.00    -0.014 A 
BRANCH  32  33
ATOM     33  C   UNL A   1      39.971  28.981  29.002  1.00  0.00     0.031 A 
ATOM     34  C   UNL A   1      40.906  30.021  29.505  1.00  0.00     0.074 A 
ATOM     35  C   UNL A   1      40.408  27.696  28.956  1.00  0.00     0.049 A 
ATOM     36  N   UNL A   1      42.195  30.096  29.354  1.00  0.00    -0.248 NA
ATOM     37  C   UNL A   1      40.312  31.116  30.291  1.00  0.00     0.031 C 
ATOM     38  C   UNL A   1      39.579  26.482  28.866  1.00  0.00     0.029 A 
ATOM     39  N   UNL A   1      41.691  27.197  28.944  1.00  0.00    -0.354 N 
ATOM     40  C   UNL A   1      42.556  31.319  29.900  1.00  0.00     0.074 A 
ATOM     41  C   UNL A   1      41.361  31.908  30.467  1.00  0.00     0.031 C 
ATOM     42  C   UNL A   1      40.368  25.409  28.706  1.00  0.00     0.029 A 
ATOM     43  C   UNL A   1      41.741  25.870  28.573  1.00  0.00     0.049 A 
ATOM     44  H   UNL A   1      42.486  27.729  29.176  1.00  0.00     0.167 HD
ATOM     45  C   UNL A   1      43.776  31.895  29.847  1.00  0.00     0.037 A 
ATOM     46  C   UNL A   1      42.751  25.147  28.050  1.00  0.00     0.037 A 
ATOM     47  C   UNL A   1      44.925  31.230  29.291  1.00  0.00     0.049 A 
ATOM     48  C   UNL A   1      44.071  25.836  27.836  1.00  0.00     0.074 A 
ATOM     49  C   UNL A   1      46.204  31.717  29.104  1.00  0.00     0.029 A 
ATOM     50  N   UNL A   1      44.928  29.914  28.844  1.00  0.00    -0.354 N 
ATOM     51  N   UNL A   1      44.410  27.070  28.132  1.00  0.00    -0.248 NA
ATOM     52  C   UNL A   1      45.136  25.055  27.198  1.00  0.00     0.031 C 
ATOM     53  C   UNL A   1      46.967  30.711  28.500  1.00  0.00     0.029 A 
ATOM     54  C   UNL A   1      46.182  29.575  28.369  1.00  0.00     0.049 A 
ATOM     55  H   UNL A   1      44.152  29.310  28.863  1.00  0.00     0.167 HD
ATOM     56  C   UNL A   1      45.738  27.204  27.747  1.00  0.00     0.074 A 
ATOM     57  C   UNL A   1      46.139  25.923  27.196  1.00  0.00     0.031 C 
ATOM     58  C   UNL A   1      46.555  28.282  27.846  1.00  0.00     0.037 A 
BRANCH  45  59
ATOM     59  C   UNL A   1      43.880  33.331  30.263  1.00  0.00     0.058 A 
ATOM     60  C   UNL A   1      43.681  34.398  29.376  1.00  0.00     0.135 A 
ATOM     61  C   UNL A   1      44.206  33.639  31.595  1.00  0.00     0.135 A 
ATOM     62  F   UNL A   1      43.401  34.161  28.085  1.00  0.00    -0.206 F 
ATOM     63  C   UNL A   1      43.822  35.720  29.789  1.00  0.00     0.059 A 
ATOM     64  C   UNL A   1      44.324  34.952  32.038  1.00  0.00     0.059 A 
ATOM     65  F   UNL A   1      44.425  32.656  32.483  1.00  0.00    -0.206 F 
ATOM     66  C   UNL A   1      44.145  35.986  31.122  1.00  0.00     0.060 A 
BRANCH  66  67
ATOM     67  S   UNL A   1      44.326  37.704  31.644  1.00  0.00     0.124 S 
ATOM     68  O   UNL A   1      45.775  37.819  31.770  1.00  0.00    -0.237 OA
ATOM     69  O   UNL A   1      43.727  38.433  30.531  1.00  0.00    -0.237 OA
ATOM     70  O   UNL A   1      43.582  37.760  32.898  1.00  0.00    -0.744 OA
ENDBRANCH  66  67
ENDBRANCH  45  59
BRANCH  46  71
ATOM     71  C   UNL A   1      42.519  23.751  27.582  1.00  0.00     0.058 A 
ATOM     72  C   UNL A   1      42.306  23.468  26.226  1.00  0.00     0.135 A 
ATOM     73  C   UNL A   1      42.516  22.666  28.478  1.00  0.00     0.135 A 
ATOM     74  F   UNL A   1      42.279  24.468  25.331  1.00  0.00    -0.206 F 
ATOM     75  C   UNL A   1      42.104  22.167  25.772  1.00  0.00     0.059 A 
ATOM     76  C   UNL A   1      42.344  21.353  28.045  1.00  0.00     0.059 A 
ATOM     77  F   UNL A   1      42.713  22.873  29.789  1.00  0.00    -0.206 F 
ATOM     78  C   UNL A   1      42.135  21.114  26.689  1.00  0.00     0.060 A 
BRANCH  78  79
ATOM     79  S   UNL A   1      41.952  19.425  26.074  1.00  0.00     0.124 S 
ATOM     80  O   UNL A   1      42.836  19.435  24.915  1.00  0.00    -0.237 OA
ATOM     81  O   UNL A   1      42.402  18.636  27.216  1.00  0.00    -0.237 OA
ATOM     82  O   UNL A   1      40.525  19.328  25.780  1.00  0.00    -0.744 OA
ENDBRANCH  78  79
ENDBRANCH  46  71
BRANCH  58  83
ATOM     83  C   UNL A   1      47.984  28.104  27.420  1.00  0.00     0.058 A 
ATOM     84  C   UNL A   1      48.389  28.262  26.087  1.00  0.00     0.135 A 
ATOM     85  C   UNL A   1      48.970  27.838  28.384  1.00  0.00     0.135 A 
ATOM     86  F   UNL A   1      47.481  28.507  25.128  1.00  0.00    -0.206 F 
ATOM     87  C   UNL A   1      49.725  28.146  25.720  1.00  0.00     0.059 A 
ATOM     88  C   UNL A   1      50.315  27.747  28.043  1.00  0.00     0.059 A 
ATOM     89  F   UNL A   1      48.632  27.687  29.674  1.00  0.00    -0.206 F 
ATOM     90  C   UNL A   1      50.680  27.894  26.707  1.00  0.00     0.060 A 
BRANCH  90  91
ATOM     91  S   UNL A   1      52.417  27.793  26.226  1.00  0.00     0.124 S 
ATOM     92  O   UNL A   1      53.088  28.178  27.464  1.00  0.00    -0.237 OA
ATOM     93  O   UNL A   1      52.553  26.392  25.840  1.00  0.00    -0.237 OA
ATOM     94  O   UNL A   1      52.524  28.752  25.130  1.00  0.00    -0.744 OA
ENDBRANCH  90  91
ENDBRANCH  58  83
ENDBRANCH  32  33
ENDBRANCH  25  27
ENDBRANCH  24  25
ENDBRANCH   1  24
TORSDOF 17
ENDMDL
