MODEL 1
REMARK VINA RESULT:     -10.8      0.000      0.000
REMARK SMILES Cc1c(CC(=O)OCCOC(=O)c2ccc(-c3c4nc(c(-c5c(F)cc(S(=O)(=O)[O-])cc5F)c5ccc([nH]5)c(-c5c(F)cc(S(=O)(=O)[O-])cc5F)c5nc(c(-c6c(F)cc(S(=O)(=O)[O-])cc6F)c6ccc3[nH]6)C=C5)C=C4)cc2)cc(-c2ccc(S(C)(=O)=O)cc2)n1-c1ccccc1
REMARK SMILES IDX 8 1 7 2 5 3 6 4 4 5 3 6 1 7 2 8 91 9 79 10 80 11 92 12 93 13
REMARK SMILES IDX 97 14 94 15 96 16 95 17 81 18 82 19 90 20 83 21 89 22 84 23
REMARK SMILES IDX 85 24 86 25 87 26 88 27 9 28 10 29 11 30 12 31 13 32 14 33
REMARK SMILES IDX 78 34 15 35 77 36 16 37 17 38 18 39 71 40 19 41 76 42 70 43
REMARK SMILES IDX 72 44 20 45 75 46 69 47 68 48 21 50 55 51 34 52 54 53 35 54
REMARK SMILES IDX 38 55 53 56 73 57 36 58 37 59 52 61 74 62 39 63 22 64 23 65
REMARK SMILES IDX 32 66 24 67 25 68 31 69 33 70 26 71 27 72 28 73 29 74 30 75
REMARK SMILES IDX 56 76 57 77 66 78 58 79 59 80 65 81 67 82 60 83 61 84 62 85
REMARK SMILES IDX 63 86 64 87 40 88 41 89 50 90 42 91 43 92 49 93 51 94 44 95
REMARK SMILES IDX 45 96 46 97 47 98 48 99
REMARK H PARENT 72 49 38 60
REMARK Flexibility Score: inf
ROOT
ATOM      1  C   UNL A   1      44.061  20.713  25.376  1.00  0.00     0.274 C 
ENDROOT
BRANCH   1   2
ATOM      2  O   UNL A   1      43.075  19.650  25.235  1.00  0.00    -0.462 OA
BRANCH   2   3
ATOM      3  C   UNL A   1      42.766  18.907  26.331  1.00  0.00     0.310 C 
ATOM      4  O   UNL A   1      43.205  17.773  26.523  1.00  0.00    -0.252 OA
BRANCH   3   5
ATOM      5  C   UNL A   1      41.900  19.596  27.382  1.00  0.00     0.160 C 
BRANCH   5   6
ATOM      6  C   UNL A   1      41.116  20.837  27.034  1.00  0.00    -0.015 A 
ATOM      7  C   UNL A   1      42.274  22.608  28.548  1.00  0.00     0.065 C 
ATOM      8  C   UNL A   1      41.299  22.119  27.523  1.00  0.00     0.024 A 
ATOM      9  N   UNL A   1      40.337  22.954  26.974  1.00  0.00    -0.314 N 
ATOM     10  C   UNL A   1      39.886  20.884  26.298  1.00  0.00     0.033 A 
ATOM     11  C   UNL A   1      39.377  22.178  26.331  1.00  0.00     0.053 A 
BRANCH   9  12
ATOM     12  C   UNL A   1      40.332  24.360  27.109  1.00  0.00     0.046 A 
ATOM     13  C   UNL A   1      40.908  25.165  26.124  1.00  0.00     0.026 A 
ATOM     14  C   UNL A   1      39.686  24.920  28.218  1.00  0.00     0.026 A 
ATOM     15  C   UNL A   1      40.804  26.550  26.239  1.00  0.00     0.002 A 
ATOM     16  C   UNL A   1      39.616  26.305  28.338  1.00  0.00     0.002 A 
ATOM     17  C   UNL A   1      40.161  27.116  27.343  1.00  0.00     0.000 A 
ENDBRANCH   9  12
BRANCH  11  18
ATOM     18  C   UNL A   1      38.118  22.698  25.777  1.00  0.00    -0.001 A 
ATOM     19  C   UNL A   1      37.653  22.288  24.518  1.00  0.00     0.011 A 
ATOM     20  C   UNL A   1      37.379  23.655  26.490  1.00  0.00     0.011 A 
ATOM     21  C   UNL A   1      36.489  22.838  23.968  1.00  0.00     0.021 A 
ATOM     22  C   UNL A   1      36.216  24.213  25.946  1.00  0.00     0.021 A 
ATOM     23  C   UNL A   1      35.782  23.809  24.683  1.00  0.00     0.067 A 
BRANCH  23  24
ATOM     24  S   UNL A   1      34.297  24.482  23.973  1.00  0.00     0.175 S 
ATOM     25  C   UNL A   1      32.979  23.614  24.783  1.00  0.00     0.163 C 
ATOM     26  O   UNL A   1      34.232  25.865  24.336  1.00  0.00    -0.224 OA
ATOM     27  O   UNL A   1      34.266  24.080  22.558  1.00  0.00    -0.224 OA
ENDBRANCH  23  24
ENDBRANCH  11  18
ENDBRANCH   5   6
ENDBRANCH   3   5
ENDBRANCH   2   3
ENDBRANCH   1   2
BRANCH   1  28
ATOM     28  C   UNL A   1      43.649  22.003  24.589  1.00  0.00     0.275 C 
BRANCH  28  29
ATOM     29  O   UNL A   1      43.702  23.359  25.233  1.00  0.00    -0.458 OA
BRANCH  29  30
ATOM     30  C   UNL A   1      44.737  24.236  24.956  1.00  0.00     0.338 C 
ATOM     31  O   UNL A   1      45.561  23.995  24.082  1.00  0.00    -0.246 OA
BRANCH  30  32
ATOM     32  C   UNL A   1      44.825  25.568  25.811  1.00  0.00     0.060 A 
ATOM     33  C   UNL A   1      44.396  25.700  27.148  1.00  0.00     0.016 A 
ATOM     34  C   UNL A   1      45.116  26.810  25.280  1.00  0.00     0.016 A 
ATOM     35  C   UNL A   1      44.292  27.011  27.922  1.00  0.00     0.010 A 
ATOM     36  C   UNL A   1      44.985  28.097  26.053  1.00  0.00     0.010 A 
ATOM     37  C   UNL A   1      44.542  28.335  27.429  1.00  0.00    -0.014 A 
BRANCH  37  38
ATOM     38  C   UNL A   1      43.842  29.806  28.242  1.00  0.00     0.031 A 
ATOM     39  C   UNL A   1      45.044  30.511  28.851  1.00  0.00     0.074 A 
ATOM     40  C   UNL A   1      42.723  30.522  28.912  1.00  0.00     0.049 A 
ATOM     41  N   UNL A   1      45.137  30.417  30.143  1.00  0.00    -0.248 NA
ATOM     42  C   UNL A   1      46.354  30.615  28.221  1.00  0.00     0.031 C 
ATOM     43  C   UNL A   1      42.884  31.844  29.694  1.00  0.00     0.029 A 
ATOM     44  N   UNL A   1      41.318  30.331  29.264  1.00  0.00    -0.354 N 
ATOM     45  C   UNL A   1      46.187  29.570  30.250  1.00  0.00     0.074 A 
ATOM     46  C   UNL A   1      47.060  29.912  29.120  1.00  0.00     0.031 C 
ATOM     47  C   UNL A   1      41.765  32.289  30.319  1.00  0.00     0.029 A 
ATOM     48  C   UNL A   1      40.596  31.443  30.038  1.00  0.00     0.049 A 
ATOM     49  H   UNL A   1      40.845  29.507  29.010  1.00  0.00     0.167 HD
ATOM     50  C   UNL A   1      46.001  28.381  30.876  1.00  0.00     0.037 A 
ATOM     51  C   UNL A   1      39.582  31.448  31.035  1.00  0.00     0.037 A 
ATOM     52  C   UNL A   1      44.599  27.986  31.146  1.00  0.00     0.049 A 
ATOM     53  C   UNL A   1      39.767  30.211  31.793  1.00  0.00     0.074 A 
ATOM     54  C   UNL A   1      43.455  27.707  30.419  1.00  0.00     0.029 A 
ATOM     55  N   UNL A   1      44.107  27.973  32.435  1.00  0.00    -0.354 N 
ATOM     56  N   UNL A   1      40.258  30.087  32.986  1.00  0.00    -0.248 NA
ATOM     57  C   UNL A   1      39.365  28.984  31.111  1.00  0.00     0.031 C 
ATOM     58  C   UNL A   1      42.454  27.165  31.220  1.00  0.00     0.029 A 
ATOM     59  C   UNL A   1      42.722  27.783  32.411  1.00  0.00     0.049 A 
ATOM     60  H   UNL A   1      44.650  28.083  33.250  1.00  0.00     0.167 HD
ATOM     61  C   UNL A   1      40.597  28.748  33.016  1.00  0.00     0.074 A 
ATOM     62  C   UNL A   1      39.798  28.100  31.993  1.00  0.00     0.031 C 
ATOM     63  C   UNL A   1      41.876  28.446  33.358  1.00  0.00     0.037 A 
BRANCH  50  64
ATOM     64  C   UNL A   1      47.178  27.627  31.390  1.00  0.00     0.058 A 
ATOM     65  C   UNL A   1      47.628  27.703  32.725  1.00  0.00     0.135 A 
ATOM     66  C   UNL A   1      47.721  26.599  30.602  1.00  0.00     0.135 A 
ATOM     67  F   UNL A   1      47.192  28.634  33.585  1.00  0.00    -0.206 F 
ATOM     68  C   UNL A   1      48.503  26.777  33.261  1.00  0.00     0.059 A 
ATOM     69  C   UNL A   1      48.548  25.624  31.137  1.00  0.00     0.059 A 
ATOM     70  F   UNL A   1      47.419  26.490  29.297  1.00  0.00    -0.206 F 
ATOM     71  C   UNL A   1      48.926  25.720  32.470  1.00  0.00     0.060 A 
BRANCH  71  72
ATOM     72  S   UNL A   1      49.954  24.463  33.230  1.00  0.00     0.124 S 
ATOM     73  O   UNL A   1      50.857  25.280  34.035  1.00  0.00    -0.237 OA
ATOM     74  O   UNL A   1      48.981  23.676  33.981  1.00  0.00    -0.237 OA
ATOM     75  O   UNL A   1      50.569  23.794  32.089  1.00  0.00    -0.744 OA
ENDBRANCH  71  72
ENDBRANCH  50  64
BRANCH  51  76
ATOM     76  C   UNL A   1      38.125  32.063  31.325  1.00  0.00     0.058 A 
ATOM     77  C   UNL A   1      36.841  31.611  30.925  1.00  0.00     0.135 A 
ATOM     78  C   UNL A   1      38.031  33.361  31.928  1.00  0.00     0.135 A 
ATOM     79  F   UNL A   1      36.720  30.545  30.118  1.00  0.00    -0.206 F 
ATOM     80  C   UNL A   1      35.609  32.284  31.284  1.00  0.00     0.059 A 
ATOM     81  C   UNL A   1      36.854  34.030  32.298  1.00  0.00     0.059 A 
ATOM     82  F   UNL A   1      39.111  34.103  32.184  1.00  0.00    -0.206 F 
ATOM     83  C   UNL A   1      35.633  33.461  32.034  1.00  0.00     0.060 A 
BRANCH  83  84
ATOM     84  S   UNL A   1      34.166  34.198  32.829  1.00  0.00     0.124 S 
ATOM     85  O   UNL A   1      33.320  33.042  33.100  1.00  0.00    -0.237 OA
ATOM     86  O   UNL A   1      34.736  34.861  33.998  1.00  0.00    -0.237 OA
ATOM     87  O   UNL A   1      33.658  35.112  31.805  1.00  0.00    -0.744 OA
ENDBRANCH  83  84
ENDBRANCH  51  76
BRANCH  63  88
ATOM     88  C   UNL A   1      42.417  29.152  34.528  1.00  0.00     0.058 A 
ATOM     89  C   UNL A   1      42.341  28.467  35.738  1.00  0.00     0.135 A 
ATOM     90  C   UNL A   1      43.183  30.322  34.438  1.00  0.00     0.135 A 
ATOM     91  F   UNL A   1      41.588  27.360  35.849  1.00  0.00    -0.206 F 
ATOM     92  C   UNL A   1      43.125  28.849  36.802  1.00  0.00     0.059 A 
ATOM     93  C   UNL A   1      44.014  30.696  35.477  1.00  0.00     0.059 A 
ATOM     94  F   UNL A   1      43.245  31.020  33.293  1.00  0.00    -0.206 F 
ATOM     95  C   UNL A   1      43.996  29.929  36.641  1.00  0.00     0.060 A 
BRANCH  95  96
ATOM     96  S   UNL A   1      45.173  30.234  37.960  1.00  0.00     0.124 S 
ATOM     97  O   UNL A   1      45.712  28.898  38.190  1.00  0.00    -0.237 OA
ATOM     98  O   UNL A   1      46.082  31.181  37.324  1.00  0.00    -0.237 OA
ATOM     99  O   UNL A   1      44.346  30.770  39.036  1.00  0.00    -0.744 OA
ENDBRANCH  95  96
ENDBRANCH  63  88
ENDBRANCH  37  38
ENDBRANCH  30  32
ENDBRANCH  29  30
ENDBRANCH  28  29
ENDBRANCH   1  28
TORSDOF 18
ENDMDL
MODEL 2
REMARK VINA RESULT:     -10.7      3.168      4.688
REMARK SMILES Cc1c(CC(=O)OCCOC(=O)c2ccc(-c3c4nc(c(-c5c(F)cc(S(=O)(=O)[O-])cc5F)c5ccc([nH]5)c(-c5c(F)cc(S(=O)(=O)[O-])cc5F)c5nc(c(-c6c(F)cc(S(=O)(=O)[O-])cc6F)c6ccc3[nH]6)C=C5)C=C4)cc2)cc(-c2ccc(S(C)(=O)=O)cc2)n1-c1ccccc1
REMARK SMILES IDX 8 1 7 2 5 3 6 4 4 5 3 6 1 7 2 8 91 9 79 10 80 11 92 12 93 13
REMARK SMILES IDX 97 14 94 15 96 16 95 17 81 18 82 19 90 20 83 21 89 22 84 23
REMARK SMILES IDX 85 24 86 25 87 26 88 27 9 28 10 29 11 30 12 31 13 32 14 33
REMARK SMILES IDX 78 34 15 35 77 36 16 37 17 38 18 39 71 40 19 41 76 42 70 43
REMARK SMILES IDX 72 44 20 45 75 46 69 47 68 48 21 50 55 51 34 52 54 53 35 54
REMARK SMILES IDX 38 55 53 56 73 57 36 58 37 59 52 61 74 62 39 63 22 64 23 65
REMARK SMILES IDX 32 66 24 67 25 68 31 69 33 70 26 71 27 72 28 73 29 74 30 75
REMARK SMILES IDX 56 76 57 77 66 78 58 79 59 80 65 81 67 82 60 83 61 84 62 85
REMARK SMILES IDX 63 86 64 87 40 88 41 89 50 90 42 91 43 92 49 93 51 94 44 95
REMARK SMILES IDX 45 96 46 97 47 98 48 99
REMARK H PARENT 72 49 38 60
REMARK Flexibility Score: inf
ROOT
ATOM      1  C   UNL A   1      44.191  19.140  24.301  1.00  0.00     0.274 C 
ENDROOT
BRANCH   1   2
ATOM      2  O   UNL A   1      43.209  19.751  25.186  1.00  0.00    -0.462 OA
BRANCH   2   3
ATOM      3  C   UNL A   1      42.435  18.936  25.951  1.00  0.00     0.310 C 
ATOM      4  O   UNL A   1      42.400  17.714  25.812  1.00  0.00    -0.252 OA
BRANCH   3   5
ATOM      5  C   UNL A   1      41.661  19.616  27.077  1.00  0.00     0.160 C 
BRANCH   5   6
ATOM      6  C   UNL A   1      40.815  20.833  26.798  1.00  0.00    -0.015 A 
ATOM      7  C   UNL A   1      41.790  22.531  28.512  1.00  0.00     0.065 C 
ATOM      8  C   UNL A   1      40.894  22.077  27.403  1.00  0.00     0.024 A 
ATOM      9  N   UNL A   1      39.905  22.897  26.880  1.00  0.00    -0.314 N 
ATOM     10  C   UNL A   1      39.617  20.871  26.010  1.00  0.00     0.033 A 
ATOM     11  C   UNL A   1      39.026  22.125  26.128  1.00  0.00     0.053 A 
BRANCH   9  12
ATOM     12  C   UNL A   1      39.804  24.283  27.135  1.00  0.00     0.046 A 
ATOM     13  C   UNL A   1      39.283  24.741  28.347  1.00  0.00     0.026 A 
ATOM     14  C   UNL A   1      40.295  25.174  26.173  1.00  0.00     0.026 A 
ATOM     15  C   UNL A   1      39.285  26.110  28.607  1.00  0.00     0.002 A 
ATOM     16  C   UNL A   1      40.262  26.541  26.431  1.00  0.00     0.002 A 
ATOM     17  C   UNL A   1      39.772  27.006  27.651  1.00  0.00     0.000 A 
ENDBRANCH   9  12
BRANCH  11  18
ATOM     18  C   UNL A   1      37.761  22.614  25.559  1.00  0.00    -0.001 A 
ATOM     19  C   UNL A   1      37.392  22.316  24.239  1.00  0.00     0.011 A 
ATOM     20  C   UNL A   1      36.917  23.433  26.326  1.00  0.00     0.011 A 
ATOM     21  C   UNL A   1      36.220  22.841  23.683  1.00  0.00     0.021 A 
ATOM     22  C   UNL A   1      35.744  23.966  25.777  1.00  0.00     0.021 A 
ATOM     23  C   UNL A   1      35.407  23.676  24.455  1.00  0.00     0.067 A 
BRANCH  23  24
ATOM     24  S   UNL A   1      33.914  24.320  23.735  1.00  0.00     0.175 S 
ATOM     25  C   UNL A   1      33.755  25.951  24.412  1.00  0.00     0.163 C 
ATOM     26  O   UNL A   1      34.123  24.423  22.323  1.00  0.00    -0.224 OA
ATOM     27  O   UNL A   1      32.794  23.527  24.266  1.00  0.00    -0.224 OA
ENDBRANCH  23  24
ENDBRANCH  11  18
ENDBRANCH   5   6
ENDBRANCH   3   5
ENDBRANCH   2   3
ENDBRANCH   1   2
BRANCH   1  28
ATOM     28  C   UNL A   1      45.591  18.995  24.988  1.00  0.00     0.275 C 
BRANCH  28  29
ATOM     29  O   UNL A   1      46.319  20.191  25.532  1.00  0.00    -0.458 OA
BRANCH  29  30
ATOM     30  C   UNL A   1      46.136  21.446  24.977  1.00  0.00     0.338 C 
ATOM     31  O   UNL A   1      46.603  21.733  23.881  1.00  0.00    -0.246 OA
BRANCH  30  32
ATOM     32  C   UNL A   1      45.302  22.506  25.808  1.00  0.00     0.060 A 
ATOM     33  C   UNL A   1      44.199  23.234  25.315  1.00  0.00     0.016 A 
ATOM     34  C   UNL A   1      45.694  23.010  27.034  1.00  0.00     0.016 A 
ATOM     35  C   UNL A   1      43.507  24.391  26.029  1.00  0.00     0.010 A 
ATOM     36  C   UNL A   1      45.011  24.170  27.713  1.00  0.00     0.010 A 
ATOM     37  C   UNL A   1      43.878  24.989  27.279  1.00  0.00    -0.014 A 
BRANCH  37  38
ATOM     38  C   UNL A   1      43.357  26.677  27.724  1.00  0.00     0.031 A 
ATOM     39  C   UNL A   1      44.098  27.573  26.744  1.00  0.00     0.074 A 
ATOM     40  C   UNL A   1      42.868  27.676  28.710  1.00  0.00     0.049 A 
ATOM     41  N   UNL A   1      45.085  28.244  27.255  1.00  0.00    -0.248 NA
ATOM     42  C   UNL A   1      44.328  27.257  25.340  1.00  0.00     0.031 C 
ATOM     43  C   UNL A   1      42.867  29.202  28.471  1.00  0.00     0.029 A 
ATOM     44  N   UNL A   1      42.435  27.762  30.103  1.00  0.00    -0.354 N 
ATOM     45  C   UNL A   1      46.134  27.591  26.706  1.00  0.00     0.074 A 
ATOM     46  C   UNL A   1      45.668  27.190  25.372  1.00  0.00     0.031 C 
ATOM     47  C   UNL A   1      42.475  29.956  29.528  1.00  0.00     0.029 A 
ATOM     48  C   UNL A   1      42.045  29.135  30.670  1.00  0.00     0.049 A 
ATOM     49  H   UNL A   1      42.394  26.956  30.666  1.00  0.00     0.167 HD
ATOM     50  C   UNL A   1      47.030  26.993  27.530  1.00  0.00     0.037 A 
ATOM     51  C   UNL A   1      42.177  29.744  31.948  1.00  0.00     0.037 A 
ATOM     52  C   UNL A   1      46.639  26.864  28.953  1.00  0.00     0.049 A 
ATOM     53  C   UNL A   1      43.390  29.174  32.534  1.00  0.00     0.074 A 
ATOM     54  C   UNL A   1      45.646  26.244  29.691  1.00  0.00     0.029 A 
ATOM     55  N   UNL A   1      47.266  27.616  29.926  1.00  0.00    -0.354 N 
ATOM     56  N   UNL A   1      44.539  29.755  32.680  1.00  0.00    -0.248 NA
ATOM     57  C   UNL A   1      43.284  27.790  32.987  1.00  0.00     0.031 C 
ATOM     58  C   UNL A   1      45.910  26.295  31.057  1.00  0.00     0.029 A 
ATOM     59  C   UNL A   1      46.583  27.482  31.139  1.00  0.00     0.049 A 
ATOM     60  H   UNL A   1      48.072  28.165  29.787  1.00  0.00     0.167 HD
ATOM     61  C   UNL A   1      45.383  28.674  32.857  1.00  0.00     0.074 A 
ATOM     62  C   UNL A   1      44.549  27.573  33.301  1.00  0.00     0.031 C 
ATOM     63  C   UNL A   1      46.460  28.594  32.034  1.00  0.00     0.037 A 
BRANCH  50  64
ATOM     64  C   UNL A   1      48.386  26.648  27.019  1.00  0.00     0.058 A 
ATOM     65  C   UNL A   1      49.234  27.575  26.377  1.00  0.00     0.135 A 
ATOM     66  C   UNL A   1      48.966  25.429  27.406  1.00  0.00     0.135 A 
ATOM     67  F   UNL A   1      48.810  28.775  25.957  1.00  0.00    -0.206 F 
ATOM     68  C   UNL A   1      50.584  27.336  26.197  1.00  0.00     0.059 A 
ATOM     69  C   UNL A   1      50.328  25.197  27.293  1.00  0.00     0.059 A 
ATOM     70  F   UNL A   1      48.227  24.449  27.951  1.00  0.00    -0.206 F 
ATOM     71  C   UNL A   1      51.128  26.162  26.693  1.00  0.00     0.060 A 
BRANCH  71  72
ATOM     72  S   UNL A   1      52.902  25.939  26.564  1.00  0.00     0.124 S 
ATOM     73  O   UNL A   1      52.981  24.578  26.040  1.00  0.00    -0.237 OA
ATOM     74  O   UNL A   1      53.282  26.994  25.631  1.00  0.00    -0.237 OA
ATOM     75  O   UNL A   1      53.365  26.106  27.937  1.00  0.00    -0.744 OA
ENDBRANCH  71  72
ENDBRANCH  50  64
BRANCH  51  76
ATOM     76  C   UNL A   1      41.290  30.451  33.087  1.00  0.00     0.058 A 
ATOM     77  C   UNL A   1      41.470  31.690  33.754  1.00  0.00     0.135 A 
ATOM     78  C   UNL A   1      40.233  29.703  33.702  1.00  0.00     0.135 A 
ATOM     79  F   UNL A   1      42.559  32.437  33.513  1.00  0.00    -0.206 F 
ATOM     80  C   UNL A   1      40.561  32.194  34.763  1.00  0.00     0.059 A 
ATOM     81  C   UNL A   1      39.330  30.169  34.670  1.00  0.00     0.059 A 
ATOM     82  F   UNL A   1      40.013  28.418  33.413  1.00  0.00    -0.206 F 
ATOM     83  C   UNL A   1      39.452  31.445  35.161  1.00  0.00     0.060 A 
BRANCH  83  84
ATOM     84  S   UNL A   1      38.069  32.108  36.149  1.00  0.00     0.124 S 
ATOM     85  O   UNL A   1      37.782  31.027  37.084  1.00  0.00    -0.237 OA
ATOM     86  O   UNL A   1      38.643  33.319  36.728  1.00  0.00    -0.237 OA
ATOM     87  O   UNL A   1      37.032  32.352  35.145  1.00  0.00    -0.744 OA
ENDBRANCH  83  84
ENDBRANCH  51  76
BRANCH  63  88
ATOM     88  C   UNL A   1      47.226  29.834  31.850  1.00  0.00     0.058 A 
ATOM     89  C   UNL A   1      48.339  29.988  32.673  1.00  0.00     0.135 A 
ATOM     90  C   UNL A   1      47.033  30.709  30.772  1.00  0.00     0.135 A 
ATOM     91  F   UNL A   1      48.524  29.177  33.728  1.00  0.00    -0.206 F 
ATOM     92  C   UNL A   1      49.321  30.896  32.351  1.00  0.00     0.059 A 
ATOM     93  C   UNL A   1      48.027  31.595  30.403  1.00  0.00     0.059 A 
ATOM     94  F   UNL A   1      45.951  30.604  29.984  1.00  0.00    -0.206 F 
ATOM     95  C   UNL A   1      49.179  31.653  31.185  1.00  0.00     0.060 A 
BRANCH  95  96
ATOM     96  S   UNL A   1      50.589  32.637  30.674  1.00  0.00     0.124 S 
ATOM     97  O   UNL A   1      51.140  33.054  31.959  1.00  0.00    -0.237 OA
ATOM     98  O   UNL A   1      51.377  31.654  29.937  1.00  0.00    -0.237 OA
ATOM     99  O   UNL A   1      49.990  33.700  29.874  1.00  0.00    -0.744 OA
ENDBRANCH  95  96
ENDBRANCH  63  88
ENDBRANCH  37  38
ENDBRANCH  30  32
ENDBRANCH  29  30
ENDBRANCH  28  29
ENDBRANCH   1  28
TORSDOF 18
ENDMDL
MODEL 3
REMARK VINA RESULT:     -10.3      4.136     12.357
REMARK SMILES Cc1c(CC(=O)OCCOC(=O)c2ccc(-c3c4nc(c(-c5c(F)cc(S(=O)(=O)[O-])cc5F)c5ccc([nH]5)c(-c5c(F)cc(S(=O)(=O)[O-])cc5F)c5nc(c(-c6c(F)cc(S(=O)(=O)[O-])cc6F)c6ccc3[nH]6)C=C5)C=C4)cc2)cc(-c2ccc(S(C)(=O)=O)cc2)n1-c1ccccc1
REMARK SMILES IDX 8 1 7 2 5 3 6 4 4 5 3 6 1 7 2 8 91 9 79 10 80 11 92 12 93 13
REMARK SMILES IDX 97 14 94 15 96 16 95 17 81 18 82 19 90 20 83 21 89 22 84 23
REMARK SMILES IDX 85 24 86 25 87 26 88 27 9 28 10 29 11 30 12 31 13 32 14 33
REMARK SMILES IDX 78 34 15 35 77 36 16 37 17 38 18 39 71 40 19 41 76 42 70 43
REMARK SMILES IDX 72 44 20 45 75 46 69 47 68 48 21 50 55 51 34 52 54 53 35 54
REMARK SMILES IDX 38 55 53 56 73 57 36 58 37 59 52 61 74 62 39 63 22 64 23 65
REMARK SMILES IDX 32 66 24 67 25 68 31 69 33 70 26 71 27 72 28 73 29 74 30 75
REMARK SMILES IDX 56 76 57 77 66 78 58 79 59 80 65 81 67 82 60 83 61 84 62 85
REMARK SMILES IDX 63 86 64 87 40 88 41 89 50 90 42 91 43 92 49 93 51 94 44 95
REMARK SMILES IDX 45 96 46 97 47 98 48 99
REMARK H PARENT 72 49 38 60
REMARK Flexibility Score: inf
ROOT
ATOM      1  C   UNL A   1      34.550  34.245  29.328  1.00  0.00     0.274 C 
ENDROOT
BRANCH   1   2
ATOM      2  O   UNL A   1      35.163  33.402  30.345  1.00  0.00    -0.462 OA
BRANCH   2   3
ATOM      3  C   UNL A   1      34.711  33.502  31.624  1.00  0.00     0.310 C 
ATOM      4  O   UNL A   1      33.976  32.664  32.147  1.00  0.00    -0.252 OA
BRANCH   3   5
ATOM      5  C   UNL A   1      35.242  34.684  32.430  1.00  0.00     0.160 C 
BRANCH   5   6
ATOM      6  C   UNL A   1      36.440  34.519  33.332  1.00  0.00    -0.015 A 
ATOM      7  C   UNL A   1      38.331  34.113  31.591  1.00  0.00     0.065 C 
ATOM      8  C   UNL A   1      37.756  34.296  32.960  1.00  0.00     0.024 A 
ATOM      9  N   UNL A   1      38.531  34.162  34.103  1.00  0.00    -0.314 N 
ATOM     10  C   UNL A   1      36.412  34.337  34.754  1.00  0.00     0.033 A 
ATOM     11  C   UNL A   1      37.694  34.044  35.208  1.00  0.00     0.053 A 
BRANCH   9  12
ATOM     12  C   UNL A   1      39.943  34.105  34.104  1.00  0.00     0.046 A 
ATOM     13  C   UNL A   1      40.598  32.876  34.202  1.00  0.00     0.026 A 
ATOM     14  C   UNL A   1      40.658  35.298  33.942  1.00  0.00     0.026 A 
ATOM     15  C   UNL A   1      41.988  32.844  34.105  1.00  0.00     0.002 A 
ATOM     16  C   UNL A   1      42.047  35.257  33.878  1.00  0.00     0.002 A 
ATOM     17  C   UNL A   1      42.708  34.030  33.944  1.00  0.00     0.000 A 
ENDBRANCH   9  12
BRANCH  11  18
ATOM     18  C   UNL A   1      38.148  33.720  36.568  1.00  0.00    -0.001 A 
ATOM     19  C   UNL A   1      37.752  32.534  37.205  1.00  0.00     0.011 A 
ATOM     20  C   UNL A   1      38.960  34.623  37.271  1.00  0.00     0.011 A 
ATOM     21  C   UNL A   1      38.133  32.264  38.524  1.00  0.00     0.021 A 
ATOM     22  C   UNL A   1      39.343  34.364  38.593  1.00  0.00     0.021 A 
ATOM     23  C   UNL A   1      38.919  33.190  39.216  1.00  0.00     0.067 A 
BRANCH  23  24
ATOM     24  S   UNL A   1      39.407  32.820  40.886  1.00  0.00     0.175 S 
ATOM     25  C   UNL A   1      39.816  34.394  41.594  1.00  0.00     0.163 C 
ATOM     26  O   UNL A   1      38.263  32.291  41.564  1.00  0.00    -0.224 OA
ATOM     27  O   UNL A   1      40.656  32.046  40.816  1.00  0.00    -0.224 OA
ENDBRANCH  23  24
ENDBRANCH  11  18
ENDBRANCH   5   6
ENDBRANCH   3   5
ENDBRANCH   2   3
ENDBRANCH   1   2
BRANCH   1  28
ATOM     28  C   UNL A   1      34.442  33.514  27.947  1.00  0.00     0.275 C 
BRANCH  28  29
ATOM     29  O   UNL A   1      35.472  32.511  27.513  1.00  0.00    -0.458 OA
BRANCH  29  30
ATOM     30  C   UNL A   1      35.438  31.210  27.987  1.00  0.00     0.338 C 
ATOM     31  O   UNL A   1      34.410  30.544  27.948  1.00  0.00    -0.246 OA
BRANCH  30  32
ATOM     32  C   UNL A   1      36.775  30.608  28.586  1.00  0.00     0.060 A 
ATOM     33  C   UNL A   1      37.953  30.363  27.849  1.00  0.00     0.016 A 
ATOM     34  C   UNL A   1      36.874  30.039  29.842  1.00  0.00     0.016 A 
ATOM     35  C   UNL A   1      39.179  29.610  28.358  1.00  0.00     0.010 A 
ATOM     36  C   UNL A   1      38.084  29.279  30.318  1.00  0.00     0.010 A 
ATOM     37  C   UNL A   1      39.338  28.965  29.630  1.00  0.00    -0.014 A 
BRANCH  37  38
ATOM     38  C   UNL A   1      40.569  27.647  29.886  1.00  0.00     0.031 A 
ATOM     39  C   UNL A   1      41.338  28.081  31.124  1.00  0.00     0.074 A 
ATOM     40  C   UNL A   1      41.443  26.558  29.375  1.00  0.00     0.049 A 
ATOM     41  N   UNL A   1      42.540  28.517  30.896  1.00  0.00    -0.248 NA
ATOM     42  C   UNL A   1      40.743  28.721  32.290  1.00  0.00     0.031 C 
ATOM     43  C   UNL A   1      42.583  25.907  30.189  1.00  0.00     0.029 A 
ATOM     44  N   UNL A   1      41.749  25.851  28.134  1.00  0.00    -0.354 N 
ATOM     45  C   UNL A   1      42.368  29.838  31.129  1.00  0.00     0.074 A 
ATOM     46  C   UNL A   1      41.377  29.902  32.210  1.00  0.00     0.031 C 
ATOM     47  C   UNL A   1      43.333  25.000  29.515  1.00  0.00     0.029 A 
ATOM     48  C   UNL A   1      42.834  24.765  28.152  1.00  0.00     0.049 A 
ATOM     49  H   UNL A   1      41.269  26.067  27.302  1.00  0.00     0.167 HD
ATOM     50  C   UNL A   1      42.613  30.713  30.121  1.00  0.00     0.037 A 
ATOM     51  C   UNL A   1      43.805  24.330  27.210  1.00  0.00     0.037 A 
ATOM     52  C   UNL A   1      42.778  30.134  28.767  1.00  0.00     0.049 A 
ATOM     53  C   UNL A   1      44.155  25.515  26.426  1.00  0.00     0.074 A 
ATOM     54  C   UNL A   1      42.023  29.406  27.865  1.00  0.00     0.029 A 
ATOM     55  N   UNL A   1      44.013  30.125  28.152  1.00  0.00    -0.354 N 
ATOM     56  N   UNL A   1      45.246  26.209  26.497  1.00  0.00    -0.248 NA
ATOM     57  C   UNL A   1      43.143  25.963  25.472  1.00  0.00     0.031 C 
ATOM     58  C   UNL A   1      42.644  29.323  26.621  1.00  0.00     0.029 A 
ATOM     59  C   UNL A   1      43.959  29.341  26.995  1.00  0.00     0.049 A 
ATOM     60  H   UNL A   1      44.813  30.598  28.479  1.00  0.00     0.167 HD
ATOM     61  C   UNL A   1      44.867  27.396  25.898  1.00  0.00     0.074 A 
ATOM     62  C   UNL A   1      43.712  27.088  25.076  1.00  0.00     0.031 C 
ATOM     63  C   UNL A   1      45.078  28.536  26.605  1.00  0.00     0.037 A 
BRANCH  50  64
ATOM     64  C   UNL A   1      42.854  32.149  30.433  1.00  0.00     0.058 A 
ATOM     65  C   UNL A   1      44.120  32.667  30.780  1.00  0.00     0.135 A 
ATOM     66  C   UNL A   1      41.854  33.086  30.128  1.00  0.00     0.135 A 
ATOM     67  F   UNL A   1      45.162  31.885  31.094  1.00  0.00    -0.206 F 
ATOM     68  C   UNL A   1      44.393  34.022  30.756  1.00  0.00     0.059 A 
ATOM     69  C   UNL A   1      42.124  34.442  30.034  1.00  0.00     0.059 A 
ATOM     70  F   UNL A   1      40.595  32.699  29.863  1.00  0.00    -0.206 F 
ATOM     71  C   UNL A   1      43.400  34.898  30.344  1.00  0.00     0.060 A 
BRANCH  71  72
ATOM     72  S   UNL A   1      43.821  36.633  30.194  1.00  0.00     0.124 S 
ATOM     73  O   UNL A   1      45.196  36.552  29.708  1.00  0.00    -0.237 OA
ATOM     74  O   UNL A   1      42.839  37.111  29.226  1.00  0.00    -0.237 OA
ATOM     75  O   UNL A   1      43.671  37.136  31.555  1.00  0.00    -0.744 OA
ENDBRANCH  71  72
ENDBRANCH  50  64
BRANCH  51  76
ATOM     76  C   UNL A   1      44.295  23.000  26.452  1.00  0.00     0.058 A 
ATOM     77  C   UNL A   1      45.559  22.670  25.899  1.00  0.00     0.135 A 
ATOM     78  C   UNL A   1      43.319  22.016  26.083  1.00  0.00     0.135 A 
ATOM     79  F   UNL A   1      46.554  23.571  25.901  1.00  0.00    -0.206 F 
ATOM     80  C   UNL A   1      45.843  21.407  25.249  1.00  0.00     0.059 A 
ATOM     81  C   UNL A   1      43.566  20.780  25.466  1.00  0.00     0.059 A 
ATOM     82  F   UNL A   1      42.012  22.206  26.282  1.00  0.00    -0.206 F 
ATOM     83  C   UNL A   1      44.845  20.441  25.102  1.00  0.00     0.060 A 
BRANCH  83  84
ATOM     84  S   UNL A   1      45.159  18.709  24.623  1.00  0.00     0.124 S 
ATOM     85  O   UNL A   1      43.818  18.163  24.458  1.00  0.00    -0.237 OA
ATOM     86  O   UNL A   1      45.945  18.854  23.402  1.00  0.00    -0.237 OA
ATOM     87  O   UNL A   1      45.908  18.181  25.764  1.00  0.00    -0.744 OA
ENDBRANCH  83  84
ENDBRANCH  51  76
BRANCH  63  88
ATOM     88  C   UNL A   1      46.395  28.666  27.243  1.00  0.00     0.058 A 
ATOM     89  C   UNL A   1      47.351  29.376  26.521  1.00  0.00     0.135 A 
ATOM     90  C   UNL A   1      46.641  28.331  28.582  1.00  0.00     0.135 A 
ATOM     91  F   UNL A   1      47.143  29.680  25.230  1.00  0.00    -0.206 F 
ATOM     92  C   UNL A   1      48.467  29.875  27.152  1.00  0.00     0.059 A 
ATOM     93  C   UNL A   1      47.731  28.861  29.246  1.00  0.00     0.059 A 
ATOM     94  F   UNL A   1      45.751  27.617  29.290  1.00  0.00    -0.206 F 
ATOM     95  C   UNL A   1      48.618  29.658  28.523  1.00  0.00     0.060 A 
BRANCH  95  96
ATOM     96  S   UNL A   1      49.950  30.531  29.348  1.00  0.00     0.124 S 
ATOM     97  O   UNL A   1      49.222  31.579  30.057  1.00  0.00    -0.237 OA
ATOM     98  O   UNL A   1      50.514  29.477  30.185  1.00  0.00    -0.237 OA
ATOM     99  O   UNL A   1      50.791  30.988  28.246  1.00  0.00    -0.744 OA
ENDBRANCH  95  96
ENDBRANCH  63  88
ENDBRANCH  37  38
ENDBRANCH  30  32
ENDBRANCH  29  30
ENDBRANCH  28  29
ENDBRANCH   1  28
TORSDOF 18
ENDMDL
