MODEL 1
REMARK VINA RESULT:     -10.6      0.000      0.000
REMARK SMILES Cc1n[nH]c(CCC(=O)OCCOC(=O)c2ccc(-c3c4nc(c(-c5c(F)cc(S(=O)(=O)[O-])cc5F)c5ccc([nH]5)c(-c5c(F)cc(S(=O)(=O)[O-])cc5F)c5nc(c(-c6c(F)cc(S(=O)(=O)[O-])cc6F)c6ccc3[nH]6)C=C5)C=C4)cc2)c1C
REMARK SMILES IDX 12 1 11 2 10 3 8 4 9 5 7 6 6 7 5 8 1 9 2 10 3 11 82 12 4 13
REMARK SMILES IDX 83 14 13 16 14 17 15 18 16 19 17 20 81 21 18 22 80 23 19 24
REMARK SMILES IDX 20 25 21 26 74 27 22 28 79 29 73 30 75 31 23 32 78 33 72 34
REMARK SMILES IDX 71 35 24 37 58 38 37 39 57 40 38 41 41 42 56 43 76 44 39 45
REMARK SMILES IDX 40 46 55 48 77 49 42 50 25 51 26 52 35 53 27 54 28 55 34 56
REMARK SMILES IDX 36 57 29 58 30 59 31 60 32 61 33 62 59 63 60 64 69 65 61 66
REMARK SMILES IDX 62 67 68 68 70 69 63 70 64 71 65 72 66 73 67 74 43 75 44 76
REMARK SMILES IDX 53 77 45 78 46 79 52 80 54 81 47 82 48 83 49 84 50 85 51 86
REMARK H PARENT 4 15 75 36 41 47
REMARK Flexibility Score: inf
ROOT
ATOM      1  C   UNL A   1      33.268  33.207  27.861  1.00  0.00     0.275 C 
ENDROOT
BRANCH   1   2
ATOM      2  C   UNL A   1      33.564  34.624  28.352  1.00  0.00     0.274 C 
BRANCH   2   3
ATOM      3  O   UNL A   1      32.584  35.105  29.292  1.00  0.00    -0.462 OA
BRANCH   3   4
ATOM      4  C   UNL A   1      32.893  36.236  29.977  1.00  0.00     0.306 C 
ATOM      5  O   UNL A   1      33.218  37.294  29.441  1.00  0.00    -0.252 OA
BRANCH   4   6
ATOM      6  C   UNL A   1      32.891  36.070  31.491  1.00  0.00     0.129 C 
BRANCH   6   7
ATOM      7  C   UNL A   1      34.206  35.843  32.255  1.00  0.00     0.067 C 
BRANCH   7   8
ATOM      8  C   UNL A   1      34.737  34.462  32.094  1.00  0.00     0.039 A 
ATOM      9  C   UNL A   1      36.576  31.400  32.796  1.00  0.00     0.069 C 
ATOM     10  C   UNL A   1      35.708  32.498  32.311  1.00  0.00     0.062 A 
ATOM     11  N   UNL A   1      34.484  32.230  31.839  1.00  0.00    -0.181 NA
ATOM     12  C   UNL A   1      35.970  33.894  32.356  1.00  0.00    -0.007 A 
ATOM     13  N   UNL A   1      33.951  33.442  31.640  1.00  0.00    -0.282 N 
ATOM     14  C   UNL A   1      37.244  34.561  32.723  1.00  0.00     0.048 C 
ATOM     15  H   UNL A   1      33.078  33.583  31.209  1.00  0.00     0.190 HD
ENDBRANCH   7   8
ENDBRANCH   6   7
ENDBRANCH   4   6
ENDBRANCH   3   4
ENDBRANCH   2   3
ENDBRANCH   1   2
BRANCH   1  16
ATOM     16  O   UNL A   1      33.896  32.163  28.614  1.00  0.00    -0.458 OA
BRANCH  16  17
ATOM     17  C   UNL A   1      34.466  31.206  27.853  1.00  0.00     0.338 C 
ATOM     18  O   UNL A   1      33.946  30.548  26.975  1.00  0.00    -0.246 OA
BRANCH  17  19
ATOM     19  C   UNL A   1      35.755  30.775  28.364  1.00  0.00     0.060 A 
ATOM     20  C   UNL A   1      36.594  31.786  28.857  1.00  0.00     0.016 A 
ATOM     21  C   UNL A   1      36.213  29.487  28.082  1.00  0.00     0.016 A 
ATOM     22  C   UNL A   1      37.934  31.525  29.006  1.00  0.00     0.010 A 
ATOM     23  C   UNL A   1      37.554  29.229  28.229  1.00  0.00     0.010 A 
ATOM     24  C   UNL A   1      38.400  30.257  28.659  1.00  0.00    -0.014 A 
BRANCH  24  25
ATOM     25  C   UNL A   1      39.788  29.962  28.938  1.00  0.00     0.031 A 
ATOM     26  C   UNL A   1      40.083  29.828  30.392  1.00  0.00     0.074 A 
ATOM     27  C   UNL A   1      40.634  29.620  27.953  1.00  0.00     0.049 A 
ATOM     28  N   UNL A   1      40.971  30.441  31.102  1.00  0.00    -0.248 NA
ATOM     29  C   UNL A   1      39.165  28.984  31.184  1.00  0.00     0.031 C 
ATOM     30  C   UNL A   1      40.322  29.397  26.538  1.00  0.00     0.029 A 
ATOM     31  N   UNL A   1      41.926  29.225  28.048  1.00  0.00    -0.354 N 
ATOM     32  C   UNL A   1      40.854  29.912  32.385  1.00  0.00     0.074 A 
ATOM     33  C   UNL A   1      39.626  29.163  32.418  1.00  0.00     0.031 C 
ATOM     34  C   UNL A   1      41.312  28.661  25.988  1.00  0.00     0.029 A 
ATOM     35  C   UNL A   1      42.353  28.451  26.982  1.00  0.00     0.049 A 
ATOM     36  H   UNL A   1      42.507  29.466  28.806  1.00  0.00     0.167 HD
ATOM     37  C   UNL A   1      41.879  29.922  33.277  1.00  0.00     0.037 A 
ATOM     38  C   UNL A   1      43.403  27.594  26.999  1.00  0.00     0.037 A 
ATOM     39  C   UNL A   1      42.885  30.888  32.934  1.00  0.00     0.049 A 
ATOM     40  C   UNL A   1      44.258  27.968  28.167  1.00  0.00     0.074 A 
ATOM     41  C   UNL A   1      42.864  32.255  32.731  1.00  0.00     0.029 A 
ATOM     42  N   UNL A   1      44.050  30.442  32.354  1.00  0.00    -0.354 N 
ATOM     43  N   UNL A   1      44.906  29.098  28.271  1.00  0.00    -0.248 NA
ATOM     44  C   UNL A   1      44.018  27.277  29.430  1.00  0.00     0.031 C 
ATOM     45  C   UNL A   1      43.729  32.473  31.620  1.00  0.00     0.029 A 
ATOM     46  C   UNL A   1      44.266  31.238  31.254  1.00  0.00     0.049 A 
ATOM     47  H   UNL A   1      44.617  29.701  32.665  1.00  0.00     0.167 HD
ATOM     48  C   UNL A   1      44.800  29.458  29.609  1.00  0.00     0.074 A 
ATOM     49  C   UNL A   1      44.317  28.257  30.287  1.00  0.00     0.031 C 
ATOM     50  C   UNL A   1      44.837  30.765  30.010  1.00  0.00     0.037 A 
BRANCH  37  51
ATOM     51  C   UNL A   1      42.091  28.818  34.276  1.00  0.00     0.058 A 
ATOM     52  C   UNL A   1      42.431  27.524  33.847  1.00  0.00     0.135 A 
ATOM     53  C   UNL A   1      41.734  28.942  35.639  1.00  0.00     0.135 A 
ATOM     54  F   UNL A   1      42.744  27.293  32.562  1.00  0.00    -0.206 F 
ATOM     55  C   UNL A   1      42.395  26.425  34.708  1.00  0.00     0.059 A 
ATOM     56  C   UNL A   1      41.753  27.877  36.527  1.00  0.00     0.059 A 
ATOM     57  F   UNL A   1      41.258  30.089  36.146  1.00  0.00    -0.206 F 
ATOM     58  C   UNL A   1      42.047  26.613  36.044  1.00  0.00     0.060 A 
BRANCH  58  59
ATOM     59  S   UNL A   1      41.914  25.190  37.140  1.00  0.00     0.124 S 
ATOM     60  O   UNL A   1      42.085  24.088  36.201  1.00  0.00    -0.237 OA
ATOM     61  O   UNL A   1      43.013  25.416  38.071  1.00  0.00    -0.237 OA
ATOM     62  O   UNL A   1      40.578  25.334  37.712  1.00  0.00    -0.744 OA
ENDBRANCH  58  59
ENDBRANCH  37  51
BRANCH  38  63
ATOM     63  C   UNL A   1      43.474  26.268  26.321  1.00  0.00     0.058 A 
ATOM     64  C   UNL A   1      44.483  25.982  25.386  1.00  0.00     0.135 A 
ATOM     65  C   UNL A   1      42.696  25.166  26.742  1.00  0.00     0.135 A 
ATOM     66  F   UNL A   1      45.297  26.958  24.956  1.00  0.00    -0.206 F 
ATOM     67  C   UNL A   1      44.724  24.684  24.919  1.00  0.00     0.059 A 
ATOM     68  C   UNL A   1      42.900  23.871  26.272  1.00  0.00     0.059 A 
ATOM     69  F   UNL A   1      41.764  25.288  27.698  1.00  0.00    -0.206 F 
ATOM     70  C   UNL A   1      43.932  23.631  25.379  1.00  0.00     0.060 A 
BRANCH  70  71
ATOM     71  S   UNL A   1      44.331  21.933  24.904  1.00  0.00     0.124 S 
ATOM     72  O   UNL A   1      45.531  21.674  25.692  1.00  0.00    -0.237 OA
ATOM     73  O   UNL A   1      43.130  21.211  25.308  1.00  0.00    -0.237 OA
ATOM     74  O   UNL A   1      44.542  22.025  23.461  1.00  0.00    -0.744 OA
ENDBRANCH  70  71
ENDBRANCH  38  63
BRANCH  50  75
ATOM     75  C   UNL A   1      45.232  31.824  29.010  1.00  0.00     0.058 A 
ATOM     76  C   UNL A   1      46.563  32.157  28.702  1.00  0.00     0.135 A 
ATOM     77  C   UNL A   1      44.236  32.387  28.196  1.00  0.00     0.135 A 
ATOM     78  F   UNL A   1      47.585  31.578  29.343  1.00  0.00    -0.206 F 
ATOM     79  C   UNL A   1      46.889  33.037  27.669  1.00  0.00     0.059 A 
ATOM     80  C   UNL A   1      44.538  33.241  27.138  1.00  0.00     0.059 A 
ATOM     81  F   UNL A   1      42.947  32.058  28.387  1.00  0.00    -0.206 F 
ATOM     82  C   UNL A   1      45.868  33.572  26.888  1.00  0.00     0.060 A 
BRANCH  82  83
ATOM     83  S   UNL A   1      46.302  34.632  25.491  1.00  0.00     0.124 S 
ATOM     84  O   UNL A   1      46.030  35.963  26.023  1.00  0.00    -0.237 OA
ATOM     85  O   UNL A   1      47.709  34.312  25.273  1.00  0.00    -0.237 OA
ATOM     86  O   UNL A   1      45.399  34.186  24.432  1.00  0.00    -0.744 OA
ENDBRANCH  82  83
ENDBRANCH  50  75
ENDBRANCH  24  25
ENDBRANCH  17  19
ENDBRANCH  16  17
ENDBRANCH   1  16
TORSDOF 16
ENDMDL
MODEL 2
REMARK VINA RESULT:     -10.3      2.971     11.605
REMARK SMILES Cc1n[nH]c(CCC(=O)OCCOC(=O)c2ccc(-c3c4nc(c(-c5c(F)cc(S(=O)(=O)[O-])cc5F)c5ccc([nH]5)c(-c5c(F)cc(S(=O)(=O)[O-])cc5F)c5nc(c(-c6c(F)cc(S(=O)(=O)[O-])cc6F)c6ccc3[nH]6)C=C5)C=C4)cc2)c1C
REMARK SMILES IDX 12 1 11 2 10 3 8 4 9 5 7 6 6 7 5 8 1 9 2 10 3 11 82 12 4 13
REMARK SMILES IDX 83 14 13 16 14 17 15 18 16 19 17 20 81 21 18 22 80 23 19 24
REMARK SMILES IDX 20 25 21 26 74 27 22 28 79 29 73 30 75 31 23 32 78 33 72 34
REMARK SMILES IDX 71 35 24 37 58 38 37 39 57 40 38 41 41 42 56 43 76 44 39 45
REMARK SMILES IDX 40 46 55 48 77 49 42 50 25 51 26 52 35 53 27 54 28 55 34 56
REMARK SMILES IDX 36 57 29 58 30 59 31 60 32 61 33 62 59 63 60 64 69 65 61 66
REMARK SMILES IDX 62 67 68 68 70 69 63 70 64 71 65 72 66 73 67 74 43 75 44 76
REMARK SMILES IDX 53 77 45 78 46 79 52 80 54 81 47 82 48 83 49 84 50 85 51 86
REMARK H PARENT 4 15 75 36 41 47
REMARK Flexibility Score: inf
ROOT
ATOM      1  C   UNL A   1      40.390  20.421  26.251  1.00  0.00     0.275 C 
ENDROOT
BRANCH   1   2
ATOM      2  C   UNL A   1      41.704  19.718  26.596  1.00  0.00     0.274 C 
BRANCH   2   3
ATOM      3  O   UNL A   1      42.317  19.089  25.455  1.00  0.00    -0.462 OA
BRANCH   3   4
ATOM      4  C   UNL A   1      43.593  18.653  25.606  1.00  0.00     0.306 C 
ATOM      5  O   UNL A   1      43.930  17.783  26.409  1.00  0.00    -0.252 OA
BRANCH   4   6
ATOM      6  C   UNL A   1      44.613  19.393  24.752  1.00  0.00     0.129 C 
BRANCH   6   7
ATOM      7  C   UNL A   1      45.398  20.584  25.326  1.00  0.00     0.067 C 
BRANCH   7   8
ATOM      8  C   UNL A   1      44.617  21.852  25.311  1.00  0.00     0.039 A 
ATOM      9  C   UNL A   1      43.884  25.418  25.270  1.00  0.00     0.069 C 
ATOM     10  C   UNL A   1      43.913  23.936  25.237  1.00  0.00     0.062 A 
ATOM     11  N   UNL A   1      43.099  23.265  24.412  1.00  0.00    -0.181 NA
ATOM     12  C   UNL A   1      44.797  23.072  25.938  1.00  0.00    -0.007 A 
ATOM     13  N   UNL A   1      43.499  21.994  24.543  1.00  0.00    -0.282 N 
ATOM     14  C   UNL A   1      45.763  23.440  27.002  1.00  0.00     0.048 C 
ATOM     15  H   UNL A   1      43.031  21.236  24.124  1.00  0.00     0.190 HD
ENDBRANCH   7   8
ENDBRANCH   6   7
ENDBRANCH   4   6
ENDBRANCH   3   4
ENDBRANCH   2   3
ENDBRANCH   1   2
BRANCH   1  16
ATOM     16  O   UNL A   1      40.516  21.812  25.931  1.00  0.00    -0.458 OA
BRANCH  16  17
ATOM     17  C   UNL A   1      39.510  22.576  26.405  1.00  0.00     0.338 C 
ATOM     18  O   UNL A   1      38.317  22.419  26.238  1.00  0.00    -0.246 OA
BRANCH  17  19
ATOM     19  C   UNL A   1      39.970  23.849  26.930  1.00  0.00     0.060 A 
ATOM     20  C   UNL A   1      41.187  23.826  27.628  1.00  0.00     0.016 A 
ATOM     21  C   UNL A   1      39.089  24.930  26.987  1.00  0.00     0.016 A 
ATOM     22  C   UNL A   1      41.499  24.876  28.456  1.00  0.00     0.010 A 
ATOM     23  C   UNL A   1      39.401  25.978  27.818  1.00  0.00     0.010 A 
ATOM     24  C   UNL A   1      40.585  25.924  28.562  1.00  0.00    -0.014 A 
BRANCH  24  25
ATOM     25  C   UNL A   1      40.985  27.075  29.341  1.00  0.00     0.031 A 
ATOM     26  C   UNL A   1      42.121  27.830  28.740  1.00  0.00     0.074 A 
ATOM     27  C   UNL A   1      40.233  27.516  30.362  1.00  0.00     0.049 A 
ATOM     28  N   UNL A   1      43.250  28.162  29.274  1.00  0.00    -0.248 NA
ATOM     29  C   UNL A   1      42.029  28.137  27.298  1.00  0.00     0.031 C 
ATOM     30  C   UNL A   1      38.920  27.022  30.789  1.00  0.00     0.029 A 
ATOM     31  N   UNL A   1      40.408  28.620  31.126  1.00  0.00    -0.354 N 
ATOM     32  C   UNL A   1      43.923  28.893  28.297  1.00  0.00     0.074 A 
ATOM     33  C   UNL A   1      43.213  28.695  27.062  1.00  0.00     0.031 C 
ATOM     34  C   UNL A   1      38.320  27.976  31.533  1.00  0.00     0.029 A 
ATOM     35  C   UNL A   1      39.240  29.088  31.705  1.00  0.00     0.049 A 
ATOM     36  H   UNL A   1      41.284  29.049  31.257  1.00  0.00     0.167 HD
ATOM     37  C   UNL A   1      44.885  29.804  28.600  1.00  0.00     0.037 A 
ATOM     38  C   UNL A   1      39.030  30.354  32.146  1.00  0.00     0.037 A 
ATOM     39  C   UNL A   1      45.420  29.609  29.918  1.00  0.00     0.049 A 
ATOM     40  C   UNL A   1      40.372  30.989  32.318  1.00  0.00     0.074 A 
ATOM     41  C   UNL A   1      46.033  28.544  30.550  1.00  0.00     0.029 A 
ATOM     42  N   UNL A   1      45.006  30.451  30.923  1.00  0.00    -0.354 N 
ATOM     43  N   UNL A   1      41.261  30.604  33.196  1.00  0.00    -0.248 NA
ATOM     44  C   UNL A   1      40.907  31.754  31.197  1.00  0.00     0.031 C 
ATOM     45  C   UNL A   1      45.507  28.550  31.873  1.00  0.00     0.029 A 
ATOM     46  C   UNL A   1      44.652  29.649  31.982  1.00  0.00     0.049 A 
ATOM     47  H   UNL A   1      44.970  31.434  30.892  1.00  0.00     0.167 HD
ATOM     48  C   UNL A   1      42.486  30.718  32.550  1.00  0.00     0.074 A 
ATOM     49  C   UNL A   1      42.212  31.512  31.355  1.00  0.00     0.031 C 
ATOM     50  C   UNL A   1      43.553  29.930  32.882  1.00  0.00     0.037 A 
BRANCH  37  51
ATOM     51  C   UNL A   1      45.091  31.057  27.794  1.00  0.00     0.058 A 
ATOM     52  C   UNL A   1      46.317  31.298  27.153  1.00  0.00     0.135 A 
ATOM     53  C   UNL A   1      44.190  32.147  27.833  1.00  0.00     0.135 A 
ATOM     54  F   UNL A   1      47.258  30.342  27.099  1.00  0.00    -0.206 F 
ATOM     55  C   UNL A   1      46.636  32.544  26.607  1.00  0.00     0.059 A 
ATOM     56  C   UNL A   1      44.459  33.373  27.243  1.00  0.00     0.059 A 
ATOM     57  F   UNL A   1      43.046  32.097  28.530  1.00  0.00    -0.206 F 
ATOM     58  C   UNL A   1      45.701  33.575  26.665  1.00  0.00     0.060 A 
BRANCH  58  59
ATOM     59  S   UNL A   1      46.136  35.209  26.043  1.00  0.00     0.124 S 
ATOM     60  O   UNL A   1      44.985  35.995  26.471  1.00  0.00    -0.237 OA
ATOM     61  O   UNL A   1      47.390  35.478  26.738  1.00  0.00    -0.237 OA
ATOM     62  O   UNL A   1      46.259  34.996  24.604  1.00  0.00    -0.744 OA
ENDBRANCH  58  59
ENDBRANCH  37  51
BRANCH  38  63
ATOM     63  C   UNL A   1      37.763  31.130  32.035  1.00  0.00     0.058 A 
ATOM     64  C   UNL A   1      37.063  31.549  33.179  1.00  0.00     0.135 A 
ATOM     65  C   UNL A   1      37.326  31.684  30.811  1.00  0.00     0.135 A 
ATOM     66  F   UNL A   1      37.430  31.106  34.391  1.00  0.00    -0.206 F 
ATOM     67  C   UNL A   1      36.016  32.477  33.117  1.00  0.00     0.059 A 
ATOM     68  C   UNL A   1      36.271  32.589  30.721  1.00  0.00     0.059 A 
ATOM     69  F   UNL A   1      37.968  31.439  29.659  1.00  0.00    -0.206 F 
ATOM     70  C   UNL A   1      35.635  33.001  31.882  1.00  0.00     0.060 A 
BRANCH  70  71
ATOM     71  S   UNL A   1      34.393  34.312  31.806  1.00  0.00     0.124 S 
ATOM     72  O   UNL A   1      33.406  33.849  32.776  1.00  0.00    -0.237 OA
ATOM     73  O   UNL A   1      35.165  35.489  32.190  1.00  0.00    -0.237 OA
ATOM     74  O   UNL A   1      33.956  34.286  30.412  1.00  0.00    -0.744 OA
ENDBRANCH  70  71
ENDBRANCH  38  63
BRANCH  50  75
ATOM     75  C   UNL A   1      43.474  29.079  34.127  1.00  0.00     0.058 A 
ATOM     76  C   UNL A   1      42.928  27.784  34.160  1.00  0.00     0.135 A 
ATOM     77  C   UNL A   1      44.145  29.512  35.282  1.00  0.00     0.135 A 
ATOM     78  F   UNL A   1      42.376  27.240  33.069  1.00  0.00    -0.206 F 
ATOM     79  C   UNL A   1      43.004  26.975  35.295  1.00  0.00     0.059 A 
ATOM     80  C   UNL A   1      44.265  28.709  36.414  1.00  0.00     0.059 A 
ATOM     81  F   UNL A   1      44.752  30.710  35.296  1.00  0.00    -0.206 F 
ATOM     82  C   UNL A   1      43.680  27.445  36.417  1.00  0.00     0.060 A 
BRANCH  82  83
ATOM     83  S   UNL A   1      43.861  26.355  37.847  1.00  0.00     0.124 S 
ATOM     84  O   UNL A   1      44.568  27.210  38.795  1.00  0.00    -0.237 OA
ATOM     85  O   UNL A   1      42.477  26.042  38.187  1.00  0.00    -0.237 OA
ATOM     86  O   UNL A   1      44.635  25.232  37.322  1.00  0.00    -0.744 OA
ENDBRANCH  82  83
ENDBRANCH  50  75
ENDBRANCH  24  25
ENDBRANCH  17  19
ENDBRANCH  16  17
ENDBRANCH   1  16
TORSDOF 16
ENDMDL
MODEL 3
REMARK VINA RESULT:     -10.1      3.139      4.899
REMARK SMILES Cc1n[nH]c(CCC(=O)OCCOC(=O)c2ccc(-c3c4nc(c(-c5c(F)cc(S(=O)(=O)[O-])cc5F)c5ccc([nH]5)c(-c5c(F)cc(S(=O)(=O)[O-])cc5F)c5nc(c(-c6c(F)cc(S(=O)(=O)[O-])cc6F)c6ccc3[nH]6)C=C5)C=C4)cc2)c1C
REMARK SMILES IDX 12 1 11 2 10 3 8 4 9 5 7 6 6 7 5 8 1 9 2 10 3 11 82 12 4 13
REMARK SMILES IDX 83 14 13 16 14 17 15 18 16 19 17 20 81 21 18 22 80 23 19 24
REMARK SMILES IDX 20 25 21 26 74 27 22 28 79 29 73 30 75 31 23 32 78 33 72 34
REMARK SMILES IDX 71 35 24 37 58 38 37 39 57 40 38 41 41 42 56 43 76 44 39 45
REMARK SMILES IDX 40 46 55 48 77 49 42 50 25 51 26 52 35 53 27 54 28 55 34 56
REMARK SMILES IDX 36 57 29 58 30 59 31 60 32 61 33 62 59 63 60 64 69 65 61 66
REMARK SMILES IDX 62 67 68 68 70 69 63 70 64 71 65 72 66 73 67 74 43 75 44 76
REMARK SMILES IDX 53 77 45 78 46 79 52 80 54 81 47 82 48 83 49 84 50 85 51 86
REMARK H PARENT 4 15 75 36 41 47
REMARK Flexibility Score: inf
ROOT
ATOM      1  C   UNL A   1      32.620  29.894  27.247  1.00  0.00     0.275 C 
ENDROOT
BRANCH   1   2
ATOM      2  C   UNL A   1      31.948  28.531  27.419  1.00  0.00     0.274 C 
BRANCH   2   3
ATOM      3  O   UNL A   1      32.206  27.639  26.318  1.00  0.00    -0.462 OA
BRANCH   3   4
ATOM      4  C   UNL A   1      31.172  26.863  25.901  1.00  0.00     0.306 C 
ATOM      5  O   UNL A   1      30.466  26.199  26.658  1.00  0.00    -0.252 OA
BRANCH   4   6
ATOM      6  C   UNL A   1      31.002  26.807  24.389  1.00  0.00     0.129 C 
BRANCH   6   7
ATOM      7  C   UNL A   1      29.599  26.813  23.759  1.00  0.00     0.067 C 
BRANCH   7   8
ATOM      8  C   UNL A   1      29.350  28.013  22.914  1.00  0.00     0.039 A 
ATOM      9  C   UNL A   1      28.162  31.305  21.912  1.00  0.00     0.069 C 
ATOM     10  C   UNL A   1      28.790  29.974  22.085  1.00  0.00     0.062 A 
ATOM     11  N   UNL A   1      30.037  29.756  21.649  1.00  0.00    -0.181 NA
ATOM     12  C   UNL A   1      28.257  28.847  22.768  1.00  0.00    -0.007 A 
ATOM     13  N   UNL A   1      30.317  28.526  22.098  1.00  0.00    -0.282 N 
ATOM     14  C   UNL A   1      26.881  28.681  23.297  1.00  0.00     0.048 C 
ATOM     15  H   UNL A   1      31.140  28.040  21.863  1.00  0.00     0.190 HD
ENDBRANCH   7   8
ENDBRANCH   6   7
ENDBRANCH   4   6
ENDBRANCH   3   4
ENDBRANCH   2   3
ENDBRANCH   1   2
BRANCH   1  16
ATOM     16  O   UNL A   1      34.033  29.846  27.021  1.00  0.00    -0.458 OA
BRANCH  16  17
ATOM     17  C   UNL A   1      34.716  30.850  27.608  1.00  0.00     0.338 C 
ATOM     18  O   UNL A   1      34.480  32.040  27.552  1.00  0.00    -0.246 OA
BRANCH  17  19
ATOM     19  C   UNL A   1      36.007  30.428  28.121  1.00  0.00     0.060 A 
ATOM     20  C   UNL A   1      36.852  31.449  28.584  1.00  0.00     0.016 A 
ATOM     21  C   UNL A   1      36.460  29.132  27.867  1.00  0.00     0.016 A 
ATOM     22  C   UNL A   1      38.192  31.188  28.730  1.00  0.00     0.010 A 
ATOM     23  C   UNL A   1      37.801  28.875  28.011  1.00  0.00     0.010 A 
ATOM     24  C   UNL A   1      38.652  29.910  28.411  1.00  0.00    -0.014 A 
BRANCH  24  25
ATOM     25  C   UNL A   1      40.041  29.619  28.688  1.00  0.00     0.031 A 
ATOM     26  C   UNL A   1      40.358  29.576  30.142  1.00  0.00     0.074 A 
ATOM     27  C   UNL A   1      40.869  29.204  27.714  1.00  0.00     0.049 A 
ATOM     28  N   UNL A   1      41.264  30.224  30.798  1.00  0.00    -0.248 NA
ATOM     29  C   UNL A   1      39.444  28.795  31.001  1.00  0.00     0.031 C 
ATOM     30  C   UNL A   1      40.533  28.894  26.322  1.00  0.00     0.029 A 
ATOM     31  N   UNL A   1      42.158  28.803  27.816  1.00  0.00    -0.354 N 
ATOM     32  C   UNL A   1      41.161  29.780  32.114  1.00  0.00     0.074 A 
ATOM     33  C   UNL A   1      39.926  29.048  32.215  1.00  0.00     0.031 C 
ATOM     34  C   UNL A   1      41.506  28.113  25.805  1.00  0.00     0.029 A 
ATOM     35  C   UNL A   1      42.560  27.956  26.795  1.00  0.00     0.049 A 
ATOM     36  H   UNL A   1      42.753  29.085  28.547  1.00  0.00     0.167 HD
ATOM     37  C   UNL A   1      42.200  29.836  32.988  1.00  0.00     0.037 A 
ATOM     38  C   UNL A   1      43.602  27.090  26.852  1.00  0.00     0.037 A 
ATOM     39  C   UNL A   1      43.210  30.766  32.568  1.00  0.00     0.049 A 
ATOM     40  C   UNL A   1      44.478  27.529  27.981  1.00  0.00     0.074 A 
ATOM     41  C   UNL A   1      43.200  32.117  32.277  1.00  0.00     0.029 A 
ATOM     42  N   UNL A   1      44.361  30.271  32.001  1.00  0.00    -0.354 N 
ATOM     43  N   UNL A   1      45.140  28.656  28.001  1.00  0.00    -0.248 NA
ATOM     44  C   UNL A   1      44.252  26.925  29.289  1.00  0.00     0.031 C 
ATOM     45  C   UNL A   1      44.049  32.254  31.142  1.00  0.00     0.029 A 
ATOM     46  C   UNL A   1      44.568  30.992  30.849  1.00  0.00     0.049 A 
ATOM     47  H   UNL A   1      44.926  29.545  32.352  1.00  0.00     0.167 HD
ATOM     48  C   UNL A   1      45.058  29.103  29.315  1.00  0.00     0.074 A 
ATOM     49  C   UNL A   1      44.574  27.954  30.076  1.00  0.00     0.031 C 
ATOM     50  C   UNL A   1      45.114  30.433  29.630  1.00  0.00     0.037 A 
BRANCH  37  51
ATOM     51  C   UNL A   1      42.416  28.796  34.053  1.00  0.00     0.058 A 
ATOM     52  C   UNL A   1      42.842  27.502  33.710  1.00  0.00     0.135 A 
ATOM     53  C   UNL A   1      41.984  28.970  35.389  1.00  0.00     0.135 A 
ATOM     54  F   UNL A   1      43.231  27.223  32.456  1.00  0.00    -0.206 F 
ATOM     55  C   UNL A   1      42.818  26.448  34.626  1.00  0.00     0.059 A 
ATOM     56  C   UNL A   1      42.012  27.954  36.332  1.00  0.00     0.059 A 
ATOM     57  F   UNL A   1      41.426  30.114  35.811  1.00  0.00    -0.206 F 
ATOM     58  C   UNL A   1      42.394  26.685  35.932  1.00  0.00     0.060 A 
BRANCH  58  59
ATOM     59  S   UNL A   1      42.276  25.313  37.094  1.00  0.00     0.124 S 
ATOM     60  O   UNL A   1      43.625  25.289  37.647  1.00  0.00    -0.237 OA
ATOM     61  O   UNL A   1      41.222  25.765  37.995  1.00  0.00    -0.237 OA
ATOM     62  O   UNL A   1      41.920  24.183  36.241  1.00  0.00    -0.744 OA
ENDBRANCH  58  59
ENDBRANCH  37  51
BRANCH  38  63
ATOM     63  C   UNL A   1      43.649  25.723  26.261  1.00  0.00     0.058 A 
ATOM     64  C   UNL A   1      44.603  25.384  25.286  1.00  0.00     0.135 A 
ATOM     65  C   UNL A   1      42.913  24.644  26.801  1.00  0.00     0.135 A 
ATOM     66  F   UNL A   1      45.376  26.336  24.743  1.00  0.00    -0.206 F 
ATOM     67  C   UNL A   1      44.831  24.059  24.892  1.00  0.00     0.059 A 
ATOM     68  C   UNL A   1      43.105  23.322  26.407  1.00  0.00     0.059 A 
ATOM     69  F   UNL A   1      42.040  24.821  27.803  1.00  0.00    -0.206 F 
ATOM     70  C   UNL A   1      44.083  23.033  25.469  1.00  0.00     0.060 A 
BRANCH  70  71
ATOM     71  S   UNL A   1      44.475  21.311  25.084  1.00  0.00     0.124 S 
ATOM     72  O   UNL A   1      43.340  20.605  25.671  1.00  0.00    -0.237 OA
ATOM     73  O   UNL A   1      44.535  21.328  23.627  1.00  0.00    -0.237 OA
ATOM     74  O   UNL A   1      45.756  21.096  25.754  1.00  0.00    -0.744 OA
ENDBRANCH  70  71
ENDBRANCH  38  63
BRANCH  50  75
ATOM     75  C   UNL A   1      45.505  31.421  28.558  1.00  0.00     0.058 A 
ATOM     76  C   UNL A   1      44.616  31.925  27.592  1.00  0.00     0.135 A 
ATOM     77  C   UNL A   1      46.770  32.025  28.628  1.00  0.00     0.135 A 
ATOM     78  F   UNL A   1      43.350  31.496  27.528  1.00  0.00    -0.206 F 
ATOM     79  C   UNL A   1      44.978  32.944  26.710  1.00  0.00     0.059 A 
ATOM     80  C   UNL A   1      47.143  33.068  27.782  1.00  0.00     0.059 A 
ATOM     81  F   UNL A   1      47.645  31.644  29.573  1.00  0.00    -0.206 F 
ATOM     82  C   UNL A   1      46.243  33.515  26.816  1.00  0.00     0.060 A 
BRANCH  82  83
ATOM     83  S   UNL A   1      46.670  34.900  25.739  1.00  0.00     0.124 S 
ATOM     84  O   UNL A   1      45.841  34.642  24.566  1.00  0.00    -0.237 OA
ATOM     85  O   UNL A   1      46.288  36.058  26.541  1.00  0.00    -0.237 OA
ATOM     86  O   UNL A   1      48.108  34.742  25.534  1.00  0.00    -0.744 OA
ENDBRANCH  82  83
ENDBRANCH  50  75
ENDBRANCH  24  25
ENDBRANCH  17  19
ENDBRANCH  16  17
ENDBRANCH   1  16
TORSDOF 16
ENDMDL
