MODEL 1
REMARK VINA RESULT:     -11.6      0.000      0.000
REMARK SMILES COC(=O)c1sc(SCC(=O)OCCOC(=O)c2ccc(-c3c4nc(c(-c5c(F)cc(S(=O)(=O)[O-])cc5F)c5ccc([nH]5)c(-c5c(F)cc(S(=O)(=O)[O-])cc5F)c5nc(c(-c6c(F)cc(S(=O)(=O)[O-])cc6F)c6ccc3[nH]6)C=C5)C=C4)cc2)c(NC(=O)c2ccccc2)c1O
REMARK SMILES IDX 13 1 12 2 10 3 11 4 9 5 8 6 7 7 5 8 6 9 94 10 84 11 3 12
REMARK SMILES IDX 4 13 2 14 1 15 95 16 85 18 86 19 87 21 88 22 89 23 93 24
REMARK SMILES IDX 90 25 92 26 91 27 14 28 15 29 16 30 17 31 18 32 19 33 83 34
REMARK SMILES IDX 20 35 82 36 21 37 22 38 23 39 76 40 24 41 81 42 75 43 77 44
REMARK SMILES IDX 25 45 80 46 74 47 73 48 26 50 60 51 39 52 59 53 40 54 43 55
REMARK SMILES IDX 58 56 78 57 41 58 42 59 57 61 79 62 44 63 27 64 28 65 37 66
REMARK SMILES IDX 29 67 30 68 36 69 38 70 31 71 32 72 33 73 34 74 35 75 61 76
REMARK SMILES IDX 62 77 71 78 63 79 64 80 70 81 72 82 65 83 66 84 67 85 68 86
REMARK SMILES IDX 69 87 45 88 46 89 55 90 47 91 48 92 54 93 56 94 49 95 50 96
REMARK SMILES IDX 51 97 52 98 53 99
REMARK H PARENT 95 17 85 20 77 49 43 60
REMARK Flexibility Score: inf
ROOT
ATOM      1  C   UNL A   1      36.501  31.838  29.625  1.00  0.00     0.274 C 
ENDROOT
BRANCH   1   2
ATOM      2  O   UNL A   1      35.971  31.242  28.411  1.00  0.00    -0.461 OA
BRANCH   2   3
ATOM      3  C   UNL A   1      34.999  31.936  27.715  1.00  0.00     0.316 C 
ATOM      4  O   UNL A   1      35.035  33.149  27.519  1.00  0.00    -0.251 OA
BRANCH   3   5
ATOM      5  C   UNL A   1      33.596  30.994  27.493  1.00  0.00     0.198 C 
BRANCH   5   6
ATOM      6  S   UNL A   1      33.275  28.501  26.901  1.00  0.00    -0.101 SA
BRANCH   6   7
ATOM      7  C   UNL A   1      31.934  28.002  25.762  1.00  0.00     0.089 A 
ATOM      8  C   UNL A   1      30.300  27.988  23.871  1.00  0.00     0.157 A 
ATOM      9  S   UNL A   1      31.598  28.989  24.389  1.00  0.00    -0.116 S 
ATOM     10  C   UNL A   1      30.222  26.860  24.660  1.00  0.00     0.166 A 
ATOM     11  C   UNL A   1      31.128  26.869  25.763  1.00  0.00     0.109 A 
BRANCH   8  12
ATOM     12  C   UNL A   1      29.473  28.420  22.759  1.00  0.00     0.352 C 
ATOM     13  O   UNL A   1      29.871  28.938  21.723  1.00  0.00    -0.245 OA
BRANCH  12  14
ATOM     14  O   UNL A   1      28.162  28.217  23.081  1.00  0.00    -0.465 OA
ATOM     15  C   UNL A   1      27.304  29.366  23.109  1.00  0.00     0.282 C 
ENDBRANCH  12  14
ENDBRANCH   8  12
BRANCH  10  16
ATOM     16  O   UNL A   1      29.317  25.868  24.489  1.00  0.00    -0.504 OA
ATOM     17  H   UNL A   1      29.346  25.108  25.037  1.00  0.00     0.293 HD
ENDBRANCH  10  16
BRANCH  11  18
ATOM     18  N   UNL A   1      31.092  25.850  26.709  1.00  0.00    -0.317 N 
ATOM     19  C   UNL A   1      31.694  24.625  26.614  1.00  0.00     0.255 C 
ATOM     20  H   UNL A   1      30.581  26.029  27.531  1.00  0.00     0.170 HD
ATOM     21  O   UNL A   1      31.464  23.702  27.386  1.00  0.00    -0.269 OA
BRANCH  19  22
ATOM     22  C   UNL A   1      32.611  24.443  25.481  1.00  0.00     0.040 A 
ATOM     23  C   UNL A   1      34.339  24.733  25.854  1.00  0.00     0.014 A 
ATOM     24  C   UNL A   1      32.143  23.403  24.044  1.00  0.00     0.014 A 
ATOM     25  C   UNL A   1      35.611  23.958  24.843  1.00  0.00     0.001 A 
ATOM     26  C   UNL A   1      33.429  22.624  23.050  1.00  0.00     0.001 A 
ATOM     27  C   UNL A   1      35.162  22.908  23.462  1.00  0.00     0.000 A 
ENDBRANCH  19  22
ENDBRANCH  11  18
ENDBRANCH   6   7
ENDBRANCH   5   6
ENDBRANCH   3   5
ENDBRANCH   2   3
ENDBRANCH   1   2
BRANCH   1  28
ATOM     28  C   UNL A   1      35.654  31.437  30.849  1.00  0.00     0.275 C 
BRANCH  28  29
ATOM     29  O   UNL A   1      36.135  30.306  31.608  1.00  0.00    -0.458 OA
BRANCH  29  30
ATOM     30  C   UNL A   1      36.763  30.644  32.754  1.00  0.00     0.338 C 
ATOM     31  O   UNL A   1      36.628  31.702  33.339  1.00  0.00    -0.246 OA
BRANCH  30  32
ATOM     32  C   UNL A   1      37.854  29.735  33.137  1.00  0.00     0.060 A 
ATOM     33  C   UNL A   1      38.841  30.289  33.960  1.00  0.00     0.016 A 
ATOM     34  C   UNL A   1      38.068  28.511  32.509  1.00  0.00     0.016 A 
ATOM     35  C   UNL A   1      40.116  29.755  33.971  1.00  0.00     0.010 A 
ATOM     36  C   UNL A   1      39.329  27.927  32.595  1.00  0.00     0.010 A 
ATOM     37  C   UNL A   1      40.386  28.606  33.227  1.00  0.00    -0.014 A 
BRANCH  37  38
ATOM     38  C   UNL A   1      41.783  28.137  33.170  1.00  0.00     0.031 A 
ATOM     39  C   UNL A   1      42.420  27.703  34.455  1.00  0.00     0.074 A 
ATOM     40  C   UNL A   1      42.431  27.947  31.999  1.00  0.00     0.049 A 
ATOM     41  N   UNL A   1      43.640  27.892  34.861  1.00  0.00    -0.248 NA
ATOM     42  C   UNL A   1      41.569  26.996  35.428  1.00  0.00     0.031 C 
ATOM     43  C   UNL A   1      41.886  28.133  30.651  1.00  0.00     0.029 A 
ATOM     44  N   UNL A   1      43.646  27.358  31.764  1.00  0.00    -0.354 N 
ATOM     45  C   UNL A   1      43.759  27.172  36.049  1.00  0.00     0.074 A 
ATOM     46  C   UNL A   1      42.433  26.730  36.404  1.00  0.00     0.031 C 
ATOM     47  C   UNL A   1      42.599  27.383  29.788  1.00  0.00     0.029 A 
ATOM     48  C   UNL A   1      43.700  26.764  30.507  1.00  0.00     0.049 A 
ATOM     49  H   UNL A   1      44.391  27.355  32.407  1.00  0.00     0.167 HD
ATOM     50  C   UNL A   1      44.946  26.803  36.599  1.00  0.00     0.037 A 
ATOM     51  C   UNL A   1      44.484  25.730  30.117  1.00  0.00     0.037 A 
ATOM     52  C   UNL A   1      46.064  27.576  36.152  1.00  0.00     0.049 A 
ATOM     53  C   UNL A   1      45.639  25.629  31.040  1.00  0.00     0.074 A 
ATOM     54  C   UNL A   1      46.395  28.917  36.179  1.00  0.00     0.029 A 
ATOM     55  N   UNL A   1      47.011  26.983  35.354  1.00  0.00    -0.354 N 
ATOM     56  N   UNL A   1      46.633  26.470  31.089  1.00  0.00    -0.248 NA
ATOM     57  C   UNL A   1      45.541  24.716  32.170  1.00  0.00     0.031 C 
ATOM     58  C   UNL A   1      47.238  29.129  35.052  1.00  0.00     0.029 A 
ATOM     59  C   UNL A   1      47.347  27.905  34.393  1.00  0.00     0.049 A 
ATOM     60  H   UNL A   1      47.376  26.074  35.451  1.00  0.00     0.167 HD
ATOM     61  C   UNL A   1      47.030  26.472  32.416  1.00  0.00     0.074 A 
ATOM     62  C   UNL A   1      46.424  25.280  32.994  1.00  0.00     0.031 C 
ATOM     63  C   UNL A   1      47.566  27.585  33.000  1.00  0.00     0.037 A 
BRANCH  50  64
ATOM     64  C   UNL A   1      45.092  25.517  37.365  1.00  0.00     0.058 A 
ATOM     65  C   UNL A   1      45.485  25.510  38.713  1.00  0.00     0.135 A 
ATOM     66  C   UNL A   1      45.067  24.262  36.715  1.00  0.00     0.135 A 
ATOM     67  F   UNL A   1      45.587  26.660  39.399  1.00  0.00    -0.206 F 
ATOM     68  C   UNL A   1      45.838  24.331  39.373  1.00  0.00     0.059 A 
ATOM     69  C   UNL A   1      45.364  23.071  37.363  1.00  0.00     0.059 A 
ATOM     70  F   UNL A   1      44.828  24.165  35.397  1.00  0.00    -0.206 F 
ATOM     71  C   UNL A   1      45.783  23.119  38.685  1.00  0.00     0.060 A 
BRANCH  71  72
ATOM     72  S   UNL A   1      46.316  21.602  39.500  1.00  0.00     0.124 S 
ATOM     73  O   UNL A   1      47.700  21.925  39.828  1.00  0.00    -0.237 OA
ATOM     74  O   UNL A   1      45.396  21.509  40.628  1.00  0.00    -0.237 OA
ATOM     75  O   UNL A   1      46.129  20.588  38.465  1.00  0.00    -0.744 OA
ENDBRANCH  71  72
ENDBRANCH  50  64
BRANCH  51  76
ATOM     76  C   UNL A   1      44.130  24.654  29.153  1.00  0.00     0.058 A 
ATOM     77  C   UNL A   1      43.411  23.519  29.556  1.00  0.00     0.135 A 
ATOM     78  C   UNL A   1      44.301  24.817  27.761  1.00  0.00     0.135 A 
ATOM     79  F   UNL A   1      43.149  23.312  30.857  1.00  0.00    -0.206 F 
ATOM     80  C   UNL A   1      42.895  22.597  28.639  1.00  0.00     0.059 A 
ATOM     81  C   UNL A   1      43.822  23.900  26.830  1.00  0.00     0.059 A 
ATOM     82  F   UNL A   1      44.868  25.920  27.251  1.00  0.00    -0.206 F 
ATOM     83  C   UNL A   1      43.106  22.798  27.275  1.00  0.00     0.060 A 
BRANCH  83  84
ATOM     84  S   UNL A   1      42.359  21.666  26.082  1.00  0.00     0.124 S 
ATOM     85  O   UNL A   1      40.937  21.937  26.260  1.00  0.00    -0.237 OA
ATOM     86  O   UNL A   1      42.944  22.119  24.825  1.00  0.00    -0.237 OA
ATOM     87  O   UNL A   1      42.805  20.351  26.538  1.00  0.00    -0.744 OA
ENDBRANCH  83  84
ENDBRANCH  51  76
BRANCH  63  88
ATOM     88  C   UNL A   1      48.091  28.690  32.120  1.00  0.00     0.058 A 
ATOM     89  C   UNL A   1      47.281  29.674  31.529  1.00  0.00     0.135 A 
ATOM     90  C   UNL A   1      49.483  28.857  32.007  1.00  0.00     0.135 A 
ATOM     91  F   UNL A   1      45.950  29.673  31.696  1.00  0.00    -0.206 F 
ATOM     92  C   UNL A   1      47.825  30.741  30.818  1.00  0.00     0.059 A 
ATOM     93  C   UNL A   1      50.049  29.946  31.343  1.00  0.00     0.059 A 
ATOM     94  F   UNL A   1      50.316  27.984  32.598  1.00  0.00    -0.206 F 
ATOM     95  C   UNL A   1      49.209  30.880  30.744  1.00  0.00     0.060 A 
BRANCH  95  96
ATOM     96  S   UNL A   1      49.880  32.365  29.967  1.00  0.00     0.124 S 
ATOM     97  O   UNL A   1      49.749  32.051  28.548  1.00  0.00    -0.237 OA
ATOM     98  O   UNL A   1      48.989  33.408  30.469  1.00  0.00    -0.237 OA
ATOM     99  O   UNL A   1      51.249  32.427  30.473  1.00  0.00    -0.744 OA
ENDBRANCH  95  96
ENDBRANCH  63  88
ENDBRANCH  37  38
ENDBRANCH  30  32
ENDBRANCH  29  30
ENDBRANCH  28  29
ENDBRANCH   1  28
TORSDOF 21
ENDMDL
MODEL 2
REMARK VINA RESULT:     -11.4      2.456      8.157
REMARK SMILES COC(=O)c1sc(SCC(=O)OCCOC(=O)c2ccc(-c3c4nc(c(-c5c(F)cc(S(=O)(=O)[O-])cc5F)c5ccc([nH]5)c(-c5c(F)cc(S(=O)(=O)[O-])cc5F)c5nc(c(-c6c(F)cc(S(=O)(=O)[O-])cc6F)c6ccc3[nH]6)C=C5)C=C4)cc2)c(NC(=O)c2ccccc2)c1O
REMARK SMILES IDX 13 1 12 2 10 3 11 4 9 5 8 6 7 7 5 8 6 9 94 10 84 11 3 12
REMARK SMILES IDX 4 13 2 14 1 15 95 16 85 18 86 19 87 21 88 22 89 23 93 24
REMARK SMILES IDX 90 25 92 26 91 27 14 28 15 29 16 30 17 31 18 32 19 33 83 34
REMARK SMILES IDX 20 35 82 36 21 37 22 38 23 39 76 40 24 41 81 42 75 43 77 44
REMARK SMILES IDX 25 45 80 46 74 47 73 48 26 50 60 51 39 52 59 53 40 54 43 55
REMARK SMILES IDX 58 56 78 57 41 58 42 59 57 61 79 62 44 63 27 64 28 65 37 66
REMARK SMILES IDX 29 67 30 68 36 69 38 70 31 71 32 72 33 73 34 74 35 75 61 76
REMARK SMILES IDX 62 77 71 78 63 79 64 80 70 81 72 82 65 83 66 84 67 85 68 86
REMARK SMILES IDX 69 87 45 88 46 89 55 90 47 91 48 92 54 93 56 94 49 95 50 96
REMARK SMILES IDX 51 97 52 98 53 99
REMARK H PARENT 95 17 85 20 77 49 43 60
REMARK Flexibility Score: inf
ROOT
ATOM      1  C   UNL A   1      34.873  34.085  29.013  1.00  0.00     0.274 C 
ENDROOT
BRANCH   1   2
ATOM      2  O   UNL A   1      34.283  33.272  27.965  1.00  0.00    -0.461 OA
BRANCH   2   3
ATOM      3  C   UNL A   1      34.719  31.967  27.830  1.00  0.00     0.316 C 
ATOM      4  O   UNL A   1      35.887  31.658  27.605  1.00  0.00    -0.251 OA
BRANCH   3   5
ATOM      5  C   UNL A   1      33.413  30.888  27.646  1.00  0.00     0.198 C 
BRANCH   5   6
ATOM      6  S   UNL A   1      33.287  28.489  26.696  1.00  0.00    -0.101 SA
BRANCH   6   7
ATOM      7  C   UNL A   1      31.903  28.018  25.596  1.00  0.00     0.089 A 
ATOM      8  C   UNL A   1      30.221  28.035  23.748  1.00  0.00     0.157 A 
ATOM      9  S   UNL A   1      31.559  29.004  24.224  1.00  0.00    -0.116 S 
ATOM     10  C   UNL A   1      30.133  26.915  24.549  1.00  0.00     0.166 A 
ATOM     11  C   UNL A   1      31.067  26.908  25.628  1.00  0.00     0.109 A 
BRANCH   8  12
ATOM     12  C   UNL A   1      29.378  28.480  22.654  1.00  0.00     0.352 C 
ATOM     13  O   UNL A   1      29.758  29.033  21.630  1.00  0.00    -0.245 OA
BRANCH  12  14
ATOM     14  O   UNL A   1      28.073  28.244  22.981  1.00  0.00    -0.465 OA
ATOM     15  C   UNL A   1      27.225  29.385  23.175  1.00  0.00     0.282 C 
ENDBRANCH  12  14
ENDBRANCH   8  12
BRANCH  10  16
ATOM     16  O   UNL A   1      29.196  25.947  24.409  1.00  0.00    -0.504 OA
ATOM     17  H   UNL A   1      29.301  25.285  23.754  1.00  0.00     0.293 HD
ENDBRANCH  10  16
BRANCH  11  18
ATOM     18  N   UNL A   1      31.028  25.899  26.583  1.00  0.00    -0.317 N 
ATOM     19  C   UNL A   1      31.634  24.675  26.504  1.00  0.00     0.255 C 
ATOM     20  H   UNL A   1      30.511  26.084  27.400  1.00  0.00     0.170 HD
ATOM     21  O   UNL A   1      31.402  23.758  27.283  1.00  0.00    -0.269 OA
BRANCH  19  22
ATOM     22  C   UNL A   1      32.560  24.485  25.380  1.00  0.00     0.040 A 
ATOM     23  C   UNL A   1      34.276  24.846  25.744  1.00  0.00     0.014 A 
ATOM     24  C   UNL A   1      32.131  23.380  23.979  1.00  0.00     0.014 A 
ATOM     25  C   UNL A   1      35.575  24.079  24.762  1.00  0.00     0.001 A 
ATOM     26  C   UNL A   1      33.444  22.611  23.014  1.00  0.00     0.001 A 
ATOM     27  C   UNL A   1      35.166  22.967  23.418  1.00  0.00     0.000 A 
ENDBRANCH  19  22
ENDBRANCH  11  18
ENDBRANCH   6   7
ENDBRANCH   5   6
ENDBRANCH   3   5
ENDBRANCH   2   3
ENDBRANCH   1   2
BRANCH   1  28
ATOM     28  C   UNL A   1      34.406  33.613  30.404  1.00  0.00     0.275 C 
BRANCH  28  29
ATOM     29  O   UNL A   1      35.304  32.725  31.105  1.00  0.00    -0.458 OA
BRANCH  29  30
ATOM     30  C   UNL A   1      36.201  33.360  31.889  1.00  0.00     0.338 C 
ATOM     31  O   UNL A   1      35.948  34.297  32.622  1.00  0.00    -0.246 OA
BRANCH  30  32
ATOM     32  C   UNL A   1      37.603  33.015  31.607  1.00  0.00     0.060 A 
ATOM     33  C   UNL A   1      37.870  32.599  30.297  1.00  0.00     0.016 A 
ATOM     34  C   UNL A   1      38.547  32.824  32.612  1.00  0.00     0.016 A 
ATOM     35  C   UNL A   1      38.960  31.790  30.035  1.00  0.00     0.010 A 
ATOM     36  C   UNL A   1      39.689  32.083  32.323  1.00  0.00     0.010 A 
ATOM     37  C   UNL A   1      39.841  31.467  31.067  1.00  0.00    -0.014 A 
BRANCH  37  38
ATOM     38  C   UNL A   1      40.920  30.507  30.774  1.00  0.00     0.031 A 
ATOM     39  C   UNL A   1      42.037  30.971  29.889  1.00  0.00     0.074 A 
ATOM     40  C   UNL A   1      41.005  29.308  31.393  1.00  0.00     0.049 A 
ATOM     41  N   UNL A   1      42.672  30.308  28.969  1.00  0.00    -0.248 NA
ATOM     42  C   UNL A   1      42.474  32.371  30.027  1.00  0.00     0.031 C 
ATOM     43  C   UNL A   1      40.108  28.787  32.429  1.00  0.00     0.029 A 
ATOM     44  N   UNL A   1      42.022  28.388  31.371  1.00  0.00    -0.354 N 
ATOM     45  C   UNL A   1      43.704  31.145  28.546  1.00  0.00     0.074 A 
ATOM     46  C   UNL A   1      43.472  32.433  29.150  1.00  0.00     0.031 C 
ATOM     47  C   UNL A   1      40.769  27.855  33.145  1.00  0.00     0.029 A 
ATOM     48  C   UNL A   1      42.078  27.649  32.548  1.00  0.00     0.049 A 
ATOM     49  H   UNL A   1      42.638  28.267  30.614  1.00  0.00     0.167 HD
ATOM     50  C   UNL A   1      44.806  30.714  27.876  1.00  0.00     0.037 A 
ATOM     51  C   UNL A   1      43.160  27.034  33.084  1.00  0.00     0.037 A 
ATOM     52  C   UNL A   1      44.640  29.449  27.227  1.00  0.00     0.049 A 
ATOM     53  C   UNL A   1      44.164  26.815  32.017  1.00  0.00     0.074 A 
ATOM     54  C   UNL A   1      43.782  28.952  26.265  1.00  0.00     0.029 A 
ATOM     55  N   UNL A   1      45.324  28.359  27.704  1.00  0.00    -0.354 N 
ATOM     56  N   UNL A   1      44.051  25.951  31.048  1.00  0.00    -0.248 NA
ATOM     57  C   UNL A   1      45.212  27.811  31.842  1.00  0.00     0.031 C 
ATOM     58  C   UNL A   1      43.672  27.558  26.530  1.00  0.00     0.029 A 
ATOM     59  C   UNL A   1      44.453  27.298  27.655  1.00  0.00     0.049 A 
ATOM     60  H   UNL A   1      46.256  28.341  28.021  1.00  0.00     0.167 HD
ATOM     61  C   UNL A   1      44.717  26.529  29.980  1.00  0.00     0.074 A 
ATOM     62  C   UNL A   1      45.524  27.591  30.565  1.00  0.00     0.031 C 
ATOM     63  C   UNL A   1      44.336  26.292  28.689  1.00  0.00     0.037 A 
BRANCH  50  64
ATOM     64  C   UNL A   1      46.146  31.371  28.062  1.00  0.00     0.058 A 
ATOM     65  C   UNL A   1      46.826  31.307  29.289  1.00  0.00     0.135 A 
ATOM     66  C   UNL A   1      46.672  32.265  27.101  1.00  0.00     0.135 A 
ATOM     67  F   UNL A   1      46.372  30.524  30.280  1.00  0.00    -0.206 F 
ATOM     68  C   UNL A   1      47.954  32.088  29.549  1.00  0.00     0.059 A 
ATOM     69  C   UNL A   1      47.820  33.013  27.318  1.00  0.00     0.059 A 
ATOM     70  F   UNL A   1      46.032  32.500  25.945  1.00  0.00    -0.206 F 
ATOM     71  C   UNL A   1      48.436  32.945  28.559  1.00  0.00     0.060 A 
BRANCH  71  72
ATOM     72  S   UNL A   1      49.840  34.019  28.911  1.00  0.00     0.124 S 
ATOM     73  O   UNL A   1      49.595  34.363  30.307  1.00  0.00    -0.237 OA
ATOM     74  O   UNL A   1      50.980  33.143  28.660  1.00  0.00    -0.237 OA
ATOM     75  O   UNL A   1      49.672  35.106  27.950  1.00  0.00    -0.744 OA
ENDBRANCH  71  72
ENDBRANCH  50  64
BRANCH  51  76
ATOM     76  C   UNL A   1      43.476  26.881  34.529  1.00  0.00     0.058 A 
ATOM     77  C   UNL A   1      43.635  25.614  35.112  1.00  0.00     0.135 A 
ATOM     78  C   UNL A   1      43.844  27.983  35.331  1.00  0.00     0.135 A 
ATOM     79  F   UNL A   1      43.365  24.506  34.404  1.00  0.00    -0.206 F 
ATOM     80  C   UNL A   1      44.125  25.447  36.411  1.00  0.00     0.059 A 
ATOM     81  C   UNL A   1      44.308  27.844  36.636  1.00  0.00     0.059 A 
ATOM     82  F   UNL A   1      43.846  29.232  34.844  1.00  0.00    -0.206 F 
ATOM     83  C   UNL A   1      44.461  26.571  37.165  1.00  0.00     0.060 A 
BRANCH  83  84
ATOM     84  S   UNL A   1      45.187  26.358  38.806  1.00  0.00     0.124 S 
ATOM     85  O   UNL A   1      44.589  27.463  39.545  1.00  0.00    -0.237 OA
ATOM     86  O   UNL A   1      44.727  25.022  39.171  1.00  0.00    -0.237 OA
ATOM     87  O   UNL A   1      46.621  26.476  38.560  1.00  0.00    -0.744 OA
ENDBRANCH  83  84
ENDBRANCH  51  76
BRANCH  63  88
ATOM     88  C   UNL A   1      43.450  25.110  28.393  1.00  0.00     0.058 A 
ATOM     89  C   UNL A   1      42.046  25.164  28.382  1.00  0.00     0.135 A 
ATOM     90  C   UNL A   1      44.046  23.918  27.942  1.00  0.00     0.135 A 
ATOM     91  F   UNL A   1      41.391  26.300  28.668  1.00  0.00    -0.206 F 
ATOM     92  C   UNL A   1      41.274  24.073  27.992  1.00  0.00     0.059 A 
ATOM     93  C   UNL A   1      43.291  22.832  27.498  1.00  0.00     0.059 A 
ATOM     94  F   UNL A   1      45.384  23.819  27.871  1.00  0.00    -0.206 F 
ATOM     95  C   UNL A   1      41.902  22.917  27.535  1.00  0.00     0.060 A 
BRANCH  95  96
ATOM     96  S   UNL A   1      40.875  21.588  26.872  1.00  0.00     0.124 S 
ATOM     97  O   UNL A   1      41.682  21.109  25.755  1.00  0.00    -0.237 OA
ATOM     98  O   UNL A   1      40.770  20.681  28.012  1.00  0.00    -0.237 OA
ATOM     99  O   UNL A   1      39.634  22.266  26.506  1.00  0.00    -0.744 OA
ENDBRANCH  95  96
ENDBRANCH  63  88
ENDBRANCH  37  38
ENDBRANCH  30  32
ENDBRANCH  29  30
ENDBRANCH  28  29
ENDBRANCH   1  28
TORSDOF 21
ENDMDL
MODEL 3
REMARK VINA RESULT:     -11.2      4.271      8.285
REMARK SMILES COC(=O)c1sc(SCC(=O)OCCOC(=O)c2ccc(-c3c4nc(c(-c5c(F)cc(S(=O)(=O)[O-])cc5F)c5ccc([nH]5)c(-c5c(F)cc(S(=O)(=O)[O-])cc5F)c5nc(c(-c6c(F)cc(S(=O)(=O)[O-])cc6F)c6ccc3[nH]6)C=C5)C=C4)cc2)c(NC(=O)c2ccccc2)c1O
REMARK SMILES IDX 13 1 12 2 10 3 11 4 9 5 8 6 7 7 5 8 6 9 94 10 84 11 3 12
REMARK SMILES IDX 4 13 2 14 1 15 95 16 85 18 86 19 87 21 88 22 89 23 93 24
REMARK SMILES IDX 90 25 92 26 91 27 14 28 15 29 16 30 17 31 18 32 19 33 83 34
REMARK SMILES IDX 20 35 82 36 21 37 22 38 23 39 76 40 24 41 81 42 75 43 77 44
REMARK SMILES IDX 25 45 80 46 74 47 73 48 26 50 60 51 39 52 59 53 40 54 43 55
REMARK SMILES IDX 58 56 78 57 41 58 42 59 57 61 79 62 44 63 27 64 28 65 37 66
REMARK SMILES IDX 29 67 30 68 36 69 38 70 31 71 32 72 33 73 34 74 35 75 61 76
REMARK SMILES IDX 62 77 71 78 63 79 64 80 70 81 72 82 65 83 66 84 67 85 68 86
REMARK SMILES IDX 69 87 45 88 46 89 55 90 47 91 48 92 54 93 56 94 49 95 50 96
REMARK SMILES IDX 51 97 52 98 53 99
REMARK H PARENT 95 17 85 20 77 49 43 60
REMARK Flexibility Score: inf
ROOT
ATOM      1  C   UNL A   1      41.641  20.061  27.606  1.00  0.00     0.274 C 
ENDROOT
BRANCH   1   2
ATOM      2  O   UNL A   1      40.360  20.741  27.675  1.00  0.00    -0.461 OA
BRANCH   2   3
ATOM      3  C   UNL A   1      40.170  21.853  26.876  1.00  0.00     0.316 C 
ATOM      4  O   UNL A   1      40.673  22.951  27.104  1.00  0.00    -0.251 OA
BRANCH   3   5
ATOM      5  C   UNL A   1      38.887  21.623  25.779  1.00  0.00     0.198 C 
BRANCH   5   6
ATOM      6  S   UNL A   1      36.809  23.059  25.236  1.00  0.00    -0.101 SA
BRANCH   6   7
ATOM      7  C   UNL A   1      35.293  22.260  24.599  1.00  0.00     0.089 A 
ATOM      8  C   UNL A   1      33.404  20.657  24.277  1.00  0.00     0.157 A 
ATOM      9  S   UNL A   1      34.723  20.826  25.366  1.00  0.00    -0.116 S 
ATOM     10  C   UNL A   1      33.335  21.748  23.436  1.00  0.00     0.166 A 
ATOM     11  C   UNL A   1      34.425  22.657  23.587  1.00  0.00     0.109 A 
BRANCH   8  12
ATOM     12  C   UNL A   1      32.583  19.461  24.338  1.00  0.00     0.352 C 
ATOM     13  O   UNL A   1      31.876  19.025  23.439  1.00  0.00    -0.245 OA
BRANCH  12  14
ATOM     14  O   UNL A   1      32.671  18.932  25.594  1.00  0.00    -0.465 OA
ATOM     15  C   UNL A   1      32.535  17.509  25.721  1.00  0.00     0.282 C 
ENDBRANCH  12  14
ENDBRANCH   8  12
BRANCH  10  16
ATOM     16  O   UNL A   1      32.390  21.919  22.482  1.00  0.00    -0.504 OA
ATOM     17  H   UNL A   1      32.013  22.766  22.344  1.00  0.00     0.293 HD
ENDBRANCH  10  16
BRANCH  11  18
ATOM     18  N   UNL A   1      34.551  23.748  22.736  1.00  0.00    -0.317 N 
ATOM     19  C   UNL A   1      33.894  24.944  22.836  1.00  0.00     0.255 C 
ATOM     20  H   UNL A   1      35.178  23.650  21.983  1.00  0.00     0.170 HD
ATOM     21  O   UNL A   1      33.898  25.789  21.950  1.00  0.00    -0.269 OA
BRANCH  19  22
ATOM     22  C   UNL A   1      33.117  25.152  24.066  1.00  0.00     0.040 A 
ATOM     23  C   UNL A   1      33.898  26.206  25.285  1.00  0.00     0.014 A 
ATOM     24  C   UNL A   1      31.298  24.918  24.084  1.00  0.00     0.014 A 
ATOM     25  C   UNL A   1      32.885  27.073  26.493  1.00  0.00     0.001 A 
ATOM     26  C   UNL A   1      30.296  25.804  25.292  1.00  0.00     0.001 A 
ATOM     27  C   UNL A   1      31.103  26.883  26.492  1.00  0.00     0.000 A 
ENDBRANCH  19  22
ENDBRANCH  11  18
ENDBRANCH   6   7
ENDBRANCH   5   6
ENDBRANCH   3   5
ENDBRANCH   2   3
ENDBRANCH   1   2
BRANCH   1  28
ATOM     28  C   UNL A   1      41.960  19.635  26.159  1.00  0.00     0.275 C 
BRANCH  28  29
ATOM     29  O   UNL A   1      43.338  19.297  25.889  1.00  0.00    -0.458 OA
BRANCH  29  30
ATOM     30  C   UNL A   1      43.823  19.843  24.754  1.00  0.00     0.338 C 
ATOM     31  O   UNL A   1      44.077  19.226  23.736  1.00  0.00    -0.246 OA
BRANCH  30  32
ATOM     32  C   UNL A   1      44.288  21.230  24.900  1.00  0.00     0.060 A 
ATOM     33  C   UNL A   1      45.619  21.382  25.307  1.00  0.00     0.016 A 
ATOM     34  C   UNL A   1      43.417  22.316  24.925  1.00  0.00     0.016 A 
ATOM     35  C   UNL A   1      46.019  22.535  25.956  1.00  0.00     0.010 A 
ATOM     36  C   UNL A   1      43.851  23.507  25.500  1.00  0.00     0.010 A 
ATOM     37  C   UNL A   1      45.111  23.581  26.120  1.00  0.00    -0.014 A 
BRANCH  37  38
ATOM     38  C   UNL A   1      45.539  24.743  26.921  1.00  0.00     0.031 A 
ATOM     39  C   UNL A   1      45.050  24.826  28.335  1.00  0.00     0.074 A 
ATOM     40  C   UNL A   1      46.461  25.624  26.474  1.00  0.00     0.049 A 
ATOM     41  N   UNL A   1      44.673  25.875  29.004  1.00  0.00    -0.248 NA
ATOM     42  C   UNL A   1      44.933  23.564  29.087  1.00  0.00     0.031 C 
ATOM     43  C   UNL A   1      47.183  25.574  25.199  1.00  0.00     0.029 A 
ATOM     44  N   UNL A   1      47.092  26.638  27.148  1.00  0.00    -0.354 N 
ATOM     45  C   UNL A   1      44.451  25.433  30.307  1.00  0.00     0.074 A 
ATOM     46  C   UNL A   1      44.522  23.993  30.277  1.00  0.00     0.031 C 
ATOM     47  C   UNL A   1      48.331  26.268  25.324  1.00  0.00     0.029 A 
ATOM     48  C   UNL A   1      48.362  26.889  26.637  1.00  0.00     0.049 A 
ATOM     49  H   UNL A   1      46.695  27.129  27.903  1.00  0.00     0.167 HD
ATOM     50  C   UNL A   1      44.404  26.252  31.391  1.00  0.00     0.037 A 
ATOM     51  C   UNL A   1      49.420  27.428  27.288  1.00  0.00     0.037 A 
ATOM     52  C   UNL A   1      44.135  27.623  31.077  1.00  0.00     0.049 A 
ATOM     53  C   UNL A   1      48.927  28.184  28.462  1.00  0.00     0.074 A 
ATOM     54  C   UNL A   1      43.108  28.295  30.443  1.00  0.00     0.029 A 
ATOM     55  N   UNL A   1      45.129  28.555  31.249  1.00  0.00    -0.354 N 
ATOM     56  N   UNL A   1      48.281  29.315  28.406  1.00  0.00    -0.248 NA
ATOM     57  C   UNL A   1      48.882  27.507  29.750  1.00  0.00     0.031 C 
ATOM     58  C   UNL A   1      43.701  29.455  29.871  1.00  0.00     0.029 A 
ATOM     59  C   UNL A   1      45.061  29.403  30.171  1.00  0.00     0.049 A 
ATOM     60  H   UNL A   1      45.766  28.605  31.998  1.00  0.00     0.167 HD
ATOM     61  C   UNL A   1      47.427  29.289  29.497  1.00  0.00     0.074 A 
ATOM     62  C   UNL A   1      47.941  28.231  30.356  1.00  0.00     0.031 C 
ATOM     63  C   UNL A   1      46.216  29.922  29.471  1.00  0.00     0.037 A 
BRANCH  50  64
ATOM     64  C   UNL A   1      44.886  25.799  32.741  1.00  0.00     0.058 A 
ATOM     65  C   UNL A   1      44.079  25.920  33.883  1.00  0.00     0.135 A 
ATOM     66  C   UNL A   1      46.238  25.451  32.965  1.00  0.00     0.135 A 
ATOM     67  F   UNL A   1      42.795  26.295  33.773  1.00  0.00    -0.206 F 
ATOM     68  C   UNL A   1      44.583  25.713  35.169  1.00  0.00     0.059 A 
ATOM     69  C   UNL A   1      46.750  25.192  34.228  1.00  0.00     0.059 A 
ATOM     70  F   UNL A   1      47.128  25.432  31.960  1.00  0.00    -0.206 F 
ATOM     71  C   UNL A   1      45.923  25.360  35.330  1.00  0.00     0.060 A 
BRANCH  71  72
ATOM     72  S   UNL A   1      46.607  25.173  36.987  1.00  0.00     0.124 S 
ATOM     73  O   UNL A   1      47.545  26.289  37.036  1.00  0.00    -0.237 OA
ATOM     74  O   UNL A   1      45.425  25.295  37.833  1.00  0.00    -0.237 OA
ATOM     75  O   UNL A   1      47.206  23.841  36.949  1.00  0.00    -0.744 OA
ENDBRANCH  71  72
ENDBRANCH  50  64
BRANCH  51  76
ATOM     76  C   UNL A   1      50.855  27.085  27.099  1.00  0.00     0.058 A 
ATOM     77  C   UNL A   1      51.353  25.816  27.435  1.00  0.00     0.135 A 
ATOM     78  C   UNL A   1      51.733  27.924  26.379  1.00  0.00     0.135 A 
ATOM     79  F   UNL A   1      50.570  24.929  28.069  1.00  0.00    -0.206 F 
ATOM     80  C   UNL A   1      52.643  25.404  27.084  1.00  0.00     0.059 A 
ATOM     81  C   UNL A   1      53.030  27.548  26.043  1.00  0.00     0.059 A 
ATOM     82  F   UNL A   1      51.330  29.112  25.903  1.00  0.00    -0.206 F 
ATOM     83  C   UNL A   1      53.474  26.279  26.385  1.00  0.00     0.060 A 
BRANCH  83  84
ATOM     84  S   UNL A   1      55.104  25.717  25.844  1.00  0.00     0.124 S 
ATOM     85  O   UNL A   1      55.270  24.491  26.614  1.00  0.00    -0.237 OA
ATOM     86  O   UNL A   1      54.906  25.549  24.408  1.00  0.00    -0.237 OA
ATOM     87  O   UNL A   1      55.985  26.818  26.225  1.00  0.00    -0.744 OA
ENDBRANCH  83  84
ENDBRANCH  51  76
BRANCH  63  88
ATOM     88  C   UNL A   1      45.961  30.970  28.418  1.00  0.00     0.058 A 
ATOM     89  C   UNL A   1      45.674  30.679  27.074  1.00  0.00     0.135 A 
ATOM     90  C   UNL A   1      45.840  32.312  28.821  1.00  0.00     0.135 A 
ATOM     91  F   UNL A   1      45.634  29.414  26.629  1.00  0.00    -0.206 F 
ATOM     92  C   UNL A   1      45.334  31.678  26.165  1.00  0.00     0.059 A 
ATOM     93  C   UNL A   1      45.450  33.320  27.938  1.00  0.00     0.059 A 
ATOM     94  F   UNL A   1      46.043  32.651  30.105  1.00  0.00    -0.206 F 
ATOM     95  C   UNL A   1      45.207  32.992  26.607  1.00  0.00     0.060 A 
BRANCH  95  96
ATOM     96  S   UNL A   1      44.595  34.232  25.445  1.00  0.00     0.124 S 
ATOM     97  O   UNL A   1      45.755  35.104  25.292  1.00  0.00    -0.237 OA
ATOM     98  O   UNL A   1      44.255  33.421  24.279  1.00  0.00    -0.237 OA
ATOM     99  O   UNL A   1      43.454  34.820  26.142  1.00  0.00    -0.744 OA
ENDBRANCH  95  96
ENDBRANCH  63  88
ENDBRANCH  37  38
ENDBRANCH  30  32
ENDBRANCH  29  30
ENDBRANCH  28  29
ENDBRANCH   1  28
TORSDOF 21
ENDMDL
