MODEL 1
REMARK VINA RESULT:     -10.7      0.000      0.000
REMARK SMILES CCC[NH2+][C@]1(C(=O)OCCOC(=O)c2ccc(-c3c4nc(c(-c5c(F)cc(S(=O)(=O)[O-])cc5F)c5ccc([nH]5)c(-c5c(F)cc(S(=O)(=O)[O-])cc5F)c5nc(c(-c6c(F)cc(S(=O)(=O)[O-])cc6F)c6ccc3[nH]6)C=C5)C=C4)cc2)CCC[C@H](n2ccc(C)n2)C1
REMARK SMILES IDX 9 1 8 2 6 3 7 4 5 5 80 6 90 7 81 8 83 9 82 10 4 11 3 14 2 15
REMARK SMILES IDX 1 16 84 17 85 18 89 19 86 20 87 21 88 22 10 23 11 24 12 25
REMARK SMILES IDX 13 26 14 27 15 28 79 29 16 30 78 31 17 32 18 33 19 34 72 35
REMARK SMILES IDX 20 36 77 37 71 38 73 39 21 40 76 41 70 42 69 43 22 45 56 46
REMARK SMILES IDX 35 47 55 48 36 49 39 50 54 51 74 52 37 53 38 54 53 56 75 57
REMARK SMILES IDX 40 58 23 59 24 60 33 61 25 62 26 63 32 64 34 65 27 66 28 67
REMARK SMILES IDX 29 68 30 69 31 70 57 71 58 72 67 73 59 74 60 75 66 76 68 77
REMARK SMILES IDX 61 78 62 79 63 80 64 81 65 82 41 83 42 84 51 85 43 86 44 87
REMARK SMILES IDX 50 88 52 89 45 90 46 91 47 92 48 93 49 94
REMARK H PARENT 4 12 4 13 73 44 39 55
REMARK Flexibility Score: inf
ROOT
ATOM      1  C   UNL A   1      32.141  27.799  26.240  1.00  0.00     0.274 C 
ENDROOT
BRANCH   1   2
ATOM      2  O   UNL A   1      32.921  26.626  26.559  1.00  0.00    -0.457 OA
BRANCH   2   3
ATOM      3  C   UNL A   1      32.274  25.426  26.442  1.00  0.00     0.368 C 
ATOM      4  O   UNL A   1      31.147  25.219  26.883  1.00  0.00    -0.245 OA
BRANCH   3   5
ATOM      5  C   UNL A   1      33.149  24.325  25.753  1.00  0.00     0.196 C 
ATOM      6  C   UNL A   1      34.408  25.072  25.248  1.00  0.00     0.081 C 
ATOM      7  C   UNL A   1      33.552  23.273  26.832  1.00  0.00     0.108 C 
ATOM      8  C   UNL A   1      35.555  24.149  24.861  1.00  0.00     0.009 C 
ATOM      9  C   UNL A   1      34.797  22.404  26.541  1.00  0.00     0.114 C 
ATOM     10  C   UNL A   1      35.957  23.283  26.046  1.00  0.00     0.028 C 
BRANCH   5  11
ATOM     11  N   UNL A   1      32.490  23.725  24.550  1.00  0.00    -0.332 N 
ATOM     12  H   UNL A   1      33.141  23.069  24.120  1.00  0.00     0.347 HD
ATOM     13  H   UNL A   1      31.636  23.272  24.874  1.00  0.00     0.347 HD
BRANCH  11  14
ATOM     14  C   UNL A   1      32.093  24.711  23.542  1.00  0.00     0.261 C 
BRANCH  14  15
ATOM     15  C   UNL A   1      32.758  24.526  22.175  1.00  0.00     0.058 C 
ATOM     16  C   UNL A   1      33.320  23.140  21.929  1.00  0.00     0.010 C 
ENDBRANCH  14  15
ENDBRANCH  11  14
ENDBRANCH   5  11
BRANCH   9  17
ATOM     17  N   UNL A   1      34.584  21.214  25.719  1.00  0.00    -0.269 N 
ATOM     18  C   UNL A   1      35.567  20.412  25.200  1.00  0.00     0.109 A 
ATOM     19  N   UNL A   1      33.357  20.682  25.571  1.00  0.00    -0.178 NA
ATOM     20  C   UNL A   1      34.940  19.294  24.711  1.00  0.00     0.045 A 
ATOM     21  C   UNL A   1      33.574  19.488  25.005  1.00  0.00     0.059 A 
ATOM     22  C   UNL A   1      32.462  18.532  24.767  1.00  0.00     0.069 C 
ENDBRANCH   9  17
ENDBRANCH   3   5
ENDBRANCH   2   3
ENDBRANCH   1   2
BRANCH   1  23
ATOM     23  C   UNL A   1      32.454  28.936  27.214  1.00  0.00     0.275 C 
BRANCH  23  24
ATOM     24  O   UNL A   1      33.830  28.837  27.603  1.00  0.00    -0.458 OA
BRANCH  24  25
ATOM     25  C   UNL A   1      34.436  29.997  27.951  1.00  0.00     0.338 C 
ATOM     26  O   UNL A   1      33.888  31.076  28.098  1.00  0.00    -0.246 OA
BRANCH  25  27
ATOM     27  C   UNL A   1      35.877  29.738  28.235  1.00  0.00     0.060 A 
ATOM     28  C   UNL A   1      36.319  29.427  29.526  1.00  0.00     0.016 A 
ATOM     29  C   UNL A   1      36.819  29.913  27.219  1.00  0.00     0.016 A 
ATOM     30  C   UNL A   1      37.680  29.365  29.815  1.00  0.00     0.010 A 
ATOM     31  C   UNL A   1      38.182  29.728  27.487  1.00  0.00     0.010 A 
ATOM     32  C   UNL A   1      38.628  29.441  28.789  1.00  0.00    -0.014 A 
BRANCH  32  33
ATOM     33  C   UNL A   1      40.058  29.104  29.042  1.00  0.00     0.031 A 
ATOM     34  C   UNL A   1      41.051  30.170  29.417  1.00  0.00     0.074 A 
ATOM     35  C   UNL A   1      40.482  27.837  28.841  1.00  0.00     0.049 A 
ATOM     36  N   UNL A   1      42.356  30.139  29.342  1.00  0.00    -0.248 NA
ATOM     37  C   UNL A   1      40.510  31.437  29.935  1.00  0.00     0.031 C 
ATOM     38  C   UNL A   1      39.626  26.690  28.519  1.00  0.00     0.029 A 
ATOM     39  N   UNL A   1      41.750  27.303  28.844  1.00  0.00    -0.354 N 
ATOM     40  C   UNL A   1      42.793  31.397  29.738  1.00  0.00     0.074 A 
ATOM     41  C   UNL A   1      41.613  32.163  30.081  1.00  0.00     0.031 C 
ATOM     42  C   UNL A   1      40.383  25.597  28.362  1.00  0.00     0.029 A 
ATOM     43  C   UNL A   1      41.782  25.985  28.447  1.00  0.00     0.049 A 
ATOM     44  H   UNL A   1      42.551  27.811  29.103  1.00  0.00     0.167 HD
ATOM     45  C   UNL A   1      44.065  31.862  29.795  1.00  0.00     0.037 A 
ATOM     46  C   UNL A   1      42.809  25.191  28.092  1.00  0.00     0.037 A 
ATOM     47  C   UNL A   1      45.232  31.066  29.504  1.00  0.00     0.049 A 
ATOM     48  C   UNL A   1      44.198  25.753  28.084  1.00  0.00     0.074 A 
ATOM     49  C   UNL A   1      46.565  31.429  29.597  1.00  0.00     0.029 A 
ATOM     50  N   UNL A   1      45.208  29.751  29.065  1.00  0.00    -0.354 N 
ATOM     51  N   UNL A   1      44.597  26.957  28.417  1.00  0.00    -0.248 NA
ATOM     52  C   UNL A   1      45.268  24.864  27.618  1.00  0.00     0.031 C 
ATOM     53  C   UNL A   1      47.346  30.349  29.173  1.00  0.00     0.029 A 
ATOM     54  C   UNL A   1      46.501  29.299  28.853  1.00  0.00     0.049 A 
ATOM     55  H   UNL A   1      44.393  29.217  28.926  1.00  0.00     0.167 HD
ATOM     56  C   UNL A   1      45.968  26.969  28.200  1.00  0.00     0.074 A 
ATOM     57  C   UNL A   1      46.332  25.648  27.728  1.00  0.00     0.031 C 
ATOM     58  C   UNL A   1      46.845  27.987  28.370  1.00  0.00     0.037 A 
BRANCH  45  59
ATOM     59  C   UNL A   1      44.290  33.306  30.151  1.00  0.00     0.058 A 
ATOM     60  C   UNL A   1      44.315  34.317  29.181  1.00  0.00     0.135 A 
ATOM     61  C   UNL A   1      44.354  33.690  31.502  1.00  0.00     0.135 A 
ATOM     62  F   UNL A   1      44.270  34.004  27.876  1.00  0.00    -0.206 F 
ATOM     63  C   UNL A   1      44.386  35.661  29.537  1.00  0.00     0.059 A 
ATOM     64  C   UNL A   1      44.409  35.028  31.881  1.00  0.00     0.059 A 
ATOM     65  F   UNL A   1      44.335  32.760  32.469  1.00  0.00    -0.206 F 
ATOM     66  C   UNL A   1      44.424  36.008  30.889  1.00  0.00     0.060 A 
BRANCH  66  67
ATOM     67  S   UNL A   1      44.452  37.758  31.336  1.00  0.00     0.124 S 
ATOM     68  O   UNL A   1      43.581  38.333  30.314  1.00  0.00    -0.237 OA
ATOM     69  O   UNL A   1      43.911  37.743  32.691  1.00  0.00    -0.237 OA
ATOM     70  O   UNL A   1      45.862  38.115  31.231  1.00  0.00    -0.744 OA
ENDBRANCH  66  67
ENDBRANCH  45  59
BRANCH  46  71
ATOM     71  C   UNL A   1      42.539  23.813  27.608  1.00  0.00     0.058 A 
ATOM     72  C   UNL A   1      42.384  23.543  26.242  1.00  0.00     0.135 A 
ATOM     73  C   UNL A   1      42.459  22.733  28.504  1.00  0.00     0.135 A 
ATOM     74  F   UNL A   1      42.442  24.544  25.350  1.00  0.00    -0.206 F 
ATOM     75  C   UNL A   1      42.156  22.251  25.779  1.00  0.00     0.059 A 
ATOM     76  C   UNL A   1      42.260  21.430  28.063  1.00  0.00     0.059 A 
ATOM     77  F   UNL A   1      42.613  22.938  29.821  1.00  0.00    -0.206 F 
ATOM     78  C   UNL A   1      42.099  21.201  26.698  1.00  0.00     0.060 A 
BRANCH  78  79
ATOM     79  S   UNL A   1      41.864  19.518  26.088  1.00  0.00     0.124 S 
ATOM     80  O   UNL A   1      40.432  19.506  25.811  1.00  0.00    -0.237 OA
ATOM     81  O   UNL A   1      42.741  19.483  24.921  1.00  0.00    -0.237 OA
ATOM     82  O   UNL A   1      42.300  18.694  27.211  1.00  0.00    -0.744 OA
ENDBRANCH  78  79
ENDBRANCH  46  71
BRANCH  58  83
ATOM     83  C   UNL A   1      48.284  27.702  28.056  1.00  0.00     0.058 A 
ATOM     84  C   UNL A   1      49.130  27.099  28.999  1.00  0.00     0.135 A 
ATOM     85  C   UNL A   1      48.816  28.021  26.798  1.00  0.00     0.135 A 
ATOM     86  F   UNL A   1      48.669  26.791  30.221  1.00  0.00    -0.206 F 
ATOM     87  C   UNL A   1      50.465  26.838  28.711  1.00  0.00     0.059 A 
ATOM     88  C   UNL A   1      50.144  27.749  26.481  1.00  0.00     0.059 A 
ATOM     89  F   UNL A   1      48.045  28.597  25.863  1.00  0.00    -0.206 F 
ATOM     90  C   UNL A   1      50.963  27.169  27.449  1.00  0.00     0.060 A 
BRANCH  90  91
ATOM     91  S   UNL A   1      52.692  26.806  27.077  1.00  0.00     0.124 S 
ATOM     92  O   UNL A   1      53.368  27.386  28.232  1.00  0.00    -0.237 OA
ATOM     93  O   UNL A   1      52.699  25.349  27.004  1.00  0.00    -0.237 OA
ATOM     94  O   UNL A   1      52.915  27.492  25.808  1.00  0.00    -0.744 OA
ENDBRANCH  90  91
ENDBRANCH  58  83
ENDBRANCH  32  33
ENDBRANCH  25  27
ENDBRANCH  24  25
ENDBRANCH  23  24
ENDBRANCH   1  23
TORSDOF 18
ENDMDL
MODEL 2
REMARK VINA RESULT:     -10.5      3.730      6.342
REMARK SMILES CCC[NH2+][C@]1(C(=O)OCCOC(=O)c2ccc(-c3c4nc(c(-c5c(F)cc(S(=O)(=O)[O-])cc5F)c5ccc([nH]5)c(-c5c(F)cc(S(=O)(=O)[O-])cc5F)c5nc(c(-c6c(F)cc(S(=O)(=O)[O-])cc6F)c6ccc3[nH]6)C=C5)C=C4)cc2)CCC[C@H](n2ccc(C)n2)C1
REMARK SMILES IDX 9 1 8 2 6 3 7 4 5 5 80 6 90 7 81 8 83 9 82 10 4 11 3 14 2 15
REMARK SMILES IDX 1 16 84 17 85 18 89 19 86 20 87 21 88 22 10 23 11 24 12 25
REMARK SMILES IDX 13 26 14 27 15 28 79 29 16 30 78 31 17 32 18 33 19 34 72 35
REMARK SMILES IDX 20 36 77 37 71 38 73 39 21 40 76 41 70 42 69 43 22 45 56 46
REMARK SMILES IDX 35 47 55 48 36 49 39 50 54 51 74 52 37 53 38 54 53 56 75 57
REMARK SMILES IDX 40 58 23 59 24 60 33 61 25 62 26 63 32 64 34 65 27 66 28 67
REMARK SMILES IDX 29 68 30 69 31 70 57 71 58 72 67 73 59 74 60 75 66 76 68 77
REMARK SMILES IDX 61 78 62 79 63 80 64 81 65 82 41 83 42 84 51 85 43 86 44 87
REMARK SMILES IDX 50 88 52 89 45 90 46 91 47 92 48 93 49 94
REMARK H PARENT 4 12 4 13 73 44 39 55
REMARK Flexibility Score: inf
ROOT
ATOM      1  C   UNL A   1      33.380  33.147  28.002  1.00  0.00     0.274 C 
ENDROOT
BRANCH   1   2
ATOM      2  O   UNL A   1      33.554  33.206  29.435  1.00  0.00    -0.457 OA
BRANCH   2   3
ATOM      3  C   UNL A   1      34.036  34.385  29.932  1.00  0.00     0.368 C 
ATOM      4  O   UNL A   1      33.715  35.486  29.496  1.00  0.00    -0.245 OA
BRANCH   3   5
ATOM      5  C   UNL A   1      35.098  34.181  31.066  1.00  0.00     0.196 C 
ATOM      6  C   UNL A   1      34.715  35.206  32.162  1.00  0.00     0.081 C 
ATOM      7  C   UNL A   1      34.951  32.730  31.620  1.00  0.00     0.108 C 
ATOM      8  C   UNL A   1      35.387  34.950  33.503  1.00  0.00     0.009 C 
ATOM      9  C   UNL A   1      35.499  32.457  33.039  1.00  0.00     0.114 C 
ATOM     10  C   UNL A   1      35.041  33.557  34.010  1.00  0.00     0.028 C 
BRANCH   5  11
ATOM     11  N   UNL A   1      36.490  34.516  30.628  1.00  0.00    -0.332 N 
ATOM     12  H   UNL A   1      36.528  35.511  30.412  1.00  0.00     0.347 HD
ATOM     13  H   UNL A   1      37.112  34.258  31.394  1.00  0.00     0.347 HD
BRANCH  11  14
ATOM     14  C   UNL A   1      36.933  33.769  29.448  1.00  0.00     0.261 C 
BRANCH  14  15
ATOM     15  C   UNL A   1      38.417  33.392  29.455  1.00  0.00     0.058 C 
ATOM     16  C   UNL A   1      39.367  34.571  29.502  1.00  0.00     0.010 C 
ENDBRANCH  14  15
ENDBRANCH  11  14
ENDBRANCH   5  11
BRANCH   9  17
ATOM     17  N   UNL A   1      36.927  32.159  33.140  1.00  0.00    -0.269 N 
ATOM     18  C   UNL A   1      37.503  30.927  32.967  1.00  0.00     0.109 A 
ATOM     19  N   UNL A   1      37.839  33.145  33.216  1.00  0.00    -0.178 NA
ATOM     20  C   UNL A   1      38.859  31.135  32.908  1.00  0.00     0.045 A 
ATOM     21  C   UNL A   1      39.015  32.532  33.021  1.00  0.00     0.059 A 
ATOM     22  C   UNL A   1      40.281  33.303  32.928  1.00  0.00     0.069 C 
ENDBRANCH   9  17
ENDBRANCH   3   5
ENDBRANCH   2   3
ENDBRANCH   1   2
BRANCH   1  23
ATOM     23  C   UNL A   1      33.626  31.729  27.486  1.00  0.00     0.275 C 
BRANCH  23  24
ATOM     24  O   UNL A   1      34.871  31.260  28.020  1.00  0.00    -0.458 OA
BRANCH  24  25
ATOM     25  C   UNL A   1      35.084  29.924  27.951  1.00  0.00     0.338 C 
ATOM     26  O   UNL A   1      34.261  29.083  27.632  1.00  0.00    -0.246 OA
BRANCH  25  27
ATOM     27  C   UNL A   1      36.521  29.635  28.223  1.00  0.00     0.060 A 
ATOM     28  C   UNL A   1      36.964  29.290  29.504  1.00  0.00     0.016 A 
ATOM     29  C   UNL A   1      37.462  29.816  27.205  1.00  0.00     0.016 A 
ATOM     30  C   UNL A   1      38.325  29.201  29.785  1.00  0.00     0.010 A 
ATOM     31  C   UNL A   1      38.823  29.603  27.463  1.00  0.00     0.010 A 
ATOM     32  C   UNL A   1      39.270  29.282  28.757  1.00  0.00    -0.014 A 
BRANCH  32  33
ATOM     33  C   UNL A   1      40.695  28.916  28.997  1.00  0.00     0.031 A 
ATOM     34  C   UNL A   1      41.713  29.962  29.359  1.00  0.00     0.074 A 
ATOM     35  C   UNL A   1      41.091  27.640  28.794  1.00  0.00     0.049 A 
ATOM     36  N   UNL A   1      43.017  29.904  29.270  1.00  0.00    -0.248 NA
ATOM     37  C   UNL A   1      41.203  31.241  29.879  1.00  0.00     0.031 C 
ATOM     38  C   UNL A   1      40.209  26.511  28.483  1.00  0.00     0.029 A 
ATOM     39  N   UNL A   1      42.347  27.081  28.785  1.00  0.00    -0.354 N 
ATOM     40  C   UNL A   1      43.483  31.154  29.660  1.00  0.00     0.074 A 
ATOM     41  C   UNL A   1      42.323  31.945  30.013  1.00  0.00     0.031 C 
ATOM     42  C   UNL A   1      40.942  25.403  28.320  1.00  0.00     0.029 A 
ATOM     43  C   UNL A   1      42.349  25.762  28.390  1.00  0.00     0.049 A 
ATOM     44  H   UNL A   1      43.162  27.573  29.035  1.00  0.00     0.167 HD
ATOM     45  C   UNL A   1      44.764  31.594  29.703  1.00  0.00     0.037 A 
ATOM     46  C   UNL A   1      43.356  24.946  28.025  1.00  0.00     0.037 A 
ATOM     47  C   UNL A   1      45.912  30.773  29.401  1.00  0.00     0.049 A 
ATOM     48  C   UNL A   1      44.756  25.480  28.002  1.00  0.00     0.074 A 
ATOM     49  C   UNL A   1      47.254  31.110  29.480  1.00  0.00     0.029 A 
ATOM     50  N   UNL A   1      45.857  29.458  28.966  1.00  0.00    -0.354 N 
ATOM     51  N   UNL A   1      45.183  26.676  28.329  1.00  0.00    -0.248 NA
ATOM     52  C   UNL A   1      45.803  24.568  27.528  1.00  0.00     0.031 C 
ATOM     53  C   UNL A   1      48.008  30.013  29.050  1.00  0.00     0.029 A 
ATOM     54  C   UNL A   1      47.138  28.980  28.741  1.00  0.00     0.049 A 
ATOM     55  H   UNL A   1      45.030  28.941  28.836  1.00  0.00     0.167 HD
ATOM     56  C   UNL A   1      46.551  26.660  28.098  1.00  0.00     0.074 A 
ATOM     57  C   UNL A   1      46.883  25.331  27.625  1.00  0.00     0.031 C 
ATOM     58  C   UNL A   1      47.451  27.660  28.257  1.00  0.00     0.037 A 
BRANCH  45  59
ATOM     59  C   UNL A   1      45.022  33.033  30.054  1.00  0.00     0.058 A 
ATOM     60  C   UNL A   1      45.325  33.438  31.361  1.00  0.00     0.135 A 
ATOM     61  C   UNL A   1      45.090  33.999  29.035  1.00  0.00     0.135 A 
ATOM     62  F   UNL A   1      45.263  32.558  32.373  1.00  0.00    -0.206 F 
ATOM     63  C   UNL A   1      45.696  34.749  31.646  1.00  0.00     0.059 A 
ATOM     64  C   UNL A   1      45.473  35.311  29.294  1.00  0.00     0.059 A 
ATOM     65  F   UNL A   1      44.806  33.663  27.767  1.00  0.00    -0.206 F 
ATOM     66  C   UNL A   1      45.776  35.677  30.605  1.00  0.00     0.060 A 
BRANCH  66  67
ATOM     67  S   UNL A   1      46.321  37.358  30.981  1.00  0.00     0.124 S 
ATOM     68  O   UNL A   1      46.924  37.759  29.713  1.00  0.00    -0.237 OA
ATOM     69  O   UNL A   1      45.069  38.023  31.324  1.00  0.00    -0.237 OA
ATOM     70  O   UNL A   1      47.254  37.175  32.088  1.00  0.00    -0.744 OA
ENDBRANCH  66  67
ENDBRANCH  45  59
BRANCH  46  71
ATOM     71  C   UNL A   1      43.053  23.573  27.547  1.00  0.00     0.058 A 
ATOM     72  C   UNL A   1      42.820  22.528  28.451  1.00  0.00     0.135 A 
ATOM     73  C   UNL A   1      42.962  23.287  26.175  1.00  0.00     0.135 A 
ATOM     74  F   UNL A   1      42.906  22.751  29.771  1.00  0.00    -0.206 F 
ATOM     75  C   UNL A   1      42.511  21.244  28.012  1.00  0.00     0.059 A 
ATOM     76  C   UNL A   1      42.627  22.020  25.712  1.00  0.00     0.059 A 
ATOM     77  F   UNL A   1      43.164  24.257  25.270  1.00  0.00    -0.206 F 
ATOM     78  C   UNL A   1      42.414  21.002  26.640  1.00  0.00     0.060 A 
BRANCH  78  79
ATOM     79  S   UNL A   1      41.952  19.350  26.075  1.00  0.00     0.124 S 
ATOM     80  O   UNL A   1      40.517  19.507  25.861  1.00  0.00    -0.237 OA
ATOM     81  O   UNL A   1      42.764  19.193  24.873  1.00  0.00    -0.237 OA
ATOM     82  O   UNL A   1      42.337  18.497  27.195  1.00  0.00    -0.744 OA
ENDBRANCH  78  79
ENDBRANCH  46  71
BRANCH  58  83
ATOM     83  C   UNL A   1      48.880  27.346  27.929  1.00  0.00     0.058 A 
ATOM     84  C   UNL A   1      49.436  27.696  26.689  1.00  0.00     0.135 A 
ATOM     85  C   UNL A   1      49.704  26.704  28.866  1.00  0.00     0.135 A 
ATOM     86  F   UNL A   1      48.683  28.297  25.756  1.00  0.00    -0.206 F 
ATOM     87  C   UNL A   1      50.760  27.402  26.382  1.00  0.00     0.059 A 
ATOM     88  C   UNL A   1      51.037  26.420  28.587  1.00  0.00     0.059 A 
ATOM     89  F   UNL A   1      49.217  26.353  30.067  1.00  0.00    -0.206 F 
ATOM     90  C   UNL A   1      51.552  26.762  27.337  1.00  0.00     0.060 A 
BRANCH  90  91
ATOM     91  S   UNL A   1      53.275  26.404  26.937  1.00  0.00     0.124 S 
ATOM     92  O   UNL A   1      53.179  25.044  26.417  1.00  0.00    -0.237 OA
ATOM     93  O   UNL A   1      53.592  27.437  25.956  1.00  0.00    -0.237 OA
ATOM     94  O   UNL A   1      53.956  26.539  28.221  1.00  0.00    -0.744 OA
ENDBRANCH  90  91
ENDBRANCH  58  83
ENDBRANCH  32  33
ENDBRANCH  25  27
ENDBRANCH  24  25
ENDBRANCH  23  24
ENDBRANCH   1  23
TORSDOF 18
ENDMDL
MODEL 3
REMARK VINA RESULT:     -10.3      0.882      2.150
REMARK SMILES CCC[NH2+][C@]1(C(=O)OCCOC(=O)c2ccc(-c3c4nc(c(-c5c(F)cc(S(=O)(=O)[O-])cc5F)c5ccc([nH]5)c(-c5c(F)cc(S(=O)(=O)[O-])cc5F)c5nc(c(-c6c(F)cc(S(=O)(=O)[O-])cc6F)c6ccc3[nH]6)C=C5)C=C4)cc2)CCC[C@H](n2ccc(C)n2)C1
REMARK SMILES IDX 9 1 8 2 6 3 7 4 5 5 80 6 90 7 81 8 83 9 82 10 4 11 3 14 2 15
REMARK SMILES IDX 1 16 84 17 85 18 89 19 86 20 87 21 88 22 10 23 11 24 12 25
REMARK SMILES IDX 13 26 14 27 15 28 79 29 16 30 78 31 17 32 18 33 19 34 72 35
REMARK SMILES IDX 20 36 77 37 71 38 73 39 21 40 76 41 70 42 69 43 22 45 56 46
REMARK SMILES IDX 35 47 55 48 36 49 39 50 54 51 74 52 37 53 38 54 53 56 75 57
REMARK SMILES IDX 40 58 23 59 24 60 33 61 25 62 26 63 32 64 34 65 27 66 28 67
REMARK SMILES IDX 29 68 30 69 31 70 57 71 58 72 67 73 59 74 60 75 66 76 68 77
REMARK SMILES IDX 61 78 62 79 63 80 64 81 65 82 41 83 42 84 51 85 43 86 44 87
REMARK SMILES IDX 50 88 52 89 45 90 46 91 47 92 48 93 49 94
REMARK H PARENT 4 12 4 13 73 44 39 55
REMARK Flexibility Score: inf
ROOT
ATOM      1  C   UNL A   1      33.071  27.773  26.048  1.00  0.00     0.274 C 
ENDROOT
BRANCH   1   2
ATOM      2  O   UNL A   1      33.854  26.559  26.023  1.00  0.00    -0.457 OA
BRANCH   2   3
ATOM      3  C   UNL A   1      33.670  25.750  24.935  1.00  0.00     0.368 C 
ATOM      4  O   UNL A   1      33.696  26.156  23.777  1.00  0.00    -0.245 OA
BRANCH   3   5
ATOM      5  C   UNL A   1      33.349  24.267  25.323  1.00  0.00     0.196 C 
ATOM      6  C   UNL A   1      32.336  24.369  26.490  1.00  0.00     0.081 C 
ATOM      7  C   UNL A   1      32.679  23.573  24.098  1.00  0.00     0.108 C 
ATOM      8  C   UNL A   1      31.616  23.063  26.794  1.00  0.00     0.009 C 
ATOM      9  C   UNL A   1      31.823  22.317  24.377  1.00  0.00     0.114 C 
ATOM     10  C   UNL A   1      30.875  22.569  25.561  1.00  0.00     0.028 C 
BRANCH   5  11
ATOM     11  N   UNL A   1      34.542  23.531  25.849  1.00  0.00    -0.332 N 
ATOM     12  H   UNL A   1      34.549  23.614  26.865  1.00  0.00     0.347 HD
ATOM     13  H   UNL A   1      34.455  22.564  25.537  1.00  0.00     0.347 HD
BRANCH  11  14
ATOM     14  C   UNL A   1      35.818  24.032  25.334  1.00  0.00     0.261 C 
BRANCH  14  15
ATOM     15  C   UNL A   1      36.695  22.971  24.665  1.00  0.00     0.058 C 
ATOM     16  C   UNL A   1      36.638  22.967  23.151  1.00  0.00     0.010 C 
ENDBRANCH  14  15
ENDBRANCH  11  14
ENDBRANCH   5  11
BRANCH   9  17
ATOM     17  N   UNL A   1      32.541  21.047  24.476  1.00  0.00    -0.269 N 
ATOM     18  C   UNL A   1      33.888  20.871  24.291  1.00  0.00     0.109 A 
ATOM     19  N   UNL A   1      31.944  19.948  24.971  1.00  0.00    -0.178 NA
ATOM     20  C   UNL A   1      34.175  19.596  24.710  1.00  0.00     0.045 A 
ATOM     21  C   UNL A   1      32.945  19.079  25.165  1.00  0.00     0.059 A 
ATOM     22  C   UNL A   1      32.709  17.761  25.807  1.00  0.00     0.069 C 
ENDBRANCH   9  17
ENDBRANCH   3   5
ENDBRANCH   2   3
ENDBRANCH   1   2
BRANCH   1  23
ATOM     23  C   UNL A   1      33.968  28.989  26.282  1.00  0.00     0.275 C 
BRANCH  23  24
ATOM     24  O   UNL A   1      33.943  29.311  27.679  1.00  0.00    -0.458 OA
BRANCH  24  25
ATOM     25  C   UNL A   1      34.633  30.416  28.049  1.00  0.00     0.338 C 
ATOM     26  O   UNL A   1      34.161  31.522  28.248  1.00  0.00    -0.246 OA
BRANCH  25  27
ATOM     27  C   UNL A   1      36.061  30.054  28.282  1.00  0.00     0.060 A 
ATOM     28  C   UNL A   1      37.007  30.124  27.253  1.00  0.00     0.016 A 
ATOM     29  C   UNL A   1      36.444  29.535  29.522  1.00  0.00     0.016 A 
ATOM     30  C   UNL A   1      38.291  29.615  27.433  1.00  0.00     0.010 A 
ATOM     31  C   UNL A   1      37.771  29.138  29.736  1.00  0.00     0.010 A 
ATOM     32  C   UNL A   1      38.714  29.184  28.695  1.00  0.00    -0.014 A 
BRANCH  32  33
ATOM     33  C   UNL A   1      40.152  28.899  28.963  1.00  0.00     0.031 A 
ATOM     34  C   UNL A   1      41.104  30.002  29.340  1.00  0.00     0.074 A 
ATOM     35  C   UNL A   1      40.623  27.647  28.774  1.00  0.00     0.049 A 
ATOM     36  N   UNL A   1      42.410  30.017  29.276  1.00  0.00    -0.248 NA
ATOM     37  C   UNL A   1      40.514  31.252  29.844  1.00  0.00     0.031 C 
ATOM     38  C   UNL A   1      39.810  26.469  28.452  1.00  0.00     0.029 A 
ATOM     39  N   UNL A   1      41.908  27.158  28.792  1.00  0.00    -0.354 N 
ATOM     40  C   UNL A   1      42.798  31.292  29.668  1.00  0.00     0.074 A 
ATOM     41  C   UNL A   1      41.589  32.018  29.995  1.00  0.00     0.031 C 
ATOM     42  C   UNL A   1      40.607  25.402  28.308  1.00  0.00     0.029 A 
ATOM     43  C   UNL A   1      41.991  25.840  28.403  1.00  0.00     0.049 A 
ATOM     44  H   UNL A   1      42.689  27.696  29.054  1.00  0.00     0.167 HD
ATOM     45  C   UNL A   1      44.052  31.802  29.733  1.00  0.00     0.037 A 
ATOM     46  C   UNL A   1      43.048  25.080  28.062  1.00  0.00     0.037 A 
ATOM     47  C   UNL A   1      45.249  31.046  29.457  1.00  0.00     0.049 A 
ATOM     48  C   UNL A   1      44.416  25.691  28.062  1.00  0.00     0.074 A 
ATOM     49  C   UNL A   1      46.568  31.457  29.559  1.00  0.00     0.029 A 
ATOM     50  N   UNL A   1      45.276  29.728  29.027  1.00  0.00    -0.354 N 
ATOM     51  N   UNL A   1      44.770  26.910  28.391  1.00  0.00    -0.248 NA
ATOM     52  C   UNL A   1      45.521  24.838  27.612  1.00  0.00     0.031 C 
ATOM     53  C   UNL A   1      47.390  30.402  29.149  1.00  0.00     0.029 A 
ATOM     54  C   UNL A   1      46.586  29.321  28.829  1.00  0.00     0.049 A 
ATOM     55  H   UNL A   1      44.481  29.165  28.884  1.00  0.00     0.167 HD
ATOM     56  C   UNL A   1      46.141  26.970  28.186  1.00  0.00     0.074 A 
ATOM     57  C   UNL A   1      46.556  25.660  27.726  1.00  0.00     0.031 C 
ATOM     58  C   UNL A   1      46.980  28.019  28.357  1.00  0.00     0.037 A 
BRANCH  45  59
ATOM     59  C   UNL A   1      44.223  33.255  30.082  1.00  0.00     0.058 A 
ATOM     60  C   UNL A   1      44.504  33.679  31.388  1.00  0.00     0.135 A 
ATOM     61  C   UNL A   1      44.228  34.222  29.062  1.00  0.00     0.135 A 
ATOM     62  F   UNL A   1      44.498  32.798  32.401  1.00  0.00    -0.206 F 
ATOM     63  C   UNL A   1      44.795  35.011  31.670  1.00  0.00     0.059 A 
ATOM     64  C   UNL A   1      44.532  35.556  29.319  1.00  0.00     0.059 A 
ATOM     65  F   UNL A   1      43.962  33.868  27.795  1.00  0.00    -0.206 F 
ATOM     66  C   UNL A   1      44.815  35.941  30.629  1.00  0.00     0.060 A 
BRANCH  66  67
ATOM     67  S   UNL A   1      45.258  37.652  31.001  1.00  0.00     0.124 S 
ATOM     68  O   UNL A   1      44.072  38.367  30.537  1.00  0.00    -0.237 OA
ATOM     69  O   UNL A   1      45.449  37.618  32.447  1.00  0.00    -0.237 OA
ATOM     70  O   UNL A   1      46.468  37.871  30.217  1.00  0.00    -0.744 OA
ENDBRANCH  66  67
ENDBRANCH  45  59
BRANCH  46  71
ATOM     71  C   UNL A   1      42.831  23.691  27.585  1.00  0.00     0.058 A 
ATOM     72  C   UNL A   1      42.657  22.635  28.489  1.00  0.00     0.135 A 
ATOM     73  C   UNL A   1      42.766  23.397  26.212  1.00  0.00     0.135 A 
ATOM     74  F   UNL A   1      42.721  22.865  29.809  1.00  0.00    -0.206 F 
ATOM     75  C   UNL A   1      42.428  21.334  28.051  1.00  0.00     0.059 A 
ATOM     76  C   UNL A   1      42.510  22.112  25.750  1.00  0.00     0.059 A 
ATOM     77  F   UNL A   1      42.914  24.376  25.306  1.00  0.00    -0.206 F 
ATOM     78  C   UNL A   1      42.353  21.084  26.679  1.00  0.00     0.060 A 
BRANCH  78  79
ATOM     79  S   UNL A   1      41.995  19.406  26.115  1.00  0.00     0.124 S 
ATOM     80  O   UNL A   1      40.555  19.476  25.892  1.00  0.00    -0.237 OA
ATOM     81  O   UNL A   1      42.822  19.296  24.917  1.00  0.00    -0.237 OA
ATOM     82  O   UNL A   1      42.424  18.580  27.239  1.00  0.00    -0.744 OA
ENDBRANCH  78  79
ENDBRANCH  46  71
BRANCH  58  83
ATOM     83  C   UNL A   1      48.431  27.784  28.057  1.00  0.00     0.058 A 
ATOM     84  C   UNL A   1      48.970  28.076  26.795  1.00  0.00     0.135 A 
ATOM     85  C   UNL A   1      49.291  27.278  29.043  1.00  0.00     0.135 A 
ATOM     86  F   UNL A   1      48.182  28.546  25.816  1.00  0.00    -0.206 F 
ATOM     87  C   UNL A   1      50.314  27.854  26.514  1.00  0.00     0.059 A 
ATOM     88  C   UNL A   1      50.643  27.070  28.790  1.00  0.00     0.059 A 
ATOM     89  F   UNL A   1      48.821  26.987  30.267  1.00  0.00    -0.206 F 
ATOM     90  C   UNL A   1      51.142  27.349  27.518  1.00  0.00     0.060 A 
BRANCH  90  91
ATOM     91  S   UNL A   1      52.890  27.086  27.150  1.00  0.00     0.124 S 
ATOM     92  O   UNL A   1      53.531  27.849  28.216  1.00  0.00    -0.237 OA
ATOM     93  O   UNL A   1      53.016  25.636  27.245  1.00  0.00    -0.237 OA
ATOM     94  O   UNL A   1      53.039  27.636  25.806  1.00  0.00    -0.744 OA
ENDBRANCH  90  91
ENDBRANCH  58  83
ENDBRANCH  32  33
ENDBRANCH  25  27
ENDBRANCH  24  25
ENDBRANCH  23  24
ENDBRANCH   1  23
TORSDOF 18
ENDMDL
