MODEL 1
REMARK VINA RESULT:     -11.3      0.000      0.000
REMARK SMILES COc1ccc(Cl)cc1-c1cnc(OC)c(C(=O)OCCOC(=O)c2ccc(-c3c4nc(c(-c5c(F)cc(S(=O)(=O)[O-])cc5F)c5ccc([nH]5)c(-c5c(F)cc(S(=O)(=O)[O-])cc5F)c5nc(c(-c6c(F)cc(S(=O)(=O)[O-])cc6F)c6ccc3[nH]6)C=C5)C=C4)cc2)c1
REMARK SMILES IDX 21 1 20 2 19 3 17 4 18 5 16 6 10 7 11 8 91 9 12 10 13 11
REMARK SMILES IDX 9 12 3 13 4 14 5 15 8 16 6 17 7 18 2 19 1 20 14 21 15 22
REMARK SMILES IDX 22 23 23 24 24 25 25 26 26 27 90 28 27 29 89 30 28 31 29 32
REMARK SMILES IDX 30 33 83 34 31 35 88 36 82 37 84 38 32 39 87 40 81 41 80 42
REMARK SMILES IDX 33 44 67 45 46 46 66 47 47 48 50 49 65 50 85 51 48 52 49 53
REMARK SMILES IDX 64 55 86 56 51 57 34 58 35 59 44 60 36 61 37 62 43 63 45 64
REMARK SMILES IDX 38 65 39 66 40 67 41 68 42 69 68 70 69 71 78 72 70 73 71 74
REMARK SMILES IDX 77 75 79 76 72 77 73 78 74 79 75 80 76 81 52 82 53 83 62 84
REMARK SMILES IDX 54 85 55 86 61 87 63 88 56 89 57 90 58 91 59 92 60 93
REMARK H PARENT 84 43 50 54
REMARK Flexibility Score: inf
ROOT
ATOM      1  C   UNL A   1      34.561  30.673  27.742  1.00  0.00     0.275 C 
ENDROOT
BRANCH   1   2
ATOM      2  C   UNL A   1      33.403  29.904  27.105  1.00  0.00     0.275 C 
BRANCH   2   3
ATOM      3  O   UNL A   1      33.686  28.499  27.189  1.00  0.00    -0.458 OA
BRANCH   3   4
ATOM      4  C   UNL A   1      32.681  27.666  26.838  1.00  0.00     0.343 C 
ATOM      5  O   UNL A   1      31.607  27.536  27.393  1.00  0.00    -0.246 OA
BRANCH   4   6
ATOM      6  C   UNL A   1      33.116  26.939  25.644  1.00  0.00     0.122 A 
ATOM      7  C   UNL A   1      34.269  24.960  24.817  1.00  0.00     0.005 A 
ATOM      8  C   UNL A   1      33.971  25.425  23.546  1.00  0.00     0.124 A 
ATOM      9  C   UNL A   1      33.857  25.770  25.878  1.00  0.00     0.032 A 
ATOM     10  N   UNL A   1      33.283  26.564  23.294  1.00  0.00    -0.221 NA
ATOM     11  C   UNL A   1      32.824  27.306  24.336  1.00  0.00     0.227 A 
BRANCH   7  12
ATOM     12  C   UNL A   1      34.873  23.644  25.048  1.00  0.00     0.027 A 
ATOM     13  C   UNL A   1      34.079  22.477  25.008  1.00  0.00     0.126 A 
ATOM     14  C   UNL A   1      34.640  21.211  25.197  1.00  0.00     0.048 A 
ATOM     15  C   UNL A   1      36.004  21.092  25.452  1.00  0.00     0.024 A 
ATOM     16  C   UNL A   1      36.247  23.504  25.304  1.00  0.00     0.033 A 
ATOM     17  C   UNL A   1      36.800  22.236  25.505  1.00  0.00     0.041 A 
ATOM     18  Cl  UNL A   1      38.487  22.075  25.808  1.00  0.00    -0.084 Cl
BRANCH  13  19
ATOM     19  O   UNL A   1      32.756  22.599  24.661  1.00  0.00    -0.496 OA
ATOM     20  C   UNL A   1      31.911  21.740  25.423  1.00  0.00     0.278 C 
ENDBRANCH  13  19
ENDBRANCH   7  12
BRANCH  11  21
ATOM     21  O   UNL A   1      32.137  28.372  23.861  1.00  0.00    -0.480 OA
ATOM     22  C   UNL A   1      30.725  28.389  23.808  1.00  0.00     0.280 C 
ENDBRANCH  11  21
ENDBRANCH   4   6
ENDBRANCH   3   4
ENDBRANCH   2   3
ENDBRANCH   1   2
BRANCH   1  23
ATOM     23  O   UNL A   1      35.458  29.758  28.404  1.00  0.00    -0.458 OA
BRANCH  23  24
ATOM     24  C   UNL A   1      36.239  30.308  29.372  1.00  0.00     0.338 C 
ATOM     25  O   UNL A   1      35.856  30.903  30.366  1.00  0.00    -0.246 OA
BRANCH  24  26
ATOM     26  C   UNL A   1      37.657  29.965  29.120  1.00  0.00     0.060 A 
ATOM     27  C   UNL A   1      38.052  29.728  27.799  1.00  0.00     0.016 A 
ATOM     28  C   UNL A   1      38.592  29.883  30.158  1.00  0.00     0.016 A 
ATOM     29  C   UNL A   1      39.384  29.431  27.508  1.00  0.00     0.010 A 
ATOM     30  C   UNL A   1      39.921  29.556  29.868  1.00  0.00     0.010 A 
ATOM     31  C   UNL A   1      40.321  29.323  28.543  1.00  0.00    -0.014 A 
BRANCH  31  32
ATOM     32  C   UNL A   1      41.700  28.876  28.243  1.00  0.00     0.031 A 
ATOM     33  C   UNL A   1      42.810  29.888  28.239  1.00  0.00     0.074 A 
ATOM     34  C   UNL A   1      41.958  27.581  27.991  1.00  0.00     0.049 A 
ATOM     35  N   UNL A   1      44.088  29.712  28.030  1.00  0.00    -0.248 NA
ATOM     36  C   UNL A   1      42.428  31.282  28.512  1.00  0.00     0.031 C 
ATOM     37  C   UNL A   1      40.965  26.506  27.998  1.00  0.00     0.029 A 
ATOM     38  N   UNL A   1      43.135  26.949  27.679  1.00  0.00    -0.354 N 
ATOM     39  C   UNL A   1      44.668  30.966  28.171  1.00  0.00     0.074 A 
ATOM     40  C   UNL A   1      43.598  31.900  28.449  1.00  0.00     0.031 C 
ATOM     41  C   UNL A   1      41.575  25.348  27.690  1.00  0.00     0.029 A 
ATOM     42  C   UNL A   1      42.995  25.601  27.452  1.00  0.00     0.049 A 
ATOM     43  H   UNL A   1      44.000  27.417  27.624  1.00  0.00     0.167 HD
ATOM     44  C   UNL A   1      45.977  31.305  28.086  1.00  0.00     0.037 A 
ATOM     45  C   UNL A   1      43.909  24.681  27.086  1.00  0.00     0.037 A 
ATOM     46  C   UNL A   1      47.032  30.382  27.766  1.00  0.00     0.049 A 
ATOM     47  C   UNL A   1      45.345  25.100  26.910  1.00  0.00     0.074 A 
ATOM     48  C   UNL A   1      48.387  30.631  27.638  1.00  0.00     0.029 A 
ATOM     49  N   UNL A   1      46.847  29.032  27.506  1.00  0.00    -0.354 N 
ATOM     50  N   UNL A   1      45.887  26.282  27.087  1.00  0.00    -0.248 NA
ATOM     51  C   UNL A   1      46.296  24.061  26.488  1.00  0.00     0.031 C 
ATOM     52  C   UNL A   1      49.016  29.439  27.259  1.00  0.00     0.029 A 
ATOM     53  C   UNL A   1      48.058  28.440  27.191  1.00  0.00     0.049 A 
ATOM     54  H   UNL A   1      45.982  28.563  27.541  1.00  0.00     0.167 HD
ATOM     55  C   UNL A   1      47.243  26.123  26.821  1.00  0.00     0.074 A 
ATOM     56  C   UNL A   1      47.442  24.731  26.479  1.00  0.00     0.031 C 
ATOM     57  C   UNL A   1      48.235  27.047  26.858  1.00  0.00     0.037 A 
BRANCH  44  58
ATOM     58  C   UNL A   1      46.324  32.747  28.317  1.00  0.00     0.058 A 
ATOM     59  C   UNL A   1      46.296  33.683  27.270  1.00  0.00     0.135 A 
ATOM     60  C   UNL A   1      46.691  33.199  29.594  1.00  0.00     0.135 A 
ATOM     61  F   UNL A   1      45.970  33.297  26.027  1.00  0.00    -0.206 F 
ATOM     62  C   UNL A   1      46.647  35.013  27.477  1.00  0.00     0.059 A 
ATOM     63  C   UNL A   1      47.027  34.530  29.827  1.00  0.00     0.059 A 
ATOM     64  F   UNL A   1      46.739  32.343  30.626  1.00  0.00    -0.206 F 
ATOM     65  C   UNL A   1      47.019  35.425  28.757  1.00  0.00     0.060 A 
BRANCH  65  66
ATOM     66  S   UNL A   1      47.496  37.149  29.007  1.00  0.00     0.124 S 
ATOM     67  O   UNL A   1      46.357  37.658  29.764  1.00  0.00    -0.237 OA
ATOM     68  O   UNL A   1      48.746  37.025  29.750  1.00  0.00    -0.237 OA
ATOM     69  O   UNL A   1      47.627  37.665  27.648  1.00  0.00    -0.744 OA
ENDBRANCH  65  66
ENDBRANCH  44  58
BRANCH  45  70
ATOM     70  C   UNL A   1      43.496  23.271  26.852  1.00  0.00     0.058 A 
ATOM     71  C   UNL A   1      43.194  22.416  27.921  1.00  0.00     0.135 A 
ATOM     72  C   UNL A   1      43.408  22.750  25.552  1.00  0.00     0.135 A 
ATOM     73  F   UNL A   1      43.276  22.865  29.183  1.00  0.00    -0.206 F 
ATOM     74  C   UNL A   1      42.835  21.087  27.713  1.00  0.00     0.059 A 
ATOM     75  C   UNL A   1      43.031  21.431  25.317  1.00  0.00     0.059 A 
ATOM     76  F   UNL A   1      43.678  23.531  24.494  1.00  0.00    -0.206 F 
ATOM     77  C   UNL A   1      42.759  20.604  26.404  1.00  0.00     0.060 A 
BRANCH  77  78
ATOM     78  S   UNL A   1      42.262  18.887  26.138  1.00  0.00     0.124 S 
ATOM     79  O   UNL A   1      42.530  18.298  27.444  1.00  0.00    -0.237 OA
ATOM     80  O   UNL A   1      40.855  19.024  25.774  1.00  0.00    -0.237 OA
ATOM     81  O   UNL A   1      43.140  18.450  25.056  1.00  0.00    -0.744 OA
ENDBRANCH  77  78
ENDBRANCH  45  70
BRANCH  57  82
ATOM     82  C   UNL A   1      49.628  26.581  26.540  1.00  0.00     0.058 A 
ATOM     83  C   UNL A   1      50.449  26.002  27.519  1.00  0.00     0.135 A 
ATOM     84  C   UNL A   1      50.123  26.659  25.229  1.00  0.00     0.135 A 
ATOM     85  F   UNL A   1      50.024  25.911  28.789  1.00  0.00    -0.206 F 
ATOM     86  C   UNL A   1      51.721  25.528  27.213  1.00  0.00     0.059 A 
ATOM     87  C   UNL A   1      51.383  26.171  24.895  1.00  0.00     0.059 A 
ATOM     88  F   UNL A   1      49.374  27.196  24.253  1.00  0.00    -0.206 F 
ATOM     89  C   UNL A   1      52.179  25.615  25.896  1.00  0.00     0.060 A 
BRANCH  89  90
ATOM     90  S   UNL A   1      53.811  24.952  25.498  1.00  0.00     0.124 S 
ATOM     91  O   UNL A   1      54.578  25.331  26.680  1.00  0.00    -0.237 OA
ATOM     92  O   UNL A   1      53.544  23.526  25.346  1.00  0.00    -0.237 OA
ATOM     93  O   UNL A   1      54.168  25.651  24.267  1.00  0.00    -0.744 OA
ENDBRANCH  89  90
ENDBRANCH  57  82
ENDBRANCH  31  32
ENDBRANCH  24  26
ENDBRANCH  23  24
ENDBRANCH   1  23
TORSDOF 17
ENDMDL
MODEL 2
REMARK VINA RESULT:     -11.3      6.802     12.227
REMARK SMILES COc1ccc(Cl)cc1-c1cnc(OC)c(C(=O)OCCOC(=O)c2ccc(-c3c4nc(c(-c5c(F)cc(S(=O)(=O)[O-])cc5F)c5ccc([nH]5)c(-c5c(F)cc(S(=O)(=O)[O-])cc5F)c5nc(c(-c6c(F)cc(S(=O)(=O)[O-])cc6F)c6ccc3[nH]6)C=C5)C=C4)cc2)c1
REMARK SMILES IDX 21 1 20 2 19 3 17 4 18 5 16 6 10 7 11 8 91 9 12 10 13 11
REMARK SMILES IDX 9 12 3 13 4 14 5 15 8 16 6 17 7 18 2 19 1 20 14 21 15 22
REMARK SMILES IDX 22 23 23 24 24 25 25 26 26 27 90 28 27 29 89 30 28 31 29 32
REMARK SMILES IDX 30 33 83 34 31 35 88 36 82 37 84 38 32 39 87 40 81 41 80 42
REMARK SMILES IDX 33 44 67 45 46 46 66 47 47 48 50 49 65 50 85 51 48 52 49 53
REMARK SMILES IDX 64 55 86 56 51 57 34 58 35 59 44 60 36 61 37 62 43 63 45 64
REMARK SMILES IDX 38 65 39 66 40 67 41 68 42 69 68 70 69 71 78 72 70 73 71 74
REMARK SMILES IDX 77 75 79 76 72 77 73 78 74 79 75 80 76 81 52 82 53 83 62 84
REMARK SMILES IDX 54 85 55 86 61 87 63 88 56 89 57 90 58 91 59 92 60 93
REMARK H PARENT 84 43 50 54
REMARK Flexibility Score: inf
ROOT
ATOM      1  C   UNL A   1      39.740  22.359  26.651  1.00  0.00     0.275 C 
ENDROOT
BRANCH   1   2
ATOM      2  C   UNL A   1      38.648  21.781  25.750  1.00  0.00     0.275 C 
BRANCH   2   3
ATOM      3  O   UNL A   1      37.471  22.593  25.879  1.00  0.00    -0.458 OA
BRANCH   3   4
ATOM      4  C   UNL A   1      36.727  22.747  24.762  1.00  0.00     0.343 C 
ATOM      5  O   UNL A   1      37.074  22.544  23.614  1.00  0.00    -0.246 OA
BRANCH   4   6
ATOM      6  C   UNL A   1      35.401  23.204  25.182  1.00  0.00     0.122 A 
ATOM      7  C   UNL A   1      33.944  25.136  25.454  1.00  0.00     0.005 A 
ATOM      8  C   UNL A   1      32.979  24.239  25.880  1.00  0.00     0.124 A 
ATOM      9  C   UNL A   1      35.191  24.591  25.139  1.00  0.00     0.032 A 
ATOM     10  N   UNL A   1      33.167  22.900  25.960  1.00  0.00    -0.221 NA
ATOM     11  C   UNL A   1      34.360  22.374  25.580  1.00  0.00     0.227 A 
BRANCH   7  12
ATOM     12  C   UNL A   1      33.650  26.556  25.230  1.00  0.00     0.027 A 
ATOM     13  C   UNL A   1      33.316  27.021  23.940  1.00  0.00     0.126 A 
ATOM     14  C   UNL A   1      33.004  28.363  23.711  1.00  0.00     0.048 A 
ATOM     15  C   UNL A   1      33.044  29.270  24.767  1.00  0.00     0.024 A 
ATOM     16  C   UNL A   1      33.683  27.485  26.283  1.00  0.00     0.033 A 
ATOM     17  C   UNL A   1      33.383  28.829  26.045  1.00  0.00     0.041 A 
ATOM     18  Cl  UNL A   1      33.416  29.958  27.345  1.00  0.00    -0.084 Cl
BRANCH  13  19
ATOM     19  O   UNL A   1      33.185  26.102  22.928  1.00  0.00    -0.496 OA
ATOM     20  C   UNL A   1      32.123  26.422  22.033  1.00  0.00     0.278 C 
ENDBRANCH  13  19
ENDBRANCH   7  12
BRANCH  11  21
ATOM     21  O   UNL A   1      34.318  21.025  25.703  1.00  0.00    -0.480 OA
ATOM     22  C   UNL A   1      33.097  20.314  25.718  1.00  0.00     0.280 C 
ENDBRANCH  11  21
ENDBRANCH   4   6
ENDBRANCH   3   4
ENDBRANCH   2   3
ENDBRANCH   1   2
BRANCH   1  23
ATOM     23  O   UNL A   1      39.653  23.798  26.674  1.00  0.00    -0.458 OA
BRANCH  23  24
ATOM     24  C   UNL A   1      40.830  24.448  26.877  1.00  0.00     0.338 C 
ATOM     25  O   UNL A   1      41.871  24.275  26.265  1.00  0.00    -0.246 OA
BRANCH  24  26
ATOM     26  C   UNL A   1      40.638  25.520  27.879  1.00  0.00     0.060 A 
ATOM     27  C   UNL A   1      41.666  26.454  28.049  1.00  0.00     0.016 A 
ATOM     28  C   UNL A   1      39.467  25.620  28.638  1.00  0.00     0.016 A 
ATOM     29  C   UNL A   1      41.519  27.500  28.960  1.00  0.00     0.010 A 
ATOM     30  C   UNL A   1      39.333  26.653  29.572  1.00  0.00     0.010 A 
ATOM     31  C   UNL A   1      40.361  27.594  29.740  1.00  0.00    -0.014 A 
BRANCH  31  32
ATOM     32  C   UNL A   1      40.268  28.625  30.799  1.00  0.00     0.031 A 
ATOM     33  C   UNL A   1      41.168  28.525  31.996  1.00  0.00     0.074 A 
ATOM     34  C   UNL A   1      39.398  29.644  30.683  1.00  0.00     0.049 A 
ATOM     35  N   UNL A   1      41.272  29.328  33.022  1.00  0.00    -0.248 NA
ATOM     36  C   UNL A   1      42.076  27.368  32.039  1.00  0.00     0.031 C 
ATOM     37  C   UNL A   1      38.496  29.860  29.552  1.00  0.00     0.029 A 
ATOM     38  N   UNL A   1      39.130  30.690  31.531  1.00  0.00    -0.354 N 
ATOM     39  C   UNL A   1      42.274  28.791  33.821  1.00  0.00     0.074 A 
ATOM     40  C   UNL A   1      42.722  27.574  33.178  1.00  0.00     0.031 C 
ATOM     41  C   UNL A   1      37.764  30.963  29.783  1.00  0.00     0.029 A 
ATOM     42  C   UNL A   1      38.135  31.523  31.081  1.00  0.00     0.049 A 
ATOM     43  H   UNL A   1      39.606  30.830  32.381  1.00  0.00     0.167 HD
ATOM     44  C   UNL A   1      42.779  29.275  34.980  1.00  0.00     0.037 A 
ATOM     45  C   UNL A   1      37.583  32.609  31.657  1.00  0.00     0.037 A 
ATOM     46  C   UNL A   1      42.301  30.462  35.637  1.00  0.00     0.049 A 
ATOM     47  C   UNL A   1      38.103  33.078  32.991  1.00  0.00     0.074 A 
ATOM     48  C   UNL A   1      42.736  31.024  36.825  1.00  0.00     0.029 A 
ATOM     49  N   UNL A   1      41.267  31.260  35.171  1.00  0.00    -0.354 N 
ATOM     50  N   UNL A   1      39.078  32.583  33.717  1.00  0.00    -0.248 NA
ATOM     51  C   UNL A   1      37.450  34.254  33.586  1.00  0.00     0.031 C 
ATOM     52  C   UNL A   1      41.935  32.140  37.098  1.00  0.00     0.029 A 
ATOM     53  C   UNL A   1      41.030  32.295  36.060  1.00  0.00     0.049 A 
ATOM     54  H   UNL A   1      40.774  31.112  34.332  1.00  0.00     0.167 HD
ATOM     55  C   UNL A   1      39.171  33.400  34.840  1.00  0.00     0.074 A 
ATOM     56  C   UNL A   1      38.159  34.425  34.694  1.00  0.00     0.031 C 
ATOM     57  C   UNL A   1      40.018  33.310  35.894  1.00  0.00     0.037 A 
BRANCH  44  58
ATOM     58  C   UNL A   1      43.892  28.494  35.618  1.00  0.00     0.058 A 
ATOM     59  C   UNL A   1      45.235  28.731  35.285  1.00  0.00     0.135 A 
ATOM     60  C   UNL A   1      43.615  27.500  36.568  1.00  0.00     0.135 A 
ATOM     61  F   UNL A   1      45.551  29.659  34.367  1.00  0.00    -0.206 F 
ATOM     62  C   UNL A   1      46.265  27.988  35.852  1.00  0.00     0.059 A 
ATOM     63  C   UNL A   1      44.632  26.758  37.163  1.00  0.00     0.059 A 
ATOM     64  F   UNL A   1      42.347  27.231  36.916  1.00  0.00    -0.206 F 
ATOM     65  C   UNL A   1      45.952  26.999  36.784  1.00  0.00     0.060 A 
BRANCH  65  66
ATOM     66  S   UNL A   1      47.296  26.024  37.496  1.00  0.00     0.124 S 
ATOM     67  O   UNL A   1      46.654  24.725  37.667  1.00  0.00    -0.237 OA
ATOM     68  O   UNL A   1      48.319  26.092  36.457  1.00  0.00    -0.237 OA
ATOM     69  O   UNL A   1      47.614  26.735  38.730  1.00  0.00    -0.744 OA
ENDBRANCH  65  66
ENDBRANCH  44  58
BRANCH  45  70
ATOM     70  C   UNL A   1      36.469  33.328  30.983  1.00  0.00     0.058 A 
ATOM     71  C   UNL A   1      36.690  34.088  29.826  1.00  0.00     0.135 A 
ATOM     72  C   UNL A   1      35.161  33.275  31.492  1.00  0.00     0.135 A 
ATOM     73  F   UNL A   1      37.925  34.179  29.309  1.00  0.00    -0.206 F 
ATOM     74  C   UNL A   1      35.659  34.788  29.205  1.00  0.00     0.059 A 
ATOM     75  C   UNL A   1      34.110  33.948  30.877  1.00  0.00     0.059 A 
ATOM     76  F   UNL A   1      34.896  32.553  32.592  1.00  0.00    -0.206 F 
ATOM     77  C   UNL A   1      34.371  34.712  29.741  1.00  0.00     0.060 A 
BRANCH  77  78
ATOM     78  S   UNL A   1      33.030  35.595  28.913  1.00  0.00     0.124 S 
ATOM     79  O   UNL A   1      32.431  34.534  28.111  1.00  0.00    -0.237 OA
ATOM     80  O   UNL A   1      32.233  36.075  30.037  1.00  0.00    -0.237 OA
ATOM     81  O   UNL A   1      33.729  36.635  28.162  1.00  0.00    -0.744 OA
ENDBRANCH  77  78
ENDBRANCH  45  70
BRANCH  57  82
ATOM     82  C   UNL A   1      39.904  34.357  36.966  1.00  0.00     0.058 A 
ATOM     83  C   UNL A   1      40.595  35.575  36.879  1.00  0.00     0.135 A 
ATOM     84  C   UNL A   1      39.046  34.165  38.061  1.00  0.00     0.135 A 
ATOM     85  F   UNL A   1      41.432  35.804  35.855  1.00  0.00    -0.206 F 
ATOM     86  C   UNL A   1      40.451  36.562  37.848  1.00  0.00     0.059 A 
ATOM     87  C   UNL A   1      38.871  35.147  39.030  1.00  0.00     0.059 A 
ATOM     88  F   UNL A   1      38.355  33.021  38.186  1.00  0.00    -0.206 F 
ATOM     89  C   UNL A   1      39.584  36.340  38.920  1.00  0.00     0.060 A 
BRANCH  89  90
ATOM     90  S   UNL A   1      39.366  37.647  40.148  1.00  0.00     0.124 S 
ATOM     91  O   UNL A   1      39.077  36.875  41.351  1.00  0.00    -0.237 OA
ATOM     92  O   UNL A   1      40.660  38.321  40.124  1.00  0.00    -0.237 OA
ATOM     93  O   UNL A   1      38.252  38.426  39.617  1.00  0.00    -0.744 OA
ENDBRANCH  89  90
ENDBRANCH  57  82
ENDBRANCH  31  32
ENDBRANCH  24  26
ENDBRANCH  23  24
ENDBRANCH   1  23
TORSDOF 17
ENDMDL
MODEL 3
REMARK VINA RESULT:     -11.3      2.833      3.473
REMARK SMILES COc1ccc(Cl)cc1-c1cnc(OC)c(C(=O)OCCOC(=O)c2ccc(-c3c4nc(c(-c5c(F)cc(S(=O)(=O)[O-])cc5F)c5ccc([nH]5)c(-c5c(F)cc(S(=O)(=O)[O-])cc5F)c5nc(c(-c6c(F)cc(S(=O)(=O)[O-])cc6F)c6ccc3[nH]6)C=C5)C=C4)cc2)c1
REMARK SMILES IDX 21 1 20 2 19 3 17 4 18 5 16 6 10 7 11 8 91 9 12 10 13 11
REMARK SMILES IDX 9 12 3 13 4 14 5 15 8 16 6 17 7 18 2 19 1 20 14 21 15 22
REMARK SMILES IDX 22 23 23 24 24 25 25 26 26 27 90 28 27 29 89 30 28 31 29 32
REMARK SMILES IDX 30 33 83 34 31 35 88 36 82 37 84 38 32 39 87 40 81 41 80 42
REMARK SMILES IDX 33 44 67 45 46 46 66 47 47 48 50 49 65 50 85 51 48 52 49 53
REMARK SMILES IDX 64 55 86 56 51 57 34 58 35 59 44 60 36 61 37 62 43 63 45 64
REMARK SMILES IDX 38 65 39 66 40 67 41 68 42 69 68 70 69 71 78 72 70 73 71 74
REMARK SMILES IDX 77 75 79 76 72 77 73 78 74 79 75 80 76 81 52 82 53 83 62 84
REMARK SMILES IDX 54 85 55 86 61 87 63 88 56 89 57 90 58 91 59 92 60 93
REMARK H PARENT 84 43 50 54
REMARK Flexibility Score: inf
ROOT
ATOM      1  C   UNL A   1      32.539  29.164  26.666  1.00  0.00     0.275 C 
ENDROOT
BRANCH   1   2
ATOM      2  C   UNL A   1      31.448  28.247  27.220  1.00  0.00     0.275 C 
BRANCH   2   3
ATOM      3  O   UNL A   1      31.974  26.915  27.313  1.00  0.00    -0.458 OA
BRANCH   3   4
ATOM      4  C   UNL A   1      31.437  26.002  26.474  1.00  0.00     0.343 C 
ATOM      5  O   UNL A   1      30.345  25.474  26.562  1.00  0.00    -0.246 OA
BRANCH   4   6
ATOM      6  C   UNL A   1      32.416  25.759  25.412  1.00  0.00     0.122 A 
ATOM      7  C   UNL A   1      34.369  24.464  24.751  1.00  0.00     0.005 A 
ATOM      8  C   UNL A   1      34.299  25.139  23.543  1.00  0.00     0.124 A 
ATOM      9  C   UNL A   1      33.420  24.824  25.710  1.00  0.00     0.032 A 
ATOM     10  N   UNL A   1      33.359  26.067  23.243  1.00  0.00    -0.221 NA
ATOM     11  C   UNL A   1      32.397  26.355  24.157  1.00  0.00     0.227 A 
BRANCH   7  12
ATOM     12  C   UNL A   1      35.303  23.355  24.976  1.00  0.00     0.027 A 
ATOM     13  C   UNL A   1      34.931  22.032  24.651  1.00  0.00     0.126 A 
ATOM     14  C   UNL A   1      35.815  20.966  24.830  1.00  0.00     0.048 A 
ATOM     15  C   UNL A   1      37.082  21.202  25.360  1.00  0.00     0.024 A 
ATOM     16  C   UNL A   1      36.585  23.574  25.506  1.00  0.00     0.033 A 
ATOM     17  C   UNL A   1      37.460  22.501  25.696  1.00  0.00     0.041 A 
ATOM     18  Cl  UNL A   1      39.033  22.782  26.337  1.00  0.00    -0.084 Cl
BRANCH  13  19
ATOM     19  O   UNL A   1      33.718  21.826  24.041  1.00  0.00    -0.496 OA
ATOM     20  C   UNL A   1      32.849  21.006  24.818  1.00  0.00     0.278 C 
ENDBRANCH  13  19
ENDBRANCH   7  12
BRANCH  11  21
ATOM     21  O   UNL A   1      31.545  27.273  23.640  1.00  0.00    -0.480 OA
ATOM     22  C   UNL A   1      30.220  26.943  23.277  1.00  0.00     0.280 C 
ENDBRANCH  11  21
ENDBRANCH   4   6
ENDBRANCH   3   4
ENDBRANCH   2   3
ENDBRANCH   1   2
BRANCH   1  23
ATOM     23  O   UNL A   1      33.757  28.996  27.419  1.00  0.00    -0.458 OA
BRANCH  23  24
ATOM     24  C   UNL A   1      34.343  30.147  27.842  1.00  0.00     0.338 C 
ATOM     25  O   UNL A   1      33.794  31.223  28.011  1.00  0.00    -0.246 OA
BRANCH  24  26
ATOM     26  C   UNL A   1      35.752  29.882  28.208  1.00  0.00     0.060 A 
ATOM     27  C   UNL A   1      36.729  30.034  27.219  1.00  0.00     0.016 A 
ATOM     28  C   UNL A   1      36.118  29.497  29.503  1.00  0.00     0.016 A 
ATOM     29  C   UNL A   1      38.074  29.824  27.524  1.00  0.00     0.010 A 
ATOM     30  C   UNL A   1      37.464  29.258  29.800  1.00  0.00     0.010 A 
ATOM     31  C   UNL A   1      38.446  29.416  28.811  1.00  0.00    -0.014 A 
BRANCH  31  32
ATOM     32  C   UNL A   1      39.858  29.065  29.092  1.00  0.00     0.031 A 
ATOM     33  C   UNL A   1      40.748  30.086  29.741  1.00  0.00     0.074 A 
ATOM     34  C   UNL A   1      40.332  27.845  28.784  1.00  0.00     0.049 A 
ATOM     35  N   UNL A   1      42.000  29.983  30.099  1.00  0.00    -0.248 NA
ATOM     36  C   UNL A   1      40.142  31.396  30.028  1.00  0.00     0.031 C 
ATOM     37  C   UNL A   1      39.552  26.765  28.180  1.00  0.00     0.029 A 
ATOM     38  N   UNL A   1      41.586  27.310  28.935  1.00  0.00    -0.354 N 
ATOM     39  C   UNL A   1      42.328  31.202  30.677  1.00  0.00     0.074 A 
ATOM     40  C   UNL A   1      41.153  32.043  30.591  1.00  0.00     0.031 C 
ATOM     41  C   UNL A   1      40.351  25.699  28.000  1.00  0.00     0.029 A 
ATOM     42  C   UNL A   1      41.698  26.025  28.463  1.00  0.00     0.049 A 
ATOM     43  H   UNL A   1      42.335  27.801  29.344  1.00  0.00     0.167 HD
ATOM     44  C   UNL A   1      43.501  31.582  31.238  1.00  0.00     0.037 A 
ATOM     45  C   UNL A   1      42.771  25.211  28.405  1.00  0.00     0.037 A 
ATOM     46  C   UNL A   1      44.679  30.759  31.283  1.00  0.00     0.049 A 
ATOM     47  C   UNL A   1      44.089  25.689  28.955  1.00  0.00     0.074 A 
ATOM     48  C   UNL A   1      45.922  31.060  31.813  1.00  0.00     0.029 A 
ATOM     49  N   UNL A   1      44.767  29.477  30.762  1.00  0.00    -0.354 N 
ATOM     50  N   UNL A   1      44.375  26.830  29.536  1.00  0.00    -0.248 NA
ATOM     51  C   UNL A   1      45.231  24.770  28.846  1.00  0.00     0.031 C 
ATOM     52  C   UNL A   1      46.773  29.974  31.575  1.00  0.00     0.029 A 
ATOM     53  C   UNL A   1      46.049  28.982  30.932  1.00  0.00     0.049 A 
ATOM     54  H   UNL A   1      44.026  28.989  30.333  1.00  0.00     0.167 HD
ATOM     55  C   UNL A   1      45.720  26.756  29.882  1.00  0.00     0.074 A 
ATOM     56  C   UNL A   1      46.190  25.456  29.453  1.00  0.00     0.031 C 
ATOM     57  C   UNL A   1      46.496  27.680  30.500  1.00  0.00     0.037 A 
BRANCH  44  58
ATOM     58  C   UNL A   1      43.562  32.964  31.822  1.00  0.00     0.058 A 
ATOM     59  C   UNL A   1      43.926  34.072  31.039  1.00  0.00     0.135 A 
ATOM     60  C   UNL A   1      43.257  33.185  33.173  1.00  0.00     0.135 A 
ATOM     61  F   UNL A   1      44.245  33.911  29.745  1.00  0.00    -0.206 F 
ATOM     62  C   UNL A   1      44.012  35.348  31.585  1.00  0.00     0.059 A 
ATOM     63  C   UNL A   1      43.317  34.457  33.735  1.00  0.00     0.059 A 
ATOM     64  F   UNL A   1      42.909  32.158  33.964  1.00  0.00    -0.206 F 
ATOM     65  C   UNL A   1      43.714  35.529  32.936  1.00  0.00     0.060 A 
BRANCH  65  66
ATOM     66  S   UNL A   1      43.854  37.187  33.639  1.00  0.00     0.124 S 
ATOM     67  O   UNL A   1      43.916  38.008  32.434  1.00  0.00    -0.237 OA
ATOM     68  O   UNL A   1      42.627  37.302  34.421  1.00  0.00    -0.237 OA
ATOM     69  O   UNL A   1      45.086  37.122  34.419  1.00  0.00    -0.744 OA
ENDBRANCH  65  66
ENDBRANCH  44  58
BRANCH  45  70
ATOM     70  C   UNL A   1      42.649  23.859  27.795  1.00  0.00     0.058 A 
ATOM     71  C   UNL A   1      42.480  22.716  28.589  1.00  0.00     0.135 A 
ATOM     72  C   UNL A   1      42.712  23.685  26.403  1.00  0.00     0.135 A 
ATOM     73  F   UNL A   1      42.427  22.831  29.925  1.00  0.00    -0.206 F 
ATOM     74  C   UNL A   1      42.395  21.445  28.029  1.00  0.00     0.059 A 
ATOM     75  C   UNL A   1      42.609  22.427  25.818  1.00  0.00     0.059 A 
ATOM     76  F   UNL A   1      42.864  24.749  25.599  1.00  0.00    -0.206 F 
ATOM     77  C   UNL A   1      42.463  21.311  26.640  1.00  0.00     0.060 A 
BRANCH  77  78
ATOM     78  S   UNL A   1      42.319  19.662  25.916  1.00  0.00     0.124 S 
ATOM     79  O   UNL A   1      43.331  19.714  24.867  1.00  0.00    -0.237 OA
ATOM     80  O   UNL A   1      42.620  18.797  27.052  1.00  0.00    -0.237 OA
ATOM     81  O   UNL A   1      40.934  19.619  25.456  1.00  0.00    -0.744 OA
ENDBRANCH  77  78
ENDBRANCH  45  70
BRANCH  57  82
ATOM     82  C   UNL A   1      47.929  27.315  30.769  1.00  0.00     0.058 A 
ATOM     83  C   UNL A   1      48.287  26.506  31.858  1.00  0.00     0.135 A 
ATOM     84  C   UNL A   1      48.945  27.727  29.893  1.00  0.00     0.135 A 
ATOM     85  F   UNL A   1      47.353  26.091  32.728  1.00  0.00    -0.206 F 
ATOM     86  C   UNL A   1      49.608  26.129  32.078  1.00  0.00     0.059 A 
ATOM     87  C   UNL A   1      50.270  27.344  30.082  1.00  0.00     0.059 A 
ATOM     88  F   UNL A   1      48.653  28.494  28.831  1.00  0.00    -0.206 F 
ATOM     89  C   UNL A   1      50.593  26.552  31.182  1.00  0.00     0.060 A 
BRANCH  89  90
ATOM     90  S   UNL A   1      52.298  26.017  31.448  1.00  0.00     0.124 S 
ATOM     91  O   UNL A   1      52.103  24.691  32.025  1.00  0.00    -0.237 OA
ATOM     92  O   UNL A   1      52.852  26.045  30.099  1.00  0.00    -0.237 OA
ATOM     93  O   UNL A   1      52.830  27.027  32.358  1.00  0.00    -0.744 OA
ENDBRANCH  89  90
ENDBRANCH  57  82
ENDBRANCH  31  32
ENDBRANCH  24  26
ENDBRANCH  23  24
ENDBRANCH   1  23
TORSDOF 17
ENDMDL
