MODEL 1
REMARK VINA RESULT:     -11.8      0.000      0.000
REMARK SMILES CS(=O)(=O)Nc1ccc(-c2cc(Cl)cc3c2O[C@H](C(F)(F)F)C(C(=O)OCCOC(=O)c2ccc(-c4c5nc(c(-c6c(F)cc(S(=O)(=O)[O-])cc6F)c6ccc([nH]6)c(-c6c(F)cc(S(=O)(=O)[O-])cc6F)c6nc(c(-c7c(F)cc(S(=O)(=O)[O-])cc7F)c7ccc4[nH]7)C=C6)C=C5)cc2)=C3)cc1
REMARK SMILES IDX 27 1 26 2 24 3 25 4 23 5 10 6 11 7 16 8 12 9 15 10 17 11
REMARK SMILES IDX 13 12 14 13 98 14 18 15 9 16 6 17 7 18 100 19 8 20 99 21
REMARK SMILES IDX 5 22 2 24 1 25 3 26 4 27 19 28 20 29 21 30 22 31 28 32 29 33
REMARK SMILES IDX 30 34 31 35 32 36 33 37 97 38 34 39 96 40 35 41 36 42 37 43
REMARK SMILES IDX 90 44 38 45 95 46 89 47 91 48 39 49 94 50 88 51 87 52 40 54
REMARK SMILES IDX 74 55 53 56 73 57 54 58 57 59 72 60 92 61 55 62 56 63 71 65
REMARK SMILES IDX 93 66 58 67 41 68 42 69 51 70 43 71 44 72 50 73 52 74 45 75
REMARK SMILES IDX 46 76 47 77 48 78 49 79 75 80 76 81 85 82 77 83 78 84 84 85
REMARK SMILES IDX 86 86 79 87 80 88 81 89 82 90 83 91 59 92 60 93 69 94 61 95
REMARK SMILES IDX 62 96 68 97 70 98 63 99 64 100 65 101 66 102 67 103
REMARK H PARENT 5 23 91 53 57 64
REMARK Flexibility Score: inf
ROOT
ATOM      1  C   UNL A   1      36.034  34.111  32.655  1.00  0.00     0.275 C 
ENDROOT
BRANCH   1   2
ATOM      2  O   UNL A   1      35.573  33.422  31.466  1.00  0.00    -0.459 OA
BRANCH   2   3
ATOM      3  C   UNL A   1      36.255  33.782  30.349  1.00  0.00     0.338 C 
ATOM      4  O   UNL A   1      37.438  34.105  30.339  1.00  0.00    -0.246 OA
BRANCH   3   5
ATOM      5  C   UNL A   1      35.464  33.701  29.095  1.00  0.00     0.087 C 
ATOM      6  C   UNL A   1      34.485  30.084  27.510  1.00  0.00     0.026 A 
ATOM      7  C   UNL A   1      35.524  29.265  28.023  1.00  0.00     0.033 A 
ATOM      8  C   UNL A   1      34.692  31.452  27.709  1.00  0.00     0.135 A 
ATOM      9  C   UNL A   1      36.734  29.764  28.524  1.00  0.00     0.042 A 
ATOM     10  C   UNL A   1      36.005  31.925  27.955  1.00  0.00     0.019 A 
ATOM     11  O   UNL A   1      33.676  32.386  27.878  1.00  0.00    -0.475 OA
ATOM     12  Cl  UNL A   1      37.913  28.820  29.339  1.00  0.00    -0.084 Cl
ATOM     13  C   UNL A   1      37.023  31.094  28.378  1.00  0.00     0.032 A 
ATOM     14  C   UNL A   1      36.222  33.379  28.035  1.00  0.00     0.027 C 
ATOM     15  C   UNL A   1      33.987  33.360  28.997  1.00  0.00     0.316 C 
BRANCH   6  16
ATOM     16  C   UNL A   1      33.506  29.380  26.611  1.00  0.00    -0.014 A 
ATOM     17  C   UNL A   1      31.935  29.247  24.212  1.00  0.00     0.048 A 
ATOM     18  C   UNL A   1      33.166  28.614  24.288  1.00  0.00     0.027 A 
ATOM     19  C   UNL A   1      31.387  29.709  25.405  1.00  0.00     0.027 A 
ATOM     20  C   UNL A   1      33.902  28.635  25.489  1.00  0.00     0.011 A 
ATOM     21  C   UNL A   1      32.178  29.824  26.572  1.00  0.00     0.011 A 
BRANCH  17  22
ATOM     22  N   UNL A   1      31.331  29.365  22.923  1.00  0.00    -0.284 N 
ATOM     23  H   UNL A   1      31.933  29.388  22.144  1.00  0.00     0.180 HD
BRANCH  22  24
ATOM     24  S   UNL A   1      29.691  29.467  22.626  1.00  0.00     0.229 S 
ATOM     25  C   UNL A   1      29.162  30.881  23.573  1.00  0.00     0.183 C 
ATOM     26  O   UNL A   1      29.039  28.294  23.183  1.00  0.00    -0.207 OA
ATOM     27  O   UNL A   1      29.559  29.795  21.227  1.00  0.00    -0.207 OA
ENDBRANCH  22  24
ENDBRANCH  17  22
ENDBRANCH   6  16
BRANCH  15  28
ATOM     28  C   UNL A   1      33.279  34.700  28.765  1.00  0.00     0.430 C 
ATOM     29  F   UNL A   1      34.149  35.669  28.386  1.00  0.00    -0.167 F 
ATOM     30  F   UNL A   1      32.313  34.624  27.826  1.00  0.00    -0.167 F 
ATOM     31  F   UNL A   1      32.685  35.140  29.907  1.00  0.00    -0.167 F 
ENDBRANCH  15  28
ENDBRANCH   3   5
ENDBRANCH   2   3
ENDBRANCH   1   2
BRANCH   1  32
ATOM     32  C   UNL A   1      36.489  33.162  33.767  1.00  0.00     0.275 C 
BRANCH  32  33
ATOM     33  O   UNL A   1      37.773  32.576  33.475  1.00  0.00    -0.458 OA
BRANCH  33  34
ATOM     34  C   UNL A   1      37.692  31.339  32.928  1.00  0.00     0.338 C 
ATOM     35  O   UNL A   1      36.736  30.582  33.032  1.00  0.00    -0.246 OA
BRANCH  34  36
ATOM     36  C   UNL A   1      38.865  31.024  32.072  1.00  0.00     0.060 A 
ATOM     37  C   UNL A   1      39.636  29.945  32.480  1.00  0.00     0.016 A 
ATOM     38  C   UNL A   1      39.267  31.737  30.932  1.00  0.00     0.016 A 
ATOM     39  C   UNL A   1      40.754  29.572  31.732  1.00  0.00     0.010 A 
ATOM     40  C   UNL A   1      40.380  31.308  30.153  1.00  0.00     0.010 A 
ATOM     41  C   UNL A   1      41.119  30.175  30.513  1.00  0.00    -0.014 A 
BRANCH  41  42
ATOM     42  C   UNL A   1      42.335  29.626  29.778  1.00  0.00     0.031 A 
ATOM     43  C   UNL A   1      43.609  30.421  29.883  1.00  0.00     0.074 A 
ATOM     44  C   UNL A   1      42.414  28.404  29.186  1.00  0.00     0.049 A 
ATOM     45  N   UNL A   1      44.837  30.052  29.634  1.00  0.00    -0.248 NA
ATOM     46  C   UNL A   1      43.478  31.801  30.380  1.00  0.00     0.031 C 
ATOM     47  C   UNL A   1      41.306  27.480  29.051  1.00  0.00     0.029 A 
ATOM     48  N   UNL A   1      43.467  27.674  28.649  1.00  0.00    -0.354 N 
ATOM     49  C   UNL A   1      45.623  31.149  29.951  1.00  0.00     0.074 A 
ATOM     50  C   UNL A   1      44.743  32.175  30.465  1.00  0.00     0.031 C 
ATOM     51  C   UNL A   1      41.734  26.276  28.642  1.00  0.00     0.029 A 
ATOM     52  C   UNL A   1      43.141  26.369  28.279  1.00  0.00     0.049 A 
ATOM     53  H   UNL A   1      44.371  28.048  28.538  1.00  0.00     0.167 HD
ATOM     54  C   UNL A   1      46.952  31.320  29.780  1.00  0.00     0.037 A 
ATOM     55  C   UNL A   1      43.863  25.378  27.690  1.00  0.00     0.037 A 
ATOM     56  C   UNL A   1      47.822  30.368  29.152  1.00  0.00     0.049 A 
ATOM     57  C   UNL A   1      45.313  25.693  27.378  1.00  0.00     0.074 A 
ATOM     58  C   UNL A   1      49.168  30.506  28.861  1.00  0.00     0.029 A 
ATOM     59  N   UNL A   1      47.430  29.132  28.664  1.00  0.00    -0.354 N 
ATOM     60  N   UNL A   1      46.051  26.691  27.812  1.00  0.00    -0.248 NA
ATOM     61  C   UNL A   1      46.028  24.759  26.498  1.00  0.00     0.031 C 
ATOM     62  C   UNL A   1      49.574  29.380  28.140  1.00  0.00     0.029 A 
ATOM     63  C   UNL A   1      48.500  28.510  28.044  1.00  0.00     0.049 A 
ATOM     64  H   UNL A   1      46.525  28.753  28.746  1.00  0.00     0.167 HD
ATOM     65  C   UNL A   1      47.331  26.454  27.312  1.00  0.00     0.074 A 
ATOM     66  C   UNL A   1      47.274  25.200  26.594  1.00  0.00     0.031 C 
ATOM     67  C   UNL A   1      48.450  27.216  27.410  1.00  0.00     0.037 A 
BRANCH  54  68
ATOM     68  C   UNL A   1      47.507  32.655  30.168  1.00  0.00     0.058 A 
ATOM     69  C   UNL A   1      48.036  32.897  31.444  1.00  0.00     0.135 A 
ATOM     70  C   UNL A   1      47.472  33.718  29.251  1.00  0.00     0.135 A 
ATOM     71  F   UNL A   1      48.047  31.921  32.367  1.00  0.00    -0.206 F 
ATOM     72  C   UNL A   1      48.499  34.156  31.805  1.00  0.00     0.059 A 
ATOM     73  C   UNL A   1      47.949  34.979  29.582  1.00  0.00     0.059 A 
ATOM     74  F   UNL A   1      46.948  33.538  28.028  1.00  0.00    -0.206 F 
ATOM     75  C   UNL A   1      48.449  35.191  30.866  1.00  0.00     0.060 A 
BRANCH  75  76
ATOM     76  S   UNL A   1      49.031  36.826  31.355  1.00  0.00     0.124 S 
ATOM     77  O   UNL A   1      47.870  37.653  31.041  1.00  0.00    -0.237 OA
ATOM     78  O   UNL A   1      49.314  36.641  32.775  1.00  0.00    -0.237 OA
ATOM     79  O   UNL A   1      50.199  37.039  30.507  1.00  0.00    -0.744 OA
ENDBRANCH  75  76
ENDBRANCH  54  68
BRANCH  55  80
ATOM     80  C   UNL A   1      43.298  23.996  27.376  1.00  0.00     0.058 A 
ATOM     81  C   UNL A   1      42.901  23.636  26.070  1.00  0.00     0.135 A 
ATOM     82  C   UNL A   1      43.124  22.991  28.344  1.00  0.00     0.135 A 
ATOM     83  F   UNL A   1      42.937  24.541  25.083  1.00  0.00    -0.206 F 
ATOM     84  C   UNL A   1      42.455  22.361  25.721  1.00  0.00     0.059 A 
ATOM     85  C   UNL A   1      42.716  21.690  28.019  1.00  0.00     0.059 A 
ATOM     86  F   UNL A   1      43.363  23.249  29.639  1.00  0.00    -0.206 F 
ATOM     87  C   UNL A   1      42.403  21.379  26.700  1.00  0.00     0.060 A 
BRANCH  87  88
ATOM     88  S   UNL A   1      41.941  19.701  26.214  1.00  0.00     0.124 S 
ATOM     89  O   UNL A   1      42.359  18.921  27.373  1.00  0.00    -0.237 OA
ATOM     90  O   UNL A   1      40.501  19.839  26.022  1.00  0.00    -0.237 OA
ATOM     91  O   UNL A   1      42.714  19.480  24.995  1.00  0.00    -0.744 OA
ENDBRANCH  87  88
ENDBRANCH  55  80
BRANCH  67  92
ATOM     92  C   UNL A   1      49.728  26.677  26.817  1.00  0.00     0.058 A 
ATOM     93  C   UNL A   1      50.608  25.862  27.549  1.00  0.00     0.135 A 
ATOM     94  C   UNL A   1      50.052  26.940  25.475  1.00  0.00     0.135 A 
ATOM     95  F   UNL A   1      50.349  25.569  28.833  1.00  0.00    -0.206 F 
ATOM     96  C   UNL A   1      51.781  25.366  26.987  1.00  0.00     0.059 A 
ATOM     97  C   UNL A   1      51.198  26.420  24.880  1.00  0.00     0.059 A 
ATOM     98  F   UNL A   1      49.234  27.687  24.715  1.00  0.00    -0.206 F 
ATOM     99  C   UNL A   1      52.066  25.650  25.650  1.00  0.00     0.060 A 
BRANCH  99 100
ATOM    100  S   UNL A   1      53.570  24.964  24.924  1.00  0.00     0.124 S 
ATOM    101  O   UNL A   1      53.506  25.488  23.564  1.00  0.00    -0.237 OA
ATOM    102  O   UNL A   1      54.614  25.531  25.772  1.00  0.00    -0.237 OA
ATOM    103  O   UNL A   1      53.384  23.522  25.053  1.00  0.00    -0.744 OA
ENDBRANCH  99 100
ENDBRANCH  67  92
ENDBRANCH  41  42
ENDBRANCH  34  36
ENDBRANCH  33  34
ENDBRANCH  32  33
ENDBRANCH   1  32
TORSDOF 18
ENDMDL
MODEL 2
REMARK VINA RESULT:     -11.7      5.470      8.151
REMARK SMILES CS(=O)(=O)Nc1ccc(-c2cc(Cl)cc3c2O[C@H](C(F)(F)F)C(C(=O)OCCOC(=O)c2ccc(-c4c5nc(c(-c6c(F)cc(S(=O)(=O)[O-])cc6F)c6ccc([nH]6)c(-c6c(F)cc(S(=O)(=O)[O-])cc6F)c6nc(c(-c7c(F)cc(S(=O)(=O)[O-])cc7F)c7ccc4[nH]7)C=C6)C=C5)cc2)=C3)cc1
REMARK SMILES IDX 27 1 26 2 24 3 25 4 23 5 10 6 11 7 16 8 12 9 15 10 17 11
REMARK SMILES IDX 13 12 14 13 98 14 18 15 9 16 6 17 7 18 100 19 8 20 99 21
REMARK SMILES IDX 5 22 2 24 1 25 3 26 4 27 19 28 20 29 21 30 22 31 28 32 29 33
REMARK SMILES IDX 30 34 31 35 32 36 33 37 97 38 34 39 96 40 35 41 36 42 37 43
REMARK SMILES IDX 90 44 38 45 95 46 89 47 91 48 39 49 94 50 88 51 87 52 40 54
REMARK SMILES IDX 74 55 53 56 73 57 54 58 57 59 72 60 92 61 55 62 56 63 71 65
REMARK SMILES IDX 93 66 58 67 41 68 42 69 51 70 43 71 44 72 50 73 52 74 45 75
REMARK SMILES IDX 46 76 47 77 48 78 49 79 75 80 76 81 85 82 77 83 78 84 84 85
REMARK SMILES IDX 86 86 79 87 80 88 81 89 82 90 83 91 59 92 60 93 69 94 61 95
REMARK SMILES IDX 62 96 68 97 70 98 63 99 64 100 65 101 66 102 67 103
REMARK H PARENT 5 23 91 53 57 64
REMARK Flexibility Score: inf
ROOT
ATOM      1  C   UNL A   1      34.133  28.818  25.921  1.00  0.00     0.275 C 
ENDROOT
BRANCH   1   2
ATOM      2  O   UNL A   1      33.494  27.663  25.322  1.00  0.00    -0.459 OA
BRANCH   2   3
ATOM      3  C   UNL A   1      33.541  27.678  23.966  1.00  0.00     0.338 C 
ATOM      4  O   UNL A   1      34.282  28.403  23.311  1.00  0.00    -0.246 OA
BRANCH   3   5
ATOM      5  C   UNL A   1      32.647  26.690  23.311  1.00  0.00     0.087 C 
ATOM      6  C   UNL A   1      33.058  22.716  24.085  1.00  0.00     0.026 A 
ATOM      7  C   UNL A   1      34.424  22.647  24.463  1.00  0.00     0.033 A 
ATOM      8  C   UNL A   1      32.685  23.947  23.536  1.00  0.00     0.135 A 
ATOM      9  C   UNL A   1      35.367  23.638  24.162  1.00  0.00     0.042 A 
ATOM     10  C   UNL A   1      33.684  24.799  23.003  1.00  0.00     0.019 A 
ATOM     11  O   UNL A   1      31.415  24.504  23.641  1.00  0.00    -0.475 OA
ATOM     12  Cl  UNL A   1      36.967  23.680  24.784  1.00  0.00    -0.084 Cl
ATOM     13  C   UNL A   1      35.020  24.663  23.323  1.00  0.00     0.032 A 
ATOM     14  C   UNL A   1      33.261  26.031  22.316  1.00  0.00     0.027 C 
ATOM     15  C   UNL A   1      31.474  25.983  23.966  1.00  0.00     0.316 C 
BRANCH   6  16
ATOM     16  C   UNL A   1      32.334  21.398  24.072  1.00  0.00    -0.014 A 
ATOM     17  C   UNL A   1      32.328  18.528  24.011  1.00  0.00     0.048 A 
ATOM     18  C   UNL A   1      32.207  19.211  25.212  1.00  0.00     0.027 A 
ATOM     19  C   UNL A   1      32.185  19.272  22.843  1.00  0.00     0.027 A 
ATOM     20  C   UNL A   1      32.150  20.618  25.225  1.00  0.00     0.011 A 
ATOM     21  C   UNL A   1      32.242  20.685  22.869  1.00  0.00     0.011 A 
BRANCH  17  22
ATOM     22  N   UNL A   1      32.581  17.124  24.073  1.00  0.00    -0.284 N 
ATOM     23  H   UNL A   1      31.805  16.530  24.196  1.00  0.00     0.180 HD
BRANCH  22  24
ATOM     24  S   UNL A   1      34.084  16.404  23.957  1.00  0.00     0.229 S 
ATOM     25  C   UNL A   1      35.213  17.650  24.546  1.00  0.00     0.183 C 
ATOM     26  O   UNL A   1      34.382  16.164  22.556  1.00  0.00    -0.207 OA
ATOM     27  O   UNL A   1      34.081  15.320  24.910  1.00  0.00    -0.207 OA
ENDBRANCH  22  24
ENDBRANCH  17  22
ENDBRANCH   6  16
BRANCH  15  28
ATOM     28  C   UNL A   1      30.226  26.705  23.444  1.00  0.00     0.430 C 
ATOM     29  F   UNL A   1      30.360  27.063  22.143  1.00  0.00    -0.167 F 
ATOM     30  F   UNL A   1      29.107  25.959  23.553  1.00  0.00    -0.167 F 
ATOM     31  F   UNL A   1      30.002  27.853  24.139  1.00  0.00    -0.167 F 
ENDBRANCH  15  28
ENDBRANCH   3   5
ENDBRANCH   2   3
ENDBRANCH   1   2
BRANCH   1  32
ATOM     32  C   UNL A   1      33.153  29.942  26.269  1.00  0.00     0.275 C 
BRANCH  32  33
ATOM     33  O   UNL A   1      33.271  30.344  27.648  1.00  0.00    -0.458 OA
BRANCH  33  34
ATOM     34  C   UNL A   1      33.862  31.554  27.810  1.00  0.00     0.338 C 
ATOM     35  O   UNL A   1      33.304  32.636  27.681  1.00  0.00    -0.246 OA
BRANCH  34  36
ATOM     36  C   UNL A   1      35.267  31.435  28.280  1.00  0.00     0.060 A 
ATOM     37  C   UNL A   1      35.598  30.236  28.894  1.00  0.00     0.016 A 
ATOM     38  C   UNL A   1      36.252  32.430  28.186  1.00  0.00     0.016 A 
ATOM     39  C   UNL A   1      36.898  30.034  29.360  1.00  0.00     0.010 A 
ATOM     40  C   UNL A   1      37.586  32.184  28.620  1.00  0.00     0.010 A 
ATOM     41  C   UNL A   1      37.950  30.951  29.172  1.00  0.00    -0.014 A 
BRANCH  41  42
ATOM     42  C   UNL A   1      39.331  30.571  29.688  1.00  0.00     0.031 A 
ATOM     43  C   UNL A   1      39.721  31.100  31.042  1.00  0.00     0.074 A 
ATOM     44  C   UNL A   1      40.167  29.662  29.114  1.00  0.00     0.049 A 
ATOM     45  N   UNL A   1      40.671  30.700  31.845  1.00  0.00    -0.248 NA
ATOM     46  C   UNL A   1      38.895  32.195  31.577  1.00  0.00     0.031 C 
ATOM     47  C   UNL A   1      39.923  29.006  27.846  1.00  0.00     0.029 A 
ATOM     48  N   UNL A   1      41.348  29.063  29.529  1.00  0.00    -0.354 N 
ATOM     49  C   UNL A   1      40.551  31.488  32.979  1.00  0.00     0.074 A 
ATOM     50  C   UNL A   1      39.403  32.346  32.788  1.00  0.00     0.031 C 
ATOM     51  C   UNL A   1      40.791  28.002  27.653  1.00  0.00     0.029 A 
ATOM     52  C   UNL A   1      41.810  28.046  28.693  1.00  0.00     0.049 A 
ATOM     53  H   UNL A   1      41.823  29.334  30.348  1.00  0.00     0.167 HD
ATOM     54  C   UNL A   1      41.353  31.541  34.065  1.00  0.00     0.037 A 
ATOM     55  C   UNL A   1      42.924  27.268  28.729  1.00  0.00     0.037 A 
ATOM     56  C   UNL A   1      42.569  30.795  34.218  1.00  0.00     0.049 A 
ATOM     57  C   UNL A   1      43.867  27.491  29.895  1.00  0.00     0.074 A 
ATOM     58  C   UNL A   1      43.484  30.861  35.254  1.00  0.00     0.029 A 
ATOM     59  N   UNL A   1      43.072  29.895  33.293  1.00  0.00    -0.354 N 
ATOM     60  N   UNL A   1      43.654  28.150  31.012  1.00  0.00    -0.248 NA
ATOM     61  C   UNL A   1      45.199  26.876  29.809  1.00  0.00     0.031 C 
ATOM     62  C   UNL A   1      44.572  30.049  34.924  1.00  0.00     0.029 A 
ATOM     63  C   UNL A   1      44.302  29.422  33.718  1.00  0.00     0.049 A 
ATOM     64  H   UNL A   1      42.621  29.630  32.459  1.00  0.00     0.167 HD
ATOM     65  C   UNL A   1      44.800  27.960  31.784  1.00  0.00     0.074 A 
ATOM     66  C   UNL A   1      45.671  27.087  31.028  1.00  0.00     0.031 C 
ATOM     67  C   UNL A   1      45.120  28.481  32.995  1.00  0.00     0.037 A 
BRANCH  54  68
ATOM     68  C   UNL A   1      40.992  32.550  35.111  1.00  0.00     0.058 A 
ATOM     69  C   UNL A   1      41.546  33.839  35.120  1.00  0.00     0.135 A 
ATOM     70  C   UNL A   1      40.104  32.201  36.140  1.00  0.00     0.135 A 
ATOM     71  F   UNL A   1      42.435  34.199  34.181  1.00  0.00    -0.206 F 
ATOM     72  C   UNL A   1      41.241  34.745  36.128  1.00  0.00     0.059 A 
ATOM     73  C   UNL A   1      39.768  33.098  37.145  1.00  0.00     0.059 A 
ATOM     74  F   UNL A   1      39.573  30.969  36.186  1.00  0.00    -0.206 F 
ATOM     75  C   UNL A   1      40.352  34.364  37.137  1.00  0.00     0.060 A 
BRANCH  75  76
ATOM     76  S   UNL A   1      39.985  35.542  38.451  1.00  0.00     0.124 S 
ATOM     77  O   UNL A   1      41.231  35.526  39.212  1.00  0.00    -0.237 OA
ATOM     78  O   UNL A   1      39.713  36.765  37.702  1.00  0.00    -0.237 OA
ATOM     79  O   UNL A   1      38.833  34.952  39.125  1.00  0.00    -0.744 OA
ENDBRANCH  75  76
ENDBRANCH  54  68
BRANCH  55  80
ATOM     80  C   UNL A   1      43.233  26.190  27.695  1.00  0.00     0.058 A 
ATOM     81  C   UNL A   1      43.933  26.482  26.504  1.00  0.00     0.135 A 
ATOM     82  C   UNL A   1      42.847  24.845  27.836  1.00  0.00     0.135 A 
ATOM     83  F   UNL A   1      44.274  27.746  26.218  1.00  0.00    -0.206 F 
ATOM     84  C   UNL A   1      44.308  25.516  25.570  1.00  0.00     0.059 A 
ATOM     85  C   UNL A   1      43.240  23.845  26.936  1.00  0.00     0.059 A 
ATOM     86  F   UNL A   1      42.083  24.466  28.872  1.00  0.00    -0.206 F 
ATOM     87  C   UNL A   1      43.988  24.188  25.814  1.00  0.00     0.060 A 
BRANCH  87  88
ATOM     88  S   UNL A   1      44.582  22.931  24.661  1.00  0.00     0.124 S 
ATOM     89  O   UNL A   1      45.047  21.883  25.562  1.00  0.00    -0.237 OA
ATOM     90  O   UNL A   1      43.370  22.632  23.905  1.00  0.00    -0.237 OA
ATOM     91  O   UNL A   1      45.627  23.627  23.915  1.00  0.00    -0.744 OA
ENDBRANCH  87  88
ENDBRANCH  55  80
BRANCH  67  92
ATOM     92  C   UNL A   1      46.418  28.048  33.631  1.00  0.00     0.058 A 
ATOM     93  C   UNL A   1      46.509  26.909  34.447  1.00  0.00     0.135 A 
ATOM     94  C   UNL A   1      47.603  28.760  33.376  1.00  0.00     0.135 A 
ATOM     95  F   UNL A   1      45.413  26.183  34.721  1.00  0.00    -0.206 F 
ATOM     96  C   UNL A   1      47.714  26.518  35.022  1.00  0.00     0.059 A 
ATOM     97  C   UNL A   1      48.827  28.364  33.907  1.00  0.00     0.059 A 
ATOM     98  F   UNL A   1      47.585  29.840  32.578  1.00  0.00    -0.206 F 
ATOM     99  C   UNL A   1      48.869  27.251  34.744  1.00  0.00     0.060 A 
BRANCH  99 100
ATOM    100  S   UNL A   1      50.433  26.707  35.464  1.00  0.00     0.124 S 
ATOM    101  O   UNL A   1      51.113  26.147  34.302  1.00  0.00    -0.237 OA
ATOM    102  O   UNL A   1      50.989  27.953  35.982  1.00  0.00    -0.237 OA
ATOM    103  O   UNL A   1      50.023  25.743  36.481  1.00  0.00    -0.744 OA
ENDBRANCH  99 100
ENDBRANCH  67  92
ENDBRANCH  41  42
ENDBRANCH  34  36
ENDBRANCH  33  34
ENDBRANCH  32  33
ENDBRANCH   1  32
TORSDOF 18
ENDMDL
MODEL 3
REMARK VINA RESULT:     -11.6      1.407      2.079
REMARK SMILES CS(=O)(=O)Nc1ccc(-c2cc(Cl)cc3c2O[C@H](C(F)(F)F)C(C(=O)OCCOC(=O)c2ccc(-c4c5nc(c(-c6c(F)cc(S(=O)(=O)[O-])cc6F)c6ccc([nH]6)c(-c6c(F)cc(S(=O)(=O)[O-])cc6F)c6nc(c(-c7c(F)cc(S(=O)(=O)[O-])cc7F)c7ccc4[nH]7)C=C6)C=C5)cc2)=C3)cc1
REMARK SMILES IDX 27 1 26 2 24 3 25 4 23 5 10 6 11 7 16 8 12 9 15 10 17 11
REMARK SMILES IDX 13 12 14 13 98 14 18 15 9 16 6 17 7 18 100 19 8 20 99 21
REMARK SMILES IDX 5 22 2 24 1 25 3 26 4 27 19 28 20 29 21 30 22 31 28 32 29 33
REMARK SMILES IDX 30 34 31 35 32 36 33 37 97 38 34 39 96 40 35 41 36 42 37 43
REMARK SMILES IDX 90 44 38 45 95 46 89 47 91 48 39 49 94 50 88 51 87 52 40 54
REMARK SMILES IDX 74 55 53 56 73 57 54 58 57 59 72 60 92 61 55 62 56 63 71 65
REMARK SMILES IDX 93 66 58 67 41 68 42 69 51 70 43 71 44 72 50 73 52 74 45 75
REMARK SMILES IDX 46 76 47 77 48 78 49 79 75 80 76 81 85 82 77 83 78 84 84 85
REMARK SMILES IDX 86 86 79 87 80 88 81 89 82 90 83 91 59 92 60 93 69 94 61 95
REMARK SMILES IDX 62 96 68 97 70 98 63 99 64 100 65 101 66 102 67 103
REMARK H PARENT 5 23 91 53 57 64
REMARK Flexibility Score: inf
ROOT
ATOM      1  C   UNL A   1      36.102  34.255  32.518  1.00  0.00     0.275 C 
ENDROOT
BRANCH   1   2
ATOM      2  O   UNL A   1      35.848  33.391  31.382  1.00  0.00    -0.459 OA
BRANCH   2   3
ATOM      3  C   UNL A   1      36.397  33.857  30.231  1.00  0.00     0.338 C 
ATOM      4  O   UNL A   1      37.556  34.243  30.129  1.00  0.00    -0.246 OA
BRANCH   3   5
ATOM      5  C   UNL A   1      35.487  33.813  29.058  1.00  0.00     0.087 C 
ATOM      6  C   UNL A   1      34.227  30.244  27.565  1.00  0.00     0.026 A 
ATOM      7  C   UNL A   1      35.279  29.384  27.975  1.00  0.00     0.033 A 
ATOM      8  C   UNL A   1      34.504  31.603  27.746  1.00  0.00     0.135 A 
ATOM      9  C   UNL A   1      36.549  29.835  28.361  1.00  0.00     0.042 A 
ATOM     10  C   UNL A   1      35.851  32.025  27.868  1.00  0.00     0.019 A 
ATOM     11  O   UNL A   1      33.544  32.573  28.014  1.00  0.00    -0.475 OA
ATOM     12  Cl  UNL A   1      37.763  28.842  29.057  1.00  0.00    -0.084 Cl
ATOM     13  C   UNL A   1      36.873  31.154  28.191  1.00  0.00     0.032 A 
ATOM     14  C   UNL A   1      36.129  33.469  27.931  1.00  0.00     0.027 C 
ATOM     15  C   UNL A   1      33.996  33.528  29.100  1.00  0.00     0.316 C 
BRANCH   6  16
ATOM     16  C   UNL A   1      33.142  29.582  26.761  1.00  0.00    -0.014 A 
ATOM     17  C   UNL A   1      31.915  27.248  25.627  1.00  0.00     0.048 A 
ATOM     18  C   UNL A   1      31.468  27.769  26.832  1.00  0.00     0.027 A 
ATOM     19  C   UNL A   1      32.781  28.039  24.878  1.00  0.00     0.027 A 
ATOM     20  C   UNL A   1      32.036  28.949  27.350  1.00  0.00     0.011 A 
ATOM     21  C   UNL A   1      33.425  29.158  25.456  1.00  0.00     0.011 A 
BRANCH  17  22
ATOM     22  N   UNL A   1      31.446  25.951  25.254  1.00  0.00    -0.284 N 
ATOM     23  H   UNL A   1      30.874  25.891  24.455  1.00  0.00     0.180 HD
BRANCH  22  24
ATOM     24  S   UNL A   1      31.785  24.529  26.061  1.00  0.00     0.229 S 
ATOM     25  C   UNL A   1      31.544  23.260  24.833  1.00  0.00     0.183 C 
ATOM     26  O   UNL A   1      30.790  24.332  27.101  1.00  0.00    -0.207 OA
ATOM     27  O   UNL A   1      33.191  24.578  26.380  1.00  0.00    -0.207 OA
ENDBRANCH  22  24
ENDBRANCH  17  22
ENDBRANCH   6  16
BRANCH  15  28
ATOM     28  C   UNL A   1      33.321  34.895  28.939  1.00  0.00     0.430 C 
ATOM     29  F   UNL A   1      32.816  35.347  30.114  1.00  0.00    -0.167 F 
ATOM     30  F   UNL A   1      34.159  35.838  28.462  1.00  0.00    -0.167 F 
ATOM     31  F   UNL A   1      32.276  34.822  28.072  1.00  0.00    -0.167 F 
ENDBRANCH  15  28
ENDBRANCH   3   5
ENDBRANCH   2   3
ENDBRANCH   1   2
BRANCH   1  32
ATOM     32  C   UNL A   1      36.730  33.523  33.708  1.00  0.00     0.275 C 
BRANCH  32  33
ATOM     33  O   UNL A   1      38.012  32.958  33.370  1.00  0.00    -0.458 OA
BRANCH  33  34
ATOM     34  C   UNL A   1      37.956  31.641  33.053  1.00  0.00     0.338 C 
ATOM     35  O   UNL A   1      37.065  30.871  33.386  1.00  0.00    -0.246 OA
BRANCH  34  36
ATOM     36  C   UNL A   1      39.058  31.234  32.142  1.00  0.00     0.060 A 
ATOM     37  C   UNL A   1      40.063  30.470  32.716  1.00  0.00     0.016 A 
ATOM     38  C   UNL A   1      39.178  31.584  30.788  1.00  0.00     0.016 A 
ATOM     39  C   UNL A   1      41.134  30.036  31.934  1.00  0.00     0.010 A 
ATOM     40  C   UNL A   1      40.251  31.087  29.995  1.00  0.00     0.010 A 
ATOM     41  C   UNL A   1      41.230  30.253  30.546  1.00  0.00    -0.014 A 
BRANCH  41  42
ATOM     42  C   UNL A   1      42.432  29.673  29.812  1.00  0.00     0.031 A 
ATOM     43  C   UNL A   1      43.722  30.443  29.904  1.00  0.00     0.074 A 
ATOM     44  C   UNL A   1      42.485  28.443  29.231  1.00  0.00     0.049 A 
ATOM     45  N   UNL A   1      44.941  30.047  29.654  1.00  0.00    -0.248 NA
ATOM     46  C   UNL A   1      43.620  31.830  30.388  1.00  0.00     0.031 C 
ATOM     47  C   UNL A   1      41.358  27.541  29.109  1.00  0.00     0.029 A 
ATOM     48  N   UNL A   1      43.521  27.688  28.697  1.00  0.00    -0.354 N 
ATOM     49  C   UNL A   1      45.750  31.132  29.958  1.00  0.00     0.074 A 
ATOM     50  C   UNL A   1      44.893  32.180  30.466  1.00  0.00     0.031 C 
ATOM     51  C   UNL A   1      41.760  26.325  28.709  1.00  0.00     0.029 A 
ATOM     52  C   UNL A   1      43.168  26.387  28.340  1.00  0.00     0.049 A 
ATOM     53  H   UNL A   1      44.431  28.043  28.579  1.00  0.00     0.167 HD
ATOM     54  C   UNL A   1      47.081  31.275  29.781  1.00  0.00     0.037 A 
ATOM     55  C   UNL A   1      43.868  25.376  27.759  1.00  0.00     0.037 A 
ATOM     56  C   UNL A   1      47.930  30.300  29.158  1.00  0.00     0.049 A 
ATOM     57  C   UNL A   1      45.323  25.659  27.438  1.00  0.00     0.074 A 
ATOM     58  C   UNL A   1      49.277  30.409  28.862  1.00  0.00     0.029 A 
ATOM     59  N   UNL A   1      47.511  29.067  28.683  1.00  0.00    -0.354 N 
ATOM     60  N   UNL A   1      46.082  26.646  27.859  1.00  0.00    -0.248 NA
ATOM     61  C   UNL A   1      46.015  24.703  26.564  1.00  0.00     0.031 C 
ATOM     62  C   UNL A   1      49.658  29.268  28.150  1.00  0.00     0.029 A 
ATOM     63  C   UNL A   1      48.567  28.418  28.066  1.00  0.00     0.049 A 
ATOM     64  H   UNL A   1      46.600  28.707  28.773  1.00  0.00     0.167 HD
ATOM     65  C   UNL A   1      47.355  26.379  27.357  1.00  0.00     0.074 A 
ATOM     66  C   UNL A   1      47.270  25.120  26.651  1.00  0.00     0.031 C 
ATOM     67  C   UNL A   1      48.489  27.120  27.444  1.00  0.00     0.037 A 
BRANCH  54  68
ATOM     68  C   UNL A   1      47.665  32.603  30.154  1.00  0.00     0.058 A 
ATOM     69  C   UNL A   1      47.700  33.676  29.252  1.00  0.00     0.135 A 
ATOM     70  C   UNL A   1      48.230  32.784  31.425  1.00  0.00     0.135 A 
ATOM     71  F   UNL A   1      47.212  33.531  28.009  1.00  0.00    -0.206 F 
ATOM     72  C   UNL A   1      48.293  34.885  29.595  1.00  0.00     0.059 A 
ATOM     73  C   UNL A   1      48.808  33.990  31.798  1.00  0.00     0.059 A 
ATOM     74  F   UNL A   1      48.243  31.773  32.310  1.00  0.00    -0.206 F 
ATOM     75  C   UNL A   1      48.846  35.030  30.871  1.00  0.00     0.060 A 
BRANCH  75  76
ATOM     76  S   UNL A   1      49.632  36.596  31.295  1.00  0.00     0.124 S 
ATOM     77  O   UNL A   1      48.614  37.555  30.877  1.00  0.00    -0.237 OA
ATOM     78  O   UNL A   1      49.828  36.464  32.735  1.00  0.00    -0.237 OA
ATOM     79  O   UNL A   1      50.853  36.591  30.495  1.00  0.00    -0.744 OA
ENDBRANCH  75  76
ENDBRANCH  54  68
BRANCH  55  80
ATOM     80  C   UNL A   1      43.275  24.003  27.460  1.00  0.00     0.058 A 
ATOM     81  C   UNL A   1      42.674  23.708  26.216  1.00  0.00     0.135 A 
ATOM     82  C   UNL A   1      43.270  22.941  28.382  1.00  0.00     0.135 A 
ATOM     83  F   UNL A   1      42.540  24.668  25.290  1.00  0.00    -0.206 F 
ATOM     84  C   UNL A   1      42.192  22.446  25.870  1.00  0.00     0.059 A 
ATOM     85  C   UNL A   1      42.829  21.652  28.052  1.00  0.00     0.059 A 
ATOM     86  F   UNL A   1      43.713  23.132  29.634  1.00  0.00    -0.206 F 
ATOM     87  C   UNL A   1      42.309  21.409  26.785  1.00  0.00     0.060 A 
BRANCH  87  88
ATOM     88  S   UNL A   1      41.793  19.752  26.283  1.00  0.00     0.124 S 
ATOM     89  O   UNL A   1      40.363  19.931  26.064  1.00  0.00    -0.237 OA
ATOM     90  O   UNL A   1      42.602  19.545  25.086  1.00  0.00    -0.237 OA
ATOM     91  O   UNL A   1      42.154  18.926  27.432  1.00  0.00    -0.744 OA
ENDBRANCH  87  88
ENDBRANCH  55  80
BRANCH  67  92
ATOM     92  C   UNL A   1      49.754  26.550  26.851  1.00  0.00     0.058 A 
ATOM     93  C   UNL A   1      50.076  26.697  25.492  1.00  0.00     0.135 A 
ATOM     94  C   UNL A   1      50.683  25.887  27.671  1.00  0.00     0.135 A 
ATOM     95  F   UNL A   1      49.231  27.328  24.660  1.00  0.00    -0.206 F 
ATOM     96  C   UNL A   1      51.249  26.170  24.959  1.00  0.00     0.059 A 
ATOM     97  C   UNL A   1      51.882  25.389  27.168  1.00  0.00     0.059 A 
ATOM     98  F   UNL A   1      50.446  25.742  28.984  1.00  0.00    -0.206 F 
ATOM     99  C   UNL A   1      52.147  25.519  25.806  1.00  0.00     0.060 A 
BRANCH  99 100
ATOM    100  S   UNL A   1      53.684  24.879  25.109  1.00  0.00     0.124 S 
ATOM    101  O   UNL A   1      53.751  25.592  23.838  1.00  0.00    -0.237 OA
ATOM    102  O   UNL A   1      54.670  25.275  26.109  1.00  0.00    -0.237 OA
ATOM    103  O   UNL A   1      53.442  23.442  25.014  1.00  0.00    -0.744 OA
ENDBRANCH  99 100
ENDBRANCH  67  92
ENDBRANCH  41  42
ENDBRANCH  34  36
ENDBRANCH  33  34
ENDBRANCH  32  33
ENDBRANCH   1  32
TORSDOF 18
ENDMDL
