MODEL 1
REMARK VINA RESULT:     -11.6      0.000      0.000
REMARK SMILES Nc1c(Cl)ccc2c1C=C(C(=O)OCCOC(=O)c1ccc(-c3c4nc(c(-c5c(F)cc(S(=O)(=O)[O-])cc5F)c5ccc([nH]5)c(-c5c(F)cc(S(=O)(=O)[O-])cc5F)c5nc(c(-c6c(F)cc(S(=O)(=O)[O-])cc6F)c6ccc3[nH]6)C=C5)C=C4)cc1)[C@@H](C(F)(F)F)O2
REMARK SMILES IDX 15 1 14 2 13 3 11 4 12 5 10 6 2 7 3 8 8 9 4 10 5 11 7 12
REMARK SMILES IDX 9 13 6 14 90 15 85 16 1 17 86 20 87 21 88 22 89 23 16 24
REMARK SMILES IDX 17 25 18 26 19 27 20 28 84 29 21 30 83 31 22 32 23 33 24 34
REMARK SMILES IDX 77 35 25 36 82 37 76 38 78 39 26 40 81 41 75 42 74 43 27 45
REMARK SMILES IDX 61 46 40 47 60 48 41 49 44 50 59 51 79 52 42 53 43 54 58 56
REMARK SMILES IDX 80 57 45 58 28 59 29 60 38 61 30 62 31 63 37 64 39 65 32 66
REMARK SMILES IDX 33 67 34 68 35 69 36 70 62 71 63 72 72 73 64 74 65 75 71 76
REMARK SMILES IDX 73 77 66 78 67 79 68 80 69 81 70 82 46 83 47 84 56 85 48 86
REMARK SMILES IDX 49 87 55 88 57 89 50 90 51 91 52 92 53 93 54 94
REMARK H PARENT 1 18 1 19 78 44 44 55
REMARK Flexibility Score: inf
ROOT
ATOM      1  C   UNL A   1      33.539  28.645  25.920  1.00  0.00     0.275 C 
ENDROOT
BRANCH   1   2
ATOM      2  C   UNL A   1      33.994  27.405  25.152  1.00  0.00     0.275 C 
BRANCH   2   3
ATOM      3  O   UNL A   1      33.025  26.342  25.274  1.00  0.00    -0.459 OA
BRANCH   3   4
ATOM      4  C   UNL A   1      32.493  25.883  24.113  1.00  0.00     0.338 C 
ATOM      5  O   UNL A   1      32.971  25.036  23.382  1.00  0.00    -0.246 OA
BRANCH   4   6
ATOM      6  C   UNL A   1      31.175  26.519  23.887  1.00  0.00     0.088 C 
ATOM      7  C   UNL A   1      29.788  29.508  22.184  1.00  0.00     0.061 A 
ATOM      8  C   UNL A   1      28.524  30.101  22.004  1.00  0.00     0.064 A 
ATOM      9  C   UNL A   1      29.874  28.317  22.943  1.00  0.00     0.042 A 
ATOM     10  Cl  UNL A   1      28.354  31.569  21.105  1.00  0.00    -0.082 Cl
ATOM     11  C   UNL A   1      27.373  29.509  22.523  1.00  0.00     0.026 A 
ATOM     12  C   UNL A   1      28.711  27.713  23.432  1.00  0.00     0.130 A 
ATOM     13  C   UNL A   1      31.157  27.696  23.250  1.00  0.00     0.029 C 
ATOM     14  C   UNL A   1      27.466  28.309  23.224  1.00  0.00     0.049 A 
ATOM     15  O   UNL A   1      28.688  26.528  24.111  1.00  0.00    -0.475 OA
ATOM     16  C   UNL A   1      29.938  25.848  24.409  1.00  0.00     0.316 C 
BRANCH   7  17
ATOM     17  N   UNL A   1      30.928  30.065  21.578  1.00  0.00    -0.397 N 
ATOM     18  H   UNL A   1      31.670  29.482  21.294  1.00  0.00     0.156 HD
ATOM     19  H   UNL A   1      30.986  31.038  21.436  1.00  0.00     0.156 HD
ENDBRANCH   7  17
BRANCH  16  20
ATOM     20  C   UNL A   1      30.014  25.654  25.933  1.00  0.00     0.430 C 
ATOM     21  F   UNL A   1      28.783  25.443  26.464  1.00  0.00    -0.167 F 
ATOM     22  F   UNL A   1      30.764  24.579  26.275  1.00  0.00    -0.167 F 
ATOM     23  F   UNL A   1      30.543  26.729  26.561  1.00  0.00    -0.167 F 
ENDBRANCH  16  20
ENDBRANCH   4   6
ENDBRANCH   3   4
ENDBRANCH   2   3
ENDBRANCH   1   2
BRANCH   1  24
ATOM     24  O   UNL A   1      34.053  28.611  27.263  1.00  0.00    -0.458 OA
BRANCH  24  25
ATOM     25  C   UNL A   1      34.405  29.811  27.778  1.00  0.00     0.338 C 
ATOM     26  O   UNL A   1      33.684  30.775  27.978  1.00  0.00    -0.246 OA
BRANCH  25  27
ATOM     27  C   UNL A   1      35.824  29.781  28.156  1.00  0.00     0.060 A 
ATOM     28  C   UNL A   1      36.774  30.074  27.182  1.00  0.00     0.016 A 
ATOM     29  C   UNL A   1      36.218  29.333  29.414  1.00  0.00     0.016 A 
ATOM     30  C   UNL A   1      38.120  29.817  27.419  1.00  0.00     0.010 A 
ATOM     31  C   UNL A   1      37.580  29.162  29.684  1.00  0.00     0.010 A 
ATOM     32  C   UNL A   1      38.541  29.356  28.673  1.00  0.00    -0.014 A 
BRANCH  32  33
ATOM     33  C   UNL A   1      39.975  29.034  28.912  1.00  0.00     0.031 A 
ATOM     34  C   UNL A   1      40.885  30.064  29.528  1.00  0.00     0.074 A 
ATOM     35  C   UNL A   1      40.454  27.810  28.616  1.00  0.00     0.049 A 
ATOM     36  N   UNL A   1      42.182  30.032  29.689  1.00  0.00    -0.248 NA
ATOM     37  C   UNL A   1      40.251  31.295  30.031  1.00  0.00     0.031 C 
ATOM     38  C   UNL A   1      39.662  26.695  28.091  1.00  0.00     0.029 A 
ATOM     39  N   UNL A   1      41.720  27.292  28.725  1.00  0.00    -0.354 N 
ATOM     40  C   UNL A   1      42.524  31.243  30.281  1.00  0.00     0.074 A 
ATOM     41  C   UNL A   1      41.299  31.996  30.438  1.00  0.00     0.031 C 
ATOM     42  C   UNL A   1      40.452  25.619  27.956  1.00  0.00     0.029 A 
ATOM     43  C   UNL A   1      41.820  25.987  28.302  1.00  0.00     0.049 A 
ATOM     44  H   UNL A   1      42.485  27.806  29.074  1.00  0.00     0.167 HD
ATOM     45  C   UNL A   1      43.748  31.684  30.660  1.00  0.00     0.037 A 
ATOM     46  C   UNL A   1      42.896  25.188  28.166  1.00  0.00     0.037 A 
ATOM     47  C   UNL A   1      44.960  30.919  30.518  1.00  0.00     0.049 A 
ATOM     48  C   UNL A   1      44.255  25.729  28.507  1.00  0.00     0.074 A 
ATOM     49  C   UNL A   1      46.255  31.285  30.843  1.00  0.00     0.029 A 
ATOM     50  N   UNL A   1      45.026  29.626  30.018  1.00  0.00    -0.354 N 
ATOM     51  N   UNL A   1      44.575  26.907  28.989  1.00  0.00    -0.248 NA
ATOM     52  C   UNL A   1      45.402  24.844  28.267  1.00  0.00     0.031 C 
ATOM     53  C   UNL A   1      47.107  30.228  30.505  1.00  0.00     0.029 A 
ATOM     54  C   UNL A   1      46.340  29.185  30.013  1.00  0.00     0.049 A 
ATOM     55  H   UNL A   1      44.253  29.098  29.712  1.00  0.00     0.167 HD
ATOM     56  C   UNL A   1      45.958  26.900  29.123  1.00  0.00     0.074 A 
ATOM     57  C   UNL A   1      46.413  25.596  28.684  1.00  0.00     0.031 C 
ATOM     58  C   UNL A   1      46.775  27.884  29.570  1.00  0.00     0.037 A 
BRANCH  45  59
ATOM     59  C   UNL A   1      43.844  33.071  31.237  1.00  0.00     0.058 A 
ATOM     60  C   UNL A   1      44.015  34.202  30.424  1.00  0.00     0.135 A 
ATOM     61  C   UNL A   1      43.731  33.273  32.623  1.00  0.00     0.135 A 
ATOM     62  F   UNL A   1      44.148  34.066  29.095  1.00  0.00    -0.206 F 
ATOM     63  C   UNL A   1      44.095  35.482  30.966  1.00  0.00     0.059 A 
ATOM     64  C   UNL A   1      43.784  34.545  33.184  1.00  0.00     0.059 A 
ATOM     65  F   UNL A   1      43.569  32.226  33.446  1.00  0.00    -0.206 F 
ATOM     66  C   UNL A   1      43.980  35.643  32.347  1.00  0.00     0.060 A 
BRANCH  66  67
ATOM     67  S   UNL A   1      44.092  37.309  33.035  1.00  0.00     0.124 S 
ATOM     68  O   UNL A   1      44.045  38.126  31.827  1.00  0.00    -0.237 OA
ATOM     69  O   UNL A   1      42.911  37.373  33.890  1.00  0.00    -0.237 OA
ATOM     70  O   UNL A   1      45.372  37.304  33.738  1.00  0.00    -0.744 OA
ENDBRANCH  66  67
ENDBRANCH  45  59
BRANCH  46  71
ATOM     71  C   UNL A   1      42.722  23.802  27.657  1.00  0.00     0.058 A 
ATOM     72  C   UNL A   1      42.561  22.725  28.540  1.00  0.00     0.135 A 
ATOM     73  C   UNL A   1      42.665  23.533  26.279  1.00  0.00     0.135 A 
ATOM     74  F   UNL A   1      42.622  22.929  29.864  1.00  0.00    -0.206 F 
ATOM     75  C   UNL A   1      42.339  21.431  28.077  1.00  0.00     0.059 A 
ATOM     76  C   UNL A   1      42.418  22.253  25.793  1.00  0.00     0.059 A 
ATOM     77  F   UNL A   1      42.805  24.531  25.393  1.00  0.00    -0.206 F 
ATOM     78  C   UNL A   1      42.258  21.208  26.701  1.00  0.00     0.060 A 
BRANCH  78  79
ATOM     79  S   UNL A   1      41.888  19.540  26.115  1.00  0.00     0.124 S 
ATOM     80  O   UNL A   1      42.227  18.735  27.281  1.00  0.00    -0.237 OA
ATOM     81  O   UNL A   1      40.467  19.636  25.796  1.00  0.00    -0.237 OA
ATOM     82  O   UNL A   1      42.771  19.385  24.962  1.00  0.00    -0.744 OA
ENDBRANCH  78  79
ENDBRANCH  46  71
BRANCH  58  83
ATOM     83  C   UNL A   1      48.247  27.586  29.631  1.00  0.00     0.058 A 
ATOM     84  C   UNL A   1      49.105  27.900  28.566  1.00  0.00     0.135 A 
ATOM     85  C   UNL A   1      48.814  27.036  30.792  1.00  0.00     0.135 A 
ATOM     86  F   UNL A   1      48.611  28.421  27.431  1.00  0.00    -0.206 F 
ATOM     87  C   UNL A   1      50.474  27.665  28.644  1.00  0.00     0.059 A 
ATOM     88  C   UNL A   1      50.183  26.814  30.901  1.00  0.00     0.059 A 
ATOM     89  F   UNL A   1      48.036  26.726  31.841  1.00  0.00    -0.206 F 
ATOM     90  C   UNL A   1      51.003  27.125  29.818  1.00  0.00     0.060 A 
BRANCH  90  91
ATOM     91  S   UNL A   1      52.787  26.864  29.919  1.00  0.00     0.124 S 
ATOM     92  O   UNL A   1      53.082  26.335  28.591  1.00  0.00    -0.237 OA
ATOM     93  O   UNL A   1      53.284  28.209  30.191  1.00  0.00    -0.237 OA
ATOM     94  O   UNL A   1      52.930  25.914  31.019  1.00  0.00    -0.744 OA
ENDBRANCH  90  91
ENDBRANCH  58  83
ENDBRANCH  32  33
ENDBRANCH  25  27
ENDBRANCH  24  25
ENDBRANCH   1  24
TORSDOF 16
ENDMDL
MODEL 2
REMARK VINA RESULT:     -11.5      5.957     11.061
REMARK SMILES Nc1c(Cl)ccc2c1C=C(C(=O)OCCOC(=O)c1ccc(-c3c4nc(c(-c5c(F)cc(S(=O)(=O)[O-])cc5F)c5ccc([nH]5)c(-c5c(F)cc(S(=O)(=O)[O-])cc5F)c5nc(c(-c6c(F)cc(S(=O)(=O)[O-])cc6F)c6ccc3[nH]6)C=C5)C=C4)cc1)[C@@H](C(F)(F)F)O2
REMARK SMILES IDX 15 1 14 2 13 3 11 4 12 5 10 6 2 7 3 8 8 9 4 10 5 11 7 12
REMARK SMILES IDX 9 13 6 14 90 15 85 16 1 17 86 20 87 21 88 22 89 23 16 24
REMARK SMILES IDX 17 25 18 26 19 27 20 28 84 29 21 30 83 31 22 32 23 33 24 34
REMARK SMILES IDX 77 35 25 36 82 37 76 38 78 39 26 40 81 41 75 42 74 43 27 45
REMARK SMILES IDX 61 46 40 47 60 48 41 49 44 50 59 51 79 52 42 53 43 54 58 56
REMARK SMILES IDX 80 57 45 58 28 59 29 60 38 61 30 62 31 63 37 64 39 65 32 66
REMARK SMILES IDX 33 67 34 68 35 69 36 70 62 71 63 72 72 73 64 74 65 75 71 76
REMARK SMILES IDX 73 77 66 78 67 79 68 80 69 81 70 82 46 83 47 84 56 85 48 86
REMARK SMILES IDX 49 87 55 88 57 89 50 90 51 91 52 92 53 93 54 94
REMARK H PARENT 1 18 1 19 78 44 44 55
REMARK Flexibility Score: inf
ROOT
ATOM      1  C   UNL A   1      40.573  22.280  26.085  1.00  0.00     0.275 C 
ENDROOT
BRANCH   1   2
ATOM      2  C   UNL A   1      39.265  21.516  26.277  1.00  0.00     0.275 C 
BRANCH   2   3
ATOM      3  O   UNL A   1      38.289  21.910  25.288  1.00  0.00    -0.459 OA
BRANCH   3   4
ATOM      4  C   UNL A   1      37.223  22.613  25.748  1.00  0.00     0.338 C 
ATOM      5  O   UNL A   1      37.258  23.656  26.372  1.00  0.00    -0.246 OA
BRANCH   4   6
ATOM      6  C   UNL A   1      35.971  21.955  25.310  1.00  0.00     0.088 C 
ATOM      7  C   UNL A   1      34.721  18.528  24.638  1.00  0.00     0.061 A 
ATOM      8  C   UNL A   1      33.522  17.933  24.199  1.00  0.00     0.064 A 
ATOM      9  C   UNL A   1      34.771  19.937  24.757  1.00  0.00     0.042 A 
ATOM     10  Cl  UNL A   1      33.402  16.218  24.012  1.00  0.00    -0.082 Cl
ATOM     11  C   UNL A   1      32.394  18.706  23.927  1.00  0.00     0.026 A 
ATOM     12  C   UNL A   1      33.625  20.703  24.514  1.00  0.00     0.130 A 
ATOM     13  C   UNL A   1      36.002  20.632  25.116  1.00  0.00     0.029 C 
ATOM     14  C   UNL A   1      32.443  20.088  24.099  1.00  0.00     0.049 A 
ATOM     15  O   UNL A   1      33.559  22.058  24.672  1.00  0.00    -0.475 OA
ATOM     16  C   UNL A   1      34.749  22.792  25.067  1.00  0.00     0.316 C 
BRANCH   7  17
ATOM     17  N   UNL A   1      35.821  17.730  24.997  1.00  0.00    -0.397 N 
ATOM     18  H   UNL A   1      36.716  17.937  24.641  1.00  0.00     0.156 HD
ATOM     19  H   UNL A   1      35.698  16.965  25.604  1.00  0.00     0.156 HD
ENDBRANCH   7  17
BRANCH  16  20
ATOM     20  C   UNL A   1      35.015  23.863  23.994  1.00  0.00     0.430 C 
ATOM     21  F   UNL A   1      35.187  25.087  24.554  1.00  0.00    -0.167 F 
ATOM     22  F   UNL A   1      36.141  23.609  23.285  1.00  0.00    -0.167 F 
ATOM     23  F   UNL A   1      33.998  23.967  23.109  1.00  0.00    -0.167 F 
ENDBRANCH  16  20
ENDBRANCH   4   6
ENDBRANCH   3   4
ENDBRANCH   2   3
ENDBRANCH   1   2
BRANCH   1  24
ATOM     24  O   UNL A   1      40.697  23.308  27.083  1.00  0.00    -0.458 OA
BRANCH  24  25
ATOM     25  C   UNL A   1      41.479  24.357  26.741  1.00  0.00     0.338 C 
ATOM     26  O   UNL A   1      42.289  24.414  25.830  1.00  0.00    -0.246 OA
BRANCH  25  27
ATOM     27  C   UNL A   1      41.160  25.503  27.602  1.00  0.00     0.060 A 
ATOM     28  C   UNL A   1      42.090  26.534  27.703  1.00  0.00     0.016 A 
ATOM     29  C   UNL A   1      40.024  25.495  28.408  1.00  0.00     0.016 A 
ATOM     30  C   UNL A   1      41.951  27.507  28.687  1.00  0.00     0.010 A 
ATOM     31  C   UNL A   1      39.838  26.526  29.336  1.00  0.00     0.010 A 
ATOM     32  C   UNL A   1      40.823  27.515  29.518  1.00  0.00    -0.014 A 
BRANCH  32  33
ATOM     33  C   UNL A   1      40.697  28.527  30.602  1.00  0.00     0.031 A 
ATOM     34  C   UNL A   1      41.638  28.491  31.777  1.00  0.00     0.074 A 
ATOM     35  C   UNL A   1      39.768  29.500  30.518  1.00  0.00     0.049 A 
ATOM     36  N   UNL A   1      41.608  29.188  32.883  1.00  0.00    -0.248 NA
ATOM     37  C   UNL A   1      42.765  27.546  31.698  1.00  0.00     0.031 C 
ATOM     38  C   UNL A   1      38.847  29.697  29.396  1.00  0.00     0.029 A 
ATOM     39  N   UNL A   1      39.452  30.514  31.386  1.00  0.00    -0.354 N 
ATOM     40  C   UNL A   1      42.686  28.748  33.642  1.00  0.00     0.074 A 
ATOM     41  C   UNL A   1      43.345  27.711  32.878  1.00  0.00     0.031 C 
ATOM     42  C   UNL A   1      38.096  30.784  29.629  1.00  0.00     0.029 A 
ATOM     43  C   UNL A   1      38.418  31.310  30.950  1.00  0.00     0.049 A 
ATOM     44  H   UNL A   1      39.920  30.660  32.240  1.00  0.00     0.167 HD
ATOM     45  C   UNL A   1      43.091  29.172  34.864  1.00  0.00     0.037 A 
ATOM     46  C   UNL A   1      37.772  32.323  31.560  1.00  0.00     0.037 A 
ATOM     47  C   UNL A   1      42.441  30.219  35.610  1.00  0.00     0.049 A 
ATOM     48  C   UNL A   1      38.178  32.716  32.952  1.00  0.00     0.074 A 
ATOM     49  C   UNL A   1      42.753  30.703  36.868  1.00  0.00     0.029 A 
ATOM     50  N   UNL A   1      41.352  30.952  35.160  1.00  0.00    -0.354 N 
ATOM     51  N   UNL A   1      39.149  32.235  33.692  1.00  0.00    -0.248 NA
ATOM     52  C   UNL A   1      37.391  33.773  33.600  1.00  0.00     0.031 C 
ATOM     53  C   UNL A   1      41.830  31.703  37.195  1.00  0.00     0.029 A 
ATOM     54  C   UNL A   1      40.971  31.875  36.122  1.00  0.00     0.049 A 
ATOM     55  H   UNL A   1      40.914  30.835  34.286  1.00  0.00     0.167 HD
ATOM     56  C   UNL A   1      39.099  32.940  34.888  1.00  0.00     0.074 A 
ATOM     57  C   UNL A   1      38.010  33.889  34.768  1.00  0.00     0.031 C 
ATOM     58  C   UNL A   1      39.884  32.811  35.986  1.00  0.00     0.037 A 
BRANCH  45  59
ATOM     59  C   UNL A   1      44.275  28.482  35.487  1.00  0.00     0.058 A 
ATOM     60  C   UNL A   1      45.585  28.945  35.302  1.00  0.00     0.135 A 
ATOM     61  C   UNL A   1      44.088  27.356  36.308  1.00  0.00     0.135 A 
ATOM     62  F   UNL A   1      45.823  30.004  34.512  1.00  0.00    -0.206 F 
ATOM     63  C   UNL A   1      46.673  28.304  35.888  1.00  0.00     0.059 A 
ATOM     64  C   UNL A   1      45.158  26.714  36.924  1.00  0.00     0.059 A 
ATOM     65  F   UNL A   1      42.855  26.869  36.517  1.00  0.00    -0.206 F 
ATOM     66  C   UNL A   1      46.450  27.188  36.696  1.00  0.00     0.060 A 
BRANCH  66  67
ATOM     67  S   UNL A   1      47.872  26.364  37.445  1.00  0.00     0.124 S 
ATOM     68  O   UNL A   1      47.222  25.324  38.237  1.00  0.00    -0.237 OA
ATOM     69  O   UNL A   1      48.614  25.900  36.277  1.00  0.00    -0.237 OA
ATOM     70  O   UNL A   1      48.517  27.425  38.212  1.00  0.00    -0.744 OA
ENDBRANCH  66  67
ENDBRANCH  45  59
BRANCH  46  71
ATOM     71  C   UNL A   1      36.656  33.010  30.858  1.00  0.00     0.058 A 
ATOM     72  C   UNL A   1      35.321  32.723  31.173  1.00  0.00     0.135 A 
ATOM     73  C   UNL A   1      36.902  34.002  29.893  1.00  0.00     0.135 A 
ATOM     74  F   UNL A   1      35.034  31.774  32.077  1.00  0.00    -0.206 F 
ATOM     75  C   UNL A   1      34.267  33.401  30.566  1.00  0.00     0.059 A 
ATOM     76  C   UNL A   1      35.867  34.711  29.292  1.00  0.00     0.059 A 
ATOM     77  F   UNL A   1      38.163  34.320  29.562  1.00  0.00    -0.206 F 
ATOM     78  C   UNL A   1      34.552  34.401  29.634  1.00  0.00     0.060 A 
BRANCH  78  79
ATOM     79  S   UNL A   1      33.179  35.329  28.914  1.00  0.00     0.124 S 
ATOM     80  O   UNL A   1      32.456  35.757  30.104  1.00  0.00    -0.237 OA
ATOM     81  O   UNL A   1      33.875  36.380  28.176  1.00  0.00    -0.237 OA
ATOM     82  O   UNL A   1      32.502  34.337  28.084  1.00  0.00    -0.744 OA
ENDBRANCH  78  79
ENDBRANCH  46  71
BRANCH  58  83
ATOM     83  C   UNL A   1      39.613  33.734  37.141  1.00  0.00     0.058 A 
ATOM     84  C   UNL A   1      38.776  33.358  38.202  1.00  0.00     0.135 A 
ATOM     85  C   UNL A   1      40.246  34.985  37.215  1.00  0.00     0.135 A 
ATOM     86  F   UNL A   1      38.141  32.174  38.175  1.00  0.00    -0.206 F 
ATOM     87  C   UNL A   1      38.565  34.196  39.292  1.00  0.00     0.059 A 
ATOM     88  C   UNL A   1      40.068  35.830  38.306  1.00  0.00     0.059 A 
ATOM     89  F   UNL A   1      41.063  35.388  36.229  1.00  0.00    -0.206 F 
ATOM     90  C   UNL A   1      39.218  35.428  39.336  1.00  0.00     0.060 A 
BRANCH  90  91
ATOM     91  S   UNL A   1      38.966  36.488  40.776  1.00  0.00     0.124 S 
ATOM     92  O   UNL A   1      38.518  37.729  40.152  1.00  0.00    -0.237 OA
ATOM     93  O   UNL A   1      37.953  35.755  41.529  1.00  0.00    -0.237 OA
ATOM     94  O   UNL A   1      40.286  36.539  41.397  1.00  0.00    -0.744 OA
ENDBRANCH  90  91
ENDBRANCH  58  83
ENDBRANCH  32  33
ENDBRANCH  25  27
ENDBRANCH  24  25
ENDBRANCH   1  24
TORSDOF 16
ENDMDL
MODEL 3
REMARK VINA RESULT:     -11.5      4.470      9.825
REMARK SMILES Nc1c(Cl)ccc2c1C=C(C(=O)OCCOC(=O)c1ccc(-c3c4nc(c(-c5c(F)cc(S(=O)(=O)[O-])cc5F)c5ccc([nH]5)c(-c5c(F)cc(S(=O)(=O)[O-])cc5F)c5nc(c(-c6c(F)cc(S(=O)(=O)[O-])cc6F)c6ccc3[nH]6)C=C5)C=C4)cc1)[C@@H](C(F)(F)F)O2
REMARK SMILES IDX 15 1 14 2 13 3 11 4 12 5 10 6 2 7 3 8 8 9 4 10 5 11 7 12
REMARK SMILES IDX 9 13 6 14 90 15 85 16 1 17 86 20 87 21 88 22 89 23 16 24
REMARK SMILES IDX 17 25 18 26 19 27 20 28 84 29 21 30 83 31 22 32 23 33 24 34
REMARK SMILES IDX 77 35 25 36 82 37 76 38 78 39 26 40 81 41 75 42 74 43 27 45
REMARK SMILES IDX 61 46 40 47 60 48 41 49 44 50 59 51 79 52 42 53 43 54 58 56
REMARK SMILES IDX 80 57 45 58 28 59 29 60 38 61 30 62 31 63 37 64 39 65 32 66
REMARK SMILES IDX 33 67 34 68 35 69 36 70 62 71 63 72 72 73 64 74 65 75 71 76
REMARK SMILES IDX 73 77 66 78 67 79 68 80 69 81 70 82 46 83 47 84 56 85 48 86
REMARK SMILES IDX 49 87 55 88 57 89 50 90 51 91 52 92 53 93 54 94
REMARK H PARENT 1 18 1 19 78 44 44 55
REMARK Flexibility Score: inf
ROOT
ATOM      1  C   UNL A   1      36.078  23.280  25.859  1.00  0.00     0.275 C 
ENDROOT
BRANCH   1   2
ATOM      2  C   UNL A   1      34.859  24.165  25.602  1.00  0.00     0.275 C 
BRANCH   2   3
ATOM      3  O   UNL A   1      33.668  23.574  26.164  1.00  0.00    -0.459 OA
BRANCH   3   4
ATOM      4  C   UNL A   1      32.568  23.575  25.368  1.00  0.00     0.338 C 
ATOM      5  O   UNL A   1      31.771  24.484  25.238  1.00  0.00    -0.246 OA
BRANCH   4   6
ATOM      6  C   UNL A   1      32.511  22.310  24.601  1.00  0.00     0.088 C 
ATOM      7  C   UNL A   1      32.771  18.664  25.233  1.00  0.00     0.061 A 
ATOM      8  C   UNL A   1      32.733  17.479  24.474  1.00  0.00     0.064 A 
ATOM      9  C   UNL A   1      32.629  19.901  24.561  1.00  0.00     0.042 A 
ATOM     10  Cl  UNL A   1      32.921  15.935  25.232  1.00  0.00    -0.082 Cl
ATOM     11  C   UNL A   1      32.516  17.515  23.096  1.00  0.00     0.026 A 
ATOM     12  C   UNL A   1      32.380  19.927  23.184  1.00  0.00     0.130 A 
ATOM     13  C   UNL A   1      32.750  21.173  25.264  1.00  0.00     0.029 C 
ATOM     14  C   UNL A   1      32.326  18.738  22.456  1.00  0.00     0.049 A 
ATOM     15  O   UNL A   1      32.159  21.067  22.465  1.00  0.00    -0.475 OA
ATOM     16  C   UNL A   1      32.229  22.358  23.128  1.00  0.00     0.316 C 
BRANCH   7  17
ATOM     17  N   UNL A   1      32.897  18.609  26.632  1.00  0.00    -0.397 N 
ATOM     18  H   UNL A   1      33.712  18.952  27.067  1.00  0.00     0.156 HD
ATOM     19  H   UNL A   1      32.171  18.229  27.178  1.00  0.00     0.156 HD
ENDBRANCH   7  17
BRANCH  16  20
ATOM     20  C   UNL A   1      33.281  23.206  22.390  1.00  0.00     0.430 C 
ATOM     21  F   UNL A   1      33.226  23.000  21.050  1.00  0.00    -0.167 F 
ATOM     22  F   UNL A   1      33.091  24.534  22.579  1.00  0.00    -0.167 F 
ATOM     23  F   UNL A   1      34.541  22.919  22.788  1.00  0.00    -0.167 F 
ENDBRANCH  16  20
ENDBRANCH   4   6
ENDBRANCH   3   4
ENDBRANCH   2   3
ENDBRANCH   1   2
BRANCH   1  24
ATOM     24  O   UNL A   1      37.285  24.004  25.566  1.00  0.00    -0.458 OA
BRANCH  24  25
ATOM     25  C   UNL A   1      38.420  23.464  26.065  1.00  0.00     0.338 C 
ATOM     26  O   UNL A   1      38.870  22.350  25.850  1.00  0.00    -0.246 OA
BRANCH  25  27
ATOM     27  C   UNL A   1      39.117  24.465  26.882  1.00  0.00     0.060 A 
ATOM     28  C   UNL A   1      38.833  24.522  28.243  1.00  0.00     0.016 A 
ATOM     29  C   UNL A   1      39.933  25.426  26.290  1.00  0.00     0.016 A 
ATOM     30  C   UNL A   1      39.270  25.602  29.004  1.00  0.00     0.010 A 
ATOM     31  C   UNL A   1      40.449  26.462  27.076  1.00  0.00     0.010 A 
ATOM     32  C   UNL A   1      40.084  26.587  28.430  1.00  0.00    -0.014 A 
BRANCH  32  33
ATOM     33  C   UNL A   1      40.512  27.767  29.230  1.00  0.00     0.031 A 
ATOM     34  C   UNL A   1      41.868  27.780  29.886  1.00  0.00     0.074 A 
ATOM     35  C   UNL A   1      39.706  28.842  29.338  1.00  0.00     0.049 A 
ATOM     36  N   UNL A   1      42.370  28.642  30.731  1.00  0.00    -0.248 NA
ATOM     37  C   UNL A   1      42.781  26.676  29.544  1.00  0.00     0.031 C 
ATOM     38  C   UNL A   1      38.402  28.991  28.687  1.00  0.00     0.029 A 
ATOM     39  N   UNL A   1      39.869  30.018  30.025  1.00  0.00    -0.354 N 
ATOM     40  C   UNL A   1      43.640  28.173  31.045  1.00  0.00     0.074 A 
ATOM     41  C   UNL A   1      43.828  26.940  30.312  1.00  0.00     0.031 C 
ATOM     42  C   UNL A   1      37.901  30.202  28.978  1.00  0.00     0.029 A 
ATOM     43  C   UNL A   1      38.803  30.879  29.904  1.00  0.00     0.049 A 
ATOM     44  H   UNL A   1      40.672  30.227  30.556  1.00  0.00     0.167 HD
ATOM     45  C   UNL A   1      44.566  28.722  31.870  1.00  0.00     0.037 A 
ATOM     46  C   UNL A   1      38.556  32.062  30.500  1.00  0.00     0.037 A 
ATOM     47  C   UNL A   1      44.378  29.961  32.580  1.00  0.00     0.049 A 
ATOM     48  C   UNL A   1      39.555  32.608  31.480  1.00  0.00     0.074 A 
ATOM     49  C   UNL A   1      45.240  30.589  33.463  1.00  0.00     0.029 A 
ATOM     50  N   UNL A   1      43.252  30.767  32.483  1.00  0.00    -0.354 N 
ATOM     51  N   UNL A   1      40.718  32.113  31.831  1.00  0.00    -0.248 NA
ATOM     52  C   UNL A   1      39.202  33.861  32.160  1.00  0.00     0.031 C 
ATOM     53  C   UNL A   1      44.620  31.754  33.927  1.00  0.00     0.029 A 
ATOM     54  C   UNL A   1      43.391  31.878  33.299  1.00  0.00     0.049 A 
ATOM     55  H   UNL A   1      42.469  30.578  31.916  1.00  0.00     0.167 HD
ATOM     56  C   UNL A   1      41.243  33.000  32.764  1.00  0.00     0.074 A 
ATOM     57  C   UNL A   1      40.276  34.070  32.911  1.00  0.00     0.031 C 
ATOM     58  C   UNL A   1      42.418  32.933  33.435  1.00  0.00     0.037 A 
BRANCH  45  59
ATOM     59  C   UNL A   1      45.854  27.972  32.073  1.00  0.00     0.058 A 
ATOM     60  C   UNL A   1      46.986  28.213  31.279  1.00  0.00     0.135 A 
ATOM     61  C   UNL A   1      45.966  27.018  33.099  1.00  0.00     0.135 A 
ATOM     62  F   UNL A   1      46.930  29.099  30.272  1.00  0.00    -0.206 F 
ATOM     63  C   UNL A   1      48.176  27.518  31.479  1.00  0.00     0.059 A 
ATOM     64  C   UNL A   1      47.152  26.330  33.333  1.00  0.00     0.059 A 
ATOM     65  F   UNL A   1      44.913  26.747  33.886  1.00  0.00    -0.206 F 
ATOM     66  C   UNL A   1      48.249  26.577  32.508  1.00  0.00     0.060 A 
BRANCH  66  67
ATOM     67  S   UNL A   1      49.798  25.681  32.751  1.00  0.00     0.124 S 
ATOM     68  O   UNL A   1      49.381  24.623  33.666  1.00  0.00    -0.237 OA
ATOM     69  O   UNL A   1      50.126  25.253  31.395  1.00  0.00    -0.237 OA
ATOM     70  O   UNL A   1      50.689  26.687  33.322  1.00  0.00    -0.744 OA
ENDBRANCH  66  67
ENDBRANCH  45  59
BRANCH  46  71
ATOM     71  C   UNL A   1      37.293  32.787  30.199  1.00  0.00     0.058 A 
ATOM     72  C   UNL A   1      37.228  33.717  29.153  1.00  0.00     0.135 A 
ATOM     73  C   UNL A   1      36.115  32.529  30.920  1.00  0.00     0.135 A 
ATOM     74  F   UNL A   1      38.330  34.008  28.444  1.00  0.00    -0.206 F 
ATOM     75  C   UNL A   1      36.038  34.360  28.823  1.00  0.00     0.059 A 
ATOM     76  C   UNL A   1      34.908  33.139  30.593  1.00  0.00     0.059 A 
ATOM     77  F   UNL A   1      36.123  31.641  31.926  1.00  0.00    -0.206 F 
ATOM     78  C   UNL A   1      34.881  34.055  29.543  1.00  0.00     0.060 A 
BRANCH  78  79
ATOM     79  S   UNL A   1      33.327  34.834  29.054  1.00  0.00     0.124 S 
ATOM     80  O   UNL A   1      33.791  36.104  28.511  1.00  0.00    -0.237 OA
ATOM     81  O   UNL A   1      32.799  33.879  28.083  1.00  0.00    -0.237 OA
ATOM     82  O   UNL A   1      32.582  34.916  30.307  1.00  0.00    -0.744 OA
ENDBRANCH  78  79
ENDBRANCH  46  71
BRANCH  58  83
ATOM     83  C   UNL A   1      42.741  34.060  34.376  1.00  0.00     0.058 A 
ATOM     84  C   UNL A   1      42.309  34.048  35.711  1.00  0.00     0.135 A 
ATOM     85  C   UNL A   1      43.543  35.132  33.953  1.00  0.00     0.135 A 
ATOM     86  F   UNL A   1      41.534  33.048  36.162  1.00  0.00    -0.206 F 
ATOM     87  C   UNL A   1      42.649  35.070  36.592  1.00  0.00     0.059 A 
ATOM     88  C   UNL A   1      43.915  36.152  34.823  1.00  0.00     0.059 A 
ATOM     89  F   UNL A   1      43.988  35.184  32.688  1.00  0.00    -0.206 F 
ATOM     90  C   UNL A   1      43.456  36.115  36.139  1.00  0.00     0.060 A 
BRANCH  90  91
ATOM     91  S   UNL A   1      43.922  37.413  37.305  1.00  0.00     0.124 S 
ATOM     92  O   UNL A   1      44.056  38.567  36.421  1.00  0.00    -0.237 OA
ATOM     93  O   UNL A   1      42.781  37.440  38.214  1.00  0.00    -0.237 OA
ATOM     94  O   UNL A   1      45.168  36.919  37.884  1.00  0.00    -0.744 OA
ENDBRANCH  90  91
ENDBRANCH  58  83
ENDBRANCH  32  33
ENDBRANCH  25  27
ENDBRANCH  24  25
ENDBRANCH   1  24
TORSDOF 16
ENDMDL
