MODEL 1
REMARK VINA RESULT:     -13.6      0.000      0.000
REMARK SMILES C[C@]12c3ccccc3[C@](C)(c3ccccc31)[C@@H]1C(=O)N(c3ccc(C(=O)OCCOC(=O)c4ccc(-c5c6nc(c(-c7c(F)cc(S(=O)(=O)[O-])cc7F)c7ccc([nH]7)c(-c7c(F)cc(S(=O)(=O)[O-])cc7F)c7nc(c(-c8c(F)cc(S(=O)(=O)[O-])cc8F)c8ccc5[nH]8)C=C7)C=C6)cc4)cc3)C(=O)[C@H]12
REMARK SMILES IDX 29 1 28 2 27 3 25 4 26 5 24 6 21 7 22 8 100 9 23 10 99 11
REMARK SMILES IDX 20 12 1 13 2 14 16 15 3 16 103 17 15 18 11 19 8 20 4 21
REMARK SMILES IDX 17 22 101 23 14 24 12 25 9 26 7 27 5 28 18 29 102 30 13 31
REMARK SMILES IDX 10 32 6 33 19 34 30 35 31 36 32 37 33 38 34 39 98 40 35 41
REMARK SMILES IDX 97 42 36 43 37 44 38 45 91 46 39 47 96 48 90 49 92 50 40 51
REMARK SMILES IDX 95 52 89 53 88 54 41 56 75 57 54 58 74 59 55 60 58 61 73 62
REMARK SMILES IDX 93 63 56 64 57 65 72 67 94 68 59 69 42 70 43 71 52 72 44 73
REMARK SMILES IDX 45 74 51 75 53 76 46 77 47 78 48 79 49 80 50 81 76 82 77 83
REMARK SMILES IDX 86 84 78 85 79 86 85 87 87 88 80 89 81 90 82 91 83 92 84 93
REMARK SMILES IDX 60 94 61 95 70 96 62 97 63 98 69 99 71 100 64 101 65 102
REMARK SMILES IDX 66 103 67 104 68 105
REMARK H PARENT 92 55 58 66
REMARK Flexibility Score: inf
ROOT
ATOM      1  C   UNL A   1      43.110  23.264  25.556  1.00  0.00     0.275 C 
ENDROOT
BRANCH   1   2
ATOM      2  C   UNL A   1      43.423  21.905  26.185  1.00  0.00     0.275 C 
BRANCH   2   3
ATOM      3  O   UNL A   1      42.561  20.878  25.654  1.00  0.00    -0.458 OA
BRANCH   3   4
ATOM      4  C   UNL A   1      41.712  20.297  26.535  1.00  0.00     0.338 C 
ATOM      5  O   UNL A   1      42.018  19.606  27.493  1.00  0.00    -0.246 OA
BRANCH   4   6
ATOM      6  C   UNL A   1      40.317  20.727  26.264  1.00  0.00     0.060 A 
ATOM      7  C   UNL A   1      37.781  21.736  25.666  1.00  0.00     0.052 A 
ATOM      8  C   UNL A   1      38.650  22.478  26.463  1.00  0.00     0.028 A 
ATOM      9  C   UNL A   1      38.158  20.468  25.204  1.00  0.00     0.028 A 
ATOM     10  C   UNL A   1      39.885  21.940  26.815  1.00  0.00     0.018 A 
ATOM     11  C   UNL A   1      39.444  19.980  25.467  1.00  0.00     0.018 A 
BRANCH   7  12
ATOM     12  N   UNL A   1      36.522  22.259  25.361  1.00  0.00    -0.250 N 
ATOM     13  C   UNL A   1      34.086  26.044  25.850  1.00  0.00     0.022 C 
ATOM     14  C   UNL A   1      33.693  24.756  25.129  1.00  0.00     0.030 C 
ATOM     15  C   UNL A   1      33.448  24.897  23.602  1.00  0.00    -0.033 A 
ATOM     16  C   UNL A   1      32.381  24.093  25.657  1.00  0.00    -0.033 A 
ATOM     17  C   UNL A   1      34.676  23.594  25.425  1.00  0.00     0.108 C 
ATOM     18  C   UNL A   1      33.572  26.065  22.857  1.00  0.00     0.005 A 
ATOM     19  C   UNL A   1      33.020  23.685  22.953  1.00  0.00    -0.033 A 
ATOM     20  C   UNL A   1      32.101  22.819  25.053  1.00  0.00    -0.033 A 
ATOM     21  C   UNL A   1      31.545  24.608  26.646  1.00  0.00     0.005 A 
ATOM     22  C   UNL A   1      34.536  22.544  24.317  1.00  0.00     0.108 C 
ATOM     23  C   UNL A   1      36.167  23.597  25.570  1.00  0.00     0.238 C 
ATOM     24  C   UNL A   1      33.283  26.036  21.489  1.00  0.00     0.000 A 
ATOM     25  C   UNL A   1      32.725  23.672  21.593  1.00  0.00     0.005 A 
ATOM     26  C   UNL A   1      33.056  22.439  23.894  1.00  0.00     0.030 C 
ATOM     27  C   UNL A   1      30.993  22.090  25.477  1.00  0.00     0.005 A 
ATOM     28  C   UNL A   1      30.437  23.862  27.048  1.00  0.00     0.000 A 
ATOM     29  C   UNL A   1      35.494  21.504  24.795  1.00  0.00     0.238 C 
ATOM     30  O   UNL A   1      36.865  24.543  25.883  1.00  0.00    -0.274 OA
ATOM     31  C   UNL A   1      32.860  24.854  20.866  1.00  0.00     0.000 A 
ATOM     32  C   UNL A   1      32.752  21.105  23.215  1.00  0.00     0.022 C 
ATOM     33  C   UNL A   1      30.168  22.614  26.476  1.00  0.00     0.000 A 
ATOM     34  O   UNL A   1      35.434  20.307  24.586  1.00  0.00    -0.274 OA
ENDBRANCH   7  12
ENDBRANCH   4   6
ENDBRANCH   3   4
ENDBRANCH   2   3
ENDBRANCH   1   2
BRANCH   1  35
ATOM     35  O   UNL A   1      42.564  24.159  26.541  1.00  0.00    -0.458 OA
BRANCH  35  36
ATOM     36  C   UNL A   1      42.113  25.349  26.080  1.00  0.00     0.338 C 
ATOM     37  O   UNL A   1      41.954  25.688  24.921  1.00  0.00    -0.246 OA
BRANCH  36  38
ATOM     38  C   UNL A   1      41.741  26.183  27.233  1.00  0.00     0.060 A 
ATOM     39  C   UNL A   1      40.762  25.787  28.138  1.00  0.00     0.016 A 
ATOM     40  C   UNL A   1      42.443  27.367  27.435  1.00  0.00     0.016 A 
ATOM     41  C   UNL A   1      40.473  26.614  29.233  1.00  0.00     0.010 A 
ATOM     42  C   UNL A   1      42.200  28.160  28.552  1.00  0.00     0.010 A 
ATOM     43  C   UNL A   1      41.193  27.805  29.456  1.00  0.00    -0.014 A 
BRANCH  43  44
ATOM     44  C   UNL A   1      40.909  28.672  30.634  1.00  0.00     0.031 A 
ATOM     45  C   UNL A   1      41.738  28.571  31.890  1.00  0.00     0.074 A 
ATOM     46  C   UNL A   1      39.874  29.533  30.588  1.00  0.00     0.049 A 
ATOM     47  N   UNL A   1      41.649  29.268  32.996  1.00  0.00    -0.248 NA
ATOM     48  C   UNL A   1      42.784  27.534  31.924  1.00  0.00     0.031 C 
ATOM     49  C   UNL A   1      38.936  29.667  29.471  1.00  0.00     0.029 A 
ATOM     50  N   UNL A   1      39.441  30.469  31.496  1.00  0.00    -0.354 N 
ATOM     51  C   UNL A   1      42.614  28.751  33.854  1.00  0.00     0.074 A 
ATOM     52  C   UNL A   1      43.240  27.644  33.164  1.00  0.00     0.031 C 
ATOM     53  C   UNL A   1      38.079  30.667  29.733  1.00  0.00     0.029 A 
ATOM     54  C   UNL A   1      38.389  31.229  31.045  1.00  0.00     0.049 A 
ATOM     55  H   UNL A   1      39.848  30.583  32.386  1.00  0.00     0.167 HD
ATOM     56  C   UNL A   1      42.971  29.178  35.090  1.00  0.00     0.037 A 
ATOM     57  C   UNL A   1      37.756  32.275  31.612  1.00  0.00     0.037 A 
ATOM     58  C   UNL A   1      42.379  30.308  35.759  1.00  0.00     0.049 A 
ATOM     59  C   UNL A   1      38.208  32.771  32.957  1.00  0.00     0.074 A 
ATOM     60  C   UNL A   1      42.721  30.861  36.981  1.00  0.00     0.029 A 
ATOM     61  N   UNL A   1      41.332  31.065  35.257  1.00  0.00    -0.354 N 
ATOM     62  N   UNL A   1      39.167  32.311  33.724  1.00  0.00    -0.248 NA
ATOM     63  C   UNL A   1      37.495  33.930  33.513  1.00  0.00     0.031 C 
ATOM     64  C   UNL A   1      41.864  31.940  37.229  1.00  0.00     0.029 A 
ATOM     65  C   UNL A   1      41.010  32.078  36.147  1.00  0.00     0.049 A 
ATOM     66  H   UNL A   1      40.883  30.908  34.396  1.00  0.00     0.167 HD
ATOM     67  C   UNL A   1      39.181  33.130  34.846  1.00  0.00     0.074 A 
ATOM     68  C   UNL A   1      38.148  34.127  34.651  1.00  0.00     0.031 C 
ATOM     69  C   UNL A   1      39.978  33.061  35.941  1.00  0.00     0.037 A 
BRANCH  56  70
ATOM     70  C   UNL A   1      44.083  28.445  35.791  1.00  0.00     0.058 A 
ATOM     71  C   UNL A   1      43.814  27.393  36.681  1.00  0.00     0.135 A 
ATOM     72  C   UNL A   1      45.429  28.753  35.531  1.00  0.00     0.135 A 
ATOM     73  F   UNL A   1      42.546  27.063  36.974  1.00  0.00    -0.206 F 
ATOM     74  C   UNL A   1      44.837  26.690  37.309  1.00  0.00     0.059 A 
ATOM     75  C   UNL A   1      46.469  28.046  36.128  1.00  0.00     0.059 A 
ATOM     76  F   UNL A   1      45.743  29.746  34.683  1.00  0.00    -0.206 F 
ATOM     77  C   UNL A   1      46.162  27.024  37.026  1.00  0.00     0.060 A 
BRANCH  77  78
ATOM     78  S   UNL A   1      47.477  26.089  37.837  1.00  0.00     0.124 S 
ATOM     79  O   UNL A   1      48.494  27.120  38.027  1.00  0.00    -0.237 OA
ATOM     80  O   UNL A   1      46.820  25.617  39.052  1.00  0.00    -0.237 OA
ATOM     81  O   UNL A   1      47.809  25.054  36.864  1.00  0.00    -0.744 OA
ENDBRANCH  77  78
ENDBRANCH  56  70
BRANCH  57  82
ATOM     82  C   UNL A   1      36.672  32.968  30.868  1.00  0.00     0.058 A 
ATOM     83  C   UNL A   1      35.330  32.787  31.231  1.00  0.00     0.135 A 
ATOM     84  C   UNL A   1      36.954  33.850  29.814  1.00  0.00     0.135 A 
ATOM     85  F   UNL A   1      35.012  31.948  32.230  1.00  0.00    -0.206 F 
ATOM     86  C   UNL A   1      34.302  33.451  30.573  1.00  0.00     0.059 A 
ATOM     87  C   UNL A   1      35.944  34.542  29.154  1.00  0.00     0.059 A 
ATOM     88  F   UNL A   1      38.224  34.067  29.442  1.00  0.00    -0.206 F 
ATOM     89  C   UNL A   1      34.619  34.332  29.537  1.00  0.00     0.060 A 
BRANCH  89  90
ATOM     90  S   UNL A   1      33.280  35.240  28.735  1.00  0.00     0.124 S 
ATOM     91  O   UNL A   1      32.653  34.193  27.937  1.00  0.00    -0.237 OA
ATOM     92  O   UNL A   1      32.509  35.723  29.876  1.00  0.00    -0.237 OA
ATOM     93  O   UNL A   1      33.982  36.274  27.980  1.00  0.00    -0.744 OA
ENDBRANCH  89  90
ENDBRANCH  57  82
BRANCH  69  94
ATOM     94  C   UNL A   1      39.771  34.090  37.014  1.00  0.00     0.058 A 
ATOM     95  C   UNL A   1      39.000  33.810  38.153  1.00  0.00     0.135 A 
ATOM     96  C   UNL A   1      40.402  35.341  36.938  1.00  0.00     0.135 A 
ATOM     97  F   UNL A   1      38.371  32.630  38.270  1.00  0.00    -0.206 F 
ATOM     98  C   UNL A   1      38.852  34.741  39.176  1.00  0.00     0.059 A 
ATOM     99  C   UNL A   1      40.285  36.280  37.958  1.00  0.00     0.059 A 
ATOM    100  F   UNL A   1      41.157  35.654  35.873  1.00  0.00    -0.206 F 
ATOM    101  C   UNL A   1      39.501  35.973  39.070  1.00  0.00     0.060 A 
BRANCH 101 102
ATOM    102  S   UNL A   1      39.338  37.154  40.425  1.00  0.00     0.124 S 
ATOM    103  O   UNL A   1      38.655  38.263  39.768  1.00  0.00    -0.237 OA
ATOM    104  O   UNL A   1      38.544  36.408  41.397  1.00  0.00    -0.237 OA
ATOM    105  O   UNL A   1      40.719  37.412  40.821  1.00  0.00    -0.744 OA
ENDBRANCH 101 102
ENDBRANCH  69  94
ENDBRANCH  43  44
ENDBRANCH  36  38
ENDBRANCH  35  36
ENDBRANCH   1  35
TORSDOF 15
ENDMDL
MODEL 2
REMARK VINA RESULT:     -13.5      0.317      2.476
REMARK SMILES C[C@]12c3ccccc3[C@](C)(c3ccccc31)[C@@H]1C(=O)N(c3ccc(C(=O)OCCOC(=O)c4ccc(-c5c6nc(c(-c7c(F)cc(S(=O)(=O)[O-])cc7F)c7ccc([nH]7)c(-c7c(F)cc(S(=O)(=O)[O-])cc7F)c7nc(c(-c8c(F)cc(S(=O)(=O)[O-])cc8F)c8ccc5[nH]8)C=C7)C=C6)cc4)cc3)C(=O)[C@H]12
REMARK SMILES IDX 29 1 28 2 27 3 25 4 26 5 24 6 21 7 22 8 100 9 23 10 99 11
REMARK SMILES IDX 20 12 1 13 2 14 16 15 3 16 103 17 15 18 11 19 8 20 4 21
REMARK SMILES IDX 17 22 101 23 14 24 12 25 9 26 7 27 5 28 18 29 102 30 13 31
REMARK SMILES IDX 10 32 6 33 19 34 30 35 31 36 32 37 33 38 34 39 98 40 35 41
REMARK SMILES IDX 97 42 36 43 37 44 38 45 91 46 39 47 96 48 90 49 92 50 40 51
REMARK SMILES IDX 95 52 89 53 88 54 41 56 75 57 54 58 74 59 55 60 58 61 73 62
REMARK SMILES IDX 93 63 56 64 57 65 72 67 94 68 59 69 42 70 43 71 52 72 44 73
REMARK SMILES IDX 45 74 51 75 53 76 46 77 47 78 48 79 49 80 50 81 76 82 77 83
REMARK SMILES IDX 86 84 78 85 79 86 85 87 87 88 80 89 81 90 82 91 83 92 84 93
REMARK SMILES IDX 60 94 61 95 70 96 62 97 63 98 69 99 71 100 64 101 65 102
REMARK SMILES IDX 66 103 67 104 68 105
REMARK H PARENT 92 55 58 66
REMARK Flexibility Score: inf
ROOT
ATOM      1  C   UNL A   1      43.148  23.063  25.494  1.00  0.00     0.275 C 
ENDROOT
BRANCH   1   2
ATOM      2  C   UNL A   1      43.369  21.677  26.103  1.00  0.00     0.275 C 
BRANCH   2   3
ATOM      3  O   UNL A   1      42.397  20.734  25.609  1.00  0.00    -0.458 OA
BRANCH   3   4
ATOM      4  C   UNL A   1      41.510  20.260  26.518  1.00  0.00     0.338 C 
ATOM      5  O   UNL A   1      41.771  19.615  27.520  1.00  0.00    -0.246 OA
BRANCH   4   6
ATOM      6  C   UNL A   1      40.144  20.752  26.208  1.00  0.00     0.060 A 
ATOM      7  C   UNL A   1      37.674  21.862  25.520  1.00  0.00     0.052 A 
ATOM      8  C   UNL A   1      38.594  22.618  26.243  1.00  0.00     0.028 A 
ATOM      9  C   UNL A   1      37.967  20.535  25.178  1.00  0.00     0.028 A 
ATOM     10  C   UNL A   1      39.794  22.036  26.643  1.00  0.00     0.018 A 
ATOM     11  C   UNL A   1      39.220  19.992  25.485  1.00  0.00     0.018 A 
BRANCH   7  12
ATOM     12  N   UNL A   1      36.450  22.435  25.167  1.00  0.00    -0.250 N 
ATOM     13  C   UNL A   1      32.693  21.510  22.817  1.00  0.00     0.022 C 
ATOM     14  C   UNL A   1      33.010  22.761  23.634  1.00  0.00     0.030 C 
ATOM     15  C   UNL A   1      32.082  23.011  24.854  1.00  0.00    -0.033 A 
ATOM     16  C   UNL A   1      32.933  24.097  22.828  1.00  0.00    -0.033 A 
ATOM     17  C   UNL A   1      34.501  22.826  24.052  1.00  0.00     0.108 C 
ATOM     18  C   UNL A   1      31.028  22.200  25.262  1.00  0.00     0.005 A 
ATOM     19  C   UNL A   1      32.361  24.227  25.575  1.00  0.00    -0.033 A 
ATOM     20  C   UNL A   1      33.360  25.244  23.581  1.00  0.00    -0.033 A 
ATOM     21  C   UNL A   1      32.544  24.229  21.497  1.00  0.00     0.005 A 
ATOM     22  C   UNL A   1      34.630  23.777  25.248  1.00  0.00     0.108 C 
ATOM     23  C   UNL A   1      35.432  21.743  24.501  1.00  0.00     0.238 C 
ATOM     24  C   UNL A   1      30.263  22.581  26.368  1.00  0.00     0.000 A 
ATOM     25  C   UNL A   1      31.584  24.600  26.668  1.00  0.00     0.005 A 
ATOM     26  C   UNL A   1      33.649  24.955  25.076  1.00  0.00     0.030 C 
ATOM     27  C   UNL A   1      33.400  26.492  22.965  1.00  0.00     0.005 A 
ATOM     28  C   UNL A   1      32.586  25.490  20.902  1.00  0.00     0.000 A 
ATOM     29  C   UNL A   1      36.107  23.755  25.463  1.00  0.00     0.238 C 
ATOM     30  O   UNL A   1      35.340  20.556  24.251  1.00  0.00    -0.274 OA
ATOM     31  C   UNL A   1      30.534  23.769  27.060  1.00  0.00     0.000 A 
ATOM     32  C   UNL A   1      34.068  26.169  25.902  1.00  0.00     0.022 C 
ATOM     33  C   UNL A   1      33.016  26.608  21.626  1.00  0.00     0.000 A 
ATOM     34  O   UNL A   1      36.787  24.648  25.934  1.00  0.00    -0.274 OA
ENDBRANCH   7  12
ENDBRANCH   4   6
ENDBRANCH   3   4
ENDBRANCH   2   3
ENDBRANCH   1   2
BRANCH   1  35
ATOM     35  O   UNL A   1      42.566  23.951  26.465  1.00  0.00    -0.458 OA
BRANCH  35  36
ATOM     36  C   UNL A   1      42.227  25.183  26.018  1.00  0.00     0.338 C 
ATOM     37  O   UNL A   1      42.143  25.560  24.863  1.00  0.00    -0.246 OA
BRANCH  36  38
ATOM     38  C   UNL A   1      41.871  26.015  27.177  1.00  0.00     0.060 A 
ATOM     39  C   UNL A   1      40.900  25.622  28.091  1.00  0.00     0.016 A 
ATOM     40  C   UNL A   1      42.581  27.195  27.374  1.00  0.00     0.016 A 
ATOM     41  C   UNL A   1      40.626  26.447  29.191  1.00  0.00     0.010 A 
ATOM     42  C   UNL A   1      42.354  27.987  28.496  1.00  0.00     0.010 A 
ATOM     43  C   UNL A   1      41.354  27.635  29.410  1.00  0.00    -0.014 A 
BRANCH  43  44
ATOM     44  C   UNL A   1      41.087  28.500  30.592  1.00  0.00     0.031 A 
ATOM     45  C   UNL A   1      41.946  28.411  31.829  1.00  0.00     0.074 A 
ATOM     46  C   UNL A   1      40.041  29.349  30.569  1.00  0.00     0.049 A 
ATOM     47  N   UNL A   1      41.874  29.108  32.936  1.00  0.00    -0.248 NA
ATOM     48  C   UNL A   1      43.005  27.387  31.840  1.00  0.00     0.031 C 
ATOM     49  C   UNL A   1      39.077  29.470  29.474  1.00  0.00     0.029 A 
ATOM     50  N   UNL A   1      39.618  30.280  31.485  1.00  0.00    -0.354 N 
ATOM     51  C   UNL A   1      42.865  28.605  33.773  1.00  0.00     0.074 A 
ATOM     52  C   UNL A   1      43.488  27.504  33.069  1.00  0.00     0.031 C 
ATOM     53  C   UNL A   1      38.213  30.459  29.754  1.00  0.00     0.029 A 
ATOM     54  C   UNL A   1      38.546  31.027  31.058  1.00  0.00     0.049 A 
ATOM     55  H   UNL A   1      40.043  30.401  32.366  1.00  0.00     0.167 HD
ATOM     56  C   UNL A   1      43.244  29.038  34.999  1.00  0.00     0.037 A 
ATOM     57  C   UNL A   1      37.914  32.066  31.637  1.00  0.00     0.037 A 
ATOM     58  C   UNL A   1      42.654  30.162  35.680  1.00  0.00     0.049 A 
ATOM     59  C   UNL A   1      38.390  32.569  32.972  1.00  0.00     0.074 A 
ATOM     60  C   UNL A   1      43.017  30.721  36.893  1.00  0.00     0.029 A 
ATOM     61  N   UNL A   1      41.587  30.905  35.202  1.00  0.00    -0.354 N 
ATOM     62  N   UNL A   1      39.372  32.122  33.717  1.00  0.00    -0.248 NA
ATOM     63  C   UNL A   1      37.677  33.721  33.542  1.00  0.00     0.031 C 
ATOM     64  C   UNL A   1      42.153  31.790  37.159  1.00  0.00     0.029 A 
ATOM     65  C   UNL A   1      41.273  31.915  36.097  1.00  0.00     0.049 A 
ATOM     66  H   UNL A   1      41.120  30.741  34.351  1.00  0.00     0.167 HD
ATOM     67  C   UNL A   1      39.402  32.944  34.837  1.00  0.00     0.074 A 
ATOM     68  C   UNL A   1      38.353  33.927  34.665  1.00  0.00     0.031 C 
ATOM     69  C   UNL A   1      40.225  32.886  35.913  1.00  0.00     0.037 A 
BRANCH  56  70
ATOM     70  C   UNL A   1      44.381  28.319  35.675  1.00  0.00     0.058 A 
ATOM     71  C   UNL A   1      45.713  28.719  35.484  1.00  0.00     0.135 A 
ATOM     72  C   UNL A   1      44.138  27.259  36.565  1.00  0.00     0.135 A 
ATOM     73  F   UNL A   1      46.003  29.720  34.637  1.00  0.00    -0.206 F 
ATOM     74  C   UNL A   1      46.766  28.080  36.128  1.00  0.00     0.059 A 
ATOM     75  C   UNL A   1      45.175  26.621  37.241  1.00  0.00     0.059 A 
ATOM     76  F   UNL A   1      42.883  26.839  36.789  1.00  0.00    -0.206 F 
ATOM     77  C   UNL A   1      46.487  27.030  37.006  1.00  0.00     0.060 A 
BRANCH  77  78
ATOM     78  S   UNL A   1      47.865  26.223  37.847  1.00  0.00     0.124 S 
ATOM     79  O   UNL A   1      48.658  27.372  38.277  1.00  0.00    -0.237 OA
ATOM     80  O   UNL A   1      47.193  25.484  38.911  1.00  0.00    -0.237 OA
ATOM     81  O   UNL A   1      48.469  25.402  36.803  1.00  0.00    -0.744 OA
ENDBRANCH  77  78
ENDBRANCH  56  70
BRANCH  57  82
ATOM     82  C   UNL A   1      36.805  32.745  30.918  1.00  0.00     0.058 A 
ATOM     83  C   UNL A   1      35.470  32.482  31.256  1.00  0.00     0.135 A 
ATOM     84  C   UNL A   1      37.054  33.692  29.914  1.00  0.00     0.135 A 
ATOM     85  F   UNL A   1      35.184  31.578  32.207  1.00  0.00    -0.206 F 
ATOM     86  C   UNL A   1      34.417  33.131  30.621  1.00  0.00     0.059 A 
ATOM     87  C   UNL A   1      36.018  34.369  29.279  1.00  0.00     0.059 A 
ATOM     88  F   UNL A   1      38.316  33.989  29.568  1.00  0.00    -0.206 F 
ATOM     89  C   UNL A   1      34.702  34.078  29.636  1.00  0.00     0.060 A 
BRANCH  89  90
ATOM     90  S   UNL A   1      33.328  34.962  28.865  1.00  0.00     0.124 S 
ATOM     91  O   UNL A   1      32.528  35.331  30.026  1.00  0.00    -0.237 OA
ATOM     92  O   UNL A   1      34.011  36.058  28.185  1.00  0.00    -0.237 OA
ATOM     93  O   UNL A   1      32.737  33.959  27.984  1.00  0.00    -0.744 OA
ENDBRANCH  89  90
ENDBRANCH  57  82
BRANCH  69  94
ATOM     94  C   UNL A   1      40.030  33.914  36.990  1.00  0.00     0.058 A 
ATOM     95  C   UNL A   1      40.671  35.161  36.932  1.00  0.00     0.135 A 
ATOM     96  C   UNL A   1      39.147  33.677  38.054  1.00  0.00     0.135 A 
ATOM     97  F   UNL A   1      41.531  35.434  35.938  1.00  0.00    -0.206 F 
ATOM     98  C   UNL A   1      40.450  36.136  37.899  1.00  0.00     0.059 A 
ATOM     99  C   UNL A   1      38.894  34.644  39.022  1.00  0.00     0.059 A 
ATOM    100  F   UNL A   1      38.503  32.502  38.150  1.00  0.00    -0.206 F 
ATOM    101  C   UNL A   1      39.557  35.869  38.939  1.00  0.00     0.060 A 
BRANCH 101 102
ATOM    102  S   UNL A   1      39.245  37.159  40.163  1.00  0.00     0.124 S 
ATOM    103  O   UNL A   1      38.528  38.150  39.369  1.00  0.00    -0.237 OA
ATOM    104  O   UNL A   1      38.450  36.454  41.165  1.00  0.00    -0.237 OA
ATOM    105  O   UNL A   1      40.583  37.549  40.596  1.00  0.00    -0.744 OA
ENDBRANCH 101 102
ENDBRANCH  69  94
ENDBRANCH  43  44
ENDBRANCH  36  38
ENDBRANCH  35  36
ENDBRANCH   1  35
TORSDOF 15
ENDMDL
MODEL 3
REMARK VINA RESULT:     -13.3      6.004     12.084
REMARK SMILES C[C@]12c3ccccc3[C@](C)(c3ccccc31)[C@@H]1C(=O)N(c3ccc(C(=O)OCCOC(=O)c4ccc(-c5c6nc(c(-c7c(F)cc(S(=O)(=O)[O-])cc7F)c7ccc([nH]7)c(-c7c(F)cc(S(=O)(=O)[O-])cc7F)c7nc(c(-c8c(F)cc(S(=O)(=O)[O-])cc8F)c8ccc5[nH]8)C=C7)C=C6)cc4)cc3)C(=O)[C@H]12
REMARK SMILES IDX 29 1 28 2 27 3 25 4 26 5 24 6 21 7 22 8 100 9 23 10 99 11
REMARK SMILES IDX 20 12 1 13 2 14 16 15 3 16 103 17 15 18 11 19 8 20 4 21
REMARK SMILES IDX 17 22 101 23 14 24 12 25 9 26 7 27 5 28 18 29 102 30 13 31
REMARK SMILES IDX 10 32 6 33 19 34 30 35 31 36 32 37 33 38 34 39 98 40 35 41
REMARK SMILES IDX 97 42 36 43 37 44 38 45 91 46 39 47 96 48 90 49 92 50 40 51
REMARK SMILES IDX 95 52 89 53 88 54 41 56 75 57 54 58 74 59 55 60 58 61 73 62
REMARK SMILES IDX 93 63 56 64 57 65 72 67 94 68 59 69 42 70 43 71 52 72 44 73
REMARK SMILES IDX 45 74 51 75 53 76 46 77 47 78 48 79 49 80 50 81 76 82 77 83
REMARK SMILES IDX 86 84 78 85 79 86 85 87 87 88 80 89 81 90 82 91 83 92 84 93
REMARK SMILES IDX 60 94 61 95 70 96 62 97 63 98 69 99 71 100 64 101 65 102
REMARK SMILES IDX 66 103 67 104 68 105
REMARK H PARENT 92 55 58 66
REMARK Flexibility Score: inf
ROOT
ATOM      1  C   UNL A   1      35.385  32.797  31.782  1.00  0.00     0.275 C 
ENDROOT
BRANCH   1   2
ATOM      2  C   UNL A   1      35.012  34.138  31.148  1.00  0.00     0.275 C 
BRANCH   2   3
ATOM      3  O   UNL A   1      33.917  33.986  30.223  1.00  0.00    -0.458 OA
BRANCH   3   4
ATOM      4  C   UNL A   1      34.212  34.169  28.912  1.00  0.00     0.338 C 
ATOM      5  O   UNL A   1      34.792  35.125  28.424  1.00  0.00    -0.246 OA
BRANCH   4   6
ATOM      6  C   UNL A   1      33.851  32.959  28.131  1.00  0.00     0.060 A 
ATOM      7  C   UNL A   1      33.218  30.556  26.854  1.00  0.00     0.052 A 
ATOM      8  C   UNL A   1      34.461  30.709  27.463  1.00  0.00     0.028 A 
ATOM      9  C   UNL A   1      32.305  31.619  26.841  1.00  0.00     0.028 A 
ATOM     10  C   UNL A   1      34.797  31.931  28.037  1.00  0.00     0.018 A 
ATOM     11  C   UNL A   1      32.605  32.808  27.517  1.00  0.00     0.018 A 
BRANCH   7  12
ATOM     12  N   UNL A   1      32.907  29.344  26.233  1.00  0.00    -0.250 N 
ATOM     13  C   UNL A   1      34.716  25.285  25.365  1.00  0.00     0.022 C 
ATOM     14  C   UNL A   1      33.311  25.783  25.031  1.00  0.00     0.030 C 
ATOM     15  C   UNL A   1      32.152  25.021  25.730  1.00  0.00    -0.033 A 
ATOM     16  C   UNL A   1      32.943  25.709  23.514  1.00  0.00    -0.033 A 
ATOM     17  C   UNL A   1      33.168  27.313  25.232  1.00  0.00     0.108 C 
ATOM     18  C   UNL A   1      32.288  23.966  26.625  1.00  0.00     0.005 A 
ATOM     19  C   UNL A   1      30.835  25.467  25.354  1.00  0.00    -0.033 A 
ATOM     20  C   UNL A   1      31.670  26.301  23.206  1.00  0.00    -0.033 A 
ATOM     21  C   UNL A   1      33.742  25.181  22.503  1.00  0.00     0.005 A 
ATOM     22  C   UNL A   1      31.678  27.646  25.382  1.00  0.00     0.108 C 
ATOM     23  C   UNL A   1      33.725  28.209  26.294  1.00  0.00     0.238 C 
ATOM     24  C   UNL A   1      31.140  23.362  27.147  1.00  0.00     0.000 A 
ATOM     25  C   UNL A   1      29.701  24.849  25.872  1.00  0.00     0.005 A 
ATOM     26  C   UNL A   1      30.852  26.738  24.447  1.00  0.00     0.030 C 
ATOM     27  C   UNL A   1      31.244  26.359  21.881  1.00  0.00     0.005 A 
ATOM     28  C   UNL A   1      33.292  25.244  21.184  1.00  0.00     0.000 A 
ATOM     29  C   UNL A   1      31.736  29.132  25.505  1.00  0.00     0.238 C 
ATOM     30  O   UNL A   1      34.714  28.004  26.972  1.00  0.00    -0.274 OA
ATOM     31  C   UNL A   1      29.862  23.795  26.771  1.00  0.00     0.000 A 
ATOM     32  C   UNL A   1      29.480  27.335  24.143  1.00  0.00     0.022 C 
ATOM     33  C   UNL A   1      32.060  25.833  20.876  1.00  0.00     0.000 A 
ATOM     34  O   UNL A   1      30.873  29.924  25.175  1.00  0.00    -0.274 OA
ENDBRANCH   7  12
ENDBRANCH   4   6
ENDBRANCH   3   4
ENDBRANCH   2   3
ENDBRANCH   1   2
BRANCH   1  35
ATOM     35  O   UNL A   1      36.542  32.239  31.134  1.00  0.00    -0.458 OA
BRANCH  35  36
ATOM     36  C   UNL A   1      36.721  30.905  31.277  1.00  0.00     0.338 C 
ATOM     37  O   UNL A   1      35.917  30.085  31.684  1.00  0.00    -0.246 OA
BRANCH  36  38
ATOM     38  C   UNL A   1      38.054  30.557  30.763  1.00  0.00     0.060 A 
ATOM     39  C   UNL A   1      39.090  30.176  31.608  1.00  0.00     0.016 A 
ATOM     40  C   UNL A   1      38.241  30.560  29.384  1.00  0.00     0.016 A 
ATOM     41  C   UNL A   1      40.329  29.829  31.053  1.00  0.00     0.010 A 
ATOM     42  C   UNL A   1      39.451  30.159  28.826  1.00  0.00     0.010 A 
ATOM     43  C   UNL A   1      40.522  29.810  29.657  1.00  0.00    -0.014 A 
BRANCH  43  44
ATOM     44  C   UNL A   1      41.829  29.414  29.061  1.00  0.00     0.031 A 
ATOM     45  C   UNL A   1      42.969  30.398  28.969  1.00  0.00     0.074 A 
ATOM     46  C   UNL A   1      41.981  28.171  28.565  1.00  0.00     0.049 A 
ATOM     47  N   UNL A   1      44.182  30.213  28.508  1.00  0.00    -0.248 NA
ATOM     48  C   UNL A   1      42.709  31.774  29.423  1.00  0.00     0.031 C 
ATOM     49  C   UNL A   1      40.932  27.151  28.508  1.00  0.00     0.029 A 
ATOM     50  N   UNL A   1      43.079  27.545  28.027  1.00  0.00    -0.354 N 
ATOM     51  C   UNL A   1      44.822  31.445  28.609  1.00  0.00     0.074 A 
ATOM     52  C   UNL A   1      43.846  32.383  29.120  1.00  0.00     0.031 C 
ATOM     53  C   UNL A   1      41.451  26.012  28.022  1.00  0.00     0.029 A 
ATOM     54  C   UNL A   1      42.862  26.226  27.711  1.00  0.00     0.049 A 
ATOM     55  H   UNL A   1      43.940  28.001  27.881  1.00  0.00     0.167 HD
ATOM     56  C   UNL A   1      46.111  31.759  28.333  1.00  0.00     0.037 A 
ATOM     57  C   UNL A   1      43.706  25.286  27.243  1.00  0.00     0.037 A 
ATOM     58  C   UNL A   1      47.093  30.815  27.866  1.00  0.00     0.049 A 
ATOM     59  C   UNL A   1      45.146  25.641  27.001  1.00  0.00     0.074 A 
ATOM     60  C   UNL A   1      48.440  31.022  27.627  1.00  0.00     0.029 A 
ATOM     61  N   UNL A   1      46.837  29.483  27.581  1.00  0.00    -0.354 N 
ATOM     62  N   UNL A   1      45.748  26.794  27.166  1.00  0.00    -0.248 NA
ATOM     63  C   UNL A   1      46.024  24.567  26.514  1.00  0.00     0.031 C 
ATOM     64  C   UNL A   1      48.995  29.819  27.175  1.00  0.00     0.029 A 
ATOM     65  C   UNL A   1      48.000  28.856  27.163  1.00  0.00     0.049 A 
ATOM     66  H   UNL A   1      45.959  29.045  27.664  1.00  0.00     0.167 HD
ATOM     67  C   UNL A   1      47.076  26.582  26.815  1.00  0.00     0.074 A 
ATOM     68  C   UNL A   1      47.195  25.186  26.446  1.00  0.00     0.031 C 
ATOM     69  C   UNL A   1      48.104  27.466  26.798  1.00  0.00     0.037 A 
BRANCH  56  70
ATOM     70  C   UNL A   1      46.550  33.180  28.565  1.00  0.00     0.058 A 
ATOM     71  C   UNL A   1      46.432  34.153  27.559  1.00  0.00     0.135 A 
ATOM     72  C   UNL A   1      47.039  33.590  29.816  1.00  0.00     0.135 A 
ATOM     73  F   UNL A   1      45.980  33.813  26.341  1.00  0.00    -0.206 F 
ATOM     74  C   UNL A   1      46.807  35.474  27.775  1.00  0.00     0.059 A 
ATOM     75  C   UNL A   1      47.396  34.913  30.063  1.00  0.00     0.059 A 
ATOM     76  F   UNL A   1      47.167  32.703  30.815  1.00  0.00    -0.206 F 
ATOM     77  C   UNL A   1      47.288  35.846  29.031  1.00  0.00     0.060 A 
BRANCH  77  78
ATOM     78  S   UNL A   1      47.754  37.569  29.298  1.00  0.00     0.124 S 
ATOM     79  O   UNL A   1      49.191  37.451  29.529  1.00  0.00    -0.237 OA
ATOM     80  O   UNL A   1      47.365  38.197  28.040  1.00  0.00    -0.237 OA
ATOM     81  O   UNL A   1      46.963  37.960  30.461  1.00  0.00    -0.744 OA
ENDBRANCH  77  78
ENDBRANCH  56  70
BRANCH  57  82
ATOM     82  C   UNL A   1      43.219  23.896  27.043  1.00  0.00     0.058 A 
ATOM     83  C   UNL A   1      42.840  23.449  25.770  1.00  0.00     0.135 A 
ATOM     84  C   UNL A   1      43.162  22.980  28.105  1.00  0.00     0.135 A 
ATOM     85  F   UNL A   1      42.873  24.292  24.726  1.00  0.00    -0.206 F 
ATOM     86  C   UNL A   1      42.415  22.143  25.553  1.00  0.00     0.059 A 
ATOM     87  C   UNL A   1      42.759  21.663  27.909  1.00  0.00     0.059 A 
ATOM     88  F   UNL A   1      43.530  23.357  29.338  1.00  0.00    -0.206 F 
ATOM     89  C   UNL A   1      42.383  21.254  26.629  1.00  0.00     0.060 A 
BRANCH  89  90
ATOM     90  S   UNL A   1      41.892  19.544  26.322  1.00  0.00     0.124 S 
ATOM     91  O   UNL A   1      40.452  19.678  26.145  1.00  0.00    -0.237 OA
ATOM     92  O   UNL A   1      42.657  19.216  25.122  1.00  0.00    -0.237 OA
ATOM     93  O   UNL A   1      42.317  18.851  27.535  1.00  0.00    -0.744 OA
ENDBRANCH  89  90
ENDBRANCH  57  82
BRANCH  69  94
ATOM     94  C   UNL A   1      49.449  26.957  26.370  1.00  0.00     0.058 A 
ATOM     95  C   UNL A   1      50.289  26.277  27.265  1.00  0.00     0.135 A 
ATOM     96  C   UNL A   1      49.876  27.090  25.040  1.00  0.00     0.135 A 
ATOM     97  F   UNL A   1      49.930  26.128  28.550  1.00  0.00    -0.206 F 
ATOM     98  C   UNL A   1      51.513  25.755  26.858  1.00  0.00     0.059 A 
ATOM     99  C   UNL A   1      51.086  26.559  24.605  1.00  0.00     0.059 A 
ATOM    100  F   UNL A   1      49.104  27.726  24.143  1.00  0.00    -0.206 F 
ATOM    101  C   UNL A   1      51.901  25.899  25.525  1.00  0.00     0.060 A 
BRANCH 101 102
ATOM    102  S   UNL A   1      53.471  25.178  24.999  1.00  0.00     0.124 S 
ATOM    103  O   UNL A   1      54.420  25.887  25.851  1.00  0.00    -0.237 OA
ATOM    104  O   UNL A   1      53.282  23.762  25.301  1.00  0.00    -0.237 OA
ATOM    105  O   UNL A   1      53.536  25.504  23.578  1.00  0.00    -0.744 OA
ENDBRANCH 101 102
ENDBRANCH  69  94
ENDBRANCH  43  44
ENDBRANCH  36  38
ENDBRANCH  35  36
ENDBRANCH   1  35
TORSDOF 15
ENDMDL
