MODEL 1
REMARK VINA RESULT:     -12.8      0.000      0.000
REMARK SMILES O=C(OCCOC(=O)c1nnn(-c2ccc(C(F)(F)F)cc2)c1-c1cccc(Cl)c1)c1ccc(-c2c3nc(c(-c4c(F)cc(S(=O)(=O)[O-])cc4F)c4ccc([nH]4)c(-c4c(F)cc(S(=O)(=O)[O-])cc4F)c4nc(c(-c5c(F)cc(S(=O)(=O)[O-])cc5F)c5ccc2[nH]5)C=C4)C=C3)cc1
REMARK SMILES IDX 4 1 3 2 2 3 1 4 31 5 32 6 96 7 33 8 95 9 34 10 35 11 36 12
REMARK SMILES IDX 89 13 37 14 94 15 88 16 90 17 38 18 93 19 87 20 86 21 39 23
REMARK SMILES IDX 73 24 52 25 72 26 53 27 56 28 71 29 91 30 54 31 55 32 70 34
REMARK SMILES IDX 92 35 57 36 40 37 41 38 50 39 42 40 43 41 49 42 51 43 44 44
REMARK SMILES IDX 45 45 46 46 47 47 48 48 74 49 75 50 84 51 76 52 77 53 83 54
REMARK SMILES IDX 85 55 78 56 79 57 80 58 81 59 82 60 58 61 59 62 68 63 60 64
REMARK SMILES IDX 61 65 67 66 69 67 62 68 63 69 64 70 65 71 66 72 5 73 6 74
REMARK SMILES IDX 7 75 8 76 9 77 10 78 23 79 11 80 12 81 24 82 25 83 30 84
REMARK SMILES IDX 26 85 28 86 27 87 29 88 13 89 14 90 22 91 15 92 21 93 16 94
REMARK SMILES IDX 17 95 18 96 19 97 20 98
REMARK H PARENT 90 22 56 33
REMARK Flexibility Score: inf
ROOT
ATOM      1  C   UNL A   1      36.647  22.013  25.368  1.00  0.00     0.275 C 
ENDROOT
BRANCH   1   2
ATOM      2  O   UNL A   1      37.904  22.704  25.214  1.00  0.00    -0.458 OA
BRANCH   2   3
ATOM      3  C   UNL A   1      38.912  22.422  26.070  1.00  0.00     0.338 C 
ATOM      4  O   UNL A   1      39.498  21.352  26.092  1.00  0.00    -0.246 OA
BRANCH   3   5
ATOM      5  C   UNL A   1      39.323  23.598  26.877  1.00  0.00     0.060 A 
ATOM      6  C   UNL A   1      38.540  24.757  26.950  1.00  0.00     0.016 A 
ATOM      7  C   UNL A   1      40.542  23.527  27.565  1.00  0.00     0.016 A 
ATOM      8  C   UNL A   1      39.021  25.873  27.612  1.00  0.00     0.010 A 
ATOM      9  C   UNL A   1      41.024  24.645  28.230  1.00  0.00     0.010 A 
ATOM     10  C   UNL A   1      40.289  25.830  28.195  1.00  0.00    -0.014 A 
BRANCH  10  11
ATOM     11  C   UNL A   1      40.818  27.074  28.739  1.00  0.00     0.031 A 
ATOM     12  C   UNL A   1      42.035  27.610  28.071  1.00  0.00     0.074 A 
ATOM     13  C   UNL A   1      40.192  27.727  29.738  1.00  0.00     0.049 A 
ATOM     14  N   UNL A   1      43.218  27.777  28.570  1.00  0.00    -0.248 NA
ATOM     15  C   UNL A   1      41.950  27.901  26.633  1.00  0.00     0.031 C 
ATOM     16  C   UNL A   1      38.863  27.456  30.296  1.00  0.00     0.029 A 
ATOM     17  N   UNL A   1      40.576  28.850  30.405  1.00  0.00    -0.354 N 
ATOM     18  C   UNL A   1      43.971  28.402  27.576  1.00  0.00     0.074 A 
ATOM     19  C   UNL A   1      43.193  28.306  26.368  1.00  0.00     0.031 C 
ATOM     20  C   UNL A   1      38.462  28.518  31.030  1.00  0.00     0.029 A 
ATOM     21  C   UNL A   1      39.553  29.472  31.110  1.00  0.00     0.049 A 
ATOM     22  H   UNL A   1      41.499  29.193  30.388  1.00  0.00     0.167 HD
ATOM     23  C   UNL A   1      45.077  29.143  27.876  1.00  0.00     0.037 A 
ATOM     24  C   UNL A   1      39.582  30.713  31.656  1.00  0.00     0.037 A 
ATOM     25  C   UNL A   1      45.583  28.816  29.186  1.00  0.00     0.049 A 
ATOM     26  C   UNL A   1      41.011  31.085  31.829  1.00  0.00     0.074 A 
ATOM     27  C   UNL A   1      46.052  27.666  29.793  1.00  0.00     0.029 A 
ATOM     28  N   UNL A   1      45.343  29.699  30.211  1.00  0.00    -0.354 N 
ATOM     29  N   UNL A   1      41.824  30.488  32.658  1.00  0.00    -0.248 NA
ATOM     30  C   UNL A   1      41.654  31.824  30.753  1.00  0.00     0.031 C 
ATOM     31  C   UNL A   1      45.595  27.747  31.140  1.00  0.00     0.029 A 
ATOM     32  C   UNL A   1      44.926  28.963  31.288  1.00  0.00     0.049 A 
ATOM     33  H   UNL A   1      45.450  30.678  30.178  1.00  0.00     0.167 HD
ATOM     34  C   UNL A   1      43.033  30.414  31.980  1.00  0.00     0.074 A 
ATOM     35  C   UNL A   1      42.892  31.334  30.853  1.00  0.00     0.031 C 
ATOM     36  C   UNL A   1      43.929  29.414  32.232  1.00  0.00     0.037 A 
BRANCH  23  37
ATOM     37  C   UNL A   1      45.471  30.424  27.164  1.00  0.00     0.058 A 
ATOM     38  C   UNL A   1      46.834  30.648  26.861  1.00  0.00     0.135 A 
ATOM     39  C   UNL A   1      44.639  31.561  27.061  1.00  0.00     0.135 A 
ATOM     40  F   UNL A   1      47.718  29.638  26.893  1.00  0.00    -0.206 F 
ATOM     41  C   UNL A   1      47.348  31.920  26.611  1.00  0.00     0.059 A 
ATOM     42  C   UNL A   1      45.123  32.831  26.765  1.00  0.00     0.059 A 
ATOM     43  F   UNL A   1      43.331  31.523  27.332  1.00  0.00    -0.206 F 
ATOM     44  C   UNL A   1      46.486  33.011  26.598  1.00  0.00     0.060 A 
BRANCH  44  45
ATOM     45  S   UNL A   1      47.161  34.673  26.438  1.00  0.00     0.124 S 
ATOM     46  O   UNL A   1      47.751  34.616  25.106  1.00  0.00    -0.237 OA
ATOM     47  O   UNL A   1      45.965  35.498  26.575  1.00  0.00    -0.237 OA
ATOM     48  O   UNL A   1      48.106  34.758  27.548  1.00  0.00    -0.744 OA
ENDBRANCH  44  45
ENDBRANCH  23  37
BRANCH  24  49
ATOM     49  C   UNL A   1      38.477  31.711  31.678  1.00  0.00     0.058 A 
ATOM     50  C   UNL A   1      37.817  32.102  30.500  1.00  0.00     0.135 A 
ATOM     51  C   UNL A   1      37.865  32.098  32.889  1.00  0.00     0.135 A 
ATOM     52  F   UNL A   1      38.312  31.756  29.303  1.00  0.00    -0.206 F 
ATOM     53  C   UNL A   1      36.601  32.797  30.522  1.00  0.00     0.059 A 
ATOM     54  C   UNL A   1      36.663  32.801  32.936  1.00  0.00     0.059 A 
ATOM     55  F   UNL A   1      38.371  31.723  34.073  1.00  0.00    -0.206 F 
ATOM     56  C   UNL A   1      36.021  33.127  31.747  1.00  0.00     0.060 A 
BRANCH  56  57
ATOM     57  S   UNL A   1      34.375  33.877  31.788  1.00  0.00     0.124 S 
ATOM     58  O   UNL A   1      33.641  32.944  32.635  1.00  0.00    -0.237 OA
ATOM     59  O   UNL A   1      34.647  35.188  32.367  1.00  0.00    -0.237 OA
ATOM     60  O   UNL A   1      33.973  33.891  30.383  1.00  0.00    -0.744 OA
ENDBRANCH  56  57
ENDBRANCH  24  49
BRANCH  36  61
ATOM     61  C   UNL A   1      43.725  28.561  33.457  1.00  0.00     0.058 A 
ATOM     62  C   UNL A   1      44.199  28.889  34.739  1.00  0.00     0.135 A 
ATOM     63  C   UNL A   1      42.873  27.451  33.354  1.00  0.00     0.135 A 
ATOM     64  F   UNL A   1      44.928  29.994  34.943  1.00  0.00    -0.206 F 
ATOM     65  C   UNL A   1      43.873  28.124  35.862  1.00  0.00     0.059 A 
ATOM     66  C   UNL A   1      42.509  26.693  34.465  1.00  0.00     0.059 A 
ATOM     67  F   UNL A   1      42.332  27.123  32.169  1.00  0.00    -0.206 F 
ATOM     68  C   UNL A   1      43.023  27.029  35.715  1.00  0.00     0.060 A 
BRANCH  68  69
ATOM     69  S   UNL A   1      42.532  26.095  37.180  1.00  0.00     0.124 S 
ATOM     70  O   UNL A   1      41.088  26.296  37.204  1.00  0.00    -0.237 OA
ATOM     71  O   UNL A   1      42.980  24.742  36.859  1.00  0.00    -0.237 OA
ATOM     72  O   UNL A   1      43.270  26.743  38.262  1.00  0.00    -0.744 OA
ENDBRANCH  68  69
ENDBRANCH  36  61
ENDBRANCH  10  11
ENDBRANCH   3   5
ENDBRANCH   2   3
ENDBRANCH   1   2
BRANCH   1  73
ATOM     73  C   UNL A   1      35.482  22.502  24.512  1.00  0.00     0.275 C 
BRANCH  73  74
ATOM     74  O   UNL A   1      35.149  23.848  24.885  1.00  0.00    -0.457 OA
BRANCH  74  75
ATOM     75  C   UNL A   1      33.988  24.014  25.580  1.00  0.00     0.361 C 
ATOM     76  O   UNL A   1      33.807  23.683  26.748  1.00  0.00    -0.244 OA
BRANCH  75  77
ATOM     77  C   UNL A   1      32.907  24.402  24.708  1.00  0.00     0.198 A 
ATOM     78  N   UNL A   1      32.240  23.593  23.828  1.00  0.00    -0.122 NA
ATOM     79  C   UNL A   1      32.297  25.638  24.756  1.00  0.00     0.109 A 
ATOM     80  N   UNL A   1      31.236  24.294  23.307  1.00  0.00    -0.061 NA
ATOM     81  N   UNL A   1      31.337  25.562  23.765  1.00  0.00    -0.212 N 
BRANCH  79  82
ATOM     82  C   UNL A   1      32.462  26.705  25.736  1.00  0.00     0.004 A 
ATOM     83  C   UNL A   1      31.411  27.024  26.610  1.00  0.00     0.010 A 
ATOM     84  C   UNL A   1      33.688  27.365  25.862  1.00  0.00     0.031 A 
ATOM     85  C   UNL A   1      31.578  28.006  27.585  1.00  0.00     0.002 A 
ATOM     86  C   UNL A   1      33.849  28.344  26.839  1.00  0.00     0.041 A 
ATOM     87  C   UNL A   1      32.799  28.670  27.698  1.00  0.00     0.020 A 
ATOM     88  Cl  UNL A   1      35.358  29.153  26.992  1.00  0.00    -0.084 Cl
ENDBRANCH  79  82
BRANCH  81  89
ATOM     89  C   UNL A   1      30.535  26.620  23.294  1.00  0.00     0.067 A 
ATOM     90  C   UNL A   1      29.186  26.693  23.640  1.00  0.00     0.029 A 
ATOM     91  C   UNL A   1      31.145  27.650  22.565  1.00  0.00     0.029 A 
ATOM     92  C   UNL A   1      28.480  27.865  23.349  1.00  0.00     0.015 A 
ATOM     93  C   UNL A   1      30.428  28.797  22.250  1.00  0.00     0.015 A 
ATOM     94  C   UNL A   1      29.099  28.933  22.671  1.00  0.00     0.056 A 
BRANCH  94  95
ATOM     95  C   UNL A   1      28.360  30.227  22.435  1.00  0.00     0.416 C 
ATOM     96  F   UNL A   1      29.153  31.325  22.552  1.00  0.00    -0.166 F 
ATOM     97  F   UNL A   1      27.808  30.286  21.191  1.00  0.00    -0.166 F 
ATOM     98  F   UNL A   1      27.324  30.422  23.303  1.00  0.00    -0.166 F 
ENDBRANCH  94  95
ENDBRANCH  81  89
ENDBRANCH  75  77
ENDBRANCH  74  75
ENDBRANCH  73  74
ENDBRANCH   1  73
TORSDOF 17
ENDMDL
MODEL 2
REMARK VINA RESULT:     -12.2      3.917      9.323
REMARK SMILES O=C(OCCOC(=O)c1nnn(-c2ccc(C(F)(F)F)cc2)c1-c1cccc(Cl)c1)c1ccc(-c2c3nc(c(-c4c(F)cc(S(=O)(=O)[O-])cc4F)c4ccc([nH]4)c(-c4c(F)cc(S(=O)(=O)[O-])cc4F)c4nc(c(-c5c(F)cc(S(=O)(=O)[O-])cc5F)c5ccc2[nH]5)C=C4)C=C3)cc1
REMARK SMILES IDX 4 1 3 2 2 3 1 4 31 5 32 6 96 7 33 8 95 9 34 10 35 11 36 12
REMARK SMILES IDX 89 13 37 14 94 15 88 16 90 17 38 18 93 19 87 20 86 21 39 23
REMARK SMILES IDX 73 24 52 25 72 26 53 27 56 28 71 29 91 30 54 31 55 32 70 34
REMARK SMILES IDX 92 35 57 36 40 37 41 38 50 39 42 40 43 41 49 42 51 43 44 44
REMARK SMILES IDX 45 45 46 46 47 47 48 48 74 49 75 50 84 51 76 52 77 53 83 54
REMARK SMILES IDX 85 55 78 56 79 57 80 58 81 59 82 60 58 61 59 62 68 63 60 64
REMARK SMILES IDX 61 65 67 66 69 67 62 68 63 69 64 70 65 71 66 72 5 73 6 74
REMARK SMILES IDX 7 75 8 76 9 77 10 78 23 79 11 80 12 81 24 82 25 83 30 84
REMARK SMILES IDX 26 85 28 86 27 87 29 88 13 89 14 90 22 91 15 92 21 93 16 94
REMARK SMILES IDX 17 95 18 96 19 97 20 98
REMARK H PARENT 90 22 56 33
REMARK Flexibility Score: inf
ROOT
ATOM      1  C   UNL A   1      32.699  29.194  27.463  1.00  0.00     0.275 C 
ENDROOT
BRANCH   1   2
ATOM      2  O   UNL A   1      33.703  30.094  26.953  1.00  0.00    -0.458 OA
BRANCH   2   3
ATOM      3  C   UNL A   1      34.351  30.907  27.817  1.00  0.00     0.338 C 
ATOM      4  O   UNL A   1      33.792  31.758  28.490  1.00  0.00    -0.246 OA
BRANCH   3   5
ATOM      5  C   UNL A   1      35.787  30.560  27.964  1.00  0.00     0.060 A 
ATOM      6  C   UNL A   1      36.303  29.337  27.518  1.00  0.00     0.016 A 
ATOM      7  C   UNL A   1      36.627  31.493  28.587  1.00  0.00     0.016 A 
ATOM      8  C   UNL A   1      37.618  29.004  27.788  1.00  0.00     0.010 A 
ATOM      9  C   UNL A   1      37.946  31.161  28.857  1.00  0.00     0.010 A 
ATOM     10  C   UNL A   1      38.415  29.893  28.511  1.00  0.00    -0.014 A 
BRANCH  10  11
ATOM     11  C   UNL A   1      39.739  29.434  28.910  1.00  0.00     0.031 A 
ATOM     12  C   UNL A   1      39.939  29.210  30.368  1.00  0.00     0.074 A 
ATOM     13  C   UNL A   1      40.693  29.161  27.998  1.00  0.00     0.049 A 
ATOM     14  N   UNL A   1      40.744  29.826  31.172  1.00  0.00    -0.248 NA
ATOM     15  C   UNL A   1      39.052  28.247  31.036  1.00  0.00     0.031 C 
ATOM     16  C   UNL A   1      40.547  29.081  26.540  1.00  0.00     0.029 A 
ATOM     17  N   UNL A   1      41.989  28.793  28.192  1.00  0.00    -0.354 N 
ATOM     18  C   UNL A   1      40.629  29.178  32.403  1.00  0.00     0.074 A 
ATOM     19  C   UNL A   1      39.469  28.331  32.300  1.00  0.00     0.031 C 
ATOM     20  C   UNL A   1      41.629  28.462  26.017  1.00  0.00     0.029 A 
ATOM     21  C   UNL A   1      42.596  28.233  27.075  1.00  0.00     0.049 A 
ATOM     22  H   UNL A   1      42.456  28.912  29.051  1.00  0.00     0.167 HD
ATOM     23  C   UNL A   1      41.627  29.226  33.332  1.00  0.00     0.037 A 
ATOM     24  C   UNL A   1      43.777  27.566  27.042  1.00  0.00     0.037 A 
ATOM     25  C   UNL A   1      42.520  30.331  33.081  1.00  0.00     0.049 A 
ATOM     26  C   UNL A   1      44.545  27.968  28.249  1.00  0.00     0.074 A 
ATOM     27  C   UNL A   1      42.376  31.703  33.003  1.00  0.00     0.029 A 
ATOM     28  N   UNL A   1      43.747  30.058  32.527  1.00  0.00    -0.354 N 
ATOM     29  N   UNL A   1      45.007  29.173  28.450  1.00  0.00    -0.248 NA
ATOM     30  C   UNL A   1      44.410  27.148  29.443  1.00  0.00     0.031 C 
ATOM     31  C   UNL A   1      43.274  32.109  31.973  1.00  0.00     0.029 A 
ATOM     32  C   UNL A   1      43.949  30.972  31.527  1.00  0.00     0.049 A 
ATOM     33  H   UNL A   1      44.365  29.340  32.797  1.00  0.00     0.167 HD
ATOM     34  C   UNL A   1      44.816  29.406  29.804  1.00  0.00     0.074 A 
ATOM     35  C   UNL A   1      44.532  28.093  30.379  1.00  0.00     0.031 C 
ATOM     36  C   UNL A   1      44.631  30.671  30.289  1.00  0.00     0.037 A 
BRANCH  23  37
ATOM     37  C   UNL A   1      42.024  28.065  34.226  1.00  0.00     0.058 A 
ATOM     38  C   UNL A   1      41.890  28.202  35.627  1.00  0.00     0.135 A 
ATOM     39  C   UNL A   1      42.816  26.975  33.803  1.00  0.00     0.135 A 
ATOM     40  F   UNL A   1      41.135  29.182  36.151  1.00  0.00    -0.206 F 
ATOM     41  C   UNL A   1      42.595  27.407  36.530  1.00  0.00     0.059 A 
ATOM     42  C   UNL A   1      43.488  26.138  34.688  1.00  0.00     0.059 A 
ATOM     43  F   UNL A   1      43.058  26.717  32.514  1.00  0.00    -0.206 F 
ATOM     44  C   UNL A   1      43.418  26.396  36.047  1.00  0.00     0.060 A 
BRANCH  44  45
ATOM     45  S   UNL A   1      44.454  25.472  37.193  1.00  0.00     0.124 S 
ATOM     46  O   UNL A   1      44.279  24.109  36.704  1.00  0.00    -0.237 OA
ATOM     47  O   UNL A   1      45.765  26.071  36.965  1.00  0.00    -0.237 OA
ATOM     48  O   UNL A   1      43.856  25.761  38.493  1.00  0.00    -0.744 OA
ENDBRANCH  44  45
ENDBRANCH  23  37
BRANCH  24  49
ATOM     49  C   UNL A   1      44.099  26.350  26.245  1.00  0.00     0.058 A 
ATOM     50  C   UNL A   1      45.285  26.255  25.496  1.00  0.00     0.135 A 
ATOM     51  C   UNL A   1      43.379  25.149  26.420  1.00  0.00     0.135 A 
ATOM     52  F   UNL A   1      46.048  27.341  25.300  1.00  0.00    -0.206 F 
ATOM     53  C   UNL A   1      45.751  25.035  24.988  1.00  0.00     0.059 A 
ATOM     54  C   UNL A   1      43.816  23.927  25.912  1.00  0.00     0.059 A 
ATOM     55  F   UNL A   1      42.269  25.108  27.172  1.00  0.00    -0.206 F 
ATOM     56  C   UNL A   1      45.017  23.872  25.217  1.00  0.00     0.060 A 
BRANCH  56  57
ATOM     57  S   UNL A   1      45.692  22.272  24.708  1.00  0.00     0.124 S 
ATOM     58  O   UNL A   1      44.562  21.680  24.001  1.00  0.00    -0.237 OA
ATOM     59  O   UNL A   1      46.828  22.664  23.881  1.00  0.00    -0.237 OA
ATOM     60  O   UNL A   1      46.040  21.631  25.974  1.00  0.00    -0.744 OA
ENDBRANCH  56  57
ENDBRANCH  24  49
BRANCH  36  61
ATOM     61  C   UNL A   1      44.928  31.836  29.382  1.00  0.00     0.058 A 
ATOM     62  C   UNL A   1      46.211  32.372  29.175  1.00  0.00     0.135 A 
ATOM     63  C   UNL A   1      43.894  32.319  28.566  1.00  0.00     0.135 A 
ATOM     64  F   UNL A   1      47.274  31.891  29.834  1.00  0.00    -0.206 F 
ATOM     65  C   UNL A   1      46.447  33.371  28.227  1.00  0.00     0.059 A 
ATOM     66  C   UNL A   1      44.113  33.292  27.593  1.00  0.00     0.059 A 
ATOM     67  F   UNL A   1      42.658  31.802  28.667  1.00  0.00    -0.206 F 
ATOM     68  C   UNL A   1      45.391  33.822  27.438  1.00  0.00     0.060 A 
BRANCH  68  69
ATOM     69  S   UNL A   1      45.716  35.049  26.153  1.00  0.00     0.124 S 
ATOM     70  O   UNL A   1      47.102  35.414  26.419  1.00  0.00    -0.237 OA
ATOM     71  O   UNL A   1      45.481  34.294  24.925  1.00  0.00    -0.237 OA
ATOM     72  O   UNL A   1      44.732  36.096  26.424  1.00  0.00    -0.744 OA
ENDBRANCH  68  69
ENDBRANCH  36  61
ENDBRANCH  10  11
ENDBRANCH   3   5
ENDBRANCH   2   3
ENDBRANCH   1   2
BRANCH   1  73
ATOM     73  C   UNL A   1      32.133  28.167  26.488  1.00  0.00     0.275 C 
BRANCH  73  74
ATOM     74  O   UNL A   1      32.941  26.980  26.522  1.00  0.00    -0.457 OA
BRANCH  74  75
ATOM     75  C   UNL A   1      33.308  26.463  25.316  1.00  0.00     0.361 C 
ATOM     76  O   UNL A   1      34.003  27.035  24.481  1.00  0.00    -0.244 OA
BRANCH  75  77
ATOM     77  C   UNL A   1      32.580  25.255  25.021  1.00  0.00     0.198 A 
ATOM     78  N   UNL A   1      31.231  25.147  24.813  1.00  0.00    -0.122 NA
ATOM     79  C   UNL A   1      33.188  24.044  24.762  1.00  0.00     0.109 A 
ATOM     80  N   UNL A   1      30.972  23.893  24.448  1.00  0.00    -0.061 NA
ATOM     81  N   UNL A   1      32.125  23.192  24.534  1.00  0.00    -0.212 N 
BRANCH  79  82
ATOM     82  C   UNL A   1      34.603  23.752  24.565  1.00  0.00     0.004 A 
ATOM     83  C   UNL A   1      35.061  23.310  23.315  1.00  0.00     0.010 A 
ATOM     84  C   UNL A   1      35.521  23.979  25.595  1.00  0.00     0.031 A 
ATOM     85  C   UNL A   1      36.419  23.080  23.102  1.00  0.00     0.002 A 
ATOM     86  C   UNL A   1      36.877  23.748  25.375  1.00  0.00     0.041 A 
ATOM     87  C   UNL A   1      37.329  23.297  24.136  1.00  0.00     0.020 A 
ATOM     88  Cl  UNL A   1      38.003  24.029  26.644  1.00  0.00    -0.084 Cl
ENDBRANCH  79  82
BRANCH  81  89
ATOM     89  C   UNL A   1      32.192  21.793  24.377  1.00  0.00     0.067 A 
ATOM     90  C   UNL A   1      32.042  21.216  23.116  1.00  0.00     0.029 A 
ATOM     91  C   UNL A   1      32.519  21.008  25.491  1.00  0.00     0.029 A 
ATOM     92  C   UNL A   1      32.340  19.858  22.960  1.00  0.00     0.015 A 
ATOM     93  C   UNL A   1      32.781  19.653  25.334  1.00  0.00     0.015 A 
ATOM     94  C   UNL A   1      32.731  19.071  24.061  1.00  0.00     0.056 A 
BRANCH  94  95
ATOM     95  C   UNL A   1      33.133  17.629  23.873  1.00  0.00     0.416 C 
ATOM     96  F   UNL A   1      32.710  17.106  22.693  1.00  0.00    -0.166 F 
ATOM     97  F   UNL A   1      34.485  17.463  23.901  1.00  0.00    -0.166 F 
ATOM     98  F   UNL A   1      32.644  16.803  24.844  1.00  0.00    -0.166 F 
ENDBRANCH  94  95
ENDBRANCH  81  89
ENDBRANCH  75  77
ENDBRANCH  74  75
ENDBRANCH  73  74
ENDBRANCH   1  73
TORSDOF 17
ENDMDL
MODEL 3
REMARK VINA RESULT:     -11.7      1.860      2.834
REMARK SMILES O=C(OCCOC(=O)c1nnn(-c2ccc(C(F)(F)F)cc2)c1-c1cccc(Cl)c1)c1ccc(-c2c3nc(c(-c4c(F)cc(S(=O)(=O)[O-])cc4F)c4ccc([nH]4)c(-c4c(F)cc(S(=O)(=O)[O-])cc4F)c4nc(c(-c5c(F)cc(S(=O)(=O)[O-])cc5F)c5ccc2[nH]5)C=C4)C=C3)cc1
REMARK SMILES IDX 4 1 3 2 2 3 1 4 31 5 32 6 96 7 33 8 95 9 34 10 35 11 36 12
REMARK SMILES IDX 89 13 37 14 94 15 88 16 90 17 38 18 93 19 87 20 86 21 39 23
REMARK SMILES IDX 73 24 52 25 72 26 53 27 56 28 71 29 91 30 54 31 55 32 70 34
REMARK SMILES IDX 92 35 57 36 40 37 41 38 50 39 42 40 43 41 49 42 51 43 44 44
REMARK SMILES IDX 45 45 46 46 47 47 48 48 74 49 75 50 84 51 76 52 77 53 83 54
REMARK SMILES IDX 85 55 78 56 79 57 80 58 81 59 82 60 58 61 59 62 68 63 60 64
REMARK SMILES IDX 61 65 67 66 69 67 62 68 63 69 64 70 65 71 66 72 5 73 6 74
REMARK SMILES IDX 7 75 8 76 9 77 10 78 23 79 11 80 12 81 24 82 25 83 30 84
REMARK SMILES IDX 26 85 28 86 27 87 29 88 13 89 14 90 22 91 15 92 21 93 16 94
REMARK SMILES IDX 17 95 18 96 19 97 20 98
REMARK H PARENT 90 22 56 33
REMARK Flexibility Score: inf
ROOT
ATOM      1  C   UNL A   1      38.293  21.047  25.377  1.00  0.00     0.275 C 
ENDROOT
BRANCH   1   2
ATOM      2  O   UNL A   1      38.672  22.284  26.014  1.00  0.00    -0.458 OA
BRANCH   2   3
ATOM      3  C   UNL A   1      39.755  22.295  26.824  1.00  0.00     0.338 C 
ATOM      4  O   UNL A   1      40.410  21.300  27.088  1.00  0.00    -0.246 OA
BRANCH   3   5
ATOM      5  C   UNL A   1      40.143  23.666  27.241  1.00  0.00     0.060 A 
ATOM      6  C   UNL A   1      41.347  23.925  27.909  1.00  0.00     0.016 A 
ATOM      7  C   UNL A   1      39.254  24.713  26.962  1.00  0.00     0.016 A 
ATOM      8  C   UNL A   1      41.610  25.196  28.389  1.00  0.00     0.010 A 
ATOM      9  C   UNL A   1      39.517  25.988  27.442  1.00  0.00     0.010 A 
ATOM     10  C   UNL A   1      40.664  26.206  28.207  1.00  0.00    -0.014 A 
BRANCH  10  11
ATOM     11  C   UNL A   1      40.910  27.481  28.867  1.00  0.00     0.031 A 
ATOM     12  C   UNL A   1      42.043  28.283  28.330  1.00  0.00     0.074 A 
ATOM     13  C   UNL A   1      40.108  27.929  29.853  1.00  0.00     0.049 A 
ATOM     14  N   UNL A   1      43.137  28.629  28.929  1.00  0.00    -0.248 NA
ATOM     15  C   UNL A   1      41.997  28.662  26.911  1.00  0.00     0.031 C 
ATOM     16  C   UNL A   1      38.821  27.374  30.287  1.00  0.00     0.029 A 
ATOM     17  N   UNL A   1      40.227  29.050  30.616  1.00  0.00    -0.354 N 
ATOM     18  C   UNL A   1      43.820  29.457  28.037  1.00  0.00     0.074 A 
ATOM     19  C   UNL A   1      43.154  29.310  26.769  1.00  0.00     0.031 C 
ATOM     20  C   UNL A   1      38.178  28.284  31.053  1.00  0.00     0.029 A 
ATOM     21  C   UNL A   1      39.060  29.415  31.277  1.00  0.00     0.049 A 
ATOM     22  H   UNL A   1      41.066  29.558  30.693  1.00  0.00     0.167 HD
ATOM     23  C   UNL A   1      44.743  30.365  28.468  1.00  0.00     0.037 A 
ATOM     24  C   UNL A   1      38.817  30.595  31.900  1.00  0.00     0.037 A 
ATOM     25  C   UNL A   1      45.215  30.040  29.791  1.00  0.00     0.049 A 
ATOM     26  C   UNL A   1      40.133  31.212  32.206  1.00  0.00     0.074 A 
ATOM     27  C   UNL A   1      45.856  28.954  30.359  1.00  0.00     0.029 A 
ATOM     28  N   UNL A   1      44.746  30.782  30.847  1.00  0.00    -0.354 N 
ATOM     29  N   UNL A   1      40.990  30.716  33.057  1.00  0.00    -0.248 NA
ATOM     30  C   UNL A   1      40.692  32.137  31.232  1.00  0.00     0.031 C 
ATOM     31  C   UNL A   1      45.305  28.846  31.669  1.00  0.00     0.029 A 
ATOM     32  C   UNL A   1      44.408  29.902  31.840  1.00  0.00     0.049 A 
ATOM     33  H   UNL A   1      44.666  31.764  30.883  1.00  0.00     0.167 HD
ATOM     34  C   UNL A   1      42.232  30.919  32.472  1.00  0.00     0.074 A 
ATOM     35  C   UNL A   1      41.992  31.880  31.397  1.00  0.00     0.031 C 
ATOM     36  C   UNL A   1      43.285  30.087  32.730  1.00  0.00     0.037 A 
BRANCH  23  37
ATOM     37  C   UNL A   1      44.930  31.748  27.870  1.00  0.00     0.058 A 
ATOM     38  C   UNL A   1      46.177  32.082  27.294  1.00  0.00     0.135 A 
ATOM     39  C   UNL A   1      44.073  32.842  28.122  1.00  0.00     0.135 A 
ATOM     40  F   UNL A   1      47.065  31.125  26.980  1.00  0.00    -0.206 F 
ATOM     41  C   UNL A   1      46.591  33.402  27.113  1.00  0.00     0.059 A 
ATOM     42  C   UNL A   1      44.446  34.164  27.902  1.00  0.00     0.059 A 
ATOM     43  F   UNL A   1      42.867  32.699  28.680  1.00  0.00    -0.206 F 
ATOM     44  C   UNL A   1      45.727  34.437  27.451  1.00  0.00     0.060 A 
BRANCH  44  45
ATOM     45  S   UNL A   1      46.309  36.140  27.373  1.00  0.00     0.124 S 
ATOM     46  O   UNL A   1      45.198  36.852  27.993  1.00  0.00    -0.237 OA
ATOM     47  O   UNL A   1      47.541  36.072  28.152  1.00  0.00    -0.237 OA
ATOM     48  O   UNL A   1      46.489  36.366  25.942  1.00  0.00    -0.744 OA
ENDBRANCH  44  45
ENDBRANCH  23  37
BRANCH  24  49
ATOM     49  C   UNL A   1      37.542  31.365  31.898  1.00  0.00     0.058 A 
ATOM     50  C   UNL A   1      36.926  31.769  33.095  1.00  0.00     0.135 A 
ATOM     51  C   UNL A   1      37.046  31.955  30.717  1.00  0.00     0.135 A 
ATOM     52  F   UNL A   1      37.349  31.280  34.270  1.00  0.00    -0.206 F 
ATOM     53  C   UNL A   1      35.908  32.731  33.123  1.00  0.00     0.059 A 
ATOM     54  C   UNL A   1      36.026  32.905  30.718  1.00  0.00     0.059 A 
ATOM     55  F   UNL A   1      37.602  31.695  29.524  1.00  0.00    -0.206 F 
ATOM     56  C   UNL A   1      35.476  33.308  31.929  1.00  0.00     0.060 A 
BRANCH  56  57
ATOM     57  S   UNL A   1      34.282  34.666  31.969  1.00  0.00     0.124 S 
ATOM     58  O   UNL A   1      34.999  35.675  32.741  1.00  0.00    -0.237 OA
ATOM     59  O   UNL A   1      34.098  34.958  30.552  1.00  0.00    -0.237 OA
ATOM     60  O   UNL A   1      33.122  34.080  32.636  1.00  0.00    -0.744 OA
ENDBRANCH  56  57
ENDBRANCH  24  49
BRANCH  36  61
ATOM     61  C   UNL A   1      43.169  29.120  33.880  1.00  0.00     0.058 A 
ATOM     62  C   UNL A   1      43.440  29.446  35.220  1.00  0.00     0.135 A 
ATOM     63  C   UNL A   1      42.601  27.861  33.630  1.00  0.00     0.135 A 
ATOM     64  F   UNL A   1      43.880  30.666  35.558  1.00  0.00    -0.206 F 
ATOM     65  C   UNL A   1      43.194  28.547  36.260  1.00  0.00     0.059 A 
ATOM     66  C   UNL A   1      42.319  26.961  34.654  1.00  0.00     0.059 A 
ATOM     67  F   UNL A   1      42.257  27.514  32.379  1.00  0.00    -0.206 F 
ATOM     68  C   UNL A   1      42.629  27.307  35.967  1.00  0.00     0.060 A 
BRANCH  68  69
ATOM     69  S   UNL A   1      42.231  26.180  37.322  1.00  0.00     0.124 S 
ATOM     70  O   UNL A   1      40.857  26.551  37.638  1.00  0.00    -0.237 OA
ATOM     71  O   UNL A   1      42.409  24.867  36.706  1.00  0.00    -0.237 OA
ATOM     72  O   UNL A   1      43.219  26.514  38.345  1.00  0.00    -0.744 OA
ENDBRANCH  68  69
ENDBRANCH  36  61
ENDBRANCH  10  11
ENDBRANCH   3   5
ENDBRANCH   2   3
ENDBRANCH   1   2
BRANCH   1  73
ATOM     73  C   UNL A   1      36.822  20.882  25.010  1.00  0.00     0.275 C 
BRANCH  73  74
ATOM     74  O   UNL A   1      36.198  22.175  24.953  1.00  0.00    -0.457 OA
BRANCH  74  75
ATOM     75  C   UNL A   1      35.324  22.470  25.957  1.00  0.00     0.361 C 
ATOM     76  O   UNL A   1      34.979  21.697  26.846  1.00  0.00    -0.244 OA
BRANCH  75  77
ATOM     77  C   UNL A   1      34.654  23.723  25.717  1.00  0.00     0.198 A 
ATOM     78  N   UNL A   1      35.047  24.956  26.164  1.00  0.00    -0.122 NA
ATOM     79  C   UNL A   1      33.581  23.860  24.861  1.00  0.00     0.109 A 
ATOM     80  N   UNL A   1      34.236  25.864  25.626  1.00  0.00    -0.061 NA
ATOM     81  N   UNL A   1      33.276  25.205  24.940  1.00  0.00    -0.212 N 
BRANCH  79  82
ATOM     82  C   UNL A   1      33.019  22.887  23.931  1.00  0.00     0.004 A 
ATOM     83  C   UNL A   1      32.751  23.257  22.605  1.00  0.00     0.010 A 
ATOM     84  C   UNL A   1      32.814  21.563  24.333  1.00  0.00     0.031 A 
ATOM     85  C   UNL A   1      32.264  22.320  21.695  1.00  0.00     0.002 A 
ATOM     86  C   UNL A   1      32.328  20.632  23.419  1.00  0.00     0.041 A 
ATOM     87  C   UNL A   1      32.049  21.004  22.104  1.00  0.00     0.020 A 
ATOM     88  Cl  UNL A   1      32.077  19.005  23.916  1.00  0.00    -0.084 Cl
ENDBRANCH  79  82
BRANCH  81  89
ATOM     89  C   UNL A   1      32.154  25.844  24.375  1.00  0.00     0.067 A 
ATOM     90  C   UNL A   1      30.878  25.619  24.891  1.00  0.00     0.029 A 
ATOM     91  C   UNL A   1      32.360  26.789  23.360  1.00  0.00     0.029 A 
ATOM     92  C   UNL A   1      29.827  26.435  24.462  1.00  0.00     0.015 A 
ATOM     93  C   UNL A   1      31.304  27.572  22.915  1.00  0.00     0.015 A 
ATOM     94  C   UNL A   1      30.034  27.430  23.488  1.00  0.00     0.056 A 
BRANCH  94  95
ATOM     95  C   UNL A   1      28.917  28.364  23.090  1.00  0.00     0.416 C 
ATOM     96  F   UNL A   1      28.882  29.502  23.833  1.00  0.00    -0.166 F 
ATOM     97  F   UNL A   1      29.013  28.759  21.790  1.00  0.00    -0.166 F 
ATOM     98  F   UNL A   1      27.678  27.803  23.210  1.00  0.00    -0.166 F 
ENDBRANCH  94  95
ENDBRANCH  81  89
ENDBRANCH  75  77
ENDBRANCH  74  75
ENDBRANCH  73  74
ENDBRANCH   1  73
TORSDOF 17
ENDMDL
