MODEL 1
REMARK VINA RESULT:     -10.8      0.000      0.000
REMARK SMILES CC[C@](C)([NH3+])C(=O)N1CC[NH+]([C@H](C)C(=O)OCCOC(=O)c2ccc(-c3c4nc(c(-c5c(F)cc(S(=O)(=O)[O-])cc5F)c5ccc([nH]5)c(-c5c(F)cc(S(=O)(=O)[O-])cc5F)c5nc(c(-c6c(F)cc(S(=O)(=O)[O-])cc6F)c6ccc3[nH]6)C=C5)C=C4)cc2)CC1
REMARK SMILES IDX 17 1 16 2 14 3 15 4 12 5 13 6 11 7 6 8 7 9 8 10 9 11 89 12
REMARK SMILES IDX 10 13 88 14 3 16 4 17 2 18 1 19 5 20 18 24 19 25 20 26 21 27
REMARK SMILES IDX 22 28 23 29 87 30 24 31 86 32 25 33 26 34 27 35 80 36 28 37
REMARK SMILES IDX 85 38 79 39 81 40 29 41 84 42 78 43 77 44 30 46 64 47 43 48
REMARK SMILES IDX 63 49 44 50 47 51 62 52 82 53 45 54 46 55 61 57 83 58 48 59
REMARK SMILES IDX 31 60 32 61 41 62 33 63 34 64 40 65 42 66 35 67 36 68 37 69
REMARK SMILES IDX 38 70 39 71 65 72 66 73 75 74 67 75 68 76 74 77 76 78 69 79
REMARK SMILES IDX 70 80 71 81 72 82 73 83 49 84 50 85 59 86 51 87 52 88 58 89
REMARK SMILES IDX 60 90 53 91 54 92 55 93 56 94 57 95
REMARK H PARENT 11 15 5 21 5 22 5 23 81 45 47 56
REMARK Flexibility Score: inf
ROOT
ATOM      1  C   UNL A   1      39.759  21.155  26.393  1.00  0.00     0.274 C 
ENDROOT
BRANCH   1   2
ATOM      2  O   UNL A   1      38.920  21.841  25.445  1.00  0.00    -0.458 OA
BRANCH   2   3
ATOM      3  C   UNL A   1      37.657  21.348  25.301  1.00  0.00     0.364 C 
ATOM      4  O   UNL A   1      37.398  20.241  24.840  1.00  0.00    -0.245 OA
BRANCH   3   5
ATOM      5  C   UNL A   1      36.576  22.351  25.753  1.00  0.00     0.292 C 
ATOM      6  C   UNL A   1      36.938  23.811  25.459  1.00  0.00     0.088 C 
BRANCH   5   7
ATOM      7  N   UNL A   1      35.243  21.900  25.289  1.00  0.00    -0.321 N 
ATOM      8  C   UNL A   1      31.413  23.183  24.836  1.00  0.00     0.283 C 
ATOM      9  O   UNL A   1      31.006  23.606  23.741  1.00  0.00    -0.268 OA
ATOM     10  N   UNL A   1      32.422  22.239  24.850  1.00  0.00    -0.326 N 
ATOM     11  C   UNL A   1      33.323  22.169  23.701  1.00  0.00     0.181 C 
ATOM     12  C   UNL A   1      32.871  21.369  25.935  1.00  0.00     0.181 C 
ATOM     13  C   UNL A   1      34.714  22.670  24.145  1.00  0.00     0.284 C 
ATOM     14  C   UNL A   1      34.278  21.780  26.402  1.00  0.00     0.284 C 
ATOM     15  H   UNL A   1      35.384  20.959  24.920  1.00  0.00     0.348 HD
BRANCH   8  16
ATOM     16  C   UNL A   1      30.946  23.932  26.139  1.00  0.00     0.171 C 
ATOM     17  C   UNL A   1      29.970  22.995  26.882  1.00  0.00     0.090 C 
BRANCH  16  18
ATOM     18  C   UNL A   1      30.236  25.236  25.683  1.00  0.00     0.075 C 
ATOM     19  C   UNL A   1      30.849  26.537  26.185  1.00  0.00     0.011 C 
ENDBRANCH  16  18
BRANCH  16  20
ATOM     20  N   UNL A   1      32.039  24.234  27.087  1.00  0.00    -0.345 N 
ATOM     21  H   UNL A   1      32.329  23.377  27.558  1.00  0.00     0.345 HD
ATOM     22  H   UNL A   1      31.711  24.908  27.779  1.00  0.00     0.345 HD
ATOM     23  H   UNL A   1      32.831  24.627  26.579  1.00  0.00     0.345 HD
ENDBRANCH  16  20
ENDBRANCH   8  16
ENDBRANCH   5   7
ENDBRANCH   3   5
ENDBRANCH   2   3
ENDBRANCH   1   2
BRANCH   1  24
ATOM     24  C   UNL A   1      40.669  22.124  27.153  1.00  0.00     0.275 C 
BRANCH  24  25
ATOM     25  O   UNL A   1      40.097  23.441  27.244  1.00  0.00    -0.458 OA
BRANCH  25  26
ATOM     26  C   UNL A   1      40.941  24.453  26.933  1.00  0.00     0.338 C 
ATOM     27  O   UNL A   1      41.711  24.508  25.990  1.00  0.00    -0.246 OA
BRANCH  26  28
ATOM     28  C   UNL A   1      40.719  25.586  27.843  1.00  0.00     0.060 A 
ATOM     29  C   UNL A   1      41.737  26.532  27.971  1.00  0.00     0.016 A 
ATOM     30  C   UNL A   1      39.576  25.661  28.637  1.00  0.00     0.016 A 
ATOM     31  C   UNL A   1      41.630  27.556  28.905  1.00  0.00     0.010 A 
ATOM     32  C   UNL A   1      39.465  26.696  29.573  1.00  0.00     0.010 A 
ATOM     33  C   UNL A   1      40.497  27.640  29.720  1.00  0.00    -0.014 A 
BRANCH  33  34
ATOM     34  C   UNL A   1      40.427  28.683  30.769  1.00  0.00     0.031 A 
ATOM     35  C   UNL A   1      41.353  28.615  31.949  1.00  0.00     0.074 A 
ATOM     36  C   UNL A   1      39.553  29.700  30.647  1.00  0.00     0.049 A 
ATOM     37  N   UNL A   1      41.380  29.359  33.023  1.00  0.00    -0.248 NA
ATOM     38  C   UNL A   1      42.388  27.568  31.913  1.00  0.00     0.031 C 
ATOM     39  C   UNL A   1      38.645  29.901  29.516  1.00  0.00     0.029 A 
ATOM     40  N   UNL A   1      39.285  30.752  31.484  1.00  0.00    -0.354 N 
ATOM     41  C   UNL A   1      42.411  28.855  33.806  1.00  0.00     0.074 A 
ATOM     42  C   UNL A   1      42.985  27.738  33.085  1.00  0.00     0.031 C 
ATOM     43  C   UNL A   1      37.916  31.008  29.733  1.00  0.00     0.029 A 
ATOM     44  C   UNL A   1      38.269  31.563  31.037  1.00  0.00     0.049 A 
ATOM     45  H   UNL A   1      39.771  30.910  32.325  1.00  0.00     0.167 HD
ATOM     46  C   UNL A   1      42.837  29.286  35.017  1.00  0.00     0.037 A 
ATOM     47  C   UNL A   1      37.671  32.615  31.627  1.00  0.00     0.037 A 
ATOM     48  C   UNL A   1      42.273  30.410  35.717  1.00  0.00     0.049 A 
ATOM     49  C   UNL A   1      38.130  33.047  32.993  1.00  0.00     0.074 A 
ATOM     50  C   UNL A   1      42.630  30.927  36.951  1.00  0.00     0.029 A 
ATOM     51  N   UNL A   1      41.232  31.195  35.242  1.00  0.00    -0.354 N 
ATOM     52  N   UNL A   1      39.083  32.542  33.738  1.00  0.00    -0.248 NA
ATOM     53  C   UNL A   1      37.427  34.184  33.601  1.00  0.00     0.031 C 
ATOM     54  C   UNL A   1      41.786  32.008  37.233  1.00  0.00     0.029 A 
ATOM     55  C   UNL A   1      40.926  32.185  36.160  1.00  0.00     0.049 A 
ATOM     56  H   UNL A   1      40.777  31.067  34.378  1.00  0.00     0.167 HD
ATOM     57  C   UNL A   1      39.104  33.307  34.899  1.00  0.00     0.074 A 
ATOM     58  C   UNL A   1      38.077  34.317  34.750  1.00  0.00     0.031 C 
ATOM     59  C   UNL A   1      39.901  33.183  35.989  1.00  0.00     0.037 A 
BRANCH  46  60
ATOM     60  C   UNL A   1      43.945  28.515  35.675  1.00  0.00     0.058 A 
ATOM     61  C   UNL A   1      45.296  28.812  35.436  1.00  0.00     0.135 A 
ATOM     62  C   UNL A   1      43.650  27.473  36.569  1.00  0.00     0.135 A 
ATOM     63  F   UNL A   1      45.632  29.785  34.575  1.00  0.00    -0.206 F 
ATOM     64  C   UNL A   1      46.317  28.086  36.042  1.00  0.00     0.059 A 
ATOM     65  C   UNL A   1      44.655  26.747  37.201  1.00  0.00     0.059 A 
ATOM     66  F   UNL A   1      42.374  27.147  36.828  1.00  0.00    -0.206 F 
ATOM     67  C   UNL A   1      45.986  27.051  36.919  1.00  0.00     0.060 A 
BRANCH  67  68
ATOM     68  S   UNL A   1      47.318  26.109  37.692  1.00  0.00     0.124 S 
ATOM     69  O   UNL A   1      48.333  26.128  36.643  1.00  0.00    -0.237 OA
ATOM     70  O   UNL A   1      47.619  26.903  38.879  1.00  0.00    -0.237 OA
ATOM     71  O   UNL A   1      46.708  24.809  37.951  1.00  0.00    -0.744 OA
ENDBRANCH  67  68
ENDBRANCH  46  60
BRANCH  47  72
ATOM     72  C   UNL A   1      36.551  33.309  30.940  1.00  0.00     0.058 A 
ATOM     73  C   UNL A   1      35.228  33.151  31.374  1.00  0.00     0.135 A 
ATOM     74  C   UNL A   1      36.787  34.160  29.849  1.00  0.00     0.135 A 
ATOM     75  F   UNL A   1      34.953  32.339  32.407  1.00  0.00    -0.206 F 
ATOM     76  C   UNL A   1      34.174  33.807  30.745  1.00  0.00     0.059 A 
ATOM     77  C   UNL A   1      35.753  34.844  29.219  1.00  0.00     0.059 A 
ATOM     78  F   UNL A   1      38.039  34.351  29.404  1.00  0.00    -0.206 F 
ATOM     79  C   UNL A   1      34.447  34.653  29.669  1.00  0.00     0.060 A 
BRANCH  79  80
ATOM     80  S   UNL A   1      33.082  35.548  28.896  1.00  0.00     0.124 S 
ATOM     81  O   UNL A   1      32.335  36.004  30.061  1.00  0.00    -0.237 OA
ATOM     82  O   UNL A   1      33.778  36.584  28.139  1.00  0.00    -0.237 OA
ATOM     83  O   UNL A   1      32.429  34.524  28.086  1.00  0.00    -0.744 OA
ENDBRANCH  79  80
ENDBRANCH  47  72
BRANCH  59  84
ATOM     84  C   UNL A   1      39.707  34.180  37.095  1.00  0.00     0.058 A 
ATOM     85  C   UNL A   1      38.986  33.858  38.255  1.00  0.00     0.135 A 
ATOM     86  C   UNL A   1      40.284  35.456  37.011  1.00  0.00     0.135 A 
ATOM     87  F   UNL A   1      38.409  32.651  38.378  1.00  0.00    -0.206 F 
ATOM     88  C   UNL A   1      38.829  34.775  39.288  1.00  0.00     0.059 A 
ATOM     89  C   UNL A   1      40.156  36.382  38.041  1.00  0.00     0.059 A 
ATOM     90  F   UNL A   1      40.990  35.808  35.924  1.00  0.00    -0.206 F 
ATOM     91  C   UNL A   1      39.418  36.036  39.171  1.00  0.00     0.060 A 
BRANCH  91  92
ATOM     92  S   UNL A   1      39.236  37.211  40.530  1.00  0.00     0.124 S 
ATOM     93  O   UNL A   1      38.710  36.356  41.589  1.00  0.00    -0.237 OA
ATOM     94  O   UNL A   1      40.603  37.686  40.722  1.00  0.00    -0.237 OA
ATOM     95  O   UNL A   1      38.306  38.201  39.998  1.00  0.00    -0.744 OA
ENDBRANCH  91  92
ENDBRANCH  59  84
ENDBRANCH  33  34
ENDBRANCH  26  28
ENDBRANCH  25  26
ENDBRANCH  24  25
ENDBRANCH   1  24
TORSDOF 18
ENDMDL
MODEL 2
REMARK VINA RESULT:     -10.8      6.827     12.273
REMARK SMILES CC[C@](C)([NH3+])C(=O)N1CC[NH+]([C@H](C)C(=O)OCCOC(=O)c2ccc(-c3c4nc(c(-c5c(F)cc(S(=O)(=O)[O-])cc5F)c5ccc([nH]5)c(-c5c(F)cc(S(=O)(=O)[O-])cc5F)c5nc(c(-c6c(F)cc(S(=O)(=O)[O-])cc6F)c6ccc3[nH]6)C=C5)C=C4)cc2)CC1
REMARK SMILES IDX 17 1 16 2 14 3 15 4 12 5 13 6 11 7 6 8 7 9 8 10 9 11 89 12
REMARK SMILES IDX 10 13 88 14 3 16 4 17 2 18 1 19 5 20 18 24 19 25 20 26 21 27
REMARK SMILES IDX 22 28 23 29 87 30 24 31 86 32 25 33 26 34 27 35 80 36 28 37
REMARK SMILES IDX 85 38 79 39 81 40 29 41 84 42 78 43 77 44 30 46 64 47 43 48
REMARK SMILES IDX 63 49 44 50 47 51 62 52 82 53 45 54 46 55 61 57 83 58 48 59
REMARK SMILES IDX 31 60 32 61 41 62 33 63 34 64 40 65 42 66 35 67 36 68 37 69
REMARK SMILES IDX 38 70 39 71 65 72 66 73 75 74 67 75 68 76 74 77 76 78 69 79
REMARK SMILES IDX 70 80 71 81 72 82 73 83 49 84 50 85 59 86 51 87 52 88 58 89
REMARK SMILES IDX 60 90 53 91 54 92 55 93 56 94 57 95
REMARK H PARENT 11 15 5 21 5 22 5 23 81 45 47 56
REMARK Flexibility Score: inf
ROOT
ATOM      1  C   UNL A   1      33.968  29.799  27.339  1.00  0.00     0.274 C 
ENDROOT
BRANCH   1   2
ATOM      2  O   UNL A   1      33.605  29.797  25.947  1.00  0.00    -0.458 OA
BRANCH   2   3
ATOM      3  C   UNL A   1      32.470  29.111  25.627  1.00  0.00     0.364 C 
ATOM      4  O   UNL A   1      31.488  29.614  25.093  1.00  0.00    -0.245 OA
BRANCH   3   5
ATOM      5  C   UNL A   1      32.541  27.627  26.042  1.00  0.00     0.292 C 
ATOM      6  C   UNL A   1      31.170  27.010  26.339  1.00  0.00     0.088 C 
BRANCH   5   7
ATOM      7  N   UNL A   1      33.405  26.880  25.098  1.00  0.00    -0.321 N 
ATOM      8  C   UNL A   1      33.399  23.646  22.635  1.00  0.00     0.283 C 
ATOM      9  O   UNL A   1      33.173  23.769  21.419  1.00  0.00    -0.268 OA
ATOM     10  N   UNL A   1      33.980  24.701  23.312  1.00  0.00    -0.326 N 
ATOM     11  C   UNL A   1      33.816  26.049  22.770  1.00  0.00     0.181 C 
ATOM     12  C   UNL A   1      34.619  24.727  24.627  1.00  0.00     0.181 C 
ATOM     13  C   UNL A   1      32.888  26.842  23.715  1.00  0.00     0.284 C 
ATOM     14  C   UNL A   1      33.770  25.544  25.616  1.00  0.00     0.284 C 
ATOM     15  H   UNL A   1      34.270  27.416  25.033  1.00  0.00     0.348 HD
BRANCH   8  16
ATOM     16  C   UNL A   1      32.776  22.409  23.384  1.00  0.00     0.171 C 
ATOM     17  C   UNL A   1      32.238  21.443  22.307  1.00  0.00     0.090 C 
BRANCH  16  18
ATOM     18  C   UNL A   1      31.627  22.952  24.277  1.00  0.00     0.075 C 
ATOM     19  C   UNL A   1      30.628  23.874  23.589  1.00  0.00     0.011 C 
ENDBRANCH  16  18
BRANCH  16  20
ATOM     20  N   UNL A   1      33.746  21.639  24.189  1.00  0.00    -0.345 N 
ATOM     21  H   UNL A   1      33.790  22.026  25.131  1.00  0.00     0.345 HD
ATOM     22  H   UNL A   1      34.667  21.693  23.756  1.00  0.00     0.345 HD
ATOM     23  H   UNL A   1      33.450  20.663  24.237  1.00  0.00     0.345 HD
ENDBRANCH  16  20
ENDBRANCH   8  16
ENDBRANCH   5   7
ENDBRANCH   3   5
ENDBRANCH   2   3
ENDBRANCH   1   2
BRANCH   1  24
ATOM     24  C   UNL A   1      34.367  31.196  27.822  1.00  0.00     0.275 C 
BRANCH  24  25
ATOM     25  O   UNL A   1      35.796  31.359  27.875  1.00  0.00    -0.458 OA
BRANCH  25  26
ATOM     26  C   UNL A   1      36.359  31.068  29.071  1.00  0.00     0.338 C 
ATOM     27  O   UNL A   1      35.863  31.213  30.175  1.00  0.00    -0.246 OA
BRANCH  26  28
ATOM     28  C   UNL A   1      37.658  30.411  28.866  1.00  0.00     0.060 A 
ATOM     29  C   UNL A   1      38.578  30.435  29.915  1.00  0.00     0.016 A 
ATOM     30  C   UNL A   1      38.008  29.874  27.628  1.00  0.00     0.016 A 
ATOM     31  C   UNL A   1      39.863  29.936  29.734  1.00  0.00     0.010 A 
ATOM     32  C   UNL A   1      39.299  29.365  27.447  1.00  0.00     0.010 A 
ATOM     33  C   UNL A   1      40.236  29.406  28.495  1.00  0.00    -0.014 A 
BRANCH  33  34
ATOM     34  C   UNL A   1      41.630  28.952  28.284  1.00  0.00     0.031 A 
ATOM     35  C   UNL A   1      42.754  29.945  28.361  1.00  0.00     0.074 A 
ATOM     36  C   UNL A   1      41.884  27.651  28.053  1.00  0.00     0.049 A 
ATOM     37  N   UNL A   1      44.024  29.777  28.100  1.00  0.00    -0.248 NA
ATOM     38  C   UNL A   1      42.401  31.308  28.788  1.00  0.00     0.031 C 
ATOM     39  C   UNL A   1      40.878  26.588  28.014  1.00  0.00     0.029 A 
ATOM     40  N   UNL A   1      43.066  27.003  27.802  1.00  0.00    -0.354 N 
ATOM     41  C   UNL A   1      44.619  31.016  28.302  1.00  0.00     0.074 A 
ATOM     42  C   UNL A   1      43.568  31.930  28.703  1.00  0.00     0.031 C 
ATOM     43  C   UNL A   1      41.487  25.420  27.751  1.00  0.00     0.029 A 
ATOM     44  C   UNL A   1      42.913  25.660  27.553  1.00  0.00     0.049 A 
ATOM     45  H   UNL A   1      43.939  27.456  27.799  1.00  0.00     0.167 HD
ATOM     46  C   UNL A   1      45.921  31.359  28.162  1.00  0.00     0.037 A 
ATOM     47  C   UNL A   1      43.817  24.736  27.176  1.00  0.00     0.037 A 
ATOM     48  C   UNL A   1      46.960  30.438  27.781  1.00  0.00     0.049 A 
ATOM     49  C   UNL A   1      45.250  25.149  26.982  1.00  0.00     0.074 A 
ATOM     50  C   UNL A   1      48.311  30.685  27.609  1.00  0.00     0.029 A 
ATOM     51  N   UNL A   1      46.764  29.090  27.517  1.00  0.00    -0.354 N 
ATOM     52  N   UNL A   1      45.794  26.332  27.142  1.00  0.00    -0.248 NA
ATOM     53  C   UNL A   1      46.189  24.107  26.547  1.00  0.00     0.031 C 
ATOM     54  C   UNL A   1      48.927  29.491  27.213  1.00  0.00     0.029 A 
ATOM     55  C   UNL A   1      47.964  28.494  27.173  1.00  0.00     0.049 A 
ATOM     56  H   UNL A   1      45.897  28.625  27.568  1.00  0.00     0.167 HD
ATOM     57  C   UNL A   1      47.141  26.174  26.840  1.00  0.00     0.074 A 
ATOM     58  C   UNL A   1      47.332  24.779  26.501  1.00  0.00     0.031 C 
ATOM     59  C   UNL A   1      48.131  27.101  26.842  1.00  0.00     0.037 A 
BRANCH  46  60
ATOM     60  C   UNL A   1      46.286  32.798  28.388  1.00  0.00     0.058 A 
ATOM     61  C   UNL A   1      46.106  33.771  27.393  1.00  0.00     0.135 A 
ATOM     62  C   UNL A   1      46.810  33.211  29.624  1.00  0.00     0.135 A 
ATOM     63  F   UNL A   1      45.628  33.425  26.188  1.00  0.00    -0.206 F 
ATOM     64  C   UNL A   1      46.455  35.101  27.607  1.00  0.00     0.059 A 
ATOM     65  C   UNL A   1      47.147  34.539  29.866  1.00  0.00     0.059 A 
ATOM     66  F   UNL A   1      47.004  32.318  30.607  1.00  0.00    -0.206 F 
ATOM     67  C   UNL A   1      46.981  35.475  28.846  1.00  0.00     0.060 A 
BRANCH  67  68
ATOM     68  S   UNL A   1      47.440  37.200  29.109  1.00  0.00     0.124 S 
ATOM     69  O   UNL A   1      46.671  37.526  30.306  1.00  0.00    -0.237 OA
ATOM     70  O   UNL A   1      48.886  37.119  29.288  1.00  0.00    -0.237 OA
ATOM     71  O   UNL A   1      47.001  37.859  27.882  1.00  0.00    -0.744 OA
ENDBRANCH  67  68
ENDBRANCH  46  60
BRANCH  47  72
ATOM     72  C   UNL A   1      43.383  23.337  26.928  1.00  0.00     0.058 A 
ATOM     73  C   UNL A   1      43.264  22.838  25.623  1.00  0.00     0.135 A 
ATOM     74  C   UNL A   1      43.098  22.467  27.992  1.00  0.00     0.135 A 
ATOM     75  F   UNL A   1      43.516  23.635  24.574  1.00  0.00    -0.206 F 
ATOM     76  C   UNL A   1      42.871  21.525  25.381  1.00  0.00     0.059 A 
ATOM     77  C   UNL A   1      42.725  21.145  27.775  1.00  0.00     0.059 A 
ATOM     78  F   UNL A   1      43.207  22.896  29.259  1.00  0.00    -0.206 F 
ATOM     79  C   UNL A   1      42.606  20.685  26.464  1.00  0.00     0.060 A 
BRANCH  79  80
ATOM     80  S   UNL A   1      42.154  18.966  26.144  1.00  0.00     0.124 S 
ATOM     81  O   UNL A   1      43.047  18.630  25.041  1.00  0.00    -0.237 OA
ATOM     82  O   UNL A   1      42.448  18.324  27.421  1.00  0.00    -0.237 OA
ATOM     83  O   UNL A   1      40.736  19.052  25.807  1.00  0.00    -0.744 OA
ENDBRANCH  79  80
ENDBRANCH  47  72
BRANCH  59  84
ATOM     84  C   UNL A   1      49.512  26.628  26.490  1.00  0.00     0.058 A 
ATOM     85  C   UNL A   1      50.343  26.017  27.441  1.00  0.00     0.135 A 
ATOM     86  C   UNL A   1      49.991  26.750  25.176  1.00  0.00     0.135 A 
ATOM     87  F   UNL A   1      49.931  25.883  28.712  1.00  0.00    -0.206 F 
ATOM     88  C   UNL A   1      51.612  25.557  27.105  1.00  0.00     0.059 A 
ATOM     89  C   UNL A   1      51.249  26.280  24.814  1.00  0.00     0.059 A 
ATOM     90  F   UNL A   1      49.230  27.322  24.229  1.00  0.00    -0.206 F 
ATOM     91  C   UNL A   1      52.056  25.694  25.788  1.00  0.00     0.060 A 
BRANCH  91  92
ATOM     92  S   UNL A   1      53.693  25.067  25.352  1.00  0.00     0.124 S 
ATOM     93  O   UNL A   1      54.501  25.560  26.463  1.00  0.00    -0.237 OA
ATOM     94  O   UNL A   1      53.479  23.624  25.317  1.00  0.00    -0.237 OA
ATOM     95  O   UNL A   1      53.957  25.686  24.057  1.00  0.00    -0.744 OA
ENDBRANCH  91  92
ENDBRANCH  59  84
ENDBRANCH  33  34
ENDBRANCH  26  28
ENDBRANCH  25  26
ENDBRANCH  24  25
ENDBRANCH   1  24
TORSDOF 18
ENDMDL
MODEL 3
REMARK VINA RESULT:     -10.8      1.112      2.083
REMARK SMILES CC[C@](C)([NH3+])C(=O)N1CC[NH+]([C@H](C)C(=O)OCCOC(=O)c2ccc(-c3c4nc(c(-c5c(F)cc(S(=O)(=O)[O-])cc5F)c5ccc([nH]5)c(-c5c(F)cc(S(=O)(=O)[O-])cc5F)c5nc(c(-c6c(F)cc(S(=O)(=O)[O-])cc6F)c6ccc3[nH]6)C=C5)C=C4)cc2)CC1
REMARK SMILES IDX 17 1 16 2 14 3 15 4 12 5 13 6 11 7 6 8 7 9 8 10 9 11 89 12
REMARK SMILES IDX 10 13 88 14 3 16 4 17 2 18 1 19 5 20 18 24 19 25 20 26 21 27
REMARK SMILES IDX 22 28 23 29 87 30 24 31 86 32 25 33 26 34 27 35 80 36 28 37
REMARK SMILES IDX 85 38 79 39 81 40 29 41 84 42 78 43 77 44 30 46 64 47 43 48
REMARK SMILES IDX 63 49 44 50 47 51 62 52 82 53 45 54 46 55 61 57 83 58 48 59
REMARK SMILES IDX 31 60 32 61 41 62 33 63 34 64 40 65 42 66 35 67 36 68 37 69
REMARK SMILES IDX 38 70 39 71 65 72 66 73 75 74 67 75 68 76 74 77 76 78 69 79
REMARK SMILES IDX 70 80 71 81 72 82 73 83 49 84 50 85 59 86 51 87 52 88 58 89
REMARK SMILES IDX 60 90 53 91 54 92 55 93 56 94 57 95
REMARK H PARENT 11 15 5 21 5 22 5 23 81 45 47 56
REMARK Flexibility Score: inf
ROOT
ATOM      1  C   UNL A   1      38.165  22.027  25.373  1.00  0.00     0.274 C 
ENDROOT
BRANCH   1   2
ATOM      2  O   UNL A   1      36.912  22.735  25.343  1.00  0.00    -0.458 OA
BRANCH   2   3
ATOM      3  C   UNL A   1      36.176  22.596  24.204  1.00  0.00     0.364 C 
ATOM      4  O   UNL A   1      36.608  22.800  23.075  1.00  0.00    -0.245 OA
BRANCH   3   5
ATOM      5  C   UNL A   1      34.718  22.182  24.490  1.00  0.00     0.292 C 
ATOM      6  C   UNL A   1      34.569  20.711  24.897  1.00  0.00     0.088 C 
BRANCH   5   7
ATOM      7  N   UNL A   1      34.076  23.176  25.382  1.00  0.00    -0.321 N 
ATOM      8  C   UNL A   1      30.606  25.226  25.912  1.00  0.00     0.283 C 
ATOM      9  O   UNL A   1      29.740  24.821  26.705  1.00  0.00    -0.268 OA
ATOM     10  N   UNL A   1      31.931  24.923  26.164  1.00  0.00    -0.326 N 
ATOM     11  C   UNL A   1      32.231  23.747  26.978  1.00  0.00     0.181 C 
ATOM     12  C   UNL A   1      33.145  25.504  25.594  1.00  0.00     0.181 C 
ATOM     13  C   UNL A   1      32.868  22.676  26.067  1.00  0.00     0.284 C 
ATOM     14  C   UNL A   1      33.863  24.473  24.706  1.00  0.00     0.284 C 
ATOM     15  H   UNL A   1      34.745  23.344  26.133  1.00  0.00     0.348 HD
BRANCH   8  16
ATOM     16  C   UNL A   1      30.130  25.828  24.538  1.00  0.00     0.171 C 
ATOM     17  C   UNL A   1      30.578  24.852  23.429  1.00  0.00     0.090 C 
BRANCH  16  18
ATOM     18  C   UNL A   1      30.823  27.209  24.384  1.00  0.00     0.075 C 
ATOM     19  C   UNL A   1      31.303  27.561  22.981  1.00  0.00     0.011 C 
ENDBRANCH  16  18
BRANCH  16  20
ATOM     20  N   UNL A   1      28.664  25.961  24.410  1.00  0.00    -0.345 N 
ATOM     21  H   UNL A   1      28.310  25.242  23.780  1.00  0.00     0.345 HD
ATOM     22  H   UNL A   1      28.438  26.883  24.036  1.00  0.00     0.345 HD
ATOM     23  H   UNL A   1      28.231  25.851  25.328  1.00  0.00     0.345 HD
ENDBRANCH  16  20
ENDBRANCH   8  16
ENDBRANCH   5   7
ENDBRANCH   3   5
ENDBRANCH   2   3
ENDBRANCH   1   2
BRANCH   1  24
ATOM     24  C   UNL A   1      39.085  22.543  26.483  1.00  0.00     0.275 C 
BRANCH  24  25
ATOM     25  O   UNL A   1      39.303  23.961  26.385  1.00  0.00    -0.458 OA
BRANCH  25  26
ATOM     26  C   UNL A   1      40.510  24.385  26.827  1.00  0.00     0.338 C 
ATOM     27  O   UNL A   1      41.607  23.986  26.475  1.00  0.00    -0.246 OA
BRANCH  26  28
ATOM     28  C   UNL A   1      40.337  25.525  27.739  1.00  0.00     0.060 A 
ATOM     29  C   UNL A   1      41.292  26.542  27.705  1.00  0.00     0.016 A 
ATOM     30  C   UNL A   1      39.314  25.543  28.686  1.00  0.00     0.016 A 
ATOM     31  C   UNL A   1      41.243  27.582  28.627  1.00  0.00     0.010 A 
ATOM     32  C   UNL A   1      39.260  26.593  29.609  1.00  0.00     0.010 A 
ATOM     33  C   UNL A   1      40.233  27.610  29.593  1.00  0.00    -0.014 A 
BRANCH  33  34
ATOM     34  C   UNL A   1      40.235  28.674  30.622  1.00  0.00     0.031 A 
ATOM     35  C   UNL A   1      41.212  28.605  31.760  1.00  0.00     0.074 A 
ATOM     36  C   UNL A   1      39.381  29.709  30.519  1.00  0.00     0.049 A 
ATOM     37  N   UNL A   1      41.306  29.369  32.817  1.00  0.00    -0.248 NA
ATOM     38  C   UNL A   1      42.219  27.534  31.699  1.00  0.00     0.031 C 
ATOM     39  C   UNL A   1      38.427  29.911  29.427  1.00  0.00     0.029 A 
ATOM     40  N   UNL A   1      39.176  30.783  31.346  1.00  0.00    -0.354 N 
ATOM     41  C   UNL A   1      42.359  28.855  33.563  1.00  0.00     0.074 A 
ATOM     42  C   UNL A   1      42.872  27.710  32.839  1.00  0.00     0.031 C 
ATOM     43  C   UNL A   1      37.735  31.039  29.654  1.00  0.00     0.029 A 
ATOM     44  C   UNL A   1      38.160  31.611  30.929  1.00  0.00     0.049 A 
ATOM     45  H   UNL A   1      39.703  30.945  32.161  1.00  0.00     0.167 HD
ATOM     46  C   UNL A   1      42.850  29.299  34.744  1.00  0.00     0.037 A 
ATOM     47  C   UNL A   1      37.614  32.688  31.524  1.00  0.00     0.037 A 
ATOM     48  C   UNL A   1      42.344  30.449  35.446  1.00  0.00     0.049 A 
ATOM     49  C   UNL A   1      38.145  33.134  32.859  1.00  0.00     0.074 A 
ATOM     50  C   UNL A   1      42.769  30.980  36.652  1.00  0.00     0.029 A 
ATOM     51  N   UNL A   1      41.301  31.250  35.003  1.00  0.00    -0.354 N 
ATOM     52  N   UNL A   1      39.119  32.620  33.571  1.00  0.00    -0.248 NA
ATOM     53  C   UNL A   1      37.498  34.300  33.476  1.00  0.00     0.031 C 
ATOM     54  C   UNL A   1      41.965  32.086  36.950  1.00  0.00     0.029 A 
ATOM     55  C   UNL A   1      41.062  32.264  35.913  1.00  0.00     0.049 A 
ATOM     56  H   UNL A   1      40.805  31.117  34.162  1.00  0.00     0.167 HD
ATOM     57  C   UNL A   1      39.211  33.406  34.713  1.00  0.00     0.074 A 
ATOM     58  C   UNL A   1      38.202  34.438  34.591  1.00  0.00     0.031 C 
ATOM     59  C   UNL A   1      40.053  33.284  35.769  1.00  0.00     0.037 A 
BRANCH  46  60
ATOM     60  C   UNL A   1      43.968  28.513  35.367  1.00  0.00     0.058 A 
ATOM     61  C   UNL A   1      43.723  27.449  36.248  1.00  0.00     0.135 A 
ATOM     62  C   UNL A   1      45.305  28.822  35.066  1.00  0.00     0.135 A 
ATOM     63  F   UNL A   1      42.464  27.127  36.584  1.00  0.00    -0.206 F 
ATOM     64  C   UNL A   1      44.765  26.732  36.829  1.00  0.00     0.059 A 
ATOM     65  C   UNL A   1      46.361  28.105  35.619  1.00  0.00     0.059 A 
ATOM     66  F   UNL A   1      45.593  29.833  34.232  1.00  0.00    -0.206 F 
ATOM     67  C   UNL A   1      46.082  27.072  36.512  1.00  0.00     0.060 A 
BRANCH  67  68
ATOM     68  S   UNL A   1      47.426  26.142  37.278  1.00  0.00     0.124 S 
ATOM     69  O   UNL A   1      47.063  24.770  36.934  1.00  0.00    -0.237 OA
ATOM     70  O   UNL A   1      48.604  26.674  36.602  1.00  0.00    -0.237 OA
ATOM     71  O   UNL A   1      47.312  26.485  38.693  1.00  0.00    -0.744 OA
ENDBRANCH  67  68
ENDBRANCH  46  60
BRANCH  47  72
ATOM     72  C   UNL A   1      36.481  33.396  30.875  1.00  0.00     0.058 A 
ATOM     73  C   UNL A   1      35.182  33.310  31.394  1.00  0.00     0.135 A 
ATOM     74  C   UNL A   1      36.681  34.188  29.733  1.00  0.00     0.135 A 
ATOM     75  F   UNL A   1      34.941  32.556  32.478  1.00  0.00    -0.206 F 
ATOM     76  C   UNL A   1      34.117  33.980  30.800  1.00  0.00     0.059 A 
ATOM     77  C   UNL A   1      35.637  34.885  29.136  1.00  0.00     0.059 A 
ATOM     78  F   UNL A   1      37.909  34.309  29.206  1.00  0.00    -0.206 F 
ATOM     79  C   UNL A   1      34.354  34.767  29.672  1.00  0.00     0.060 A 
BRANCH  79  80
ATOM     80  S   UNL A   1      32.979  35.682  28.942  1.00  0.00     0.124 S 
ATOM     81  O   UNL A   1      32.422  34.691  28.029  1.00  0.00    -0.237 OA
ATOM     82  O   UNL A   1      32.164  36.003  30.109  1.00  0.00    -0.237 OA
ATOM     83  O   UNL A   1      33.635  36.823  28.312  1.00  0.00    -0.744 OA
ENDBRANCH  79  80
ENDBRANCH  47  72
BRANCH  59  84
ATOM     84  C   UNL A   1      39.933  34.306  36.862  1.00  0.00     0.058 A 
ATOM     85  C   UNL A   1      40.595  35.541  36.787  1.00  0.00     0.135 A 
ATOM     86  C   UNL A   1      39.114  34.064  37.975  1.00  0.00     0.135 A 
ATOM     87  F   UNL A   1      41.395  35.816  35.744  1.00  0.00    -0.206 F 
ATOM     88  C   UNL A   1      40.462  36.496  37.789  1.00  0.00     0.059 A 
ATOM     89  C   UNL A   1      38.951  35.013  38.979  1.00  0.00     0.059 A 
ATOM     90  F   UNL A   1      38.454  32.900  38.089  1.00  0.00    -0.206 F 
ATOM     91  C   UNL A   1      39.638  36.222  38.882  1.00  0.00     0.060 A 
BRANCH  91  92
ATOM     92  S   UNL A   1      39.446  37.479  40.164  1.00  0.00     0.124 S 
ATOM     93  O   UNL A   1      40.802  38.007  40.263  1.00  0.00    -0.237 OA
ATOM     94  O   UNL A   1      38.457  38.379  39.578  1.00  0.00    -0.237 OA
ATOM     95  O   UNL A   1      38.980  36.716  41.317  1.00  0.00    -0.744 OA
ENDBRANCH  91  92
ENDBRANCH  59  84
ENDBRANCH  33  34
ENDBRANCH  26  28
ENDBRANCH  25  26
ENDBRANCH  24  25
ENDBRANCH   1  24
TORSDOF 18
ENDMDL
