MODEL 1
REMARK VINA RESULT:     -15.1      0.000      0.000
REMARK SMILES Cc1ccc(NC(=O)c2ccccc2NC(=O)[C@H]2CCCC[C@H]2C(=O)OCCOC(=O)c2ccc(-c3c4nc(c(-c5c(F)cc(S(=O)(=O)[O-])cc5F)c5ccc([nH]5)c(-c5c(F)cc(S(=O)(=O)[O-])cc5F)c5nc(c(-c6c(F)cc(S(=O)(=O)[O-])cc6F)c6ccc3[nH]6)C=C5)C=C4)cc2)cc1
REMARK SMILES IDX 27 1 26 2 24 3 25 4 23 5 18 6 19 7 20 8 22 9 21 10 16 11
REMARK SMILES IDX 15 12 17 14 14 15 9 16 10 17 11 18 13 19 12 20 7 21 6 22
REMARK SMILES IDX 8 24 5 25 1 26 2 27 3 28 99 29 4 30 98 31 28 32 29 33 30 34
REMARK SMILES IDX 31 35 32 36 33 37 97 38 34 39 96 40 35 41 36 42 37 43 90 44
REMARK SMILES IDX 38 45 95 46 89 47 91 48 39 49 94 50 88 51 87 52 40 54 74 55
REMARK SMILES IDX 53 56 73 57 54 58 57 59 72 60 92 61 55 62 56 63 71 65 93 66
REMARK SMILES IDX 58 67 41 68 42 69 51 70 43 71 44 72 50 73 52 74 45 75 46 76
REMARK SMILES IDX 47 77 48 78 49 79 75 80 76 81 85 82 77 83 78 84 84 85 86 86
REMARK SMILES IDX 79 87 80 88 81 89 82 90 83 91 59 92 60 93 69 94 61 95 62 96
REMARK SMILES IDX 68 97 70 98 63 99 64 100 65 101 66 102 67 103
REMARK H PARENT 15 13 6 23 91 53 57 64
REMARK Flexibility Score: inf
ROOT
ATOM      1  C   UNL A   1      33.652  30.801  27.617  1.00  0.00     0.274 C 
ENDROOT
BRANCH   1   2
ATOM      2  O   UNL A   1      32.564  31.115  26.733  1.00  0.00    -0.462 OA
BRANCH   2   3
ATOM      3  C   UNL A   1      32.008  30.006  25.955  1.00  0.00     0.309 C 
ATOM      4  O   UNL A   1      32.530  28.983  26.484  1.00  0.00    -0.252 OA
BRANCH   3   5
ATOM      5  C   UNL A   1      30.625  30.243  24.257  1.00  0.00     0.111 C 
ATOM      6  C   UNL A   1      30.125  29.135  22.963  1.00  0.00     0.093 C 
ATOM      7  C   UNL A   1      29.287  29.679  21.784  1.00  0.00     0.014 C 
ATOM      8  C   UNL A   1      28.027  30.407  22.190  1.00  0.00     0.001 C 
ATOM      9  C   UNL A   1      29.196  31.379  24.156  1.00  0.00     0.016 C 
ATOM     10  C   UNL A   1      28.462  31.673  22.856  1.00  0.00     0.001 C 
BRANCH   6  11
ATOM     11  C   UNL A   1      29.390  27.879  23.378  1.00  0.00     0.228 C 
ATOM     12  N   UNL A   1      30.080  26.780  23.794  1.00  0.00    -0.325 N 
ATOM     13  H   UNL A   1      29.485  26.135  24.240  1.00  0.00     0.169 HD
ATOM     14  O   UNL A   1      28.161  27.870  23.501  1.00  0.00    -0.274 OA
BRANCH  12  15
ATOM     15  C   UNL A   1      31.409  26.309  23.763  1.00  0.00     0.054 A 
ATOM     16  C   UNL A   1      31.961  25.719  24.928  1.00  0.00     0.063 A 
ATOM     17  C   UNL A   1      33.348  25.467  24.973  1.00  0.00     0.016 A 
ATOM     18  C   UNL A   1      34.167  25.715  23.874  1.00  0.00     0.001 A 
ATOM     19  C   UNL A   1      32.227  26.423  22.630  1.00  0.00     0.027 A 
ATOM     20  C   UNL A   1      33.598  26.161  22.692  1.00  0.00     0.002 A 
BRANCH  16  21
ATOM     21  C   UNL A   1      31.244  25.474  26.222  1.00  0.00     0.257 C 
ATOM     22  N   UNL A   1      31.138  24.257  26.869  1.00  0.00    -0.322 N 
ATOM     23  H   UNL A   1      30.479  24.264  27.600  1.00  0.00     0.170 HD
ATOM     24  O   UNL A   1      30.626  26.419  26.726  1.00  0.00    -0.269 OA
BRANCH  22  25
ATOM     25  C   UNL A   1      31.769  23.011  26.709  1.00  0.00     0.041 A 
ATOM     26  C   UNL A   1      34.381  20.076  25.004  1.00  0.00     0.044 C 
ATOM     27  C   UNL A   1      33.386  20.960  25.699  1.00  0.00    -0.051 A 
ATOM     28  C   UNL A   1      33.736  21.621  26.883  1.00  0.00     0.005 A 
ATOM     29  C   UNL A   1      32.154  21.244  25.099  1.00  0.00     0.005 A 
ATOM     30  C   UNL A   1      32.919  22.633  27.401  1.00  0.00     0.026 A 
ATOM     31  C   UNL A   1      31.335  22.250  25.616  1.00  0.00     0.026 A 
ENDBRANCH  22  25
ENDBRANCH  16  21
ENDBRANCH  12  15
ENDBRANCH   6  11
ENDBRANCH   3   5
ENDBRANCH   2   3
ENDBRANCH   1   2
BRANCH   1  32
ATOM     32  C   UNL A   1      34.495  32.065  27.826  1.00  0.00     0.275 C 
BRANCH  32  33
ATOM     33  O   UNL A   1      35.330  32.062  29.019  1.00  0.00    -0.458 OA
BRANCH  33  34
ATOM     34  C   UNL A   1      36.630  31.648  29.071  1.00  0.00     0.338 C 
ATOM     35  O   UNL A   1      37.582  32.407  29.127  1.00  0.00    -0.246 OA
BRANCH  34  36
ATOM     36  C   UNL A   1      36.835  30.181  28.942  1.00  0.00     0.060 A 
ATOM     37  C   UNL A   1      36.984  29.227  30.450  1.00  0.00     0.016 A 
ATOM     38  C   UNL A   1      37.757  29.709  27.490  1.00  0.00     0.016 A 
ATOM     39  C   UNL A   1      38.227  27.896  30.539  1.00  0.00     0.010 A 
ATOM     40  C   UNL A   1      38.931  28.353  27.530  1.00  0.00     0.010 A 
ATOM     41  C   UNL A   1      39.278  27.554  29.096  1.00  0.00    -0.014 A 
BRANCH  41  42
ATOM     42  C   UNL A   1      40.651  27.083  29.158  1.00  0.00     0.031 A 
ATOM     43  C   UNL A   1      40.968  25.724  28.684  1.00  0.00     0.074 A 
ATOM     44  C   UNL A   1      41.595  28.001  29.462  1.00  0.00     0.049 A 
ATOM     45  N   UNL A   1      41.892  24.988  29.197  1.00  0.00    -0.248 NA
ATOM     46  C   UNL A   1      40.197  25.012  27.663  1.00  0.00     0.031 C 
ATOM     47  C   UNL A   1      43.040  27.885  29.350  1.00  0.00     0.029 A 
ATOM     48  N   UNL A   1      41.437  29.240  30.080  1.00  0.00    -0.354 N 
ATOM     49  C   UNL A   1      42.035  23.886  28.375  1.00  0.00     0.074 A 
ATOM     50  C   UNL A   1      40.821  23.837  27.617  1.00  0.00     0.031 C 
ATOM     51  C   UNL A   1      43.601  28.798  30.170  1.00  0.00     0.029 A 
ATOM     52  C   UNL A   1      42.528  29.466  30.900  1.00  0.00     0.049 A 
ATOM     53  H   UNL A   1      40.677  29.852  29.954  1.00  0.00     0.167 HD
ATOM     54  C   UNL A   1      43.257  23.290  28.265  1.00  0.00     0.037 A 
ATOM     55  C   UNL A   1      42.376  29.544  32.254  1.00  0.00     0.037 A 
ATOM     56  C   UNL A   1      44.193  23.954  29.180  1.00  0.00     0.049 A 
ATOM     57  C   UNL A   1      43.034  28.334  32.895  1.00  0.00     0.074 A 
ATOM     58  C   UNL A   1      45.147  24.940  28.980  1.00  0.00     0.029 A 
ATOM     59  N   UNL A   1      43.936  23.937  30.550  1.00  0.00    -0.354 N 
ATOM     60  N   UNL A   1      43.305  27.227  32.251  1.00  0.00    -0.248 NA
ATOM     61  C   UNL A   1      43.499  28.297  34.275  1.00  0.00     0.031 C 
ATOM     62  C   UNL A   1      45.379  25.584  30.228  1.00  0.00     0.029 A 
ATOM     63  C   UNL A   1      44.589  24.975  31.190  1.00  0.00     0.049 A 
ATOM     64  H   UNL A   1      43.366  23.273  31.000  1.00  0.00     0.167 HD
ATOM     65  C   UNL A   1      43.999  26.372  33.061  1.00  0.00     0.074 A 
ATOM     66  C   UNL A   1      44.090  27.089  34.323  1.00  0.00     0.031 C 
ATOM     67  C   UNL A   1      44.459  25.155  32.634  1.00  0.00     0.037 A 
BRANCH  54  68
ATOM     68  C   UNL A   1      43.681  22.370  27.119  1.00  0.00     0.058 A 
ATOM     69  C   UNL A   1      43.012  21.143  26.904  1.00  0.00     0.135 A 
ATOM     70  C   UNL A   1      44.745  22.600  26.217  1.00  0.00     0.135 A 
ATOM     71  F   UNL A   1      41.937  20.800  27.626  1.00  0.00    -0.206 F 
ATOM     72  C   UNL A   1      43.404  20.209  25.935  1.00  0.00     0.059 A 
ATOM     73  C   UNL A   1      45.186  21.666  25.273  1.00  0.00     0.059 A 
ATOM     74  F   UNL A   1      45.385  23.768  26.148  1.00  0.00    -0.206 F 
ATOM     75  C   UNL A   1      44.507  20.470  25.133  1.00  0.00     0.060 A 
BRANCH  75  76
ATOM     76  S   UNL A   1      44.998  19.277  23.877  1.00  0.00     0.124 S 
ATOM     77  O   UNL A   1      44.275  18.079  24.292  1.00  0.00    -0.237 OA
ATOM     78  O   UNL A   1      44.527  19.913  22.651  1.00  0.00    -0.237 OA
ATOM     79  O   UNL A   1      46.449  19.205  24.022  1.00  0.00    -0.744 OA
ENDBRANCH  75  76
ENDBRANCH  54  68
BRANCH  55  80
ATOM     80  C   UNL A   1      41.166  30.297  32.738  1.00  0.00     0.058 A 
ATOM     81  C   UNL A   1      40.079  29.543  33.237  1.00  0.00     0.135 A 
ATOM     82  C   UNL A   1      41.130  31.672  33.009  1.00  0.00     0.135 A 
ATOM     83  F   UNL A   1      40.007  28.227  32.972  1.00  0.00    -0.206 F 
ATOM     84  C   UNL A   1      39.094  30.085  34.068  1.00  0.00     0.059 A 
ATOM     85  C   UNL A   1      40.141  32.246  33.837  1.00  0.00     0.059 A 
ATOM     86  F   UNL A   1      42.124  32.468  32.587  1.00  0.00    -0.206 F 
ATOM     87  C   UNL A   1      39.152  31.435  34.398  1.00  0.00     0.060 A 
BRANCH  87  88
ATOM     88  S   UNL A   1      38.024  32.058  35.680  1.00  0.00     0.124 S 
ATOM     89  O   UNL A   1      36.824  32.368  34.911  1.00  0.00    -0.237 OA
ATOM     90  O   UNL A   1      37.920  30.918  36.585  1.00  0.00    -0.237 OA
ATOM     91  O   UNL A   1      38.737  33.211  36.227  1.00  0.00    -0.744 OA
ENDBRANCH  87  88
ENDBRANCH  55  80
BRANCH  67  92
ATOM     92  C   UNL A   1      44.927  24.036  33.540  1.00  0.00     0.058 A 
ATOM     93  C   UNL A   1      46.253  23.883  33.973  1.00  0.00     0.135 A 
ATOM     94  C   UNL A   1      43.990  23.153  34.139  1.00  0.00     0.135 A 
ATOM     95  F   UNL A   1      47.219  24.735  33.597  1.00  0.00    -0.206 F 
ATOM     96  C   UNL A   1      46.642  22.875  34.853  1.00  0.00     0.059 A 
ATOM     97  C   UNL A   1      44.343  22.196  35.082  1.00  0.00     0.059 A 
ATOM     98  F   UNL A   1      42.683  23.199  33.842  1.00  0.00    -0.206 F 
ATOM     99  C   UNL A   1      45.680  22.034  35.401  1.00  0.00     0.060 A 
BRANCH  99 100
ATOM    100  S   UNL A   1      46.177  20.747  36.554  1.00  0.00     0.124 S 
ATOM    101  O   UNL A   1      45.497  19.584  35.993  1.00  0.00    -0.237 OA
ATOM    102  O   UNL A   1      47.632  20.749  36.430  1.00  0.00    -0.237 OA
ATOM    103  O   UNL A   1      45.664  21.226  37.833  1.00  0.00    -0.744 OA
ENDBRANCH  99 100
ENDBRANCH  67  92
ENDBRANCH  41  42
ENDBRANCH  34  36
ENDBRANCH  33  34
ENDBRANCH  32  33
ENDBRANCH   1  32
TORSDOF 18
ENDMDL
MODEL 2
REMARK VINA RESULT:     -14.9      4.638     11.647
REMARK SMILES Cc1ccc(NC(=O)c2ccccc2NC(=O)[C@H]2CCCC[C@H]2C(=O)OCCOC(=O)c2ccc(-c3c4nc(c(-c5c(F)cc(S(=O)(=O)[O-])cc5F)c5ccc([nH]5)c(-c5c(F)cc(S(=O)(=O)[O-])cc5F)c5nc(c(-c6c(F)cc(S(=O)(=O)[O-])cc6F)c6ccc3[nH]6)C=C5)C=C4)cc2)cc1
REMARK SMILES IDX 27 1 26 2 24 3 25 4 23 5 18 6 19 7 20 8 22 9 21 10 16 11
REMARK SMILES IDX 15 12 17 14 14 15 9 16 10 17 11 18 13 19 12 20 7 21 6 22
REMARK SMILES IDX 8 24 5 25 1 26 2 27 3 28 99 29 4 30 98 31 28 32 29 33 30 34
REMARK SMILES IDX 31 35 32 36 33 37 97 38 34 39 96 40 35 41 36 42 37 43 90 44
REMARK SMILES IDX 38 45 95 46 89 47 91 48 39 49 94 50 88 51 87 52 40 54 74 55
REMARK SMILES IDX 53 56 73 57 54 58 57 59 72 60 92 61 55 62 56 63 71 65 93 66
REMARK SMILES IDX 58 67 41 68 42 69 51 70 43 71 44 72 50 73 52 74 45 75 46 76
REMARK SMILES IDX 47 77 48 78 49 79 75 80 76 81 85 82 77 83 78 84 84 85 86 86
REMARK SMILES IDX 79 87 80 88 81 89 82 90 83 91 59 92 60 93 69 94 61 95 62 96
REMARK SMILES IDX 68 97 70 98 63 99 64 100 65 101 66 102 67 103
REMARK H PARENT 15 13 6 23 91 53 57 64
REMARK Flexibility Score: inf
ROOT
ATOM      1  C   UNL A   1      39.145  21.645  26.226  1.00  0.00     0.274 C 
ENDROOT
BRANCH   1   2
ATOM      2  O   UNL A   1      38.336  22.275  25.218  1.00  0.00    -0.462 OA
BRANCH   2   3
ATOM      3  C   UNL A   1      37.131  22.967  25.680  1.00  0.00     0.309 C 
ATOM      4  O   UNL A   1      37.566  24.087  26.075  1.00  0.00    -0.252 OA
BRANCH   3   5
ATOM      5  C   UNL A   1      35.107  22.097  25.659  1.00  0.00     0.111 C 
ATOM      6  C   UNL A   1      33.495  22.831  25.556  1.00  0.00     0.093 C 
ATOM      7  C   UNL A   1      32.246  21.948  25.780  1.00  0.00     0.014 C 
ATOM      8  C   UNL A   1      32.178  20.720  24.904  1.00  0.00     0.001 C 
ATOM      9  C   UNL A   1      34.639  20.423  25.091  1.00  0.00     0.016 C 
ATOM     10  C   UNL A   1      33.274  19.809  25.362  1.00  0.00     0.001 C 
BRANCH   6  11
ATOM     11  C   UNL A   1      33.169  23.601  24.294  1.00  0.00     0.228 C 
ATOM     12  N   UNL A   1      33.017  24.955  24.331  1.00  0.00    -0.325 N 
ATOM     13  H   UNL A   1      33.036  25.339  23.425  1.00  0.00     0.169 HD
ATOM     14  O   UNL A   1      33.189  23.053  23.188  1.00  0.00    -0.274 OA
BRANCH  12  15
ATOM     15  C   UNL A   1      32.840  25.959  25.306  1.00  0.00     0.054 A 
ATOM     16  C   UNL A   1      31.541  26.208  25.814  1.00  0.00     0.063 A 
ATOM     17  C   UNL A   1      31.326  27.359  26.603  1.00  0.00     0.016 A 
ATOM     18  C   UNL A   1      32.375  28.206  26.950  1.00  0.00     0.001 A 
ATOM     19  C   UNL A   1      33.897  26.750  25.778  1.00  0.00     0.027 A 
ATOM     20  C   UNL A   1      33.665  27.881  26.565  1.00  0.00     0.002 A 
BRANCH  16  21
ATOM     21  C   UNL A   1      30.293  25.454  25.465  1.00  0.00     0.257 C 
ATOM     22  N   UNL A   1      29.315  25.873  24.582  1.00  0.00    -0.322 N 
ATOM     23  H   UNL A   1      28.495  25.331  24.628  1.00  0.00     0.170 HD
ATOM     24  O   UNL A   1      30.070  24.399  26.070  1.00  0.00    -0.269 OA
BRANCH  22  25
ATOM     25  C   UNL A   1      29.241  26.906  23.631  1.00  0.00     0.041 A 
ATOM     26  C   UNL A   1      29.092  30.915  22.130  1.00  0.00     0.044 C 
ATOM     27  C   UNL A   1      29.093  29.455  22.480  1.00  0.00    -0.051 A 
ATOM     28  C   UNL A   1      30.282  28.716  22.418  1.00  0.00     0.005 A 
ATOM     29  C   UNL A   1      27.944  28.853  23.005  1.00  0.00     0.005 A 
ATOM     30  C   UNL A   1      30.352  27.434  22.975  1.00  0.00     0.026 A 
ATOM     31  C   UNL A   1      28.010  27.572  23.557  1.00  0.00     0.026 A 
ENDBRANCH  22  25
ENDBRANCH  16  21
ENDBRANCH  12  15
ENDBRANCH   6  11
ENDBRANCH   3   5
ENDBRANCH   2   3
ENDBRANCH   1   2
BRANCH   1  32
ATOM     32  C   UNL A   1      40.583  22.159  26.092  1.00  0.00     0.275 C 
BRANCH  32  33
ATOM     33  O   UNL A   1      41.174  22.670  27.321  1.00  0.00    -0.458 OA
BRANCH  33  34
ATOM     34  C   UNL A   1      41.649  23.937  27.500  1.00  0.00     0.338 C 
ATOM     35  O   UNL A   1      42.771  24.190  27.905  1.00  0.00    -0.246 OA
BRANCH  34  36
ATOM     36  C   UNL A   1      40.661  25.026  27.274  1.00  0.00     0.060 A 
ATOM     37  C   UNL A   1      41.131  26.356  26.172  1.00  0.00     0.016 A 
ATOM     38  C   UNL A   1      39.619  25.355  28.682  1.00  0.00     0.016 A 
ATOM     39  C   UNL A   1      40.693  28.071  26.615  1.00  0.00     0.010 A 
ATOM     40  C   UNL A   1      39.110  27.025  29.096  1.00  0.00     0.010 A 
ATOM     41  C   UNL A   1      39.780  28.393  28.153  1.00  0.00    -0.014 A 
BRANCH  41  42
ATOM     42  C   UNL A   1      39.925  29.583  28.974  1.00  0.00     0.031 A 
ATOM     43  C   UNL A   1      38.850  30.592  28.977  1.00  0.00     0.074 A 
ATOM     44  C   UNL A   1      40.956  29.596  29.848  1.00  0.00     0.049 A 
ATOM     45  N   UNL A   1      39.059  31.855  29.116  1.00  0.00    -0.248 NA
ATOM     46  C   UNL A   1      37.444  30.289  28.704  1.00  0.00     0.031 C 
ATOM     47  C   UNL A   1      41.198  30.514  30.948  1.00  0.00     0.029 A 
ATOM     48  N   UNL A   1      42.113  28.819  29.841  1.00  0.00    -0.354 N 
ATOM     49  C   UNL A   1      37.823  32.453  29.275  1.00  0.00     0.074 A 
ATOM     50  C   UNL A   1      36.887  31.497  28.767  1.00  0.00     0.031 C 
ATOM     51  C   UNL A   1      42.513  30.476  31.249  1.00  0.00     0.029 A 
ATOM     52  C   UNL A   1      43.168  29.595  30.286  1.00  0.00     0.049 A 
ATOM     53  H   UNL A   1      42.170  27.876  29.565  1.00  0.00     0.167 HD
ATOM     54  C   UNL A   1      37.722  33.584  30.032  1.00  0.00     0.037 A 
ATOM     55  C   UNL A   1      44.201  29.910  29.452  1.00  0.00     0.037 A 
ATOM     56  C   UNL A   1      39.065  33.983  30.469  1.00  0.00     0.049 A 
ATOM     57  C   UNL A   1      44.155  31.398  29.147  1.00  0.00     0.074 A 
ATOM     58  C   UNL A   1      39.756  33.781  31.655  1.00  0.00     0.029 A 
ATOM     59  N   UNL A   1      40.026  34.308  29.513  1.00  0.00    -0.354 N 
ATOM     60  N   UNL A   1      43.087  32.139  29.302  1.00  0.00    -0.248 NA
ATOM     61  C   UNL A   1      45.309  32.177  28.718  1.00  0.00     0.031 C 
ATOM     62  C   UNL A   1      41.148  33.884  31.373  1.00  0.00     0.029 A 
ATOM     63  C   UNL A   1      41.304  34.174  30.027  1.00  0.00     0.049 A 
ATOM     64  H   UNL A   1      39.820  34.596  28.594  1.00  0.00     0.167 HD
ATOM     65  C   UNL A   1      43.388  33.451  29.061  1.00  0.00     0.074 A 
ATOM     66  C   UNL A   1      44.794  33.420  28.692  1.00  0.00     0.031 C 
ATOM     67  C   UNL A   1      42.472  34.458  29.197  1.00  0.00     0.037 A 
BRANCH  54  68
ATOM     68  C   UNL A   1      36.426  34.111  30.647  1.00  0.00     0.058 A 
ATOM     69  C   UNL A   1      35.371  34.555  29.817  1.00  0.00     0.135 A 
ATOM     70  C   UNL A   1      36.153  34.244  32.028  1.00  0.00     0.135 A 
ATOM     71  F   UNL A   1      35.437  34.437  28.484  1.00  0.00    -0.206 F 
ATOM     72  C   UNL A   1      34.194  35.136  30.308  1.00  0.00     0.059 A 
ATOM     73  C   UNL A   1      35.008  34.861  32.543  1.00  0.00     0.059 A 
ATOM     74  F   UNL A   1      36.946  33.727  32.967  1.00  0.00    -0.206 F 
ATOM     75  C   UNL A   1      34.026  35.302  31.676  1.00  0.00     0.060 A 
BRANCH  75  76
ATOM     76  S   UNL A   1      32.505  36.033  32.306  1.00  0.00     0.124 S 
ATOM     77  O   UNL A   1      31.729  34.853  32.678  1.00  0.00    -0.237 OA
ATOM     78  O   UNL A   1      32.994  36.849  33.412  1.00  0.00    -0.237 OA
ATOM     79  O   UNL A   1      31.986  36.780  31.164  1.00  0.00    -0.744 OA
ENDBRANCH  75  76
ENDBRANCH  54  68
BRANCH  55  80
ATOM     80  C   UNL A   1      44.682  28.802  28.553  1.00  0.00     0.058 A 
ATOM     81  C   UNL A   1      44.357  28.882  27.179  1.00  0.00     0.135 A 
ATOM     82  C   UNL A   1      45.660  27.858  28.895  1.00  0.00     0.135 A 
ATOM     83  F   UNL A   1      43.388  29.721  26.775  1.00  0.00    -0.206 F 
ATOM     84  C   UNL A   1      45.050  28.178  26.190  1.00  0.00     0.059 A 
ATOM     85  C   UNL A   1      46.367  27.126  27.917  1.00  0.00     0.059 A 
ATOM     86  F   UNL A   1      46.044  27.717  30.172  1.00  0.00    -0.206 F 
ATOM     87  C   UNL A   1      46.084  27.326  26.563  1.00  0.00     0.060 A 
BRANCH  87  88
ATOM     88  S   UNL A   1      47.138  26.627  25.257  1.00  0.00     0.124 S 
ATOM     89  O   UNL A   1      47.567  27.819  24.535  1.00  0.00    -0.237 OA
ATOM     90  O   UNL A   1      48.174  25.943  26.025  1.00  0.00    -0.237 OA
ATOM     91  O   UNL A   1      46.231  25.742  24.529  1.00  0.00    -0.744 OA
ENDBRANCH  87  88
ENDBRANCH  55  80
BRANCH  67  92
ATOM     92  C   UNL A   1      42.627  35.856  28.636  1.00  0.00     0.058 A 
ATOM     93  C   UNL A   1      42.232  36.226  27.341  1.00  0.00     0.135 A 
ATOM     94  C   UNL A   1      43.045  36.926  29.470  1.00  0.00     0.135 A 
ATOM     95  F   UNL A   1      41.686  35.344  26.492  1.00  0.00    -0.206 F 
ATOM     96  C   UNL A   1      42.335  37.535  26.873  1.00  0.00     0.059 A 
ATOM     97  C   UNL A   1      43.076  38.250  29.050  1.00  0.00     0.059 A 
ATOM     98  F   UNL A   1      43.427  36.727  30.740  1.00  0.00    -0.206 F 
ATOM     99  C   UNL A   1      42.761  38.541  27.733  1.00  0.00     0.060 A 
BRANCH  99 100
ATOM    100  S   UNL A   1      42.872  40.233  27.138  1.00  0.00     0.124 S 
ATOM    101  O   UNL A   1      41.492  40.681  27.291  1.00  0.00    -0.237 OA
ATOM    102  O   UNL A   1      43.837  40.834  28.056  1.00  0.00    -0.237 OA
ATOM    103  O   UNL A   1      43.339  40.076  25.765  1.00  0.00    -0.744 OA
ENDBRANCH  99 100
ENDBRANCH  67  92
ENDBRANCH  41  42
ENDBRANCH  34  36
ENDBRANCH  33  34
ENDBRANCH  32  33
ENDBRANCH   1  32
TORSDOF 18
ENDMDL
MODEL 3
REMARK VINA RESULT:     -14.6      4.786     11.796
REMARK SMILES Cc1ccc(NC(=O)c2ccccc2NC(=O)[C@H]2CCCC[C@H]2C(=O)OCCOC(=O)c2ccc(-c3c4nc(c(-c5c(F)cc(S(=O)(=O)[O-])cc5F)c5ccc([nH]5)c(-c5c(F)cc(S(=O)(=O)[O-])cc5F)c5nc(c(-c6c(F)cc(S(=O)(=O)[O-])cc6F)c6ccc3[nH]6)C=C5)C=C4)cc2)cc1
REMARK SMILES IDX 27 1 26 2 24 3 25 4 23 5 18 6 19 7 20 8 22 9 21 10 16 11
REMARK SMILES IDX 15 12 17 14 14 15 9 16 10 17 11 18 13 19 12 20 7 21 6 22
REMARK SMILES IDX 8 24 5 25 1 26 2 27 3 28 99 29 4 30 98 31 28 32 29 33 30 34
REMARK SMILES IDX 31 35 32 36 33 37 97 38 34 39 96 40 35 41 36 42 37 43 90 44
REMARK SMILES IDX 38 45 95 46 89 47 91 48 39 49 94 50 88 51 87 52 40 54 74 55
REMARK SMILES IDX 53 56 73 57 54 58 57 59 72 60 92 61 55 62 56 63 71 65 93 66
REMARK SMILES IDX 58 67 41 68 42 69 51 70 43 71 44 72 50 73 52 74 45 75 46 76
REMARK SMILES IDX 47 77 48 78 49 79 75 80 76 81 85 82 77 83 78 84 84 85 86 86
REMARK SMILES IDX 79 87 80 88 81 89 82 90 83 91 59 92 60 93 69 94 61 95 62 96
REMARK SMILES IDX 68 97 70 98 63 99 64 100 65 101 66 102 67 103
REMARK H PARENT 15 13 6 23 91 53 57 64
REMARK Flexibility Score: inf
ROOT
ATOM      1  C   UNL A   1      38.513  21.781  26.203  1.00  0.00     0.274 C 
ENDROOT
BRANCH   1   2
ATOM      2  O   UNL A   1      37.663  21.615  25.057  1.00  0.00    -0.462 OA
BRANCH   2   3
ATOM      3  C   UNL A   1      36.219  21.618  25.303  1.00  0.00     0.309 C 
ATOM      4  O   UNL A   1      35.981  22.810  25.650  1.00  0.00    -0.252 OA
BRANCH   3   5
ATOM      5  C   UNL A   1      34.916  19.852  25.107  1.00  0.00     0.111 C 
ATOM      6  C   UNL A   1      33.155  19.681  24.965  1.00  0.00     0.093 C 
ATOM      7  C   UNL A   1      32.523  18.273  25.056  1.00  0.00     0.014 C 
ATOM      8  C   UNL A   1      33.098  17.261  24.093  1.00  0.00     0.001 C 
ATOM      9  C   UNL A   1      35.368  18.230  24.397  1.00  0.00     0.016 C 
ATOM     10  C   UNL A   1      34.499  16.990  24.546  1.00  0.00     0.001 C 
BRANCH   6  11
ATOM     11  C   UNL A   1      32.500  20.291  23.745  1.00  0.00     0.228 C 
ATOM     12  N   UNL A   1      32.324  21.639  23.657  1.00  0.00    -0.325 N 
ATOM     13  H   UNL A   1      32.103  21.909  22.736  1.00  0.00     0.169 HD
ATOM     14  O   UNL A   1      32.257  19.610  22.744  1.00  0.00    -0.274 OA
BRANCH  12  15
ATOM     15  C   UNL A   1      32.370  22.756  24.517  1.00  0.00     0.054 A 
ATOM     16  C   UNL A   1      33.042  23.929  24.092  1.00  0.00     0.063 A 
ATOM     17  C   UNL A   1      33.293  24.951  25.032  1.00  0.00     0.016 A 
ATOM     18  C   UNL A   1      32.828  24.861  26.342  1.00  0.00     0.001 A 
ATOM     19  C   UNL A   1      31.799  22.750  25.798  1.00  0.00     0.027 A 
ATOM     20  C   UNL A   1      32.052  23.775  26.713  1.00  0.00     0.002 A 
BRANCH  16  21
ATOM     21  C   UNL A   1      33.683  24.148  22.754  1.00  0.00     0.257 C 
ATOM     22  N   UNL A   1      33.436  25.210  21.904  1.00  0.00    -0.322 N 
ATOM     23  H   UNL A   1      33.812  25.079  21.003  1.00  0.00     0.170 HD
ATOM     24  O   UNL A   1      34.444  23.270  22.330  1.00  0.00    -0.269 OA
BRANCH  22  25
ATOM     25  C   UNL A   1      32.765  26.436  22.048  1.00  0.00     0.041 A 
ATOM     26  C   UNL A   1      30.577  29.557  24.001  1.00  0.00     0.044 C 
ATOM     27  C   UNL A   1      31.301  28.553  23.152  1.00  0.00    -0.051 A 
ATOM     28  C   UNL A   1      32.677  28.686  22.921  1.00  0.00     0.005 A 
ATOM     29  C   UNL A   1      30.644  27.402  22.704  1.00  0.00     0.005 A 
ATOM     30  C   UNL A   1      33.407  27.637  22.350  1.00  0.00     0.026 A 
ATOM     31  C   UNL A   1      31.369  26.356  22.129  1.00  0.00     0.026 A 
ENDBRANCH  22  25
ENDBRANCH  16  21
ENDBRANCH  12  15
ENDBRANCH   6  11
ENDBRANCH   3   5
ENDBRANCH   2   3
ENDBRANCH   1   2
BRANCH   1  32
ATOM     32  C   UNL A   1      39.783  22.521  25.769  1.00  0.00     0.275 C 
BRANCH  32  33
ATOM     33  O   UNL A   1      40.798  22.670  26.803  1.00  0.00    -0.458 OA
BRANCH  33  34
ATOM     34  C   UNL A   1      41.214  23.856  27.336  1.00  0.00     0.338 C 
ATOM     35  O   UNL A   1      42.177  23.966  28.076  1.00  0.00    -0.246 OA
BRANCH  34  36
ATOM     36  C   UNL A   1      40.343  25.025  27.045  1.00  0.00     0.060 A 
ATOM     37  C   UNL A   1      41.025  26.339  26.037  1.00  0.00     0.016 A 
ATOM     38  C   UNL A   1      39.190  25.405  28.351  1.00  0.00     0.016 A 
ATOM     39  C   UNL A   1      40.679  28.072  26.487  1.00  0.00     0.010 A 
ATOM     40  C   UNL A   1      38.773  27.100  28.764  1.00  0.00     0.010 A 
ATOM     41  C   UNL A   1      39.641  28.432  27.935  1.00  0.00    -0.014 A 
BRANCH  41  42
ATOM     42  C   UNL A   1      39.794  29.587  28.803  1.00  0.00     0.031 A 
ATOM     43  C   UNL A   1      38.730  30.607  28.838  1.00  0.00     0.074 A 
ATOM     44  C   UNL A   1      40.818  29.553  29.685  1.00  0.00     0.049 A 
ATOM     45  N   UNL A   1      38.952  31.861  29.028  1.00  0.00    -0.248 NA
ATOM     46  C   UNL A   1      37.322  30.332  28.543  1.00  0.00     0.031 C 
ATOM     47  C   UNL A   1      41.061  30.425  30.822  1.00  0.00     0.029 A 
ATOM     48  N   UNL A   1      41.965  28.764  29.656  1.00  0.00    -0.354 N 
ATOM     49  C   UNL A   1      37.723  32.467  29.201  1.00  0.00     0.074 A 
ATOM     50  C   UNL A   1      36.779  31.543  28.650  1.00  0.00     0.031 C 
ATOM     51  C   UNL A   1      42.374  30.359  31.131  1.00  0.00     0.029 A 
ATOM     52  C   UNL A   1      43.026  29.509  30.139  1.00  0.00     0.049 A 
ATOM     53  H   UNL A   1      42.014  27.832  29.343  1.00  0.00     0.167 HD
ATOM     54  C   UNL A   1      37.629  33.568  30.001  1.00  0.00     0.037 A 
ATOM     55  C   UNL A   1      44.069  29.845  29.325  1.00  0.00     0.037 A 
ATOM     56  C   UNL A   1      38.973  33.935  30.464  1.00  0.00     0.049 A 
ATOM     57  C   UNL A   1      44.042  31.343  29.079  1.00  0.00     0.074 A 
ATOM     58  C   UNL A   1      39.652  33.678  31.645  1.00  0.00     0.029 A 
ATOM     59  N   UNL A   1      39.944  34.285  29.527  1.00  0.00    -0.354 N 
ATOM     60  N   UNL A   1      42.982  32.090  29.254  1.00  0.00    -0.248 NA
ATOM     61  C   UNL A   1      45.208  32.125  28.689  1.00  0.00     0.031 C 
ATOM     62  C   UNL A   1      41.046  33.775  31.378  1.00  0.00     0.029 A 
ATOM     63  C   UNL A   1      41.216  34.116  30.045  1.00  0.00     0.049 A 
ATOM     64  H   UNL A   1      39.749  34.611  28.619  1.00  0.00     0.167 HD
ATOM     65  C   UNL A   1      43.299  33.407  29.067  1.00  0.00     0.074 A 
ATOM     66  C   UNL A   1      44.708  33.374  28.708  1.00  0.00     0.031 C 
ATOM     67  C   UNL A   1      42.394  34.419  29.236  1.00  0.00     0.037 A 
BRANCH  54  68
ATOM     68  C   UNL A   1      36.333  34.086  30.627  1.00  0.00     0.058 A 
ATOM     69  C   UNL A   1      35.293  34.582  29.808  1.00  0.00     0.135 A 
ATOM     70  C   UNL A   1      36.049  34.163  32.010  1.00  0.00     0.135 A 
ATOM     71  F   UNL A   1      35.370  34.521  28.471  1.00  0.00    -0.206 F 
ATOM     72  C   UNL A   1      34.119  35.157  30.313  1.00  0.00     0.059 A 
ATOM     73  C   UNL A   1      34.907  34.773  32.541  1.00  0.00     0.059 A 
ATOM     74  F   UNL A   1      36.826  33.593  32.933  1.00  0.00    -0.206 F 
ATOM     75  C   UNL A   1      33.941  35.265  31.685  1.00  0.00     0.060 A 
BRANCH  75  76
ATOM     76  S   UNL A   1      32.423  35.989  32.333  1.00  0.00     0.124 S 
ATOM     77  O   UNL A   1      32.928  36.895  33.359  1.00  0.00    -0.237 OA
ATOM     78  O   UNL A   1      31.857  36.621  31.146  1.00  0.00    -0.237 OA
ATOM     79  O   UNL A   1      31.682  34.835  32.836  1.00  0.00    -0.744 OA
ENDBRANCH  75  76
ENDBRANCH  54  68
BRANCH  55  80
ATOM     80  C   UNL A   1      44.544  28.767  28.387  1.00  0.00     0.058 A 
ATOM     81  C   UNL A   1      44.176  28.871  27.026  1.00  0.00     0.135 A 
ATOM     82  C   UNL A   1      45.550  27.835  28.678  1.00  0.00     0.135 A 
ATOM     83  F   UNL A   1      43.180  29.700  26.669  1.00  0.00    -0.206 F 
ATOM     84  C   UNL A   1      44.853  28.203  26.001  1.00  0.00     0.059 A 
ATOM     85  C   UNL A   1      46.242  27.139  27.663  1.00  0.00     0.059 A 
ATOM     86  F   UNL A   1      45.975  27.673  29.940  1.00  0.00    -0.206 F 
ATOM     87  C   UNL A   1      45.915  27.364  26.323  1.00  0.00     0.060 A 
BRANCH  87  88
ATOM     88  S   UNL A   1      46.942  26.716  24.971  1.00  0.00     0.124 S 
ATOM     89  O   UNL A   1      48.259  26.642  25.592  1.00  0.00    -0.237 OA
ATOM     90  O   UNL A   1      46.305  25.434  24.683  1.00  0.00    -0.237 OA
ATOM     91  O   UNL A   1      46.796  27.722  23.922  1.00  0.00    -0.744 OA
ENDBRANCH  87  88
ENDBRANCH  55  80
BRANCH  67  92
ATOM     92  C   UNL A   1      42.570  35.836  28.731  1.00  0.00     0.058 A 
ATOM     93  C   UNL A   1      43.186  36.857  29.471  1.00  0.00     0.135 A 
ATOM     94  C   UNL A   1      42.253  36.168  27.388  1.00  0.00     0.135 A 
ATOM     95  F   UNL A   1      43.664  36.643  30.706  1.00  0.00    -0.206 F 
ATOM     96  C   UNL A   1      43.385  38.138  28.957  1.00  0.00     0.059 A 
ATOM     97  C   UNL A   1      42.519  37.413  26.830  1.00  0.00     0.059 A 
ATOM     98  F   UNL A   1      41.684  35.285  26.554  1.00  0.00    -0.206 F 
ATOM     99  C   UNL A   1      43.046  38.408  27.636  1.00  0.00     0.060 A 
BRANCH  99 100
ATOM    100  S   UNL A   1      43.323  40.052  26.965  1.00  0.00     0.124 S 
ATOM    101  O   UNL A   1      43.820  40.759  28.141  1.00  0.00    -0.237 OA
ATOM    102  O   UNL A   1      44.306  39.808  25.913  1.00  0.00    -0.237 OA
ATOM    103  O   UNL A   1      42.000  40.451  26.497  1.00  0.00    -0.744 OA
ENDBRANCH  99 100
ENDBRANCH  67  92
ENDBRANCH  41  42
ENDBRANCH  34  36
ENDBRANCH  33  34
ENDBRANCH  32  33
ENDBRANCH   1  32
TORSDOF 18
ENDMDL
