MODEL 1
REMARK VINA RESULT:     -10.0      0.000      0.000
REMARK SMILES C#CC[N@@H+](CC(=O)NC(=O)NC)CC(=O)OCCOC(=O)c1ccc(-c2c3nc(c(-c4c(F)cc(S(=O)(=O)[O-])cc4F)c4ccc([nH]4)c(-c4c(F)cc(S(=O)(=O)[O-])cc4F)c4nc(c(-c5c(F)cc(S(=O)(=O)[O-])cc5F)c5ccc2[nH]5)C=C4)C=C3)cc1
REMARK SMILES IDX 17 1 16 2 14 3 15 4 13 5 4 6 3 8 2 9 1 10 5 11 6 12 7 13
REMARK SMILES IDX 8 14 9 15 10 17 11 18 12 19 18 21 19 22 20 23 21 24 22 25
REMARK SMILES IDX 23 26 87 27 24 28 86 29 25 30 26 31 27 32 80 33 28 34 85 35
REMARK SMILES IDX 79 36 81 37 29 38 84 39 78 40 77 41 30 43 64 44 43 45 63 46
REMARK SMILES IDX 44 47 47 48 62 49 82 50 45 51 46 52 61 54 83 55 48 56 31 57
REMARK SMILES IDX 32 58 41 59 33 60 34 61 40 62 42 63 35 64 36 65 37 66 38 67
REMARK SMILES IDX 39 68 65 69 66 70 75 71 67 72 68 73 74 74 76 75 69 76 70 77
REMARK SMILES IDX 71 78 72 79 73 80 49 81 50 82 59 83 51 84 52 85 58 86 60 87
REMARK SMILES IDX 53 88 54 89 55 90 56 91 57 92
REMARK H PARENT 4 7 8 16 11 20 81 42 47 53
REMARK Flexibility Score: inf
ROOT
ATOM      1  C   UNL A   1      45.301  24.758  25.748  1.00  0.00     0.274 C 
ENDROOT
BRANCH   1   2
ATOM      2  O   UNL A   1      44.876  23.442  26.163  1.00  0.00    -0.458 OA
BRANCH   2   3
ATOM      3  C   UNL A   1      44.463  22.613  25.176  1.00  0.00     0.361 C 
ATOM      4  O   UNL A   1      45.129  22.347  24.177  1.00  0.00    -0.245 OA
BRANCH   3   5
ATOM      5  C   UNL A   1      43.086  21.999  25.376  1.00  0.00     0.387 C 
BRANCH   5   6
ATOM      6  N   UNL A   1      42.916  20.832  26.253  1.00  0.00    -0.308 N 
ATOM      7  H   UNL A   1      43.847  20.830  26.671  1.00  0.00     0.349 HD
BRANCH   6   8
ATOM      8  C   UNL A   1      42.137  20.980  27.467  1.00  0.00     0.354 C 
BRANCH   8   9
ATOM      9  C   UNL A   1      42.439  22.221  28.291  1.00  0.00    -0.047 C 
ATOM     10  C   UNL A   1      42.699  23.286  28.997  1.00  0.00     0.010 C 
ENDBRANCH   8   9
ENDBRANCH   6   8
BRANCH   6  11
ATOM     11  C   UNL A   1      42.862  19.520  25.598  1.00  0.00     0.365 C 
BRANCH  11  12
ATOM     12  C   UNL A   1      43.773  18.414  26.132  1.00  0.00     0.283 C 
ATOM     13  O   UNL A   1      43.311  17.531  26.869  1.00  0.00    -0.268 OA
ATOM     14  N   UNL A   1      45.113  18.310  25.804  1.00  0.00    -0.273 N 
ATOM     15  C   UNL A   1      46.047  18.949  25.041  1.00  0.00     0.321 C 
ATOM     16  H   UNL A   1      45.518  17.538  26.262  1.00  0.00     0.175 HD
ATOM     17  O   UNL A   1      47.192  19.078  25.473  1.00  0.00    -0.248 OA
ATOM     18  N   UNL A   1      45.766  19.433  23.820  1.00  0.00    -0.341 N 
ATOM     19  C   UNL A   1      44.714  19.097  22.897  1.00  0.00     0.144 C 
ATOM     20  H   UNL A   1      46.381  20.135  23.504  1.00  0.00     0.165 HD
ENDBRANCH  11  12
ENDBRANCH   6  11
ENDBRANCH   5   6
ENDBRANCH   3   5
ENDBRANCH   2   3
ENDBRANCH   1   2
BRANCH   1  21
ATOM     21  C   UNL A   1      44.087  25.596  25.367  1.00  0.00     0.275 C 
BRANCH  21  22
ATOM     22  O   UNL A   1      43.056  25.394  26.347  1.00  0.00    -0.458 OA
BRANCH  22  23
ATOM     23  C   UNL A   1      41.894  26.040  26.100  1.00  0.00     0.338 C 
ATOM     24  O   UNL A   1      41.218  25.987  25.080  1.00  0.00    -0.246 OA
BRANCH  23  25
ATOM     25  C   UNL A   1      41.517  26.841  27.271  1.00  0.00     0.060 A 
ATOM     26  C   UNL A   1      42.144  28.063  27.517  1.00  0.00     0.016 A 
ATOM     27  C   UNL A   1      40.607  26.317  28.188  1.00  0.00     0.016 A 
ATOM     28  C   UNL A   1      41.914  28.725  28.721  1.00  0.00     0.010 A 
ATOM     29  C   UNL A   1      40.309  27.034  29.349  1.00  0.00     0.010 A 
ATOM     30  C   UNL A   1      40.978  28.233  29.645  1.00  0.00    -0.014 A 
BRANCH  30  31
ATOM     31  C   UNL A   1      40.681  28.970  30.907  1.00  0.00     0.031 A 
ATOM     32  C   UNL A   1      39.575  29.995  30.960  1.00  0.00     0.074 A 
ATOM     33  C   UNL A   1      41.437  28.749  32.002  1.00  0.00     0.049 A 
ATOM     34  N   UNL A   1      39.322  30.889  31.880  1.00  0.00    -0.248 NA
ATOM     35  C   UNL A   1      38.640  30.028  29.824  1.00  0.00     0.031 C 
ATOM     36  C   UNL A   1      42.516  27.763  32.105  1.00  0.00     0.029 A 
ATOM     37  N   UNL A   1      41.419  29.344  33.240  1.00  0.00    -0.354 N 
ATOM     38  C   UNL A   1      38.241  31.630  31.412  1.00  0.00     0.074 A 
ATOM     39  C   UNL A   1      37.875  31.070  30.128  1.00  0.00     0.031 C 
ATOM     40  C   UNL A   1      43.033  27.798  33.340  1.00  0.00     0.029 A 
ATOM     41  C   UNL A   1      42.397  28.876  34.086  1.00  0.00     0.049 A 
ATOM     42  H   UNL A   1      40.770  30.039  33.495  1.00  0.00     0.167 HD
ATOM     43  C   UNL A   1      37.621  32.684  31.996  1.00  0.00     0.037 A 
ATOM     44  C   UNL A   1      42.787  29.299  35.303  1.00  0.00     0.037 A 
ATOM     45  C   UNL A   1      37.965  33.204  33.295  1.00  0.00     0.049 A 
ATOM     46  C   UNL A   1      42.107  30.486  35.916  1.00  0.00     0.074 A 
ATOM     47  C   UNL A   1      37.381  34.255  33.985  1.00  0.00     0.029 A 
ATOM     48  N   UNL A   1      38.976  32.711  34.106  1.00  0.00    -0.354 N 
ATOM     49  N   UNL A   1      41.125  31.209  35.434  1.00  0.00    -0.248 NA
ATOM     50  C   UNL A   1      42.605  30.931  37.224  1.00  0.00     0.031 C 
ATOM     51  C   UNL A   1      38.061  34.415  35.198  1.00  0.00     0.029 A 
ATOM     52  C   UNL A   1      39.042  33.442  35.282  1.00  0.00     0.049 A 
ATOM     53  H   UNL A   1      39.561  31.951  33.880  1.00  0.00     0.167 HD
ATOM     54  C   UNL A   1      40.881  32.192  36.385  1.00  0.00     0.074 A 
ATOM     55  C   UNL A   1      41.807  31.960  37.475  1.00  0.00     0.031 C 
ATOM     56  C   UNL A   1      39.974  33.199  36.354  1.00  0.00     0.037 A 
BRANCH  43  57
ATOM     57  C   UNL A   1      36.531  33.378  31.225  1.00  0.00     0.058 A 
ATOM     58  C   UNL A   1      36.799  34.149  30.083  1.00  0.00     0.135 A 
ATOM     59  C   UNL A   1      35.188  33.221  31.606  1.00  0.00     0.135 A 
ATOM     60  F   UNL A   1      38.065  34.344  29.682  1.00  0.00    -0.206 F 
ATOM     61  C   UNL A   1      35.776  34.752  29.356  1.00  0.00     0.059 A 
ATOM     62  C   UNL A   1      34.147  33.799  30.883  1.00  0.00     0.059 A 
ATOM     63  F   UNL A   1      34.873  32.495  32.690  1.00  0.00    -0.206 F 
ATOM     64  C   UNL A   1      34.453  34.573  29.764  1.00  0.00     0.060 A 
BRANCH  64  65
ATOM     65  S   UNL A   1      33.134  35.351  28.806  1.00  0.00     0.124 S 
ATOM     66  O   UNL A   1      32.290  35.897  29.864  1.00  0.00    -0.237 OA
ATOM     67  O   UNL A   1      33.862  36.332  28.008  1.00  0.00    -0.237 OA
ATOM     68  O   UNL A   1      32.558  34.240  28.055  1.00  0.00    -0.744 OA
ENDBRANCH  64  65
ENDBRANCH  43  57
BRANCH  44  69
ATOM     69  C   UNL A   1      43.909  28.610  35.991  1.00  0.00     0.058 A 
ATOM     70  C   UNL A   1      45.226  29.073  35.858  1.00  0.00     0.135 A 
ATOM     71  C   UNL A   1      43.681  27.515  36.840  1.00  0.00     0.135 A 
ATOM     72  F   UNL A   1      45.494  30.110  35.049  1.00  0.00    -0.206 F 
ATOM     73  C   UNL A   1      46.277  28.478  36.546  1.00  0.00     0.059 A 
ATOM     74  C   UNL A   1      44.712  26.921  37.559  1.00  0.00     0.059 A 
ATOM     75  F   UNL A   1      42.436  27.046  37.012  1.00  0.00    -0.206 F 
ATOM     76  C   UNL A   1      46.009  27.408  37.402  1.00  0.00     0.060 A 
BRANCH  76  77
ATOM     77  S   UNL A   1      47.365  26.697  38.359  1.00  0.00     0.124 S 
ATOM     78  O   UNL A   1      46.658  25.749  39.211  1.00  0.00    -0.237 OA
ATOM     79  O   UNL A   1      48.208  26.117  37.318  1.00  0.00    -0.237 OA
ATOM     80  O   UNL A   1      47.936  27.856  39.040  1.00  0.00    -0.744 OA
ENDBRANCH  76  77
ENDBRANCH  44  69
BRANCH  56  81
ATOM     81  C   UNL A   1      39.924  34.107  37.549  1.00  0.00     0.058 A 
ATOM     82  C   UNL A   1      39.174  33.777  38.688  1.00  0.00     0.135 A 
ATOM     83  C   UNL A   1      40.655  35.303  37.563  1.00  0.00     0.135 A 
ATOM     84  F   UNL A   1      38.450  32.647  38.718  1.00  0.00    -0.206 F 
ATOM     85  C   UNL A   1      39.130  34.619  39.794  1.00  0.00     0.059 A 
ATOM     86  C   UNL A   1      40.643  36.150  38.667  1.00  0.00     0.059 A 
ATOM     87  F   UNL A   1      41.393  35.658  36.499  1.00  0.00    -0.206 F 
ATOM     88  C   UNL A   1      39.866  35.806  39.772  1.00  0.00     0.060 A 
BRANCH  88  89
ATOM     89  S   UNL A   1      39.819  36.885  41.219  1.00  0.00     0.124 S 
ATOM     90  O   UNL A   1      41.237  37.012  41.537  1.00  0.00    -0.237 OA
ATOM     91  O   UNL A   1      39.176  38.086  40.695  1.00  0.00    -0.237 OA
ATOM     92  O   UNL A   1      39.024  36.126  42.180  1.00  0.00    -0.744 OA
ENDBRANCH  88  89
ENDBRANCH  56  81
ENDBRANCH  30  31
ENDBRANCH  23  25
ENDBRANCH  22  23
ENDBRANCH  21  22
ENDBRANCH   1  21
TORSDOF 19
ENDMDL
MODEL 2
REMARK VINA RESULT:      -9.9      6.439     14.871
REMARK SMILES C#CC[N@@H+](CC(=O)NC(=O)NC)CC(=O)OCCOC(=O)c1ccc(-c2c3nc(c(-c4c(F)cc(S(=O)(=O)[O-])cc4F)c4ccc([nH]4)c(-c4c(F)cc(S(=O)(=O)[O-])cc4F)c4nc(c(-c5c(F)cc(S(=O)(=O)[O-])cc5F)c5ccc2[nH]5)C=C4)C=C3)cc1
REMARK SMILES IDX 17 1 16 2 14 3 15 4 13 5 4 6 3 8 2 9 1 10 5 11 6 12 7 13
REMARK SMILES IDX 8 14 9 15 10 17 11 18 12 19 18 21 19 22 20 23 21 24 22 25
REMARK SMILES IDX 23 26 87 27 24 28 86 29 25 30 26 31 27 32 80 33 28 34 85 35
REMARK SMILES IDX 79 36 81 37 29 38 84 39 78 40 77 41 30 43 64 44 43 45 63 46
REMARK SMILES IDX 44 47 47 48 62 49 82 50 45 51 46 52 61 54 83 55 48 56 31 57
REMARK SMILES IDX 32 58 41 59 33 60 34 61 40 62 42 63 35 64 36 65 37 66 38 67
REMARK SMILES IDX 39 68 65 69 66 70 75 71 67 72 68 73 74 74 76 75 69 76 70 77
REMARK SMILES IDX 71 78 72 79 73 80 49 81 50 82 59 83 51 84 52 85 58 86 60 87
REMARK SMILES IDX 53 88 54 89 55 90 56 91 57 92
REMARK H PARENT 4 7 8 16 11 20 81 42 47 53
REMARK Flexibility Score: inf
ROOT
ATOM      1  C   UNL A   1      36.827  33.618  33.980  1.00  0.00     0.274 C 
ENDROOT
BRANCH   1   2
ATOM      2  O   UNL A   1      35.504  33.045  34.059  1.00  0.00    -0.458 OA
BRANCH   2   3
ATOM      3  C   UNL A   1      34.668  33.339  33.035  1.00  0.00     0.361 C 
ATOM      4  O   UNL A   1      33.658  32.692  32.764  1.00  0.00    -0.245 OA
BRANCH   3   5
ATOM      5  C   UNL A   1      35.052  34.559  32.212  1.00  0.00     0.387 C 
BRANCH   5   6
ATOM      6  N   UNL A   1      34.864  34.558  30.755  1.00  0.00    -0.308 N 
ATOM      7  H   UNL A   1      35.478  35.341  30.530  1.00  0.00     0.349 HD
BRANCH   6   8
ATOM      8  C   UNL A   1      35.526  33.535  29.967  1.00  0.00     0.354 C 
BRANCH   8   9
ATOM      9  C   UNL A   1      36.958  33.846  29.564  1.00  0.00    -0.047 C 
ATOM     10  C   UNL A   1      38.186  34.113  29.218  1.00  0.00     0.010 C 
ENDBRANCH   8   9
ENDBRANCH   6   8
BRANCH   6  11
ATOM     11  C   UNL A   1      33.564  35.025  30.259  1.00  0.00     0.365 C 
BRANCH  11  12
ATOM     12  C   UNL A   1      33.394  36.519  29.986  1.00  0.00     0.283 C 
ATOM     13  O   UNL A   1      33.267  36.927  28.823  1.00  0.00    -0.268 OA
ATOM     14  N   UNL A   1      33.335  37.472  30.988  1.00  0.00    -0.273 N 
ATOM     15  C   UNL A   1      33.369  37.549  32.350  1.00  0.00     0.321 C 
ATOM     16  H   UNL A   1      33.236  38.371  30.598  1.00  0.00     0.175 HD
ATOM     17  O   UNL A   1      33.982  38.473  32.885  1.00  0.00    -0.248 OA
ATOM     18  N   UNL A   1      32.744  36.656  33.134  1.00  0.00    -0.341 N 
ATOM     19  C   UNL A   1      31.654  35.759  32.851  1.00  0.00     0.144 C 
ATOM     20  H   UNL A   1      33.088  36.607  34.056  1.00  0.00     0.165 HD
ENDBRANCH  11  12
ENDBRANCH   6  11
ENDBRANCH   5   6
ENDBRANCH   3   5
ENDBRANCH   2   3
ENDBRANCH   1   2
BRANCH   1  21
ATOM     21  C   UNL A   1      37.843  32.530  33.658  1.00  0.00     0.275 C 
BRANCH  21  22
ATOM     22  O   UNL A   1      37.664  32.113  32.295  1.00  0.00    -0.458 OA
BRANCH  22  23
ATOM     23  C   UNL A   1      37.601  30.777  32.106  1.00  0.00     0.338 C 
ATOM     24  O   UNL A   1      36.734  30.011  32.507  1.00  0.00    -0.246 OA
BRANCH  23  25
ATOM     25  C   UNL A   1      38.752  30.336  31.308  1.00  0.00     0.060 A 
ATOM     26  C   UNL A   1      39.843  29.728  31.926  1.00  0.00     0.016 A 
ATOM     27  C   UNL A   1      38.787  30.633  29.946  1.00  0.00     0.016 A 
ATOM     28  C   UNL A   1      41.003  29.483  31.193  1.00  0.00     0.010 A 
ATOM     29  C   UNL A   1      39.916  30.296  29.196  1.00  0.00     0.010 A 
ATOM     30  C   UNL A   1      41.050  29.742  29.813  1.00  0.00    -0.014 A 
BRANCH  30  31
ATOM     31  C   UNL A   1      42.264  29.423  29.011  1.00  0.00     0.031 A 
ATOM     32  C   UNL A   1      42.472  28.041  28.440  1.00  0.00     0.074 A 
ATOM     33  C   UNL A   1      43.210  30.368  28.828  1.00  0.00     0.049 A 
ATOM     34  N   UNL A   1      43.552  27.515  27.923  1.00  0.00    -0.248 NA
ATOM     35  C   UNL A   1      41.318  27.128  28.465  1.00  0.00     0.031 C 
ATOM     36  C   UNL A   1      43.126  31.755  29.293  1.00  0.00     0.029 A 
ATOM     37  N   UNL A   1      44.434  30.304  28.208  1.00  0.00    -0.354 N 
ATOM     38  C   UNL A   1      43.231  26.196  27.618  1.00  0.00     0.074 A 
ATOM     39  C   UNL A   1      41.847  26.005  27.995  1.00  0.00     0.031 C 
ATOM     40  C   UNL A   1      44.229  32.416  28.916  1.00  0.00     0.029 A 
ATOM     41  C   UNL A   1      45.143  31.480  28.276  1.00  0.00     0.049 A 
ATOM     42  H   UNL A   1      44.770  29.495  27.758  1.00  0.00     0.167 HD
ATOM     43  C   UNL A   1      44.023  25.235  27.083  1.00  0.00     0.037 A 
ATOM     44  C   UNL A   1      46.410  31.768  27.922  1.00  0.00     0.037 A 
ATOM     45  C   UNL A   1      45.387  25.450  26.671  1.00  0.00     0.049 A 
ATOM     46  C   UNL A   1      47.276  30.681  27.361  1.00  0.00     0.074 A 
ATOM     47  C   UNL A   1      46.266  24.546  26.096  1.00  0.00     0.029 A 
ATOM     48  N   UNL A   1      46.070  26.653  26.779  1.00  0.00    -0.354 N 
ATOM     49  N   UNL A   1      46.974  29.426  27.132  1.00  0.00    -0.248 NA
ATOM     50  C   UNL A   1      48.662  31.042  27.035  1.00  0.00     0.031 C 
ATOM     51  C   UNL A   1      47.489  25.194  25.888  1.00  0.00     0.029 A 
ATOM     52  C   UNL A   1      47.361  26.511  26.295  1.00  0.00     0.049 A 
ATOM     53  H   UNL A   1      45.692  27.485  27.145  1.00  0.00     0.167 HD
ATOM     54  C   UNL A   1      48.132  28.847  26.628  1.00  0.00     0.074 A 
ATOM     55  C   UNL A   1      49.133  29.893  26.570  1.00  0.00     0.031 C 
ATOM     56  C   UNL A   1      48.346  27.562  26.250  1.00  0.00     0.037 A 
BRANCH  43  57
ATOM     57  C   UNL A   1      43.455  23.848  26.947  1.00  0.00     0.058 A 
ATOM     58  C   UNL A   1      43.381  22.962  28.032  1.00  0.00     0.135 A 
ATOM     59  C   UNL A   1      42.926  23.421  25.717  1.00  0.00     0.135 A 
ATOM     60  F   UNL A   1      43.884  23.313  29.227  1.00  0.00    -0.206 F 
ATOM     61  C   UNL A   1      42.816  21.696  27.900  1.00  0.00     0.059 A 
ATOM     62  C   UNL A   1      42.339  22.167  25.567  1.00  0.00     0.059 A 
ATOM     63  F   UNL A   1      42.971  24.227  24.645  1.00  0.00    -0.206 F 
ATOM     64  C   UNL A   1      42.298  21.306  26.663  1.00  0.00     0.060 A 
BRANCH  64  65
ATOM     65  S   UNL A   1      41.558  19.666  26.508  1.00  0.00     0.124 S 
ATOM     66  O   UNL A   1      42.206  18.950  27.602  1.00  0.00    -0.237 OA
ATOM     67  O   UNL A   1      40.137  19.945  26.689  1.00  0.00    -0.237 OA
ATOM     68  O   UNL A   1      41.944  19.243  25.166  1.00  0.00    -0.744 OA
ENDBRANCH  64  65
ENDBRANCH  43  57
BRANCH  44  69
ATOM     69  C   UNL A   1      46.934  33.142  28.135  1.00  0.00     0.058 A 
ATOM     70  C   UNL A   1      46.760  34.136  27.162  1.00  0.00     0.135 A 
ATOM     71  C   UNL A   1      47.564  33.503  29.337  1.00  0.00     0.135 A 
ATOM     72  F   UNL A   1      46.173  33.835  25.994  1.00  0.00    -0.206 F 
ATOM     73  C   UNL A   1      47.188  35.442  27.374  1.00  0.00     0.059 A 
ATOM     74  C   UNL A   1      47.977  34.808  29.582  1.00  0.00     0.059 A 
ATOM     75  F   UNL A   1      47.739  32.590  30.305  1.00  0.00    -0.206 F 
ATOM     76  C   UNL A   1      47.787  35.770  28.592  1.00  0.00     0.060 A 
BRANCH  76  77
ATOM     77  S   UNL A   1      48.262  37.486  28.893  1.00  0.00     0.124 S 
ATOM     78  O   UNL A   1      47.880  38.121  27.636  1.00  0.00    -0.237 OA
ATOM     79  O   UNL A   1      47.451  37.833  30.056  1.00  0.00    -0.237 OA
ATOM     80  O   UNL A   1      49.697  37.396  29.146  1.00  0.00    -0.744 OA
ENDBRANCH  76  77
ENDBRANCH  44  69
BRANCH  56  81
ATOM     81  C   UNL A   1      49.709  27.228  25.717  1.00  0.00     0.058 A 
ATOM     82  C   UNL A   1      49.986  27.266  24.342  1.00  0.00     0.135 A 
ATOM     83  C   UNL A   1      50.751  26.893  26.592  1.00  0.00     0.135 A 
ATOM     84  F   UNL A   1      49.018  27.571  23.464  1.00  0.00    -0.206 F 
ATOM     85  C   UNL A   1      51.250  26.956  23.850  1.00  0.00     0.059 A 
ATOM     86  C   UNL A   1      52.028  26.601  26.125  1.00  0.00     0.059 A 
ATOM     87  F   UNL A   1      50.536  26.850  27.917  1.00  0.00    -0.206 F 
ATOM     88  C   UNL A   1      52.265  26.622  24.751  1.00  0.00     0.060 A 
BRANCH  88  89
ATOM     89  S   UNL A   1      53.907  26.240  24.106  1.00  0.00     0.124 S 
ATOM     90  O   UNL A   1      53.615  25.973  22.702  1.00  0.00    -0.237 OA
ATOM     91  O   UNL A   1      54.646  27.470  24.377  1.00  0.00    -0.237 OA
ATOM     92  O   UNL A   1      54.319  25.083  24.895  1.00  0.00    -0.744 OA
ENDBRANCH  88  89
ENDBRANCH  56  81
ENDBRANCH  30  31
ENDBRANCH  23  25
ENDBRANCH  22  23
ENDBRANCH  21  22
ENDBRANCH   1  21
TORSDOF 19
ENDMDL
MODEL 3
REMARK VINA RESULT:      -9.8      1.031      8.523
REMARK SMILES C#CC[N@@H+](CC(=O)NC(=O)NC)CC(=O)OCCOC(=O)c1ccc(-c2c3nc(c(-c4c(F)cc(S(=O)(=O)[O-])cc4F)c4ccc([nH]4)c(-c4c(F)cc(S(=O)(=O)[O-])cc4F)c4nc(c(-c5c(F)cc(S(=O)(=O)[O-])cc5F)c5ccc2[nH]5)C=C4)C=C3)cc1
REMARK SMILES IDX 17 1 16 2 14 3 15 4 13 5 4 6 3 8 2 9 1 10 5 11 6 12 7 13
REMARK SMILES IDX 8 14 9 15 10 17 11 18 12 19 18 21 19 22 20 23 21 24 22 25
REMARK SMILES IDX 23 26 87 27 24 28 86 29 25 30 26 31 27 32 80 33 28 34 85 35
REMARK SMILES IDX 79 36 81 37 29 38 84 39 78 40 77 41 30 43 64 44 43 45 63 46
REMARK SMILES IDX 44 47 47 48 62 49 82 50 45 51 46 52 61 54 83 55 48 56 31 57
REMARK SMILES IDX 32 58 41 59 33 60 34 61 40 62 42 63 35 64 36 65 37 66 38 67
REMARK SMILES IDX 39 68 65 69 66 70 75 71 67 72 68 73 74 74 76 75 69 76 70 77
REMARK SMILES IDX 71 78 72 79 73 80 49 81 50 82 59 83 51 84 52 85 58 86 60 87
REMARK SMILES IDX 53 88 54 89 55 90 56 91 57 92
REMARK H PARENT 4 7 8 16 11 20 81 42 47 53
REMARK Flexibility Score: inf
ROOT
ATOM      1  C   UNL A   1      43.754  25.731  25.112  1.00  0.00     0.274 C 
ENDROOT
BRANCH   1   2
ATOM      2  O   UNL A   1      44.564  25.648  26.305  1.00  0.00    -0.458 OA
BRANCH   2   3
ATOM      3  C   UNL A   1      45.654  24.849  26.227  1.00  0.00     0.361 C 
ATOM      4  O   UNL A   1      46.584  25.029  25.443  1.00  0.00    -0.245 OA
BRANCH   3   5
ATOM      5  C   UNL A   1      45.674  23.680  27.199  1.00  0.00     0.387 C 
BRANCH   5   6
ATOM      6  N   UNL A   1      45.084  22.390  26.817  1.00  0.00    -0.308 N 
ATOM      7  H   UNL A   1      45.433  21.835  27.599  1.00  0.00     0.349 HD
BRANCH   6   8
ATOM      8  C   UNL A   1      43.663  22.183  27.025  1.00  0.00     0.354 C 
BRANCH   8   9
ATOM      9  C   UNL A   1      43.058  22.941  28.196  1.00  0.00    -0.047 C 
ATOM     10  C   UNL A   1      42.539  23.591  29.200  1.00  0.00     0.010 C 
ENDBRANCH   8   9
ENDBRANCH   6   8
BRANCH   6  11
ATOM     11  C   UNL A   1      45.678  21.711  25.659  1.00  0.00     0.365 C 
BRANCH  11  12
ATOM     12  C   UNL A   1      44.742  21.232  24.549  1.00  0.00     0.283 C 
ATOM     13  O   UNL A   1      44.489  21.972  23.588  1.00  0.00    -0.268 OA
ATOM     14  N   UNL A   1      44.171  19.972  24.529  1.00  0.00    -0.273 N 
ATOM     15  C   UNL A   1      44.163  18.825  25.269  1.00  0.00     0.321 C 
ATOM     16  H   UNL A   1      43.595  19.871  23.738  1.00  0.00     0.175 HD
ATOM     17  O   UNL A   1      43.108  18.205  25.407  1.00  0.00    -0.248 OA
ATOM     18  N   UNL A   1      45.273  18.335  25.845  1.00  0.00    -0.341 N 
ATOM     19  C   UNL A   1      46.663  18.562  25.547  1.00  0.00     0.144 C 
ATOM     20  H   UNL A   1      45.109  17.719  26.596  1.00  0.00     0.165 HD
ENDBRANCH  11  12
ENDBRANCH   6  11
ENDBRANCH   5   6
ENDBRANCH   3   5
ENDBRANCH   2   3
ENDBRANCH   1   2
BRANCH   1  21
ATOM     21  C   UNL A   1      42.624  24.712  25.181  1.00  0.00     0.275 C 
BRANCH  21  22
ATOM     22  O   UNL A   1      41.370  25.410  25.241  1.00  0.00    -0.458 OA
BRANCH  22  23
ATOM     23  C   UNL A   1      40.539  25.016  26.231  1.00  0.00     0.338 C 
ATOM     24  O   UNL A   1      39.935  23.955  26.314  1.00  0.00    -0.246 OA
BRANCH  23  25
ATOM     25  C   UNL A   1      40.458  26.066  27.254  1.00  0.00     0.060 A 
ATOM     26  C   UNL A   1      41.189  27.245  27.110  1.00  0.00     0.016 A 
ATOM     27  C   UNL A   1      39.730  25.825  28.419  1.00  0.00     0.016 A 
ATOM     28  C   UNL A   1      41.252  28.151  28.167  1.00  0.00     0.010 A 
ATOM     29  C   UNL A   1      39.719  26.782  29.435  1.00  0.00     0.010 A 
ATOM     30  C   UNL A   1      40.501  27.945  29.336  1.00  0.00    -0.014 A 
BRANCH  30  31
ATOM     31  C   UNL A   1      40.514  28.942  30.444  1.00  0.00     0.031 A 
ATOM     32  C   UNL A   1      41.482  28.805  31.593  1.00  0.00     0.074 A 
ATOM     33  C   UNL A   1      39.622  29.954  30.442  1.00  0.00     0.049 A 
ATOM     34  N   UNL A   1      41.491  29.426  32.745  1.00  0.00    -0.248 NA
ATOM     35  C   UNL A   1      42.577  27.835  31.432  1.00  0.00     0.031 C 
ATOM     36  C   UNL A   1      38.651  30.228  29.379  1.00  0.00     0.029 A 
ATOM     37  N   UNL A   1      39.380  30.939  31.369  1.00  0.00    -0.354 N 
ATOM     38  C   UNL A   1      42.547  28.883  33.468  1.00  0.00     0.074 A 
ATOM     39  C   UNL A   1      43.169  27.889  32.619  1.00  0.00     0.031 C 
ATOM     40  C   UNL A   1      37.944  31.322  29.697  1.00  0.00     0.029 A 
ATOM     41  C   UNL A   1      38.336  31.766  31.027  1.00  0.00     0.049 A 
ATOM     42  H   UNL A   1      39.903  31.041  32.196  1.00  0.00     0.167 HD
ATOM     43  C   UNL A   1      42.952  29.181  34.728  1.00  0.00     0.037 A 
ATOM     44  C   UNL A   1      37.715  32.736  31.724  1.00  0.00     0.037 A 
ATOM     45  C   UNL A   1      42.352  30.204  35.547  1.00  0.00     0.049 A 
ATOM     46  C   UNL A   1      38.159  33.027  33.125  1.00  0.00     0.074 A 
ATOM     47  C   UNL A   1      42.705  30.599  36.828  1.00  0.00     0.029 A 
ATOM     48  N   UNL A   1      41.284  31.002  35.166  1.00  0.00    -0.354 N 
ATOM     49  N   UNL A   1      39.123  32.465  33.815  1.00  0.00    -0.248 NA
ATOM     50  C   UNL A   1      37.417  34.064  33.853  1.00  0.00     0.031 C 
ATOM     51  C   UNL A   1      41.828  31.612  37.232  1.00  0.00     0.029 A 
ATOM     52  C   UNL A   1      40.956  31.876  36.190  1.00  0.00     0.049 A 
ATOM     53  H   UNL A   1      40.826  30.954  34.296  1.00  0.00     0.167 HD
ATOM     54  C   UNL A   1      39.108  33.086  35.058  1.00  0.00     0.074 A 
ATOM     55  C   UNL A   1      38.051  34.076  35.018  1.00  0.00     0.031 C 
ATOM     56  C   UNL A   1      39.897  32.853  36.135  1.00  0.00     0.037 A 
BRANCH  43  57
ATOM     57  C   UNL A   1      44.070  28.367  35.321  1.00  0.00     0.058 A 
ATOM     58  C   UNL A   1      45.414  28.754  35.210  1.00  0.00     0.135 A 
ATOM     59  C   UNL A   1      43.783  27.209  36.062  1.00  0.00     0.135 A 
ATOM     60  F   UNL A   1      45.747  29.845  34.502  1.00  0.00    -0.206 F 
ATOM     61  C   UNL A   1      46.435  28.013  35.799  1.00  0.00     0.059 A 
ATOM     62  C   UNL A   1      44.785  26.463  36.676  1.00  0.00     0.059 A 
ATOM     63  F   UNL A   1      42.514  26.792  36.200  1.00  0.00    -0.206 F 
ATOM     64  C   UNL A   1      46.112  26.867  36.529  1.00  0.00     0.060 A 
BRANCH  64  65
ATOM     65  S   UNL A   1      47.444  25.921  37.299  1.00  0.00     0.124 S 
ATOM     66  O   UNL A   1      48.608  26.412  36.567  1.00  0.00    -0.237 OA
ATOM     67  O   UNL A   1      47.356  26.332  38.696  1.00  0.00    -0.237 OA
ATOM     68  O   UNL A   1      47.075  24.534  37.032  1.00  0.00    -0.744 OA
ENDBRANCH  64  65
ENDBRANCH  43  57
BRANCH  44  69
ATOM     69  C   UNL A   1      36.578  33.466  31.106  1.00  0.00     0.058 A 
ATOM     70  C   UNL A   1      36.785  34.341  30.030  1.00  0.00     0.135 A 
ATOM     71  C   UNL A   1      35.258  33.259  31.540  1.00  0.00     0.135 A 
ATOM     72  F   UNL A   1      38.029  34.578  29.589  1.00  0.00    -0.206 F 
ATOM     73  C   UNL A   1      35.723  34.981  29.401  1.00  0.00     0.059 A 
ATOM     74  C   UNL A   1      34.179  33.867  30.909  1.00  0.00     0.059 A 
ATOM     75  F   UNL A   1      35.008  32.418  32.555  1.00  0.00    -0.206 F 
ATOM     76  C   UNL A   1      34.422  34.731  29.842  1.00  0.00     0.060 A 
BRANCH  76  77
ATOM     77  S   UNL A   1      33.043  35.498  28.965  1.00  0.00     0.124 S 
ATOM     78  O   UNL A   1      33.724  36.538  28.201  1.00  0.00    -0.237 OA
ATOM     79  O   UNL A   1      32.509  34.383  28.191  1.00  0.00    -0.237 OA
ATOM     80  O   UNL A   1      32.181  35.969  30.045  1.00  0.00    -0.744 OA
ENDBRANCH  76  77
ENDBRANCH  44  69
BRANCH  56  81
ATOM     81  C   UNL A   1      39.660  33.704  37.348  1.00  0.00     0.058 A 
ATOM     82  C   UNL A   1      38.797  33.291  38.376  1.00  0.00     0.135 A 
ATOM     83  C   UNL A   1      40.321  34.932  37.495  1.00  0.00     0.135 A 
ATOM     84  F   UNL A   1      38.134  32.128  38.276  1.00  0.00    -0.206 F 
ATOM     85  C   UNL A   1      38.580  34.082  39.499  1.00  0.00     0.059 A 
ATOM     86  C   UNL A   1      40.135  35.729  38.620  1.00  0.00     0.059 A 
ATOM     87  F   UNL A   1      41.160  35.366  36.541  1.00  0.00    -0.206 F 
ATOM     88  C   UNL A   1      39.252  35.302  39.610  1.00  0.00     0.060 A 
BRANCH  88  89
ATOM     89  S   UNL A   1      38.979  36.313  41.080  1.00  0.00     0.124 S 
ATOM     90  O   UNL A   1      40.260  36.187  41.766  1.00  0.00    -0.237 OA
ATOM     91  O   UNL A   1      38.692  37.626  40.510  1.00  0.00    -0.237 OA
ATOM     92  O   UNL A   1      37.847  35.661  41.734  1.00  0.00    -0.744 OA
ENDBRANCH  88  89
ENDBRANCH  56  81
ENDBRANCH  30  31
ENDBRANCH  23  25
ENDBRANCH  22  23
ENDBRANCH  21  22
ENDBRANCH   1  21
TORSDOF 19
ENDMDL
