MODEL 1
REMARK VINA RESULT:     -12.0      0.000      0.000
REMARK SMILES C[C@@H](C(=O)OCCOC(=O)c1ccc(-c2c3nc(c(-c4c(F)cc(S(=O)(=O)[O-])cc4F)c4ccc([nH]4)c(-c4c(F)cc(S(=O)(=O)[O-])cc4F)c4nc(c(-c5c(F)cc(S(=O)(=O)[O-])cc5F)c5ccc2[nH]5)C=C4)C=C3)cc1)c1ccc2c3cc(Cl)ccc3n(C(=O)c3cocn3)c2c1
REMARK SMILES IDX 6 1 5 2 3 3 4 4 2 5 1 6 77 7 78 8 97 9 79 10 96 11 80 12
REMARK SMILES IDX 88 13 81 14 87 15 82 16 86 17 83 18 85 19 84 20 89 21 90 22
REMARK SMILES IDX 91 23 92 24 95 25 93 26 94 27 7 28 8 29 9 30 10 31 11 32
REMARK SMILES IDX 12 33 76 34 13 35 75 36 14 37 15 38 16 39 69 40 17 41 74 42
REMARK SMILES IDX 68 43 70 44 18 45 73 46 67 47 66 48 19 50 53 51 32 52 52 53
REMARK SMILES IDX 33 54 36 55 51 56 71 57 34 58 35 59 50 61 72 62 37 63 20 64
REMARK SMILES IDX 21 65 30 66 22 67 23 68 29 69 31 70 24 71 25 72 26 73 27 74
REMARK SMILES IDX 28 75 54 76 55 77 64 78 56 79 57 80 63 81 65 82 58 83 59 84
REMARK SMILES IDX 60 85 61 86 62 87 38 88 39 89 48 90 40 91 41 92 47 93 49 94
REMARK SMILES IDX 42 95 43 96 44 97 45 98 46 99
REMARK H PARENT 70 49 36 60
REMARK Flexibility Score: inf
ROOT
ATOM      1  C   UNL A   1      33.088  29.082  27.284  1.00  0.00     0.274 C 
ENDROOT
BRANCH   1   2
ATOM      2  O   UNL A   1      33.146  27.890  26.474  1.00  0.00    -0.462 OA
BRANCH   2   3
ATOM      3  C   UNL A   1      31.956  27.292  26.180  1.00  0.00     0.313 C 
ATOM      4  O   UNL A   1      31.141  26.974  27.037  1.00  0.00    -0.252 OA
BRANCH   3   5
ATOM      5  C   UNL A   1      31.785  26.986  24.677  1.00  0.00     0.126 C 
ATOM      6  C   UNL A   1      30.501  27.616  24.115  1.00  0.00     0.025 C 
BRANCH   5   7
ATOM      7  C   UNL A   1      31.963  25.495  24.334  1.00  0.00    -0.032 A 
ATOM      8  C   UNL A   1      30.996  24.757  23.643  1.00  0.00     0.005 A 
ATOM      9  C   UNL A   1      33.143  24.830  24.728  1.00  0.00     0.032 A 
ATOM     10  C   UNL A   1      31.180  23.396  23.355  1.00  0.00     0.011 A 
ATOM     11  C   UNL A   1      33.268  23.430  24.555  1.00  0.00     0.058 A 
ATOM     12  C   UNL A   1      32.321  22.719  23.830  1.00  0.00     0.008 A 
ATOM     13  N   UNL A   1      34.198  22.510  25.090  1.00  0.00    -0.274 N 
ATOM     14  C   UNL A   1      32.744  21.364  23.780  1.00  0.00     0.009 A 
ATOM     15  C   UNL A   1      33.898  21.237  24.569  1.00  0.00     0.057 A 
ATOM     16  C   UNL A   1      32.175  20.219  23.177  1.00  0.00     0.031 A 
ATOM     17  C   UNL A   1      34.442  19.957  24.804  1.00  0.00     0.029 A 
ATOM     18  C   UNL A   1      32.747  18.967  23.387  1.00  0.00     0.041 A 
ATOM     19  C   UNL A   1      33.863  18.835  24.195  1.00  0.00     0.023 A 
ATOM     20  Cl  UNL A   1      32.040  17.578  22.661  1.00  0.00    -0.084 Cl
BRANCH  13  21
ATOM     21  C   UNL A   1      35.119  22.845  26.130  1.00  0.00     0.284 C 
ATOM     22  O   UNL A   1      34.605  23.127  27.212  1.00  0.00    -0.266 OA
BRANCH  21  23
ATOM     23  C   UNL A   1      36.573  22.877  26.024  1.00  0.00     0.167 A 
ATOM     24  C   UNL A   1      37.445  23.910  26.283  1.00  0.00     0.231 A 
ATOM     25  N   UNL A   1      37.321  21.733  25.758  1.00  0.00    -0.211 NA
ATOM     26  O   UNL A   1      38.718  23.446  26.156  1.00  0.00    -0.451 OA
ATOM     27  C   UNL A   1      38.569  22.131  25.846  1.00  0.00     0.308 A 
ENDBRANCH  21  23
ENDBRANCH  13  21
ENDBRANCH   5   7
ENDBRANCH   3   5
ENDBRANCH   2   3
ENDBRANCH   1   2
BRANCH   1  28
ATOM     28  C   UNL A   1      34.415  29.829  27.215  1.00  0.00     0.275 C 
BRANCH  28  29
ATOM     29  O   UNL A   1      35.394  29.146  28.013  1.00  0.00    -0.458 OA
BRANCH  29  30
ATOM     30  C   UNL A   1      36.021  29.896  28.949  1.00  0.00     0.338 C 
ATOM     31  O   UNL A   1      35.513  30.571  29.825  1.00  0.00    -0.246 OA
BRANCH  30  32
ATOM     32  C   UNL A   1      37.475  29.764  28.768  1.00  0.00     0.060 A 
ATOM     33  C   UNL A   1      38.002  29.867  27.487  1.00  0.00     0.016 A 
ATOM     34  C   UNL A   1      38.300  29.428  29.843  1.00  0.00     0.016 A 
ATOM     35  C   UNL A   1      39.340  29.555  27.272  1.00  0.00     0.010 A 
ATOM     36  C   UNL A   1      39.666  29.189  29.625  1.00  0.00     0.010 A 
ATOM     37  C   UNL A   1      40.195  29.208  28.325  1.00  0.00    -0.014 A 
BRANCH  37  38
ATOM     38  C   UNL A   1      41.599  28.795  28.018  1.00  0.00     0.031 A 
ATOM     39  C   UNL A   1      42.739  29.753  28.258  1.00  0.00     0.074 A 
ATOM     40  C   UNL A   1      41.875  27.536  27.616  1.00  0.00     0.049 A 
ATOM     41  N   UNL A   1      44.009  29.617  27.969  1.00  0.00    -0.248 NA
ATOM     42  C   UNL A   1      42.408  31.037  28.897  1.00  0.00     0.031 C 
ATOM     43  C   UNL A   1      40.890  26.471  27.423  1.00  0.00     0.029 A 
ATOM     44  N   UNL A   1      43.077  26.923  27.347  1.00  0.00    -0.354 N 
ATOM     45  C   UNL A   1      44.609  30.826  28.309  1.00  0.00     0.074 A 
ATOM     46  C   UNL A   1      43.570  31.671  28.856  1.00  0.00     0.031 C 
ATOM     47  C   UNL A   1      41.530  25.320  27.160  1.00  0.00     0.029 A 
ATOM     48  C   UNL A   1      42.965  25.577  27.083  1.00  0.00     0.049 A 
ATOM     49  H   UNL A   1      43.936  27.402  27.342  1.00  0.00     0.167 HD
ATOM     50  C   UNL A   1      45.901  31.205  28.153  1.00  0.00     0.037 A 
ATOM     51  C   UNL A   1      43.910  24.654  26.815  1.00  0.00     0.037 A 
ATOM     52  C   UNL A   1      46.948  30.341  27.673  1.00  0.00     0.049 A 
ATOM     53  C   UNL A   1      45.347  25.083  26.687  1.00  0.00     0.074 A 
ATOM     54  C   UNL A   1      48.276  30.647  27.432  1.00  0.00     0.029 A 
ATOM     55  N   UNL A   1      46.793  28.992  27.394  1.00  0.00    -0.354 N 
ATOM     56  N   UNL A   1      45.880  26.257  26.915  1.00  0.00    -0.248 NA
ATOM     57  C   UNL A   1      46.305  24.064  26.230  1.00  0.00     0.031 C 
ATOM     58  C   UNL A   1      48.918  29.489  26.975  1.00  0.00     0.029 A 
ATOM     59  C   UNL A   1      47.997  28.455  26.969  1.00  0.00     0.049 A 
ATOM     60  H   UNL A   1      45.951  28.490  27.485  1.00  0.00     0.167 HD
ATOM     61  C   UNL A   1      47.230  26.127  26.608  1.00  0.00     0.074 A 
ATOM     62  C   UNL A   1      47.443  24.745  26.232  1.00  0.00     0.031 C 
ATOM     63  C   UNL A   1      48.200  27.075  26.606  1.00  0.00     0.037 A 
BRANCH  50  64
ATOM     64  C   UNL A   1      46.240  32.644  28.427  1.00  0.00     0.058 A 
ATOM     65  C   UNL A   1      46.703  33.088  29.673  1.00  0.00     0.135 A 
ATOM     66  C   UNL A   1      46.116  33.594  27.397  1.00  0.00     0.135 A 
ATOM     67  F   UNL A   1      46.819  32.227  30.697  1.00  0.00    -0.206 F 
ATOM     68  C   UNL A   1      47.008  34.428  29.898  1.00  0.00     0.059 A 
ATOM     69  C   UNL A   1      46.437  34.933  27.593  1.00  0.00     0.059 A 
ATOM     70  F   UNL A   1      45.676  33.223  26.184  1.00  0.00    -0.206 F 
ATOM     71  C   UNL A   1      46.868  35.344  28.853  1.00  0.00     0.060 A 
BRANCH  71  72
ATOM     72  S   UNL A   1      47.257  37.081  29.157  1.00  0.00     0.124 S 
ATOM     73  O   UNL A   1      48.544  36.975  29.838  1.00  0.00    -0.237 OA
ATOM     74  O   UNL A   1      47.300  37.635  27.807  1.00  0.00    -0.237 OA
ATOM     75  O   UNL A   1      46.145  37.539  29.984  1.00  0.00    -0.744 OA
ENDBRANCH  71  72
ENDBRANCH  50  64
BRANCH  51  76
ATOM     76  C   UNL A   1      43.537  23.223  26.656  1.00  0.00     0.058 A 
ATOM     77  C   UNL A   1      43.232  22.442  27.782  1.00  0.00     0.135 A 
ATOM     78  C   UNL A   1      43.471  22.609  25.397  1.00  0.00     0.135 A 
ATOM     79  F   UNL A   1      43.281  22.986  29.007  1.00  0.00    -0.206 F 
ATOM     80  C   UNL A   1      42.883  21.102  27.666  1.00  0.00     0.059 A 
ATOM     81  C   UNL A   1      43.094  21.279  25.253  1.00  0.00     0.059 A 
ATOM     82  F   UNL A   1      43.747  23.315  24.289  1.00  0.00    -0.206 F 
ATOM     83  C   UNL A   1      42.812  20.530  26.395  1.00  0.00     0.060 A 
BRANCH  83  84
ATOM     84  S   UNL A   1      42.267  18.816  26.233  1.00  0.00     0.124 S 
ATOM     85  O   UNL A   1      40.885  18.987  25.800  1.00  0.00    -0.237 OA
ATOM     86  O   UNL A   1      43.193  18.287  25.236  1.00  0.00    -0.237 OA
ATOM     87  O   UNL A   1      42.455  18.287  27.580  1.00  0.00    -0.744 OA
ENDBRANCH  83  84
ENDBRANCH  51  76
BRANCH  63  88
ATOM     88  C   UNL A   1      49.580  26.658  26.177  1.00  0.00     0.058 A 
ATOM     89  C   UNL A   1      50.026  26.866  24.862  1.00  0.00     0.135 A 
ATOM     90  C   UNL A   1      50.483  26.106  27.098  1.00  0.00     0.135 A 
ATOM     91  F   UNL A   1      49.199  27.388  23.943  1.00  0.00    -0.206 F 
ATOM     92  C   UNL A   1      51.316  26.523  24.470  1.00  0.00     0.059 A 
ATOM     93  C   UNL A   1      51.785  25.776  26.732  1.00  0.00     0.059 A 
ATOM     94  F   UNL A   1      50.110  25.897  28.370  1.00  0.00    -0.206 F 
ATOM     95  C   UNL A   1      52.189  25.979  25.412  1.00  0.00     0.060 A 
BRANCH  95  96
ATOM     96  S   UNL A   1      53.872  25.570  24.900  1.00  0.00     0.124 S 
ATOM     97  O   UNL A   1      54.662  26.223  25.940  1.00  0.00    -0.237 OA
ATOM     98  O   UNL A   1      53.865  24.111  24.931  1.00  0.00    -0.237 OA
ATOM     99  O   UNL A   1      53.974  26.161  23.569  1.00  0.00    -0.744 OA
ENDBRANCH  95  96
ENDBRANCH  63  88
ENDBRANCH  37  38
ENDBRANCH  30  32
ENDBRANCH  29  30
ENDBRANCH  28  29
ENDBRANCH   1  28
TORSDOF 17
ENDMDL
MODEL 2
REMARK VINA RESULT:     -11.9      6.713     11.578
REMARK SMILES C[C@@H](C(=O)OCCOC(=O)c1ccc(-c2c3nc(c(-c4c(F)cc(S(=O)(=O)[O-])cc4F)c4ccc([nH]4)c(-c4c(F)cc(S(=O)(=O)[O-])cc4F)c4nc(c(-c5c(F)cc(S(=O)(=O)[O-])cc5F)c5ccc2[nH]5)C=C4)C=C3)cc1)c1ccc2c3cc(Cl)ccc3n(C(=O)c3cocn3)c2c1
REMARK SMILES IDX 6 1 5 2 3 3 4 4 2 5 1 6 77 7 78 8 97 9 79 10 96 11 80 12
REMARK SMILES IDX 88 13 81 14 87 15 82 16 86 17 83 18 85 19 84 20 89 21 90 22
REMARK SMILES IDX 91 23 92 24 95 25 93 26 94 27 7 28 8 29 9 30 10 31 11 32
REMARK SMILES IDX 12 33 76 34 13 35 75 36 14 37 15 38 16 39 69 40 17 41 74 42
REMARK SMILES IDX 68 43 70 44 18 45 73 46 67 47 66 48 19 50 53 51 32 52 52 53
REMARK SMILES IDX 33 54 36 55 51 56 71 57 34 58 35 59 50 61 72 62 37 63 20 64
REMARK SMILES IDX 21 65 30 66 22 67 23 68 29 69 31 70 24 71 25 72 26 73 27 74
REMARK SMILES IDX 28 75 54 76 55 77 64 78 56 79 57 80 63 81 65 82 58 83 59 84
REMARK SMILES IDX 60 85 61 86 62 87 38 88 39 89 48 90 40 91 41 92 47 93 49 94
REMARK SMILES IDX 42 95 43 96 44 97 45 98 46 99
REMARK H PARENT 70 49 36 60
REMARK Flexibility Score: inf
ROOT
ATOM      1  C   UNL A   1      42.477  22.616  25.551  1.00  0.00     0.274 C 
ENDROOT
BRANCH   1   2
ATOM      2  O   UNL A   1      41.988  22.875  26.883  1.00  0.00    -0.462 OA
BRANCH   2   3
ATOM      3  C   UNL A   1      40.723  22.450  27.163  1.00  0.00     0.313 C 
ATOM      4  O   UNL A   1      40.472  21.652  28.059  1.00  0.00    -0.252 OA
BRANCH   3   5
ATOM      5  C   UNL A   1      39.665  23.009  26.189  1.00  0.00     0.126 C 
ATOM      6  C   UNL A   1      39.153  24.386  26.642  1.00  0.00     0.025 C 
BRANCH   5   7
ATOM      7  C   UNL A   1      38.553  21.999  25.851  1.00  0.00    -0.032 A 
ATOM      8  C   UNL A   1      38.820  20.682  25.460  1.00  0.00     0.005 A 
ATOM      9  C   UNL A   1      37.203  22.401  25.931  1.00  0.00     0.032 A 
ATOM     10  C   UNL A   1      37.787  19.786  25.146  1.00  0.00     0.011 A 
ATOM     11  C   UNL A   1      36.171  21.539  25.486  1.00  0.00     0.058 A 
ATOM     12  C   UNL A   1      36.448  20.223  25.142  1.00  0.00     0.008 A 
ATOM     13  N   UNL A   1      34.808  21.791  25.213  1.00  0.00    -0.274 N 
ATOM     14  C   UNL A   1      35.218  19.600  24.798  1.00  0.00     0.009 A 
ATOM     15  C   UNL A   1      34.210  20.575  24.833  1.00  0.00     0.057 A 
ATOM     16  C   UNL A   1      34.910  18.284  24.382  1.00  0.00     0.031 A 
ATOM     17  C   UNL A   1      32.910  20.248  24.390  1.00  0.00     0.029 A 
ATOM     18  C   UNL A   1      33.614  17.967  23.986  1.00  0.00     0.041 A 
ATOM     19  C   UNL A   1      32.627  18.936  23.984  1.00  0.00     0.023 A 
ATOM     20  Cl  UNL A   1      33.252  16.367  23.470  1.00  0.00    -0.084 Cl
BRANCH  13  21
ATOM     21  C   UNL A   1      34.253  23.107  25.152  1.00  0.00     0.284 C 
ATOM     22  O   UNL A   1      33.902  23.577  26.233  1.00  0.00    -0.266 OA
BRANCH  21  23
ATOM     23  C   UNL A   1      34.074  23.918  23.953  1.00  0.00     0.167 A 
ATOM     24  C   UNL A   1      33.793  23.523  22.665  1.00  0.00     0.231 A 
ATOM     25  N   UNL A   1      34.028  25.309  24.002  1.00  0.00    -0.211 NA
ATOM     26  O   UNL A   1      33.602  24.634  21.902  1.00  0.00    -0.451 OA
ATOM     27  C   UNL A   1      33.751  25.670  22.770  1.00  0.00     0.308 A 
ENDBRANCH  21  23
ENDBRANCH  13  21
ENDBRANCH   5   7
ENDBRANCH   3   5
ENDBRANCH   2   3
ENDBRANCH   1   2
BRANCH   1  28
ATOM     28  C   UNL A   1      43.296  23.801  25.051  1.00  0.00     0.275 C 
BRANCH  28  29
ATOM     29  O   UNL A   1      43.378  24.798  26.082  1.00  0.00    -0.458 OA
BRANCH  29  30
ATOM     30  C   UNL A   1      42.572  25.874  25.928  1.00  0.00     0.338 C 
ATOM     31  O   UNL A   1      41.942  26.197  24.937  1.00  0.00    -0.246 OA
BRANCH  30  32
ATOM     32  C   UNL A   1      42.540  26.629  27.190  1.00  0.00     0.060 A 
ATOM     33  C   UNL A   1      41.866  26.087  28.277  1.00  0.00     0.016 A 
ATOM     34  C   UNL A   1      43.078  27.915  27.265  1.00  0.00     0.016 A 
ATOM     35  C   UNL A   1      41.662  26.867  29.410  1.00  0.00     0.010 A 
ATOM     36  C   UNL A   1      42.930  28.665  28.443  1.00  0.00     0.010 A 
ATOM     37  C   UNL A   1      42.181  28.163  29.518  1.00  0.00    -0.014 A 
BRANCH  37  38
ATOM     38  C   UNL A   1      41.849  28.983  30.723  1.00  0.00     0.031 A 
ATOM     39  C   UNL A   1      40.572  29.786  30.765  1.00  0.00     0.074 A 
ATOM     40  C   UNL A   1      42.633  28.944  31.822  1.00  0.00     0.049 A 
ATOM     41  N   UNL A   1      40.153  30.628  31.675  1.00  0.00    -0.248 NA
ATOM     42  C   UNL A   1      39.649  29.627  29.630  1.00  0.00     0.031 C 
ATOM     43  C   UNL A   1      43.854  28.149  31.966  1.00  0.00     0.029 A 
ATOM     44  N   UNL A   1      42.492  29.551  33.048  1.00  0.00    -0.354 N 
ATOM     45  C   UNL A   1      38.967  31.163  31.182  1.00  0.00     0.074 A 
ATOM     46  C   UNL A   1      38.716  30.525  29.908  1.00  0.00     0.031 C 
ATOM     47  C   UNL A   1      44.295  28.241  33.231  1.00  0.00     0.029 A 
ATOM     48  C   UNL A   1      43.439  29.166  33.969  1.00  0.00     0.049 A 
ATOM     49  H   UNL A   1      41.780  30.200  33.248  1.00  0.00     0.167 HD
ATOM     50  C   UNL A   1      38.175  32.118  31.729  1.00  0.00     0.037 A 
ATOM     51  C   UNL A   1      43.599  29.515  35.261  1.00  0.00     0.037 A 
ATOM     52  C   UNL A   1      38.388  32.703  33.028  1.00  0.00     0.049 A 
ATOM     53  C   UNL A   1      42.685  30.546  35.868  1.00  0.00     0.074 A 
ATOM     54  C   UNL A   1      37.672  33.713  33.647  1.00  0.00     0.029 A 
ATOM     55  N   UNL A   1      39.371  32.306  33.921  1.00  0.00    -0.354 N 
ATOM     56  N   UNL A   1      41.626  31.116  35.348  1.00  0.00    -0.248 NA
ATOM     57  C   UNL A   1      43.012  31.005  37.226  1.00  0.00     0.031 C 
ATOM     58  C   UNL A   1      38.243  33.949  34.903  1.00  0.00     0.029 A 
ATOM     59  C   UNL A   1      39.290  33.060  35.080  1.00  0.00     0.049 A 
ATOM     60  H   UNL A   1      40.029  31.593  33.756  1.00  0.00     0.167 HD
ATOM     61  C   UNL A   1      41.173  32.018  36.305  1.00  0.00     0.074 A 
ATOM     62  C   UNL A   1      42.040  31.877  37.457  1.00  0.00     0.031 C 
ATOM     63  C   UNL A   1      40.152  32.905  36.225  1.00  0.00     0.037 A 
BRANCH  50  64
ATOM     64  C   UNL A   1      37.051  32.653  30.888  1.00  0.00     0.058 A 
ATOM     65  C   UNL A   1      37.239  33.647  29.917  1.00  0.00     0.135 A 
ATOM     66  C   UNL A   1      35.754  32.132  31.049  1.00  0.00     0.135 A 
ATOM     67  F   UNL A   1      38.452  34.195  29.737  1.00  0.00    -0.206 F 
ATOM     68  C   UNL A   1      36.177  34.125  29.153  1.00  0.00     0.059 A 
ATOM     69  C   UNL A   1      34.684  32.579  30.282  1.00  0.00     0.059 A 
ATOM     70  F   UNL A   1      35.518  31.180  31.965  1.00  0.00    -0.206 F 
ATOM     71  C   UNL A   1      34.902  33.587  29.345  1.00  0.00     0.060 A 
BRANCH  71  72
ATOM     72  S   UNL A   1      33.530  34.221  28.356  1.00  0.00     0.124 S 
ATOM     73  O   UNL A   1      32.642  34.741  29.392  1.00  0.00    -0.237 OA
ATOM     74  O   UNL A   1      34.182  35.224  27.519  1.00  0.00    -0.237 OA
ATOM     75  O   UNL A   1      33.046  33.039  27.650  1.00  0.00    -0.744 OA
ENDBRANCH  71  72
ENDBRANCH  50  64
BRANCH  51  76
ATOM     76  C   UNL A   1      44.663  28.879  36.083  1.00  0.00     0.058 A 
ATOM     77  C   UNL A   1      44.373  27.750  36.866  1.00  0.00     0.135 A 
ATOM     78  C   UNL A   1      45.976  29.370  36.105  1.00  0.00     0.135 A 
ATOM     79  F   UNL A   1      43.131  27.245  36.877  1.00  0.00    -0.206 F 
ATOM     80  C   UNL A   1      45.345  27.136  37.647  1.00  0.00     0.059 A 
ATOM     81  C   UNL A   1      46.973  28.753  36.853  1.00  0.00     0.059 A 
ATOM     82  F   UNL A   1      46.306  30.442  35.368  1.00  0.00    -0.206 F 
ATOM     83  C   UNL A   1      46.645  27.643  37.630  1.00  0.00     0.060 A 
BRANCH  83  84
ATOM     84  S   UNL A   1      47.932  26.792  38.568  1.00  0.00     0.124 S 
ATOM     85  O   UNL A   1      47.205  25.637  39.083  1.00  0.00    -0.237 OA
ATOM     86  O   UNL A   1      48.934  26.517  37.543  1.00  0.00    -0.237 OA
ATOM     87  O   UNL A   1      48.328  27.791  39.555  1.00  0.00    -0.744 OA
ENDBRANCH  83  84
ENDBRANCH  51  76
BRANCH  63  88
ATOM     88  C   UNL A   1      39.915  33.803  37.407  1.00  0.00     0.058 A 
ATOM     89  C   UNL A   1      40.520  35.068  37.493  1.00  0.00     0.135 A 
ATOM     90  C   UNL A   1      39.032  33.427  38.431  1.00  0.00     0.135 A 
ATOM     91  F   UNL A   1      41.376  35.473  36.541  1.00  0.00    -0.206 F 
ATOM     92  C   UNL A   1      40.271  35.921  38.563  1.00  0.00     0.059 A 
ATOM     93  C   UNL A   1      38.752  34.275  39.499  1.00  0.00     0.059 A 
ATOM     94  F   UNL A   1      38.419  32.233  38.391  1.00  0.00    -0.206 F 
ATOM     95  C   UNL A   1      39.385  35.516  39.562  1.00  0.00     0.060 A 
BRANCH  95  96
ATOM     96  S   UNL A   1      39.043  36.648  40.928  1.00  0.00     0.124 S 
ATOM     97  O   UNL A   1      38.522  37.813  40.219  1.00  0.00    -0.237 OA
ATOM     98  O   UNL A   1      38.070  35.900  41.719  1.00  0.00    -0.237 OA
ATOM     99  O   UNL A   1      40.348  36.825  41.556  1.00  0.00    -0.744 OA
ENDBRANCH  95  96
ENDBRANCH  63  88
ENDBRANCH  37  38
ENDBRANCH  30  32
ENDBRANCH  29  30
ENDBRANCH  28  29
ENDBRANCH   1  28
TORSDOF 17
ENDMDL
MODEL 3
REMARK VINA RESULT:     -11.7      2.457      9.016
REMARK SMILES C[C@@H](C(=O)OCCOC(=O)c1ccc(-c2c3nc(c(-c4c(F)cc(S(=O)(=O)[O-])cc4F)c4ccc([nH]4)c(-c4c(F)cc(S(=O)(=O)[O-])cc4F)c4nc(c(-c5c(F)cc(S(=O)(=O)[O-])cc5F)c5ccc2[nH]5)C=C4)C=C3)cc1)c1ccc2c3cc(Cl)ccc3n(C(=O)c3cocn3)c2c1
REMARK SMILES IDX 6 1 5 2 3 3 4 4 2 5 1 6 77 7 78 8 97 9 79 10 96 11 80 12
REMARK SMILES IDX 88 13 81 14 87 15 82 16 86 17 83 18 85 19 84 20 89 21 90 22
REMARK SMILES IDX 91 23 92 24 95 25 93 26 94 27 7 28 8 29 9 30 10 31 11 32
REMARK SMILES IDX 12 33 76 34 13 35 75 36 14 37 15 38 16 39 69 40 17 41 74 42
REMARK SMILES IDX 68 43 70 44 18 45 73 46 67 47 66 48 19 50 53 51 32 52 52 53
REMARK SMILES IDX 33 54 36 55 51 56 71 57 34 58 35 59 50 61 72 62 37 63 20 64
REMARK SMILES IDX 21 65 30 66 22 67 23 68 29 69 31 70 24 71 25 72 26 73 27 74
REMARK SMILES IDX 28 75 54 76 55 77 64 78 56 79 57 80 63 81 65 82 58 83 59 84
REMARK SMILES IDX 60 85 61 86 62 87 38 88 39 89 48 90 40 91 41 92 47 93 49 94
REMARK SMILES IDX 42 95 43 96 44 97 45 98 46 99
REMARK H PARENT 70 49 36 60
REMARK Flexibility Score: inf
ROOT
ATOM      1  C   UNL A   1      34.910  32.468  30.730  1.00  0.00     0.274 C 
ENDROOT
BRANCH   1   2
ATOM      2  O   UNL A   1      35.952  32.355  29.739  1.00  0.00    -0.462 OA
BRANCH   2   3
ATOM      3  C   UNL A   1      35.558  32.047  28.471  1.00  0.00     0.313 C 
ATOM      4  O   UNL A   1      35.543  32.867  27.560  1.00  0.00    -0.252 OA
BRANCH   3   5
ATOM      5  C   UNL A   1      35.057  30.594  28.326  1.00  0.00     0.126 C 
ATOM      6  C   UNL A   1      36.223  29.611  28.139  1.00  0.00     0.025 C 
BRANCH   5   7
ATOM      7  C   UNL A   1      33.925  30.440  27.294  1.00  0.00    -0.032 A 
ATOM      8  C   UNL A   1      32.883  31.365  27.168  1.00  0.00     0.005 A 
ATOM      9  C   UNL A   1      33.921  29.322  26.431  1.00  0.00     0.032 A 
ATOM     10  C   UNL A   1      31.858  31.191  26.226  1.00  0.00     0.011 A 
ATOM     11  C   UNL A   1      32.819  29.081  25.576  1.00  0.00     0.058 A 
ATOM     12  C   UNL A   1      31.814  30.028  25.432  1.00  0.00     0.008 A 
ATOM     13  N   UNL A   1      32.453  27.932  24.839  1.00  0.00    -0.274 N 
ATOM     14  C   UNL A   1      30.889  29.533  24.474  1.00  0.00     0.009 A 
ATOM     15  C   UNL A   1      31.282  28.233  24.119  1.00  0.00     0.057 A 
ATOM     16  C   UNL A   1      29.696  30.077  23.945  1.00  0.00     0.031 A 
ATOM     17  C   UNL A   1      30.448  27.458  23.285  1.00  0.00     0.029 A 
ATOM     18  C   UNL A   1      28.904  29.314  23.092  1.00  0.00     0.041 A 
ATOM     19  C   UNL A   1      29.270  28.018  22.770  1.00  0.00     0.023 A 
ATOM     20  Cl  UNL A   1      27.448  29.979  22.464  1.00  0.00    -0.084 Cl
BRANCH  13  21
ATOM     21  C   UNL A   1      33.087  26.662  25.004  1.00  0.00     0.284 C 
ATOM     22  O   UNL A   1      34.087  26.483  24.309  1.00  0.00    -0.266 OA
BRANCH  21  23
ATOM     23  C   UNL A   1      32.666  25.592  25.901  1.00  0.00     0.167 A 
ATOM     24  C   UNL A   1      31.461  25.413  26.541  1.00  0.00     0.231 A 
ATOM     25  N   UNL A   1      33.450  24.463  26.125  1.00  0.00    -0.211 NA
ATOM     26  O   UNL A   1      31.484  24.214  27.184  1.00  0.00    -0.451 OA
ATOM     27  C   UNL A   1      32.706  23.695  26.886  1.00  0.00     0.308 A 
ENDBRANCH  21  23
ENDBRANCH  13  21
ENDBRANCH   5   7
ENDBRANCH   3   5
ENDBRANCH   2   3
ENDBRANCH   1   2
BRANCH   1  28
ATOM     28  C   UNL A   1      35.409  31.959  32.078  1.00  0.00     0.275 C 
BRANCH  28  29
ATOM     29  O   UNL A   1      36.303  30.852  31.874  1.00  0.00    -0.458 OA
BRANCH  29  30
ATOM     30  C   UNL A   1      37.443  30.872  32.602  1.00  0.00     0.338 C 
ATOM     31  O   UNL A   1      37.584  31.239  33.754  1.00  0.00    -0.246 OA
BRANCH  30  32
ATOM     32  C   UNL A   1      38.542  30.344  31.778  1.00  0.00     0.060 A 
ATOM     33  C   UNL A   1      39.475  29.502  32.369  1.00  0.00     0.016 A 
ATOM     34  C   UNL A   1      38.712  30.769  30.459  1.00  0.00     0.016 A 
ATOM     35  C   UNL A   1      40.620  29.151  31.662  1.00  0.00     0.010 A 
ATOM     36  C   UNL A   1      39.836  30.346  29.731  1.00  0.00     0.010 A 
ATOM     37  C   UNL A   1      40.828  29.563  30.340  1.00  0.00    -0.014 A 
BRANCH  37  38
ATOM     38  C   UNL A   1      42.120  29.230  29.667  1.00  0.00     0.031 A 
ATOM     39  C   UNL A   1      42.279  27.914  28.944  1.00  0.00     0.074 A 
ATOM     40  C   UNL A   1      43.123  30.131  29.613  1.00  0.00     0.049 A 
ATOM     41  N   UNL A   1      43.345  27.403  28.382  1.00  0.00    -0.248 NA
ATOM     42  C   UNL A   1      41.086  27.058  28.850  1.00  0.00     0.031 C 
ATOM     43  C   UNL A   1      43.088  31.477  30.189  1.00  0.00     0.029 A 
ATOM     44  N   UNL A   1      44.353  30.070  29.000  1.00  0.00    -0.354 N 
ATOM     45  C   UNL A   1      42.975  26.134  27.947  1.00  0.00     0.074 A 
ATOM     46  C   UNL A   1      41.577  25.967  28.281  1.00  0.00     0.031 C 
ATOM     47  C   UNL A   1      44.195  32.143  29.825  1.00  0.00     0.029 A 
ATOM     48  C   UNL A   1      45.060  31.249  29.059  1.00  0.00     0.049 A 
ATOM     49  H   UNL A   1      44.696  29.259  28.562  1.00  0.00     0.167 HD
ATOM     50  C   UNL A   1      43.737  25.186  27.349  1.00  0.00     0.037 A 
ATOM     51  C   UNL A   1      46.265  31.576  28.551  1.00  0.00     0.037 A 
ATOM     52  C   UNL A   1      45.109  25.378  26.954  1.00  0.00     0.049 A 
ATOM     53  C   UNL A   1      47.083  30.524  27.852  1.00  0.00     0.074 A 
ATOM     54  C   UNL A   1      45.980  24.463  26.390  1.00  0.00     0.029 A 
ATOM     55  N   UNL A   1      45.798  26.577  27.051  1.00  0.00    -0.354 N 
ATOM     56  N   UNL A   1      46.753  29.295  27.540  1.00  0.00    -0.248 NA
ATOM     57  C   UNL A   1      48.454  30.896  27.468  1.00  0.00     0.031 C 
ATOM     58  C   UNL A   1      47.208  25.100  26.175  1.00  0.00     0.029 A 
ATOM     59  C   UNL A   1      47.088  26.422  26.570  1.00  0.00     0.049 A 
ATOM     60  H   UNL A   1      45.425  27.415  27.408  1.00  0.00     0.167 HD
ATOM     61  C   UNL A   1      47.879  28.739  26.944  1.00  0.00     0.074 A 
ATOM     62  C   UNL A   1      48.882  29.782  26.888  1.00  0.00     0.031 C 
ATOM     63  C   UNL A   1      48.076  27.469  26.511  1.00  0.00     0.037 A 
BRANCH  50  64
ATOM     64  C   UNL A   1      43.131  23.824  27.161  1.00  0.00     0.058 A 
ATOM     65  C   UNL A   1      43.037  22.888  28.200  1.00  0.00     0.135 A 
ATOM     66  C   UNL A   1      42.610  23.463  25.904  1.00  0.00     0.135 A 
ATOM     67  F   UNL A   1      43.538  23.172  29.412  1.00  0.00    -0.206 F 
ATOM     68  C   UNL A   1      42.471  21.631  27.995  1.00  0.00     0.059 A 
ATOM     69  C   UNL A   1      42.020  22.224  25.684  1.00  0.00     0.059 A 
ATOM     70  F   UNL A   1      42.675  24.322  24.875  1.00  0.00    -0.206 F 
ATOM     71  C   UNL A   1      41.969  21.307  26.733  1.00  0.00     0.060 A 
BRANCH  71  72
ATOM     72  S   UNL A   1      41.246  19.673  26.475  1.00  0.00     0.124 S 
ATOM     73  O   UNL A   1      42.242  19.047  25.611  1.00  0.00    -0.237 OA
ATOM     74  O   UNL A   1      41.167  19.145  27.835  1.00  0.00    -0.237 OA
ATOM     75  O   UNL A   1      39.962  19.964  25.845  1.00  0.00    -0.744 OA
ENDBRANCH  71  72
ENDBRANCH  50  64
BRANCH  51  76
ATOM     76  C   UNL A   1      46.777  32.967  28.672  1.00  0.00     0.058 A 
ATOM     77  C   UNL A   1      46.536  33.901  27.653  1.00  0.00     0.135 A 
ATOM     78  C   UNL A   1      47.506  33.395  29.792  1.00  0.00     0.135 A 
ATOM     79  F   UNL A   1      45.844  33.539  26.563  1.00  0.00    -0.206 F 
ATOM     80  C   UNL A   1      47.005  35.208  27.736  1.00  0.00     0.059 A 
ATOM     81  C   UNL A   1      47.957  34.704  29.912  1.00  0.00     0.059 A 
ATOM     82  F   UNL A   1      47.757  32.541  30.797  1.00  0.00    -0.206 F 
ATOM     83  C   UNL A   1      47.711  35.601  28.873  1.00  0.00     0.060 A 
BRANCH  83  84
ATOM     84  S   UNL A   1      48.239  37.321  29.028  1.00  0.00     0.124 S 
ATOM     85  O   UNL A   1      49.611  37.166  29.494  1.00  0.00    -0.237 OA
ATOM     86  O   UNL A   1      48.073  37.822  27.667  1.00  0.00    -0.237 OA
ATOM     87  O   UNL A   1      47.292  37.864  29.996  1.00  0.00    -0.744 OA
ENDBRANCH  83  84
ENDBRANCH  51  76
BRANCH  63  88
ATOM     88  C   UNL A   1      49.427  27.128  25.947  1.00  0.00     0.058 A 
ATOM     89  C   UNL A   1      50.474  26.695  26.777  1.00  0.00     0.135 A 
ATOM     90  C   UNL A   1      49.662  27.172  24.564  1.00  0.00     0.135 A 
ATOM     91  F   UNL A   1      50.301  26.639  28.107  1.00  0.00    -0.206 F 
ATOM     92  C   UNL A   1      51.713  26.337  26.257  1.00  0.00     0.059 A 
ATOM     93  C   UNL A   1      50.887  26.797  24.021  1.00  0.00     0.059 A 
ATOM     94  F   UNL A   1      48.691  27.568  23.726  1.00  0.00    -0.206 F 
ATOM     95  C   UNL A   1      51.910  26.390  24.877  1.00  0.00     0.060 A 
BRANCH  95  96
ATOM     96  S   UNL A   1      53.512  25.887  24.210  1.00  0.00     0.124 S 
ATOM     97  O   UNL A   1      54.406  26.862  24.829  1.00  0.00    -0.237 OA
ATOM     98  O   UNL A   1      53.638  24.516  24.694  1.00  0.00    -0.237 OA
ATOM     99  O   UNL A   1      53.337  26.022  22.768  1.00  0.00    -0.744 OA
ENDBRANCH  95  96
ENDBRANCH  63  88
ENDBRANCH  37  38
ENDBRANCH  30  32
ENDBRANCH  29  30
ENDBRANCH  28  29
ENDBRANCH   1  28
TORSDOF 17
ENDMDL
