MODEL 1
REMARK VINA RESULT:     -11.0      0.000      0.000
REMARK SMILES O=C(OCCOC(=O)c1cc(-c2ccn(C(F)F)c(=O)c2)ccc1O)c1ccc(-c2c3nc(c(-c4c(F)cc(S(=O)(=O)[O-])cc4F)c4ccc([nH]4)c(-c4c(F)cc(S(=O)(=O)[O-])cc4F)c4nc(c(-c5c(F)cc(S(=O)(=O)[O-])cc5F)c5ccc2[nH]5)C=C4)C=C3)cc1
REMARK SMILES IDX 4 1 3 2 2 3 1 4 26 5 27 6 91 7 28 8 90 9 29 10 30 11 31 12
REMARK SMILES IDX 84 13 32 14 89 15 83 16 85 17 33 18 88 19 82 20 81 21 34 23
REMARK SMILES IDX 68 24 47 25 67 26 48 27 51 28 66 29 86 30 49 31 50 32 65 34
REMARK SMILES IDX 87 35 52 36 35 37 36 38 45 39 37 40 38 41 44 42 46 43 39 44
REMARK SMILES IDX 40 45 41 46 42 47 43 48 69 49 70 50 79 51 71 52 72 53 78 54
REMARK SMILES IDX 80 55 73 56 74 57 75 58 76 59 77 60 53 61 54 62 63 63 55 64
REMARK SMILES IDX 56 65 62 66 64 67 57 68 58 69 59 70 60 71 61 72 5 73 6 74
REMARK SMILES IDX 7 75 8 76 9 77 10 78 24 79 11 80 23 81 22 82 25 83 12 85
REMARK SMILES IDX 13 86 21 87 14 88 19 89 15 90 20 91 16 92 17 93 18 94
REMARK H PARENT 85 22 51 33 25 84
REMARK Flexibility Score: inf
ROOT
ATOM      1  C   UNL A   1      34.521  32.712  28.621  1.00  0.00     0.275 C 
ENDROOT
BRANCH   1   2
ATOM      2  O   UNL A   1      33.987  31.553  27.958  1.00  0.00    -0.458 OA
BRANCH   2   3
ATOM      3  C   UNL A   1      34.522  30.318  27.818  1.00  0.00     0.338 C 
ATOM      4  O   UNL A   1      33.810  29.411  27.387  1.00  0.00    -0.246 OA
BRANCH   3   5
ATOM      5  C   UNL A   1      35.892  29.957  28.291  1.00  0.00     0.060 A 
ATOM      6  C   UNL A   1      36.916  30.077  27.341  1.00  0.00     0.016 A 
ATOM      7  C   UNL A   1      36.248  29.563  29.583  1.00  0.00     0.016 A 
ATOM      8  C   UNL A   1      38.229  29.699  27.635  1.00  0.00     0.010 A 
ATOM      9  C   UNL A   1      37.568  29.196  29.888  1.00  0.00     0.010 A 
ATOM     10  C   UNL A   1      38.566  29.236  28.911  1.00  0.00    -0.014 A 
BRANCH  10  11
ATOM     11  C   UNL A   1      39.983  28.927  29.227  1.00  0.00     0.031 A 
ATOM     12  C   UNL A   1      40.579  27.576  28.964  1.00  0.00     0.074 A 
ATOM     13  C   UNL A   1      40.751  29.909  29.737  1.00  0.00     0.049 A 
ATOM     14  N   UNL A   1      41.840  27.228  28.942  1.00  0.00    -0.248 NA
ATOM     15  C   UNL A   1      39.653  26.472  28.674  1.00  0.00     0.031 C 
ATOM     16  C   UNL A   1      40.274  31.251  30.073  1.00  0.00     0.029 A 
ATOM     17  N   UNL A   1      42.082  29.934  30.058  1.00  0.00    -0.354 N 
ATOM     18  C   UNL A   1      41.865  25.895  28.558  1.00  0.00     0.074 A 
ATOM     19  C   UNL A   1      40.489  25.469  28.429  1.00  0.00     0.031 C 
ATOM     20  C   UNL A   1      41.302  31.976  30.537  1.00  0.00     0.029 A 
ATOM     21  C   UNL A   1      42.501  31.144  30.556  1.00  0.00     0.049 A 
ATOM     22  H   UNL A   1      42.681  29.161  29.942  1.00  0.00     0.167 HD
ATOM     23  C   UNL A   1      42.942  25.109  28.316  1.00  0.00     0.037 A 
ATOM     24  C   UNL A   1      43.714  31.540  30.987  1.00  0.00     0.037 A 
ATOM     25  C   UNL A   1      44.300  25.503  28.587  1.00  0.00     0.049 A 
ATOM     26  C   UNL A   1      44.867  30.587  30.895  1.00  0.00     0.074 A 
ATOM     27  C   UNL A   1      45.467  24.792  28.372  1.00  0.00     0.029 A 
ATOM     28  N   UNL A   1      44.666  26.690  29.206  1.00  0.00    -0.354 N 
ATOM     29  N   UNL A   1      44.898  29.388  30.363  1.00  0.00    -0.248 NA
ATOM     30  C   UNL A   1      46.147  31.028  31.464  1.00  0.00     0.031 C 
ATOM     31  C   UNL A   1      46.527  25.511  28.938  1.00  0.00     0.029 A 
ATOM     32  C   UNL A   1      46.027  26.696  29.458  1.00  0.00     0.049 A 
ATOM     33  H   UNL A   1      44.048  27.422  29.433  1.00  0.00     0.167 HD
ATOM     34  C   UNL A   1      46.198  28.929  30.532  1.00  0.00     0.074 A 
ATOM     35  C   UNL A   1      46.929  29.987  31.202  1.00  0.00     0.031 C 
ATOM     36  C   UNL A   1      46.734  27.740  30.162  1.00  0.00     0.037 A 
BRANCH  23  37
ATOM     37  C   UNL A   1      42.694  23.743  27.738  1.00  0.00     0.058 A 
ATOM     38  C   UNL A   1      42.577  22.619  28.572  1.00  0.00     0.135 A 
ATOM     39  C   UNL A   1      42.517  23.556  26.358  1.00  0.00     0.135 A 
ATOM     40  F   UNL A   1      42.760  22.736  29.898  1.00  0.00    -0.206 F 
ATOM     41  C   UNL A   1      42.304  21.356  28.058  1.00  0.00     0.059 A 
ATOM     42  C   UNL A   1      42.231  22.302  25.822  1.00  0.00     0.059 A 
ATOM     43  F   UNL A   1      42.628  24.595  25.517  1.00  0.00    -0.206 F 
ATOM     44  C   UNL A   1      42.133  21.208  26.680  1.00  0.00     0.060 A 
BRANCH  44  45
ATOM     45  S   UNL A   1      41.808  19.553  26.035  1.00  0.00     0.124 S 
ATOM     46  O   UNL A   1      42.738  19.494  24.912  1.00  0.00    -0.237 OA
ATOM     47  O   UNL A   1      42.140  18.708  27.177  1.00  0.00    -0.237 OA
ATOM     48  O   UNL A   1      40.395  19.598  25.675  1.00  0.00    -0.744 OA
ENDBRANCH  44  45
ENDBRANCH  23  37
BRANCH  24  49
ATOM     49  C   UNL A   1      43.862  32.911  31.538  1.00  0.00     0.058 A 
ATOM     50  C   UNL A   1      44.200  33.990  30.713  1.00  0.00     0.135 A 
ATOM     51  C   UNL A   1      43.555  33.181  32.882  1.00  0.00     0.135 A 
ATOM     52  F   UNL A   1      44.509  33.779  29.425  1.00  0.00    -0.206 F 
ATOM     53  C   UNL A   1      44.204  35.297  31.194  1.00  0.00     0.059 A 
ATOM     54  C   UNL A   1      43.533  34.478  33.381  1.00  0.00     0.059 A 
ATOM     55  F   UNL A   1      43.213  32.179  33.708  1.00  0.00    -0.206 F 
ATOM     56  C   UNL A   1      43.854  35.532  32.526  1.00  0.00     0.060 A 
BRANCH  56  57
ATOM     57  S   UNL A   1      43.757  37.238  33.110  1.00  0.00     0.124 S 
ATOM     58  O   UNL A   1      42.580  37.187  33.969  1.00  0.00    -0.237 OA
ATOM     59  O   UNL A   1      45.038  37.402  33.790  1.00  0.00    -0.237 OA
ATOM     60  O   UNL A   1      43.606  38.008  31.878  1.00  0.00    -0.744 OA
ENDBRANCH  56  57
ENDBRANCH  24  49
BRANCH  36  61
ATOM     61  C   UNL A   1      48.172  27.486  30.514  1.00  0.00     0.058 A 
ATOM     62  C   UNL A   1      48.515  26.757  31.662  1.00  0.00     0.135 A 
ATOM     63  C   UNL A   1      49.205  27.885  29.653  1.00  0.00     0.135 A 
ATOM     64  F   UNL A   1      47.563  26.363  32.522  1.00  0.00    -0.206 F 
ATOM     65  C   UNL A   1      49.836  26.424  31.941  1.00  0.00     0.059 A 
ATOM     66  C   UNL A   1      50.531  27.545  29.900  1.00  0.00     0.059 A 
ATOM     67  F   UNL A   1      48.927  28.581  28.538  1.00  0.00    -0.206 F 
ATOM     68  C   UNL A   1      50.836  26.812  31.048  1.00  0.00     0.060 A 
BRANCH  68  69
ATOM     69  S   UNL A   1      52.534  26.299  31.381  1.00  0.00     0.124 S 
ATOM     70  O   UNL A   1      52.328  25.042  32.092  1.00  0.00    -0.237 OA
ATOM     71  O   UNL A   1      53.093  26.184  30.037  1.00  0.00    -0.237 OA
ATOM     72  O   UNL A   1      53.069  27.394  32.184  1.00  0.00    -0.744 OA
ENDBRANCH  68  69
ENDBRANCH  36  61
ENDBRANCH  10  11
ENDBRANCH   3   5
ENDBRANCH   2   3
ENDBRANCH   1   2
BRANCH   1  73
ATOM     73  C   UNL A   1      33.743  34.002  28.379  1.00  0.00     0.275 C 
BRANCH  73  74
ATOM     74  O   UNL A   1      32.928  34.380  29.494  1.00  0.00    -0.458 OA
BRANCH  74  75
ATOM     75  C   UNL A   1      33.151  35.628  29.986  1.00  0.00     0.342 C 
ATOM     76  O   UNL A   1      32.825  36.681  29.472  1.00  0.00    -0.246 OA
BRANCH  75  77
ATOM     77  C   UNL A   1      33.730  35.542  31.343  1.00  0.00     0.102 A 
ATOM     78  C   UNL A   1      34.690  34.543  31.578  1.00  0.00     0.028 A 
ATOM     79  C   UNL A   1      33.337  36.391  32.382  1.00  0.00     0.130 A 
ATOM     80  C   UNL A   1      35.309  34.441  32.831  1.00  0.00    -0.017 A 
ATOM     81  C   UNL A   1      33.941  36.283  33.635  1.00  0.00     0.048 A 
ATOM     82  C   UNL A   1      34.934  35.326  33.850  1.00  0.00     0.012 A 
BRANCH  79  83
ATOM     83  O   UNL A   1      32.347  37.313  32.190  1.00  0.00    -0.507 OA
ATOM     84  H   UNL A   1      32.161  37.945  32.856  1.00  0.00     0.293 HD
ENDBRANCH  79  83
BRANCH  80  85
ATOM     85  C   UNL A   1      36.318  33.402  33.115  1.00  0.00    -0.011 A 
ATOM     86  C   UNL A   1      37.004  32.698  32.050  1.00  0.00     0.027 A 
ATOM     87  C   UNL A   1      36.571  33.054  34.388  1.00  0.00     0.080 A 
ATOM     88  C   UNL A   1      37.855  31.704  32.326  1.00  0.00     0.095 A 
ATOM     89  C   UNL A   1      37.537  31.967  34.715  1.00  0.00     0.255 A 
ATOM     90  N   UNL A   1      38.119  31.333  33.631  1.00  0.00    -0.258 N 
ATOM     91  O   UNL A   1      37.753  31.707  35.894  1.00  0.00    -0.269 OA
BRANCH  90  92
ATOM     92  C   UNL A   1      39.020  30.250  33.919  1.00  0.00     0.451 C 
ATOM     93  F   UNL A   1      39.155  29.425  32.852  1.00  0.00    -0.185 F 
ATOM     94  F   UNL A   1      40.250  30.705  34.257  1.00  0.00    -0.185 F 
ENDBRANCH  90  92
ENDBRANCH  80  85
ENDBRANCH  75  77
ENDBRANCH  74  75
ENDBRANCH  73  74
ENDBRANCH   1  73
TORSDOF 17
ENDMDL
MODEL 2
REMARK VINA RESULT:     -10.8      3.001     11.840
REMARK SMILES O=C(OCCOC(=O)c1cc(-c2ccn(C(F)F)c(=O)c2)ccc1O)c1ccc(-c2c3nc(c(-c4c(F)cc(S(=O)(=O)[O-])cc4F)c4ccc([nH]4)c(-c4c(F)cc(S(=O)(=O)[O-])cc4F)c4nc(c(-c5c(F)cc(S(=O)(=O)[O-])cc5F)c5ccc2[nH]5)C=C4)C=C3)cc1
REMARK SMILES IDX 4 1 3 2 2 3 1 4 26 5 27 6 91 7 28 8 90 9 29 10 30 11 31 12
REMARK SMILES IDX 84 13 32 14 89 15 83 16 85 17 33 18 88 19 82 20 81 21 34 23
REMARK SMILES IDX 68 24 47 25 67 26 48 27 51 28 66 29 86 30 49 31 50 32 65 34
REMARK SMILES IDX 87 35 52 36 35 37 36 38 45 39 37 40 38 41 44 42 46 43 39 44
REMARK SMILES IDX 40 45 41 46 42 47 43 48 69 49 70 50 79 51 71 52 72 53 78 54
REMARK SMILES IDX 80 55 73 56 74 57 75 58 76 59 77 60 53 61 54 62 63 63 55 64
REMARK SMILES IDX 56 65 62 66 64 67 57 68 58 69 59 70 60 71 61 72 5 73 6 74
REMARK SMILES IDX 7 75 8 76 9 77 10 78 24 79 11 80 23 81 22 82 25 83 12 85
REMARK SMILES IDX 13 86 21 87 14 88 19 89 15 90 20 91 16 92 17 93 18 94
REMARK H PARENT 85 22 51 33 25 84
REMARK Flexibility Score: inf
ROOT
ATOM      1  C   UNL A   1      40.137  21.145  26.710  1.00  0.00     0.275 C 
ENDROOT
BRANCH   1   2
ATOM      2  O   UNL A   1      39.474  22.015  25.776  1.00  0.00    -0.458 OA
BRANCH   2   3
ATOM      3  C   UNL A   1      38.750  23.134  26.006  1.00  0.00     0.338 C 
ATOM      4  O   UNL A   1      37.617  23.214  25.530  1.00  0.00    -0.246 OA
BRANCH   3   5
ATOM      5  C   UNL A   1      39.300  24.344  26.690  1.00  0.00     0.060 A 
ATOM      6  C   UNL A   1      38.912  24.517  28.026  1.00  0.00     0.016 A 
ATOM      7  C   UNL A   1      40.186  25.275  26.145  1.00  0.00     0.016 A 
ATOM      8  C   UNL A   1      39.296  25.647  28.754  1.00  0.00     0.010 A 
ATOM      9  C   UNL A   1      40.587  26.404  26.877  1.00  0.00     0.010 A 
ATOM     10  C   UNL A   1      40.126  26.614  28.179  1.00  0.00    -0.014 A 
BRANCH  10  11
ATOM     11  C   UNL A   1      40.595  27.758  28.999  1.00  0.00     0.031 A 
ATOM     12  C   UNL A   1      39.792  29.018  29.139  1.00  0.00     0.074 A 
ATOM     13  C   UNL A   1      41.764  27.635  29.655  1.00  0.00     0.049 A 
ATOM     14  N   UNL A   1      39.934  29.986  30.007  1.00  0.00    -0.248 NA
ATOM     15  C   UNL A   1      38.679  29.218  28.201  1.00  0.00     0.031 C 
ATOM     16  C   UNL A   1      42.652  26.474  29.567  1.00  0.00     0.029 A 
ATOM     17  N   UNL A   1      42.403  28.481  30.522  1.00  0.00    -0.354 N 
ATOM     18  C   UNL A   1      38.887  30.867  29.776  1.00  0.00     0.074 A 
ATOM     19  C   UNL A   1      38.156  30.360  28.635  1.00  0.00     0.031 C 
ATOM     20  C   UNL A   1      43.714  26.675  30.361  1.00  0.00     0.029 A 
ATOM     21  C   UNL A   1      43.594  27.984  30.994  1.00  0.00     0.049 A 
ATOM     22  H   UNL A   1      42.043  29.360  30.783  1.00  0.00     0.167 HD
ATOM     23  C   UNL A   1      38.557  31.983  30.469  1.00  0.00     0.037 A 
ATOM     24  C   UNL A   1      44.495  28.524  31.836  1.00  0.00     0.037 A 
ATOM     25  C   UNL A   1      39.375  32.553  31.508  1.00  0.00     0.049 A 
ATOM     26  C   UNL A   1      44.209  29.861  32.451  1.00  0.00     0.074 A 
ATOM     27  C   UNL A   1      39.134  33.674  32.283  1.00  0.00     0.029 A 
ATOM     28  N   UNL A   1      40.632  32.084  31.867  1.00  0.00    -0.354 N 
ATOM     29  N   UNL A   1      43.125  30.594  32.349  1.00  0.00    -0.248 NA
ATOM     30  C   UNL A   1      45.261  30.452  33.287  1.00  0.00     0.031 C 
ATOM     31  C   UNL A   1      40.281  33.931  33.045  1.00  0.00     0.029 A 
ATOM     32  C   UNL A   1      41.215  32.939  32.786  1.00  0.00     0.049 A 
ATOM     33  H   UNL A   1      41.049  31.263  31.518  1.00  0.00     0.167 HD
ATOM     34  C   UNL A   1      43.362  31.733  33.108  1.00  0.00     0.074 A 
ATOM     35  C   UNL A   1      44.688  31.586  33.675  1.00  0.00     0.031 C 
ATOM     36  C   UNL A   1      42.551  32.801  33.313  1.00  0.00     0.037 A 
BRANCH  23  37
ATOM     37  C   UNL A   1      37.264  32.667  30.120  1.00  0.00     0.058 A 
ATOM     38  C   UNL A   1      37.234  33.712  29.181  1.00  0.00     0.135 A 
ATOM     39  C   UNL A   1      36.045  32.249  30.674  1.00  0.00     0.135 A 
ATOM     40  F   UNL A   1      38.373  34.168  28.636  1.00  0.00    -0.206 F 
ATOM     41  C   UNL A   1      36.040  34.324  28.813  1.00  0.00     0.059 A 
ATOM     42  C   UNL A   1      34.837  32.840  30.313  1.00  0.00     0.059 A 
ATOM     43  F   UNL A   1      36.021  31.261  31.583  1.00  0.00    -0.206 F 
ATOM     44  C   UNL A   1      34.846  33.882  29.386  1.00  0.00     0.060 A 
BRANCH  44  45
ATOM     45  S   UNL A   1      33.315  34.714  28.913  1.00  0.00     0.124 S 
ATOM     46  O   UNL A   1      32.637  34.821  30.201  1.00  0.00    -0.237 OA
ATOM     47  O   UNL A   1      33.807  35.966  28.350  1.00  0.00    -0.237 OA
ATOM     48  O   UNL A   1      32.705  33.792  27.960  1.00  0.00    -0.744 OA
ENDBRANCH  44  45
ENDBRANCH  23  37
BRANCH  24  49
ATOM     49  C   UNL A   1      45.742  27.771  32.124  1.00  0.00     0.058 A 
ATOM     50  C   UNL A   1      46.861  27.876  31.290  1.00  0.00     0.135 A 
ATOM     51  C   UNL A   1      45.870  27.020  33.306  1.00  0.00     0.135 A 
ATOM     52  F   UNL A   1      46.783  28.575  30.148  1.00  0.00    -0.206 F 
ATOM     53  C   UNL A   1      48.075  27.284  31.628  1.00  0.00     0.059 A 
ATOM     54  C   UNL A   1      47.076  26.437  33.674  1.00  0.00     0.059 A 
ATOM     55  F   UNL A   1      44.826  26.902  34.142  1.00  0.00    -0.206 F 
ATOM     56  C   UNL A   1      48.177  26.580  32.830  1.00  0.00     0.060 A 
BRANCH  56  57
ATOM     57  S   UNL A   1      49.784  25.910  33.310  1.00  0.00     0.124 S 
ATOM     58  O   UNL A   1      50.656  27.058  33.093  1.00  0.00    -0.237 OA
ATOM     59  O   UNL A   1      49.555  25.535  34.701  1.00  0.00    -0.237 OA
ATOM     60  O   UNL A   1      49.971  24.792  32.389  1.00  0.00    -0.744 OA
ENDBRANCH  56  57
ENDBRANCH  24  49
BRANCH  36  61
ATOM     61  C   UNL A   1      43.086  33.927  34.150  1.00  0.00     0.058 A 
ATOM     62  C   UNL A   1      43.667  35.056  33.553  1.00  0.00     0.135 A 
ATOM     63  C   UNL A   1      42.928  33.926  35.544  1.00  0.00     0.135 A 
ATOM     64  F   UNL A   1      43.850  35.099  32.224  1.00  0.00    -0.206 F 
ATOM     65  C   UNL A   1      44.068  36.151  34.310  1.00  0.00     0.059 A 
ATOM     66  C   UNL A   1      43.301  35.020  36.319  1.00  0.00     0.059 A 
ATOM     67  F   UNL A   1      42.373  32.871  36.162  1.00  0.00    -0.206 F 
ATOM     68  C   UNL A   1      43.870  36.129  35.692  1.00  0.00     0.060 A 
BRANCH  68  69
ATOM     69  S   UNL A   1      44.317  37.593  36.649  1.00  0.00     0.124 S 
ATOM     70  O   UNL A   1      44.234  38.642  35.639  1.00  0.00    -0.237 OA
ATOM     71  O   UNL A   1      43.281  37.619  37.677  1.00  0.00    -0.237 OA
ATOM     72  O   UNL A   1      45.661  37.287  37.129  1.00  0.00    -0.744 OA
ENDBRANCH  68  69
ENDBRANCH  36  61
ENDBRANCH  10  11
ENDBRANCH   3   5
ENDBRANCH   2   3
ENDBRANCH   1   2
BRANCH   1  73
ATOM     73  C   UNL A   1      40.456  19.753  26.172  1.00  0.00     0.275 C 
BRANCH  73  74
ATOM     74  O   UNL A   1      41.576  19.743  25.279  1.00  0.00    -0.458 OA
BRANCH  74  75
ATOM     75  C   UNL A   1      42.705  19.162  25.765  1.00  0.00     0.342 C 
ATOM     76  O   UNL A   1      42.802  18.046  26.241  1.00  0.00    -0.246 OA
BRANCH  75  77
ATOM     77  C   UNL A   1      43.875  20.027  25.503  1.00  0.00     0.102 A 
ATOM     78  C   UNL A   1      43.754  21.393  25.813  1.00  0.00     0.028 A 
ATOM     79  C   UNL A   1      45.058  19.540  24.942  1.00  0.00     0.130 A 
ATOM     80  C   UNL A   1      44.843  22.255  25.629  1.00  0.00    -0.017 A 
ATOM     81  C   UNL A   1      46.140  20.398  24.744  1.00  0.00     0.048 A 
ATOM     82  C   UNL A   1      46.037  21.744  25.104  1.00  0.00     0.012 A 
BRANCH  79  83
ATOM     83  O   UNL A   1      45.160  18.232  24.560  1.00  0.00    -0.507 OA
ATOM     84  H   UNL A   1      44.476  17.836  24.058  1.00  0.00     0.293 HD
ENDBRANCH  79  83
BRANCH  80  85
ATOM     85  C   UNL A   1      44.753  23.695  25.939  1.00  0.00    -0.011 A 
ATOM     86  C   UNL A   1      43.905  24.586  25.172  1.00  0.00     0.027 A 
ATOM     87  C   UNL A   1      45.514  24.212  26.919  1.00  0.00     0.080 A 
ATOM     88  C   UNL A   1      43.898  25.900  25.416  1.00  0.00     0.095 A 
ATOM     89  C   UNL A   1      45.498  25.671  27.223  1.00  0.00     0.255 A 
ATOM     90  N   UNL A   1      44.681  26.444  26.416  1.00  0.00    -0.258 N 
ATOM     91  O   UNL A   1      46.191  26.087  28.146  1.00  0.00    -0.269 OA
BRANCH  90  92
ATOM     92  C   UNL A   1      44.683  27.862  26.659  1.00  0.00     0.451 C 
ATOM     93  F   UNL A   1      45.265  28.536  25.637  1.00  0.00    -0.185 F 
ATOM     94  F   UNL A   1      43.425  28.339  26.816  1.00  0.00    -0.185 F 
ENDBRANCH  90  92
ENDBRANCH  80  85
ENDBRANCH  75  77
ENDBRANCH  74  75
ENDBRANCH  73  74
ENDBRANCH   1  73
TORSDOF 17
ENDMDL
MODEL 3
REMARK VINA RESULT:     -10.8      2.796     11.190
REMARK SMILES O=C(OCCOC(=O)c1cc(-c2ccn(C(F)F)c(=O)c2)ccc1O)c1ccc(-c2c3nc(c(-c4c(F)cc(S(=O)(=O)[O-])cc4F)c4ccc([nH]4)c(-c4c(F)cc(S(=O)(=O)[O-])cc4F)c4nc(c(-c5c(F)cc(S(=O)(=O)[O-])cc5F)c5ccc2[nH]5)C=C4)C=C3)cc1
REMARK SMILES IDX 4 1 3 2 2 3 1 4 26 5 27 6 91 7 28 8 90 9 29 10 30 11 31 12
REMARK SMILES IDX 84 13 32 14 89 15 83 16 85 17 33 18 88 19 82 20 81 21 34 23
REMARK SMILES IDX 68 24 47 25 67 26 48 27 51 28 66 29 86 30 49 31 50 32 65 34
REMARK SMILES IDX 87 35 52 36 35 37 36 38 45 39 37 40 38 41 44 42 46 43 39 44
REMARK SMILES IDX 40 45 41 46 42 47 43 48 69 49 70 50 79 51 71 52 72 53 78 54
REMARK SMILES IDX 80 55 73 56 74 57 75 58 76 59 77 60 53 61 54 62 63 63 55 64
REMARK SMILES IDX 56 65 62 66 64 67 57 68 58 69 59 70 60 71 61 72 5 73 6 74
REMARK SMILES IDX 7 75 8 76 9 77 10 78 24 79 11 80 23 81 22 82 25 83 12 85
REMARK SMILES IDX 13 86 21 87 14 88 19 89 15 90 20 91 16 92 17 93 18 94
REMARK H PARENT 85 22 51 33 25 84
REMARK Flexibility Score: inf
ROOT
ATOM      1  C   UNL A   1      40.509  21.435  26.864  1.00  0.00     0.275 C 
ENDROOT
BRANCH   1   2
ATOM      2  O   UNL A   1      39.245  21.769  26.264  1.00  0.00    -0.458 OA
BRANCH   2   3
ATOM      3  C   UNL A   1      38.607  22.960  26.206  1.00  0.00     0.338 C 
ATOM      4  O   UNL A   1      37.581  23.050  25.532  1.00  0.00    -0.246 OA
BRANCH   3   5
ATOM      5  C   UNL A   1      39.156  24.217  26.801  1.00  0.00     0.060 A 
ATOM      6  C   UNL A   1      38.855  24.432  28.154  1.00  0.00     0.016 A 
ATOM      7  C   UNL A   1      39.965  25.156  26.159  1.00  0.00     0.016 A 
ATOM      8  C   UNL A   1      39.245  25.604  28.807  1.00  0.00     0.010 A 
ATOM      9  C   UNL A   1      40.372  26.328  26.815  1.00  0.00     0.010 A 
ATOM     10  C   UNL A   1      39.995  26.576  28.138  1.00  0.00    -0.014 A 
BRANCH  10  11
ATOM     11  C   UNL A   1      40.475  27.769  28.877  1.00  0.00     0.031 A 
ATOM     12  C   UNL A   1      41.868  27.854  29.429  1.00  0.00     0.074 A 
ATOM     13  C   UNL A   1      39.633  28.810  29.024  1.00  0.00     0.049 A 
ATOM     14  N   UNL A   1      42.512  28.907  29.864  1.00  0.00    -0.248 NA
ATOM     15  C   UNL A   1      42.648  26.611  29.492  1.00  0.00     0.031 C 
ATOM     16  C   UNL A   1      38.243  28.829  28.566  1.00  0.00     0.029 A 
ATOM     17  N   UNL A   1      39.819  30.043  29.590  1.00  0.00    -0.354 N 
ATOM     18  C   UNL A   1      43.794  28.472  30.173  1.00  0.00     0.074 A 
ATOM     19  C   UNL A   1      43.817  27.043  29.949  1.00  0.00     0.031 C 
ATOM     20  C   UNL A   1      37.705  30.023  28.854  1.00  0.00     0.029 A 
ATOM     21  C   UNL A   1      38.701  30.842  29.538  1.00  0.00     0.049 A 
ATOM     22  H   UNL A   1      40.669  30.330  29.994  1.00  0.00     0.167 HD
ATOM     23  C   UNL A   1      44.855  29.206  30.585  1.00  0.00     0.037 A 
ATOM     24  C   UNL A   1      38.497  32.091  29.995  1.00  0.00     0.037 A 
ATOM     25  C   UNL A   1      44.776  30.599  30.942  1.00  0.00     0.049 A 
ATOM     26  C   UNL A   1      39.636  32.830  30.632  1.00  0.00     0.074 A 
ATOM     27  C   UNL A   1      45.789  31.444  31.362  1.00  0.00     0.029 A 
ATOM     28  N   UNL A   1      43.599  31.334  30.991  1.00  0.00    -0.354 N 
ATOM     29  N   UNL A   1      40.888  32.456  30.753  1.00  0.00    -0.248 NA
ATOM     30  C   UNL A   1      39.342  34.151  31.200  1.00  0.00     0.031 C 
ATOM     31  C   UNL A   1      45.210  32.660  31.747  1.00  0.00     0.029 A 
ATOM     32  C   UNL A   1      43.844  32.592  31.515  1.00  0.00     0.049 A 
ATOM     33  H   UNL A   1      42.718  31.008  30.696  1.00  0.00     0.167 HD
ATOM     34  C   UNL A   1      41.533  33.495  31.412  1.00  0.00     0.074 A 
ATOM     35  C   UNL A   1      40.536  34.520  31.649  1.00  0.00     0.031 C 
ATOM     36  C   UNL A   1      42.835  33.588  31.782  1.00  0.00     0.037 A 
BRANCH  23  37
ATOM     37  C   UNL A   1      46.187  28.516  30.683  1.00  0.00     0.058 A 
ATOM     38  C   UNL A   1      46.614  27.944  31.892  1.00  0.00     0.135 A 
ATOM     39  C   UNL A   1      47.018  28.373  29.561  1.00  0.00     0.135 A 
ATOM     40  F   UNL A   1      45.869  28.070  33.003  1.00  0.00    -0.206 F 
ATOM     41  C   UNL A   1      47.823  27.262  31.988  1.00  0.00     0.059 A 
ATOM     42  C   UNL A   1      48.228  27.686  29.631  1.00  0.00     0.059 A 
ATOM     43  F   UNL A   1      46.661  28.910  28.384  1.00  0.00    -0.206 F 
ATOM     44  C   UNL A   1      48.624  27.140  30.851  1.00  0.00     0.060 A 
BRANCH  44  45
ATOM     45  S   UNL A   1      50.202  26.277  31.009  1.00  0.00     0.124 S 
ATOM     46  O   UNL A   1      50.082  25.264  29.966  1.00  0.00    -0.237 OA
ATOM     47  O   UNL A   1      51.163  27.344  30.750  1.00  0.00    -0.237 OA
ATOM     48  O   UNL A   1      50.179  25.771  32.378  1.00  0.00    -0.744 OA
ENDBRANCH  44  45
ENDBRANCH  23  37
BRANCH  24  49
ATOM     49  C   UNL A   1      37.146  32.692  29.849  1.00  0.00     0.058 A 
ATOM     50  C   UNL A   1      36.179  32.549  30.851  1.00  0.00     0.135 A 
ATOM     51  C   UNL A   1      36.842  33.515  28.752  1.00  0.00     0.135 A 
ATOM     52  F   UNL A   1      36.422  31.767  31.913  1.00  0.00    -0.206 F 
ATOM     53  C   UNL A   1      34.963  33.223  30.784  1.00  0.00     0.059 A 
ATOM     54  C   UNL A   1      35.643  34.213  28.673  1.00  0.00     0.059 A 
ATOM     55  F   UNL A   1      37.744  33.691  27.773  1.00  0.00    -0.206 F 
ATOM     56  C   UNL A   1      34.710  34.065  29.699  1.00  0.00     0.060 A 
BRANCH  56  57
ATOM     57  S   UNL A   1      33.176  35.018  29.677  1.00  0.00     0.124 S 
ATOM     58  O   UNL A   1      33.652  36.329  29.250  1.00  0.00    -0.237 OA
ATOM     59  O   UNL A   1      32.373  34.283  28.706  1.00  0.00    -0.237 OA
ATOM     60  O   UNL A   1      32.709  34.936  31.059  1.00  0.00    -0.744 OA
ENDBRANCH  56  57
ENDBRANCH  24  49
BRANCH  36  61
ATOM     61  C   UNL A   1      43.257  34.819  32.531  1.00  0.00     0.058 A 
ATOM     62  C   UNL A   1      43.762  35.938  31.852  1.00  0.00     0.135 A 
ATOM     63  C   UNL A   1      43.065  34.920  33.917  1.00  0.00     0.135 A 
ATOM     64  F   UNL A   1      43.975  35.886  30.528  1.00  0.00    -0.206 F 
ATOM     65  C   UNL A   1      44.056  37.120  32.522  1.00  0.00     0.059 A 
ATOM     66  C   UNL A   1      43.330  36.100  34.604  1.00  0.00     0.059 A 
ATOM     67  F   UNL A   1      42.578  33.878  34.611  1.00  0.00    -0.206 F 
ATOM     68  C   UNL A   1      43.825  37.196  33.897  1.00  0.00     0.060 A 
BRANCH  68  69
ATOM     69  S   UNL A   1      44.130  38.765  34.735  1.00  0.00     0.124 S 
ATOM     70  O   UNL A   1      43.069  39.603  34.189  1.00  0.00    -0.237 OA
ATOM     71  O   UNL A   1      43.989  38.398  36.141  1.00  0.00    -0.237 OA
ATOM     72  O   UNL A   1      45.485  39.115  34.318  1.00  0.00    -0.744 OA
ENDBRANCH  68  69
ENDBRANCH  36  61
ENDBRANCH  10  11
ENDBRANCH   3   5
ENDBRANCH   2   3
ENDBRANCH   1   2
BRANCH   1  73
ATOM     73  C   UNL A   1      40.980  20.006  26.610  1.00  0.00     0.275 C 
BRANCH  73  74
ATOM     74  O   UNL A   1      41.879  19.904  25.499  1.00  0.00    -0.458 OA
BRANCH  74  75
ATOM     75  C   UNL A   1      43.022  19.207  25.735  1.00  0.00     0.342 C 
ATOM     76  O   UNL A   1      43.106  18.043  26.081  1.00  0.00    -0.246 OA
BRANCH  75  77
ATOM     77  C   UNL A   1      44.199  20.021  25.365  1.00  0.00     0.102 A 
ATOM     78  C   UNL A   1      44.078  21.418  25.459  1.00  0.00     0.028 A 
ATOM     79  C   UNL A   1      45.391  19.453  24.907  1.00  0.00     0.130 A 
ATOM     80  C   UNL A   1      45.172  22.242  25.166  1.00  0.00    -0.017 A 
ATOM     81  C   UNL A   1      46.479  20.271  24.601  1.00  0.00     0.048 A 
ATOM     82  C   UNL A   1      46.374  21.655  24.749  1.00  0.00     0.012 A 
BRANCH  79  83
ATOM     83  O   UNL A   1      45.496  18.102  24.733  1.00  0.00    -0.507 OA
ATOM     84  H   UNL A   1      45.104  17.518  25.352  1.00  0.00     0.293 HD
ENDBRANCH  79  83
BRANCH  80  85
ATOM     85  C   UNL A   1      45.081  23.712  25.250  1.00  0.00    -0.011 A 
ATOM     86  C   UNL A   1      46.183  24.515  25.741  1.00  0.00     0.027 A 
ATOM     87  C   UNL A   1      43.932  24.325  24.918  1.00  0.00     0.080 A 
ATOM     88  C   UNL A   1      46.052  25.838  25.886  1.00  0.00     0.095 A 
ATOM     89  C   UNL A   1      43.778  25.802  25.047  1.00  0.00     0.255 A 
ATOM     90  N   UNL A   1      44.873  26.479  25.553  1.00  0.00    -0.258 N 
ATOM     91  O   UNL A   1      42.718  26.315  24.704  1.00  0.00    -0.269 OA
BRANCH  90  92
ATOM     92  C   UNL A   1      44.734  27.900  25.731  1.00  0.00     0.451 C 
ATOM     93  F   UNL A   1      44.231  28.196  26.954  1.00  0.00    -0.185 F 
ATOM     94  F   UNL A   1      45.924  28.533  25.600  1.00  0.00    -0.185 F 
ENDBRANCH  90  92
ENDBRANCH  80  85
ENDBRANCH  75  77
ENDBRANCH  74  75
ENDBRANCH  73  74
ENDBRANCH   1  73
TORSDOF 17
ENDMDL
