MODEL 1
REMARK VINA RESULT:     -12.8      0.000      0.000
REMARK SMILES Cc1ccccc1NC(=O)c1ccccc1NC(=O)CCC(=O)OCCOC(=O)c1ccc(-c2c3nc(c(-c4c(F)cc(S(=O)(=O)[O-])cc4F)c4ccc([nH]4)c(-c4c(F)cc(S(=O)(=O)[O-])cc4F)c4nc(c(-c5c(F)cc(S(=O)(=O)[O-])cc5F)c5ccc2[nH]5)C=C4)C=C3)cc1
REMARK SMILES IDX 25 1 24 2 22 3 23 4 21 5 20 6 18 7 17 8 19 10 16 11 11 12
REMARK SMILES IDX 12 13 13 14 15 15 14 16 9 17 8 18 10 20 7 21 1 22 2 23 3 24
REMARK SMILES IDX 4 25 6 26 5 27 26 28 27 29 28 30 29 31 30 32 31 33 95 34
REMARK SMILES IDX 32 35 94 36 33 37 34 38 35 39 88 40 36 41 93 42 87 43 89 44
REMARK SMILES IDX 37 45 92 46 86 47 85 48 38 50 72 51 51 52 71 53 52 54 55 55
REMARK SMILES IDX 70 56 90 57 53 58 54 59 69 61 91 62 56 63 39 64 40 65 49 66
REMARK SMILES IDX 41 67 42 68 48 69 50 70 43 71 44 72 45 73 46 74 47 75 73 76
REMARK SMILES IDX 74 77 83 78 75 79 76 80 82 81 84 82 77 83 78 84 79 85 80 86
REMARK SMILES IDX 81 87 57 88 58 89 67 90 59 91 60 92 66 93 68 94 61 95 62 96
REMARK SMILES IDX 63 97 64 98 65 99
REMARK H PARENT 17 9 8 19 89 49 55 60
REMARK Flexibility Score: inf
ROOT
ATOM      1  C   UNL A   1      31.694  29.880  25.439  1.00  0.00     0.274 C 
ENDROOT
BRANCH   1   2
ATOM      2  O   UNL A   1      31.538  28.442  25.218  1.00  0.00    -0.462 OA
BRANCH   2   3
ATOM      3  C   UNL A   1      31.933  28.088  24.005  1.00  0.00     0.306 C 
ATOM      4  O   UNL A   1      32.414  28.912  23.294  1.00  0.00    -0.252 OA
BRANCH   3   5
ATOM      5  C   UNL A   1      31.968  26.730  23.454  1.00  0.00     0.132 C 
BRANCH   5   6
ATOM      6  C   UNL A   1      33.365  26.255  23.958  1.00  0.00     0.112 C 
BRANCH   6   7
ATOM      7  C   UNL A   1      33.898  25.376  22.871  1.00  0.00     0.224 C 
ATOM      8  N   UNL A   1      33.994  24.012  23.036  1.00  0.00    -0.325 N 
ATOM      9  H   UNL A   1      33.249  23.549  22.589  1.00  0.00     0.169 HD
ATOM     10  O   UNL A   1      33.707  25.854  21.746  1.00  0.00    -0.275 OA
BRANCH   8  11
ATOM     11  C   UNL A   1      34.872  23.080  23.673  1.00  0.00     0.054 A 
ATOM     12  C   UNL A   1      34.389  22.320  24.793  1.00  0.00     0.063 A 
ATOM     13  C   UNL A   1      35.281  21.579  25.613  1.00  0.00     0.016 A 
ATOM     14  C   UNL A   1      36.635  21.513  25.298  1.00  0.00     0.001 A 
ATOM     15  C   UNL A   1      36.204  22.885  23.304  1.00  0.00     0.027 A 
ATOM     16  C   UNL A   1      37.081  22.128  24.125  1.00  0.00     0.002 A 
BRANCH  12  17
ATOM     17  C   UNL A   1      32.981  22.344  25.293  1.00  0.00     0.257 C 
ATOM     18  N   UNL A   1      32.088  21.313  25.079  1.00  0.00    -0.322 N 
ATOM     19  H   UNL A   1      31.157  21.521  25.320  1.00  0.00     0.170 HD
ATOM     20  O   UNL A   1      32.577  23.357  25.869  1.00  0.00    -0.269 OA
BRANCH  18  21
ATOM     21  C   UNL A   1      32.285  20.011  24.572  1.00  0.00     0.044 A 
ATOM     22  C   UNL A   1      31.923  20.915  22.181  1.00  0.00     0.046 C 
ATOM     23  C   UNL A   1      32.246  19.824  23.174  1.00  0.00    -0.027 A 
ATOM     24  C   UNL A   1      32.752  18.620  22.646  1.00  0.00     0.005 A 
ATOM     25  C   UNL A   1      33.366  17.676  23.475  1.00  0.00     0.000 A 
ATOM     26  C   UNL A   1      32.763  18.983  25.403  1.00  0.00     0.026 A 
ATOM     27  C   UNL A   1      33.370  17.856  24.852  1.00  0.00     0.002 A 
ENDBRANCH  18  21
ENDBRANCH  12  17
ENDBRANCH   8  11
ENDBRANCH   6   7
ENDBRANCH   5   6
ENDBRANCH   3   5
ENDBRANCH   2   3
ENDBRANCH   1   2
BRANCH   1  28
ATOM     28  C   UNL A   1      32.468  30.606  26.691  1.00  0.00     0.275 C 
BRANCH  28  29
ATOM     29  O   UNL A   1      33.685  30.380  27.624  1.00  0.00    -0.458 OA
BRANCH  29  30
ATOM     30  C   UNL A   1      34.895  29.641  27.643  1.00  0.00     0.338 C 
ATOM     31  O   UNL A   1      35.167  28.808  26.792  1.00  0.00    -0.246 OA
BRANCH  30  32
ATOM     32  C   UNL A   1      35.857  30.075  28.720  1.00  0.00     0.060 A 
ATOM     33  C   UNL A   1      35.953  29.761  30.102  1.00  0.00     0.016 A 
ATOM     34  C   UNL A   1      37.016  30.313  28.116  1.00  0.00     0.016 A 
ATOM     35  C   UNL A   1      37.267  29.524  30.644  1.00  0.00     0.010 A 
ATOM     36  C   UNL A   1      37.815  29.299  28.449  1.00  0.00     0.010 A 
ATOM     37  C   UNL A   1      38.275  29.306  29.714  1.00  0.00    -0.014 A 
BRANCH  37  38
ATOM     38  C   UNL A   1      39.726  29.030  29.567  1.00  0.00     0.031 A 
ATOM     39  C   UNL A   1      40.081  27.685  29.072  1.00  0.00     0.074 A 
ATOM     40  C   UNL A   1      40.515  30.176  29.528  1.00  0.00     0.049 A 
ATOM     41  N   UNL A   1      40.590  26.678  29.702  1.00  0.00    -0.248 NA
ATOM     42  C   UNL A   1      39.687  27.322  27.700  1.00  0.00     0.031 C 
ATOM     43  C   UNL A   1      41.905  30.550  29.360  1.00  0.00     0.029 A 
ATOM     44  N   UNL A   1      40.000  31.493  29.751  1.00  0.00    -0.354 N 
ATOM     45  C   UNL A   1      41.079  25.857  28.685  1.00  0.00     0.074 A 
ATOM     46  C   UNL A   1      40.193  26.094  27.568  1.00  0.00     0.031 C 
ATOM     47  C   UNL A   1      42.110  31.710  30.056  1.00  0.00     0.029 A 
ATOM     48  C   UNL A   1      40.823  32.204  30.581  1.00  0.00     0.049 A 
ATOM     49  H   UNL A   1      39.165  31.841  29.359  1.00  0.00     0.167 HD
ATOM     50  C   UNL A   1      42.438  25.690  28.542  1.00  0.00     0.037 A 
ATOM     51  C   UNL A   1      40.305  32.316  31.844  1.00  0.00     0.037 A 
ATOM     52  C   UNL A   1      43.145  26.683  29.368  1.00  0.00     0.049 A 
ATOM     53  C   UNL A   1      40.969  31.214  32.634  1.00  0.00     0.074 A 
ATOM     54  C   UNL A   1      43.926  27.787  29.074  1.00  0.00     0.029 A 
ATOM     55  N   UNL A   1      42.825  26.796  30.715  1.00  0.00    -0.354 N 
ATOM     56  N   UNL A   1      41.363  30.083  32.109  1.00  0.00    -0.248 NA
ATOM     57  C   UNL A   1      41.440  31.398  33.995  1.00  0.00     0.031 C 
ATOM     58  C   UNL A   1      44.012  28.586  30.256  1.00  0.00     0.029 A 
ATOM     59  C   UNL A   1      43.207  28.019  31.234  1.00  0.00     0.049 A 
ATOM     60  H   UNL A   1      42.378  26.090  31.237  1.00  0.00     0.167 HD
ATOM     61  C   UNL A   1      42.227  29.461  32.952  1.00  0.00     0.074 A 
ATOM     62  C   UNL A   1      42.218  30.311  34.136  1.00  0.00     0.031 C 
ATOM     63  C   UNL A   1      42.917  28.324  32.634  1.00  0.00     0.037 A 
BRANCH  50  64
ATOM     64  C   UNL A   1      43.131  24.850  27.467  1.00  0.00     0.058 A 
ATOM     65  C   UNL A   1      43.671  25.465  26.313  1.00  0.00     0.135 A 
ATOM     66  C   UNL A   1      43.417  23.467  27.569  1.00  0.00     0.135 A 
ATOM     67  F   UNL A   1      43.541  26.781  26.097  1.00  0.00    -0.206 F 
ATOM     68  C   UNL A   1      44.408  24.777  25.343  1.00  0.00     0.059 A 
ATOM     69  C   UNL A   1      44.131  22.750  26.594  1.00  0.00     0.059 A 
ATOM     70  F   UNL A   1      43.063  22.756  28.648  1.00  0.00    -0.206 F 
ATOM     71  C   UNL A   1      44.638  23.418  25.490  1.00  0.00     0.060 A 
BRANCH  71  72
ATOM     72  S   UNL A   1      45.656  22.574  24.260  1.00  0.00     0.124 S 
ATOM     73  O   UNL A   1      46.433  23.675  23.699  1.00  0.00    -0.237 OA
ATOM     74  O   UNL A   1      46.402  21.624  25.080  1.00  0.00    -0.237 OA
ATOM     75  O   UNL A   1      44.677  21.979  23.354  1.00  0.00    -0.744 OA
ENDBRANCH  71  72
ENDBRANCH  50  64
BRANCH  51  76
ATOM     76  C   UNL A   1      38.833  32.782  31.918  1.00  0.00     0.058 A 
ATOM     77  C   UNL A   1      37.928  32.043  32.734  1.00  0.00     0.135 A 
ATOM     78  C   UNL A   1      38.308  33.995  31.429  1.00  0.00     0.135 A 
ATOM     79  F   UNL A   1      38.318  30.873  33.269  1.00  0.00    -0.206 F 
ATOM     80  C   UNL A   1      36.655  32.508  33.122  1.00  0.00     0.059 A 
ATOM     81  C   UNL A   1      37.016  34.476  31.787  1.00  0.00     0.059 A 
ATOM     82  F   UNL A   1      39.065  34.795  30.664  1.00  0.00    -0.206 F 
ATOM     83  C   UNL A   1      36.205  33.739  32.658  1.00  0.00     0.060 A 
BRANCH  83  84
ATOM     84  S   UNL A   1      34.696  34.464  33.404  1.00  0.00     0.124 S 
ATOM     85  O   UNL A   1      35.051  34.519  34.818  1.00  0.00    -0.237 OA
ATOM     86  O   UNL A   1      34.609  35.762  32.738  1.00  0.00    -0.237 OA
ATOM     87  O   UNL A   1      33.662  33.496  33.055  1.00  0.00    -0.744 OA
ENDBRANCH  83  84
ENDBRANCH  51  76
BRANCH  63  88
ATOM     88  C   UNL A   1      43.432  27.386  33.686  1.00  0.00     0.058 A 
ATOM     89  C   UNL A   1      42.581  26.626  34.504  1.00  0.00     0.135 A 
ATOM     90  C   UNL A   1      44.812  27.092  33.785  1.00  0.00     0.135 A 
ATOM     91  F   UNL A   1      41.247  26.666  34.376  1.00  0.00    -0.206 F 
ATOM     92  C   UNL A   1      43.069  25.762  35.468  1.00  0.00     0.059 A 
ATOM     93  C   UNL A   1      45.312  26.145  34.662  1.00  0.00     0.059 A 
ATOM     94  F   UNL A   1      45.732  27.704  33.024  1.00  0.00    -0.206 F 
ATOM     95  C   UNL A   1      44.437  25.536  35.544  1.00  0.00     0.060 A 
BRANCH  95  96
ATOM     96  S   UNL A   1      45.061  24.444  36.818  1.00  0.00     0.124 S 
ATOM     97  O   UNL A   1      44.767  23.140  36.233  1.00  0.00    -0.237 OA
ATOM     98  O   UNL A   1      46.473  24.808  36.882  1.00  0.00    -0.237 OA
ATOM     99  O   UNL A   1      44.270  24.806  37.989  1.00  0.00    -0.744 OA
ENDBRANCH  95  96
ENDBRANCH  63  88
ENDBRANCH  37  38
ENDBRANCH  30  32
ENDBRANCH  29  30
ENDBRANCH  28  29
ENDBRANCH   1  28
TORSDOF 19
ENDMDL
MODEL 2
REMARK VINA RESULT:     -12.6      1.368      2.720
REMARK SMILES Cc1ccccc1NC(=O)c1ccccc1NC(=O)CCC(=O)OCCOC(=O)c1ccc(-c2c3nc(c(-c4c(F)cc(S(=O)(=O)[O-])cc4F)c4ccc([nH]4)c(-c4c(F)cc(S(=O)(=O)[O-])cc4F)c4nc(c(-c5c(F)cc(S(=O)(=O)[O-])cc5F)c5ccc2[nH]5)C=C4)C=C3)cc1
REMARK SMILES IDX 25 1 24 2 22 3 23 4 21 5 20 6 18 7 17 8 19 10 16 11 11 12
REMARK SMILES IDX 12 13 13 14 15 15 14 16 9 17 8 18 10 20 7 21 1 22 2 23 3 24
REMARK SMILES IDX 4 25 6 26 5 27 26 28 27 29 28 30 29 31 30 32 31 33 95 34
REMARK SMILES IDX 32 35 94 36 33 37 34 38 35 39 88 40 36 41 93 42 87 43 89 44
REMARK SMILES IDX 37 45 92 46 86 47 85 48 38 50 72 51 51 52 71 53 52 54 55 55
REMARK SMILES IDX 70 56 90 57 53 58 54 59 69 61 91 62 56 63 39 64 40 65 49 66
REMARK SMILES IDX 41 67 42 68 48 69 50 70 43 71 44 72 45 73 46 74 47 75 73 76
REMARK SMILES IDX 74 77 83 78 75 79 76 80 82 81 84 82 77 83 78 84 79 85 80 86
REMARK SMILES IDX 81 87 57 88 58 89 67 90 59 91 60 92 66 93 68 94 61 95 62 96
REMARK SMILES IDX 63 97 64 98 65 99
REMARK H PARENT 17 9 8 19 89 49 55 60
REMARK Flexibility Score: inf
ROOT
ATOM      1  C   UNL A   1      32.768  29.063  25.373  1.00  0.00     0.274 C 
ENDROOT
BRANCH   1   2
ATOM      2  O   UNL A   1      32.207  28.041  24.488  1.00  0.00    -0.462 OA
BRANCH   2   3
ATOM      3  C   UNL A   1      31.132  27.476  25.013  1.00  0.00     0.306 C 
ATOM      4  O   UNL A   1      30.138  27.415  24.361  1.00  0.00    -0.252 OA
BRANCH   3   5
ATOM      5  C   UNL A   1      31.046  26.777  26.298  1.00  0.00     0.132 C 
BRANCH   5   6
ATOM      6  C   UNL A   1      29.828  25.842  26.032  1.00  0.00     0.112 C 
BRANCH   6   7
ATOM      7  C   UNL A   1      30.363  24.450  26.161  1.00  0.00     0.224 C 
ATOM      8  N   UNL A   1      31.570  24.094  25.604  1.00  0.00    -0.325 N 
ATOM      9  H   UNL A   1      32.282  24.075  26.283  1.00  0.00     0.169 HD
ATOM     10  O   UNL A   1      29.962  23.888  27.187  1.00  0.00    -0.275 OA
BRANCH   8  11
ATOM     11  C   UNL A   1      32.081  23.743  24.315  1.00  0.00     0.054 A 
ATOM     12  C   UNL A   1      32.713  22.464  24.139  1.00  0.00     0.063 A 
ATOM     13  C   UNL A   1      33.456  22.170  22.964  1.00  0.00     0.016 A 
ATOM     14  C   UNL A   1      33.520  23.093  21.925  1.00  0.00     0.001 A 
ATOM     15  C   UNL A   1      32.049  24.589  23.206  1.00  0.00     0.027 A 
ATOM     16  C   UNL A   1      32.784  24.276  22.031  1.00  0.00     0.002 A 
BRANCH  12  17
ATOM     17  C   UNL A   1      32.788  21.401  25.187  1.00  0.00     0.257 C 
ATOM     18  N   UNL A   1      33.940  21.122  25.895  1.00  0.00    -0.322 N 
ATOM     19  H   UNL A   1      33.898  20.301  26.436  1.00  0.00     0.170 HD
ATOM     20  O   UNL A   1      31.794  20.698  25.386  1.00  0.00    -0.269 OA
BRANCH  18  21
ATOM     21  C   UNL A   1      35.167  21.813  25.973  1.00  0.00     0.044 A 
ATOM     22  C   UNL A   1      36.333  19.819  24.818  1.00  0.00     0.046 C 
ATOM     23  C   UNL A   1      36.314  21.205  25.418  1.00  0.00    -0.027 A 
ATOM     24  C   UNL A   1      37.454  22.003  25.201  1.00  0.00     0.005 A 
ATOM     25  C   UNL A   1      37.421  23.381  25.436  1.00  0.00     0.000 A 
ATOM     26  C   UNL A   1      35.205  23.166  26.349  1.00  0.00     0.026 A 
ATOM     27  C   UNL A   1      36.299  23.962  26.011  1.00  0.00     0.002 A 
ENDBRANCH  18  21
ENDBRANCH  12  17
ENDBRANCH   8  11
ENDBRANCH   6   7
ENDBRANCH   5   6
ENDBRANCH   3   5
ENDBRANCH   2   3
ENDBRANCH   1   2
BRANCH   1  28
ATOM     28  C   UNL A   1      34.022  28.884  26.416  1.00  0.00     0.275 C 
BRANCH  28  29
ATOM     29  O   UNL A   1      34.636  29.572  27.661  1.00  0.00    -0.458 OA
BRANCH  29  30
ATOM     30  C   UNL A   1      35.357  30.748  27.986  1.00  0.00     0.338 C 
ATOM     31  O   UNL A   1      35.178  31.808  27.405  1.00  0.00    -0.246 OA
BRANCH  30  32
ATOM     32  C   UNL A   1      36.253  30.601  29.190  1.00  0.00     0.060 A 
ATOM     33  C   UNL A   1      36.228  29.717  30.302  1.00  0.00     0.016 A 
ATOM     34  C   UNL A   1      37.465  30.987  28.807  1.00  0.00     0.016 A 
ATOM     35  C   UNL A   1      37.483  29.170  30.750  1.00  0.00     0.010 A 
ATOM     36  C   UNL A   1      38.187  29.870  28.704  1.00  0.00     0.010 A 
ATOM     37  C   UNL A   1      38.548  29.296  29.868  1.00  0.00    -0.014 A 
BRANCH  37  38
ATOM     38  C   UNL A   1      39.991  29.000  29.686  1.00  0.00     0.031 A 
ATOM     39  C   UNL A   1      40.313  27.667  29.141  1.00  0.00     0.074 A 
ATOM     40  C   UNL A   1      40.800  30.133  29.670  1.00  0.00     0.049 A 
ATOM     41  N   UNL A   1      40.815  26.631  29.728  1.00  0.00    -0.248 NA
ATOM     42  C   UNL A   1      39.890  27.356  27.764  1.00  0.00     0.031 C 
ATOM     43  C   UNL A   1      42.193  30.489  29.490  1.00  0.00     0.029 A 
ATOM     44  N   UNL A   1      40.312  31.451  29.945  1.00  0.00    -0.354 N 
ATOM     45  C   UNL A   1      41.272  25.835  28.675  1.00  0.00     0.074 A 
ATOM     46  C   UNL A   1      40.371  26.125  27.583  1.00  0.00     0.031 C 
ATOM     47  C   UNL A   1      42.430  31.621  30.220  1.00  0.00     0.029 A 
ATOM     48  C   UNL A   1      41.162  32.120  30.783  1.00  0.00     0.049 A 
ATOM     49  H   UNL A   1      39.477  31.826  29.580  1.00  0.00     0.167 HD
ATOM     50  C   UNL A   1      42.625  25.651  28.502  1.00  0.00     0.037 A 
ATOM     51  C   UNL A   1      40.668  32.199  32.058  1.00  0.00     0.037 A 
ATOM     52  C   UNL A   1      43.364  26.603  29.348  1.00  0.00     0.049 A 
ATOM     53  C   UNL A   1      41.325  31.060  32.800  1.00  0.00     0.074 A 
ATOM     54  C   UNL A   1      44.159  27.702  29.077  1.00  0.00     0.029 A 
ATOM     55  N   UNL A   1      43.069  26.677  30.704  1.00  0.00    -0.354 N 
ATOM     56  N   UNL A   1      41.690  29.940  32.231  1.00  0.00    -0.248 NA
ATOM     57  C   UNL A   1      41.823  31.191  34.157  1.00  0.00     0.031 C 
ATOM     58  C   UNL A   1      44.280  28.460  30.283  1.00  0.00     0.029 A 
ATOM     59  C   UNL A   1      43.482  27.875  31.255  1.00  0.00     0.049 A 
ATOM     60  H   UNL A   1      42.619  25.962  31.210  1.00  0.00     0.167 HD
ATOM     61  C   UNL A   1      42.558  29.276  33.038  1.00  0.00     0.074 A 
ATOM     62  C   UNL A   1      42.584  30.086  34.249  1.00  0.00     0.031 C 
ATOM     63  C   UNL A   1      43.222  28.139  32.670  1.00  0.00     0.037 A 
BRANCH  50  64
ATOM     64  C   UNL A   1      43.285  24.835  27.389  1.00  0.00     0.058 A 
ATOM     65  C   UNL A   1      43.621  23.477  27.597  1.00  0.00     0.135 A 
ATOM     66  C   UNL A   1      43.490  25.282  26.061  1.00  0.00     0.135 A 
ATOM     67  F   UNL A   1      43.430  22.884  28.783  1.00  0.00    -0.206 F 
ATOM     68  C   UNL A   1      44.128  22.643  26.594  1.00  0.00     0.059 A 
ATOM     69  C   UNL A   1      44.024  24.471  25.045  1.00  0.00     0.059 A 
ATOM     70  F   UNL A   1      43.131  26.513  25.672  1.00  0.00    -0.206 F 
ATOM     71  C   UNL A   1      44.325  23.145  25.317  1.00  0.00     0.060 A 
BRANCH  71  72
ATOM     72  S   UNL A   1      44.909  22.024  24.027  1.00  0.00     0.124 S 
ATOM     73  O   UNL A   1      44.189  22.508  22.853  1.00  0.00    -0.237 OA
ATOM     74  O   UNL A   1      46.347  22.269  24.035  1.00  0.00    -0.237 OA
ATOM     75  O   UNL A   1      44.499  20.706  24.506  1.00  0.00    -0.744 OA
ENDBRANCH  71  72
ENDBRANCH  50  64
BRANCH  51  76
ATOM     76  C   UNL A   1      39.206  32.687  32.174  1.00  0.00     0.058 A 
ATOM     77  C   UNL A   1      38.828  33.871  31.475  1.00  0.00     0.135 A 
ATOM     78  C   UNL A   1      38.123  31.978  32.733  1.00  0.00     0.135 A 
ATOM     79  F   UNL A   1      39.772  34.626  30.889  1.00  0.00    -0.206 F 
ATOM     80  C   UNL A   1      37.493  34.265  31.255  1.00  0.00     0.059 A 
ATOM     81  C   UNL A   1      36.766  32.369  32.544  1.00  0.00     0.059 A 
ATOM     82  F   UNL A   1      38.341  30.836  33.400  1.00  0.00    -0.206 F 
ATOM     83  C   UNL A   1      36.457  33.500  31.779  1.00  0.00     0.060 A 
BRANCH  83  84
ATOM     84  S   UNL A   1      34.742  33.848  31.235  1.00  0.00     0.124 S 
ATOM     85  O   UNL A   1      34.875  33.842  29.783  1.00  0.00    -0.237 OA
ATOM     86  O   UNL A   1      34.001  32.717  31.792  1.00  0.00    -0.237 OA
ATOM     87  O   UNL A   1      34.467  35.148  31.834  1.00  0.00    -0.744 OA
ENDBRANCH  83  84
ENDBRANCH  51  76
BRANCH  63  88
ATOM     88  C   UNL A   1      43.738  27.157  33.681  1.00  0.00     0.058 A 
ATOM     89  C   UNL A   1      42.888  26.395  34.499  1.00  0.00     0.135 A 
ATOM     90  C   UNL A   1      45.112  26.827  33.737  1.00  0.00     0.135 A 
ATOM     91  F   UNL A   1      41.553  26.472  34.406  1.00  0.00    -0.206 F 
ATOM     92  C   UNL A   1      43.377  25.491  35.424  1.00  0.00     0.059 A 
ATOM     93  C   UNL A   1      45.609  25.842  34.574  1.00  0.00     0.059 A 
ATOM     94  F   UNL A   1      46.029  27.437  32.971  1.00  0.00    -0.206 F 
ATOM     95  C   UNL A   1      44.741  25.229  35.460  1.00  0.00     0.060 A 
BRANCH  95  96
ATOM     96  S   UNL A   1      45.367  24.085  36.685  1.00  0.00     0.124 S 
ATOM     97  O   UNL A   1      44.744  24.608  37.897  1.00  0.00    -0.237 OA
ATOM     98  O   UNL A   1      44.854  22.803  36.211  1.00  0.00    -0.237 OA
ATOM     99  O   UNL A   1      46.813  24.250  36.594  1.00  0.00    -0.744 OA
ENDBRANCH  95  96
ENDBRANCH  63  88
ENDBRANCH  37  38
ENDBRANCH  30  32
ENDBRANCH  29  30
ENDBRANCH  28  29
ENDBRANCH   1  28
TORSDOF 19
ENDMDL
MODEL 3
REMARK VINA RESULT:     -12.1      3.478      9.910
REMARK SMILES Cc1ccccc1NC(=O)c1ccccc1NC(=O)CCC(=O)OCCOC(=O)c1ccc(-c2c3nc(c(-c4c(F)cc(S(=O)(=O)[O-])cc4F)c4ccc([nH]4)c(-c4c(F)cc(S(=O)(=O)[O-])cc4F)c4nc(c(-c5c(F)cc(S(=O)(=O)[O-])cc5F)c5ccc2[nH]5)C=C4)C=C3)cc1
REMARK SMILES IDX 25 1 24 2 22 3 23 4 21 5 20 6 18 7 17 8 19 10 16 11 11 12
REMARK SMILES IDX 12 13 13 14 15 15 14 16 9 17 8 18 10 20 7 21 1 22 2 23 3 24
REMARK SMILES IDX 4 25 6 26 5 27 26 28 27 29 28 30 29 31 30 32 31 33 95 34
REMARK SMILES IDX 32 35 94 36 33 37 34 38 35 39 88 40 36 41 93 42 87 43 89 44
REMARK SMILES IDX 37 45 92 46 86 47 85 48 38 50 72 51 51 52 71 53 52 54 55 55
REMARK SMILES IDX 70 56 90 57 53 58 54 59 69 61 91 62 56 63 39 64 40 65 49 66
REMARK SMILES IDX 41 67 42 68 48 69 50 70 43 71 44 72 45 73 46 74 47 75 73 76
REMARK SMILES IDX 74 77 83 78 75 79 76 80 82 81 84 82 77 83 78 84 79 85 80 86
REMARK SMILES IDX 81 87 57 88 58 89 67 90 59 91 60 92 66 93 68 94 61 95 62 96
REMARK SMILES IDX 63 97 64 98 65 99
REMARK H PARENT 17 9 8 19 89 49 55 60
REMARK Flexibility Score: inf
ROOT
ATOM      1  C   UNL A   1      35.937  22.344  25.276  1.00  0.00     0.274 C 
ENDROOT
BRANCH   1   2
ATOM      2  O   UNL A   1      35.190  21.135  24.929  1.00  0.00    -0.462 OA
BRANCH   2   3
ATOM      3  C   UNL A   1      33.889  21.293  25.113  1.00  0.00     0.306 C 
ATOM      4  O   UNL A   1      33.142  20.484  24.663  1.00  0.00    -0.252 OA
BRANCH   3   5
ATOM      5  C   UNL A   1      33.237  22.313  25.939  1.00  0.00     0.132 C 
BRANCH   5   6
ATOM      6  C   UNL A   1      31.770  21.786  25.935  1.00  0.00     0.112 C 
BRANCH   6   7
ATOM      7  C   UNL A   1      30.918  22.991  25.689  1.00  0.00     0.224 C 
ATOM      8  N   UNL A   1      30.714  23.476  24.417  1.00  0.00    -0.325 N 
ATOM      9  H   UNL A   1      29.837  23.196  24.068  1.00  0.00     0.169 HD
ATOM     10  O   UNL A   1      30.045  23.132  26.555  1.00  0.00    -0.275 OA
BRANCH   8  11
ATOM     11  C   UNL A   1      31.417  24.273  23.460  1.00  0.00     0.054 A 
ATOM     12  C   UNL A   1      31.029  25.644  23.272  1.00  0.00     0.063 A 
ATOM     13  C   UNL A   1      31.514  26.398  22.170  1.00  0.00     0.016 A 
ATOM     14  C   UNL A   1      32.440  25.842  21.293  1.00  0.00     0.001 A 
ATOM     15  C   UNL A   1      32.446  23.791  22.648  1.00  0.00     0.027 A 
ATOM     16  C   UNL A   1      32.933  24.562  21.559  1.00  0.00     0.002 A 
BRANCH  12  17
ATOM     17  C   UNL A   1      29.997  26.354  24.087  1.00  0.00     0.257 C 
ATOM     18  N   UNL A   1      30.315  27.273  25.067  1.00  0.00    -0.322 N 
ATOM     19  H   UNL A   1      29.557  27.546  25.633  1.00  0.00     0.170 HD
ATOM     20  O   UNL A   1      28.810  26.061  23.922  1.00  0.00    -0.269 OA
BRANCH  18  21
ATOM     21  C   UNL A   1      31.541  27.887  25.397  1.00  0.00     0.044 A 
ATOM     22  C   UNL A   1      30.702  30.081  24.323  1.00  0.00     0.046 C 
ATOM     23  C   UNL A   1      31.715  29.251  25.076  1.00  0.00    -0.027 A 
ATOM     24  C   UNL A   1      32.782  29.947  25.675  1.00  0.00     0.005 A 
ATOM     25  C   UNL A   1      33.589  29.333  26.638  1.00  0.00     0.000 A 
ATOM     26  C   UNL A   1      32.458  27.246  26.247  1.00  0.00     0.026 A 
ATOM     27  C   UNL A   1      33.428  27.983  26.922  1.00  0.00     0.002 A 
ENDBRANCH  18  21
ENDBRANCH  12  17
ENDBRANCH   8  11
ENDBRANCH   6   7
ENDBRANCH   5   6
ENDBRANCH   3   5
ENDBRANCH   2   3
ENDBRANCH   1   2
BRANCH   1  28
ATOM     28  C   UNL A   1      37.567  22.492  25.408  1.00  0.00     0.275 C 
BRANCH  28  29
ATOM     29  O   UNL A   1      38.622  23.363  26.135  1.00  0.00    -0.458 OA
BRANCH  29  30
ATOM     30  C   UNL A   1      39.779  23.195  26.937  1.00  0.00     0.338 C 
ATOM     31  O   UNL A   1      40.004  22.165  27.554  1.00  0.00    -0.246 OA
BRANCH  30  32
ATOM     32  C   UNL A   1      40.756  24.340  26.847  1.00  0.00     0.060 A 
ATOM     33  C   UNL A   1      40.931  25.377  25.893  1.00  0.00     0.016 A 
ATOM     34  C   UNL A   1      41.072  24.665  28.095  1.00  0.00     0.016 A 
ATOM     35  C   UNL A   1      41.213  26.700  26.389  1.00  0.00     0.010 A 
ATOM     36  C   UNL A   1      40.448  25.818  28.340  1.00  0.00     0.010 A 
ATOM     37  C   UNL A   1      40.969  26.905  27.740  1.00  0.00    -0.014 A 
BRANCH  37  38
ATOM     38  C   UNL A   1      41.031  27.914  28.826  1.00  0.00     0.031 A 
ATOM     39  C   UNL A   1      39.945  28.915  28.841  1.00  0.00     0.074 A 
ATOM     40  C   UNL A   1      41.850  27.546  29.891  1.00  0.00     0.049 A 
ATOM     41  N   UNL A   1      39.969  30.168  28.526  1.00  0.00    -0.248 NA
ATOM     42  C   UNL A   1      38.573  28.449  29.104  1.00  0.00     0.031 C 
ATOM     43  C   UNL A   1      42.259  28.045  31.189  1.00  0.00     0.029 A 
ATOM     44  N   UNL A   1      42.669  26.372  29.882  1.00  0.00    -0.354 N 
ATOM     45  C   UNL A   1      38.812  30.684  29.111  1.00  0.00     0.074 A 
ATOM     46  C   UNL A   1      37.873  29.586  29.093  1.00  0.00     0.031 C 
ATOM     47  C   UNL A   1      43.523  27.582  31.431  1.00  0.00     0.029 A 
ATOM     48  C   UNL A   1      43.922  26.649  30.360  1.00  0.00     0.049 A 
ATOM     49  H   UNL A   1      42.372  25.485  29.573  1.00  0.00     0.167 HD
ATOM     50  C   UNL A   1      38.919  31.562  30.167  1.00  0.00     0.037 A 
ATOM     51  C   UNL A   1      44.851  26.714  29.356  1.00  0.00     0.037 A 
ATOM     52  C   UNL A   1      40.304  31.566  30.665  1.00  0.00     0.049 A 
ATOM     53  C   UNL A   1      44.981  28.184  29.042  1.00  0.00     0.074 A 
ATOM     54  C   UNL A   1      40.899  31.132  31.837  1.00  0.00     0.029 A 
ATOM     55  N   UNL A   1      41.346  31.777  29.771  1.00  0.00    -0.354 N 
ATOM     56  N   UNL A   1      44.005  29.044  29.183  1.00  0.00    -0.248 NA
ATOM     57  C   UNL A   1      46.258  28.821  28.776  1.00  0.00     0.031 C 
ATOM     58  C   UNL A   1      42.305  31.032  31.601  1.00  0.00     0.029 A 
ATOM     59  C   UNL A   1      42.550  31.311  30.264  1.00  0.00     0.049 A 
ATOM     60  H   UNL A   1      41.239  32.206  28.891  1.00  0.00     0.167 HD
ATOM     61  C   UNL A   1      44.502  30.308  29.178  1.00  0.00     0.074 A 
ATOM     62  C   UNL A   1      45.917  30.116  28.888  1.00  0.00     0.031 C 
ATOM     63  C   UNL A   1      43.752  31.422  29.440  1.00  0.00     0.037 A 
BRANCH  50  64
ATOM     64  C   UNL A   1      37.754  32.193  30.931  1.00  0.00     0.058 A 
ATOM     65  C   UNL A   1      37.224  33.441  30.529  1.00  0.00     0.135 A 
ATOM     66  C   UNL A   1      37.029  31.569  31.976  1.00  0.00     0.135 A 
ATOM     67  F   UNL A   1      37.758  34.132  29.513  1.00  0.00    -0.206 F 
ATOM     68  C   UNL A   1      36.095  34.027  31.113  1.00  0.00     0.059 A 
ATOM     69  C   UNL A   1      35.910  32.151  32.596  1.00  0.00     0.059 A 
ATOM     70  F   UNL A   1      37.340  30.340  32.408  1.00  0.00    -0.206 F 
ATOM     71  C   UNL A   1      35.439  33.376  32.146  1.00  0.00     0.060 A 
BRANCH  71  72
ATOM     72  S   UNL A   1      33.942  34.121  32.827  1.00  0.00     0.124 S 
ATOM     73  O   UNL A   1      33.223  32.956  33.333  1.00  0.00    -0.237 OA
ATOM     74  O   UNL A   1      34.482  35.022  33.841  1.00  0.00    -0.237 OA
ATOM     75  O   UNL A   1      33.330  34.777  31.674  1.00  0.00    -0.744 OA
ENDBRANCH  71  72
ENDBRANCH  50  64
BRANCH  51  76
ATOM     76  C   UNL A   1      44.838  25.529  28.364  1.00  0.00     0.058 A 
ATOM     77  C   UNL A   1      44.819  24.204  28.888  1.00  0.00     0.135 A 
ATOM     78  C   UNL A   1      44.631  25.600  26.971  1.00  0.00     0.135 A 
ATOM     79  F   UNL A   1      44.994  24.009  30.206  1.00  0.00    -0.206 F 
ATOM     80  C   UNL A   1      44.518  23.057  28.126  1.00  0.00     0.059 A 
ATOM     81  C   UNL A   1      44.348  24.453  26.174  1.00  0.00     0.059 A 
ATOM     82  F   UNL A   1      44.607  26.791  26.355  1.00  0.00    -0.206 F 
ATOM     83  C   UNL A   1      44.264  23.187  26.765  1.00  0.00     0.060 A 
BRANCH  83  84
ATOM     84  S   UNL A   1      43.582  21.750  25.855  1.00  0.00     0.124 S 
ATOM     85  O   UNL A   1      42.763  22.396  24.834  1.00  0.00    -0.237 OA
ATOM     86  O   UNL A   1      44.789  21.094  25.354  1.00  0.00    -0.237 OA
ATOM     87  O   UNL A   1      42.845  21.029  26.886  1.00  0.00    -0.744 OA
ENDBRANCH  83  84
ENDBRANCH  51  76
BRANCH  63  88
ATOM     88  C   UNL A   1      44.147  32.780  28.938  1.00  0.00     0.058 A 
ATOM     89  C   UNL A   1      44.616  33.794  29.788  1.00  0.00     0.135 A 
ATOM     90  C   UNL A   1      44.227  33.048  27.551  1.00  0.00     0.135 A 
ATOM     91  F   UNL A   1      44.773  33.603  31.106  1.00  0.00    -0.206 F 
ATOM     92  C   UNL A   1      44.979  35.041  29.311  1.00  0.00     0.059 A 
ATOM     93  C   UNL A   1      44.699  34.248  27.049  1.00  0.00     0.059 A 
ATOM     94  F   UNL A   1      43.864  32.148  26.625  1.00  0.00    -0.206 F 
ATOM     95  C   UNL A   1      45.008  35.260  27.940  1.00  0.00     0.060 A 
BRANCH  95  96
ATOM     96  S   UNL A   1      45.445  36.887  27.336  1.00  0.00     0.124 S 
ATOM     97  O   UNL A   1      46.269  37.379  28.436  1.00  0.00    -0.237 OA
ATOM     98  O   UNL A   1      46.156  36.583  26.098  1.00  0.00    -0.237 OA
ATOM     99  O   UNL A   1      44.153  37.544  27.170  1.00  0.00    -0.744 OA
ENDBRANCH  95  96
ENDBRANCH  63  88
ENDBRANCH  37  38
ENDBRANCH  30  32
ENDBRANCH  29  30
ENDBRANCH  28  29
ENDBRANCH   1  28
TORSDOF 19
ENDMDL
