MODEL 1
REMARK VINA RESULT:     -11.8      0.000      0.000
REMARK SMILES O=C(OCCOC(=O)[C@@H]1CCCC[C@H]1C(=O)Nc1ccc(NC(=O)c2ccco2)cc1)c1ccc(-c2c3nc(c(-c4c(F)cc(S(=O)(=O)[O-])cc4F)c4ccc([nH]4)c(-c4c(F)cc(S(=O)(=O)[O-])cc4F)c4nc(c(-c5c(F)cc(S(=O)(=O)[O-])cc5F)c5ccc2[nH]5)C=C4)C=C3)cc1
REMARK SMILES IDX 5 1 4 2 3 3 2 4 1 5 32 6 33 7 97 8 34 9 96 10 35 11 36 12
REMARK SMILES IDX 37 13 90 14 38 15 95 16 89 17 91 18 39 19 94 20 88 21 87 22
REMARK SMILES IDX 40 24 74 25 53 26 73 27 54 28 57 29 72 30 92 31 55 32 56 33
REMARK SMILES IDX 71 35 93 36 58 37 41 38 42 39 51 40 43 41 44 42 50 43 52 44
REMARK SMILES IDX 45 45 46 46 47 47 48 48 49 49 75 50 76 51 85 52 77 53 78 54
REMARK SMILES IDX 84 55 86 56 79 57 80 58 81 59 82 60 83 61 59 62 60 63 69 64
REMARK SMILES IDX 61 65 62 66 68 67 70 68 63 69 64 70 65 71 66 72 67 73 6 74
REMARK SMILES IDX 7 75 8 76 9 77 10 78 14 79 11 80 13 81 12 82 15 83 16 84
REMARK SMILES IDX 17 85 18 87 19 88 31 89 20 90 30 91 21 92 22 93 23 94 24 96
REMARK SMILES IDX 25 97 26 98 29 99 27 100 28 101
REMARK H PARENT 91 23 57 34 17 86 22 95
REMARK Flexibility Score: inf
ROOT
ATOM      1  C   UNL A   1      31.723  30.250  25.658  1.00  0.00     0.274 C 
ENDROOT
BRANCH   1   2
ATOM      2  C   UNL A   1      32.334  30.144  27.053  1.00  0.00     0.275 C 
BRANCH   2   3
ATOM      3  O   UNL A   1      33.758  29.985  27.039  1.00  0.00    -0.458 OA
BRANCH   3   4
ATOM      4  C   UNL A   1      34.618  30.873  27.602  1.00  0.00     0.338 C 
ATOM      5  O   UNL A   1      34.440  32.080  27.479  1.00  0.00    -0.246 OA
BRANCH   4   6
ATOM      6  C   UNL A   1      35.928  30.369  28.104  1.00  0.00     0.060 A 
ATOM      7  C   UNL A   1      37.145  30.464  27.429  1.00  0.00     0.016 A 
ATOM      8  C   UNL A   1      35.908  29.711  29.335  1.00  0.00     0.016 A 
ATOM      9  C   UNL A   1      38.332  30.013  28.027  1.00  0.00     0.010 A 
ATOM     10  C   UNL A   1      37.096  29.332  29.966  1.00  0.00     0.010 A 
ATOM     11  C   UNL A   1      38.330  29.474  29.319  1.00  0.00    -0.014 A 
BRANCH  11  12
ATOM     12  C   UNL A   1      39.587  28.996  29.963  1.00  0.00     0.031 A 
ATOM     13  C   UNL A   1      40.152  29.744  31.143  1.00  0.00     0.074 A 
ATOM     14  C   UNL A   1      40.254  27.923  29.484  1.00  0.00     0.049 A 
ATOM     15  N   UNL A   1      41.202  29.456  31.870  1.00  0.00    -0.248 NA
ATOM     16  C   UNL A   1      39.453  30.970  31.566  1.00  0.00     0.031 C 
ATOM     17  C   UNL A   1      39.851  27.112  28.337  1.00  0.00     0.029 A 
ATOM     18  N   UNL A   1      41.439  27.349  29.875  1.00  0.00    -0.354 N 
ATOM     19  C   UNL A   1      41.236  30.418  32.871  1.00  0.00     0.074 A 
ATOM     20  C   UNL A   1      40.213  31.390  32.563  1.00  0.00     0.031 C 
ATOM     21  C   UNL A   1      40.812  26.217  28.053  1.00  0.00     0.029 A 
ATOM     22  C   UNL A   1      41.873  26.341  29.043  1.00  0.00     0.049 A 
ATOM     23  H   UNL A   1      41.935  27.634  30.677  1.00  0.00     0.167 HD
ATOM     24  C   UNL A   1      41.969  30.432  34.008  1.00  0.00     0.037 A 
ATOM     25  C   UNL A   1      42.984  25.580  29.088  1.00  0.00     0.037 A 
ATOM     26  C   UNL A   1      42.974  29.461  34.328  1.00  0.00     0.049 A 
ATOM     27  C   UNL A   1      43.865  25.671  30.302  1.00  0.00     0.074 A 
ATOM     28  C   UNL A   1      43.726  29.337  35.482  1.00  0.00     0.029 A 
ATOM     29  N   UNL A   1      43.372  28.440  33.478  1.00  0.00    -0.354 N 
ATOM     30  N   UNL A   1      43.774  26.488  31.324  1.00  0.00    -0.248 NA
ATOM     31  C   UNL A   1      44.950  24.685  30.414  1.00  0.00     0.031 C 
ATOM     32  C   UNL A   1      44.591  28.248  35.322  1.00  0.00     0.029 A 
ATOM     33  C   UNL A   1      44.363  27.684  34.077  1.00  0.00     0.049 A 
ATOM     34  H   UNL A   1      43.002  28.278  32.579  1.00  0.00     0.167 HD
ATOM     35  C   UNL A   1      44.734  26.063  32.235  1.00  0.00     0.074 A 
ATOM     36  C   UNL A   1      45.413  24.936  31.630  1.00  0.00     0.031 C 
ATOM     37  C   UNL A   1      45.004  26.545  33.472  1.00  0.00     0.037 A 
BRANCH  24  38
ATOM     38  C   UNL A   1      41.604  31.481  35.019  1.00  0.00     0.058 A 
ATOM     39  C   UNL A   1      40.550  31.251  35.923  1.00  0.00     0.135 A 
ATOM     40  C   UNL A   1      42.255  32.720  35.070  1.00  0.00     0.135 A 
ATOM     41  F   UNL A   1      39.882  30.085  35.901  1.00  0.00    -0.206 F 
ATOM     42  C   UNL A   1      40.122  32.231  36.808  1.00  0.00     0.059 A 
ATOM     43  C   UNL A   1      41.859  33.709  35.968  1.00  0.00     0.059 A 
ATOM     44  F   UNL A   1      43.265  32.990  34.229  1.00  0.00    -0.206 F 
ATOM     45  C   UNL A   1      40.777  33.462  36.816  1.00  0.00     0.060 A 
BRANCH  45  46
ATOM     46  S   UNL A   1      40.184  34.737  37.947  1.00  0.00     0.124 S 
ATOM     47  O   UNL A   1      40.672  34.237  39.229  1.00  0.00    -0.237 OA
ATOM     48  O   UNL A   1      40.844  35.936  37.442  1.00  0.00    -0.237 OA
ATOM     49  O   UNL A   1      38.736  34.700  37.768  1.00  0.00    -0.744 OA
ENDBRANCH  45  46
ENDBRANCH  24  38
BRANCH  25  50
ATOM     50  C   UNL A   1      43.284  24.603  28.007  1.00  0.00     0.058 A 
ATOM     51  C   UNL A   1      42.837  23.276  28.076  1.00  0.00     0.135 A 
ATOM     52  C   UNL A   1      44.071  24.971  26.905  1.00  0.00     0.135 A 
ATOM     53  F   UNL A   1      42.078  22.880  29.109  1.00  0.00    -0.206 F 
ATOM     54  C   UNL A   1      43.196  22.334  27.118  1.00  0.00     0.059 A 
ATOM     55  C   UNL A   1      44.433  24.050  25.924  1.00  0.00     0.059 A 
ATOM     56  F   UNL A   1      44.505  26.235  26.779  1.00  0.00    -0.206 F 
ATOM     57  C   UNL A   1      44.005  22.728  26.050  1.00  0.00     0.060 A 
BRANCH  57  58
ATOM     58  S   UNL A   1      44.478  21.490  24.821  1.00  0.00     0.124 S 
ATOM     59  O   UNL A   1      45.843  21.177  25.230  1.00  0.00    -0.237 OA
ATOM     60  O   UNL A   1      43.487  20.443  25.047  1.00  0.00    -0.237 OA
ATOM     61  O   UNL A   1      44.345  22.206  23.556  1.00  0.00    -0.744 OA
ENDBRANCH  57  58
ENDBRANCH  25  50
BRANCH  37  62
ATOM     62  C   UNL A   1      46.028  25.810  34.285  1.00  0.00     0.058 A 
ATOM     63  C   UNL A   1      47.383  26.170  34.265  1.00  0.00     0.135 A 
ATOM     64  C   UNL A   1      45.635  24.756  35.127  1.00  0.00     0.135 A 
ATOM     65  F   UNL A   1      47.807  27.163  33.468  1.00  0.00    -0.206 F 
ATOM     66  C   UNL A   1      48.320  25.499  35.042  1.00  0.00     0.059 A 
ATOM     67  C   UNL A   1      46.551  24.087  35.930  1.00  0.00     0.059 A 
ATOM     68  F   UNL A   1      44.348  24.379  35.184  1.00  0.00    -0.206 F 
ATOM     69  C   UNL A   1      47.894  24.459  35.873  1.00  0.00     0.060 A 
BRANCH  69  70
ATOM     70  S   UNL A   1      49.109  23.621  36.912  1.00  0.00     0.124 S 
ATOM     71  O   UNL A   1      48.271  22.668  37.631  1.00  0.00    -0.237 OA
ATOM     72  O   UNL A   1      50.023  23.049  35.929  1.00  0.00    -0.237 OA
ATOM     73  O   UNL A   1      49.665  24.704  37.717  1.00  0.00    -0.744 OA
ENDBRANCH  69  70
ENDBRANCH  37  62
ENDBRANCH  11  12
ENDBRANCH   4   6
ENDBRANCH   3   4
ENDBRANCH   2   3
ENDBRANCH   1   2
BRANCH   1  74
ATOM     74  O   UNL A   1      31.043  29.063  25.223  1.00  0.00    -0.462 OA
BRANCH  74  75
ATOM     75  C   UNL A   1      31.064  28.857  23.877  1.00  0.00     0.309 C 
ATOM     76  O   UNL A   1      30.549  29.605  23.054  1.00  0.00    -0.252 OA
BRANCH  75  77
ATOM     77  C   UNL A   1      31.754  27.563  23.483  1.00  0.00     0.111 C 
ATOM     78  C   UNL A   1      32.737  27.739  22.321  1.00  0.00     0.016 C 
ATOM     79  C   UNL A   1      30.761  26.428  23.229  1.00  0.00     0.093 C 
ATOM     80  C   UNL A   1      33.434  26.428  21.969  1.00  0.00     0.001 C 
ATOM     81  C   UNL A   1      31.453  25.116  22.829  1.00  0.00     0.014 C 
ATOM     82  C   UNL A   1      32.429  25.320  21.669  1.00  0.00     0.001 C 
BRANCH  79  83
ATOM     83  C   UNL A   1      29.639  26.201  24.256  1.00  0.00     0.228 C 
ATOM     84  O   UNL A   1      28.464  26.134  23.873  1.00  0.00    -0.274 OA
ATOM     85  N   UNL A   1      29.827  25.943  25.582  1.00  0.00    -0.326 N 
ATOM     86  H   UNL A   1      29.168  26.296  26.224  1.00  0.00     0.169 HD
BRANCH  85  87
ATOM     87  C   UNL A   1      30.898  25.207  26.080  1.00  0.00     0.041 A 
ATOM     88  C   UNL A   1      30.660  23.901  26.479  1.00  0.00     0.028 A 
ATOM     89  C   UNL A   1      32.182  25.721  26.118  1.00  0.00     0.028 A 
ATOM     90  C   UNL A   1      31.740  23.052  26.699  1.00  0.00     0.028 A 
ATOM     91  C   UNL A   1      33.261  24.854  26.273  1.00  0.00     0.028 A 
ATOM     92  C   UNL A   1      33.047  23.488  26.486  1.00  0.00     0.041 A 
BRANCH  92  93
ATOM     93  N   UNL A   1      34.178  22.660  26.401  1.00  0.00    -0.319 N 
ATOM     94  C   UNL A   1      34.558  21.658  25.526  1.00  0.00     0.291 C 
ATOM     95  H   UNL A   1      34.840  22.827  27.110  1.00  0.00     0.170 HD
ATOM     96  O   UNL A   1      35.685  21.190  25.660  1.00  0.00    -0.265 OA
BRANCH  94  97
ATOM     97  C   UNL A   1      33.646  21.201  24.509  1.00  0.00     0.191 A 
ATOM     98  C   UNL A   1      32.952  21.867  23.516  1.00  0.00     0.056 A 
ATOM     99  O   UNL A   1      33.337  19.868  24.473  1.00  0.00    -0.459 OA
ATOM    100  C   UNL A   1      32.146  20.895  22.869  1.00  0.00     0.043 A 
ATOM    101  C   UNL A   1      32.430  19.695  23.479  1.00  0.00     0.196 A 
ENDBRANCH  94  97
ENDBRANCH  92  93
ENDBRANCH  85  87
ENDBRANCH  79  83
ENDBRANCH  75  77
ENDBRANCH  74  75
ENDBRANCH   1  74
TORSDOF 18
ENDMDL
MODEL 2
REMARK VINA RESULT:     -11.8      4.832     10.526
REMARK SMILES O=C(OCCOC(=O)[C@@H]1CCCC[C@H]1C(=O)Nc1ccc(NC(=O)c2ccco2)cc1)c1ccc(-c2c3nc(c(-c4c(F)cc(S(=O)(=O)[O-])cc4F)c4ccc([nH]4)c(-c4c(F)cc(S(=O)(=O)[O-])cc4F)c4nc(c(-c5c(F)cc(S(=O)(=O)[O-])cc5F)c5ccc2[nH]5)C=C4)C=C3)cc1
REMARK SMILES IDX 5 1 4 2 3 3 2 4 1 5 32 6 33 7 97 8 34 9 96 10 35 11 36 12
REMARK SMILES IDX 37 13 90 14 38 15 95 16 89 17 91 18 39 19 94 20 88 21 87 22
REMARK SMILES IDX 40 24 74 25 53 26 73 27 54 28 57 29 72 30 92 31 55 32 56 33
REMARK SMILES IDX 71 35 93 36 58 37 41 38 42 39 51 40 43 41 44 42 50 43 52 44
REMARK SMILES IDX 45 45 46 46 47 47 48 48 49 49 75 50 76 51 85 52 77 53 78 54
REMARK SMILES IDX 84 55 86 56 79 57 80 58 81 59 82 60 83 61 59 62 60 63 69 64
REMARK SMILES IDX 61 65 62 66 68 67 70 68 63 69 64 70 65 71 66 72 67 73 6 74
REMARK SMILES IDX 7 75 8 76 9 77 10 78 14 79 11 80 13 81 12 82 15 83 16 84
REMARK SMILES IDX 17 85 18 87 19 88 31 89 20 90 30 91 21 92 22 93 23 94 24 96
REMARK SMILES IDX 25 97 26 98 29 99 27 100 28 101
REMARK H PARENT 91 23 57 34 17 86 22 95
REMARK Flexibility Score: inf
ROOT
ATOM      1  C   UNL A   1      36.336  20.540  25.117  1.00  0.00     0.274 C 
ENDROOT
BRANCH   1   2
ATOM      2  C   UNL A   1      37.684  21.228  24.921  1.00  0.00     0.275 C 
BRANCH   2   3
ATOM      3  O   UNL A   1      38.137  21.931  26.085  1.00  0.00    -0.458 OA
BRANCH   3   4
ATOM      4  C   UNL A   1      39.432  21.943  26.498  1.00  0.00     0.338 C 
ATOM      5  O   UNL A   1      40.035  20.893  26.697  1.00  0.00    -0.246 OA
BRANCH   4   6
ATOM      6  C   UNL A   1      40.006  23.226  26.991  1.00  0.00     0.060 A 
ATOM      7  C   UNL A   1      40.861  23.366  28.084  1.00  0.00     0.016 A 
ATOM      8  C   UNL A   1      39.608  24.382  26.317  1.00  0.00     0.016 A 
ATOM      9  C   UNL A   1      41.396  24.619  28.420  1.00  0.00     0.010 A 
ATOM     10  C   UNL A   1      40.198  25.618  26.598  1.00  0.00     0.010 A 
ATOM     11  C   UNL A   1      41.101  25.757  27.660  1.00  0.00    -0.014 A 
BRANCH  11  12
ATOM     12  C   UNL A   1      41.667  27.091  28.007  1.00  0.00     0.031 A 
ATOM     13  C   UNL A   1      43.143  27.345  27.832  1.00  0.00     0.074 A 
ATOM     14  C   UNL A   1      40.888  28.071  28.515  1.00  0.00     0.049 A 
ATOM     15  N   UNL A   1      43.814  28.452  28.028  1.00  0.00    -0.248 NA
ATOM     16  C   UNL A   1      43.974  26.217  27.378  1.00  0.00     0.031 C 
ATOM     17  C   UNL A   1      39.451  27.973  28.768  1.00  0.00     0.029 A 
ATOM     18  N   UNL A   1      41.199  29.336  28.953  1.00  0.00    -0.354 N 
ATOM     19  C   UNL A   1      45.118  28.168  27.648  1.00  0.00     0.074 A 
ATOM     20  C   UNL A   1      45.184  26.751  27.375  1.00  0.00     0.031 C 
ATOM     21  C   UNL A   1      39.025  29.077  29.404  1.00  0.00     0.029 A 
ATOM     22  C   UNL A   1      40.144  29.998  29.542  1.00  0.00     0.049 A 
ATOM     23  H   UNL A   1      42.094  29.734  28.855  1.00  0.00     0.167 HD
ATOM     24  C   UNL A   1      46.143  29.024  27.429  1.00  0.00     0.037 A 
ATOM     25  C   UNL A   1      40.077  31.220  30.104  1.00  0.00     0.037 A 
ATOM     26  C   UNL A   1      46.079  30.434  27.681  1.00  0.00     0.049 A 
ATOM     27  C   UNL A   1      41.257  32.141  29.960  1.00  0.00     0.074 A 
ATOM     28  C   UNL A   1      47.031  31.405  27.428  1.00  0.00     0.029 A 
ATOM     29  N   UNL A   1      44.992  31.076  28.254  1.00  0.00    -0.354 N 
ATOM     30  N   UNL A   1      42.435  31.891  29.440  1.00  0.00    -0.248 NA
ATOM     31  C   UNL A   1      41.075  33.531  30.401  1.00  0.00     0.031 C 
ATOM     32  C   UNL A   1      46.523  32.635  27.865  1.00  0.00     0.029 A 
ATOM     33  C   UNL A   1      45.248  32.430  28.370  1.00  0.00     0.049 A 
ATOM     34  H   UNL A   1      44.159  30.632  28.537  1.00  0.00     0.167 HD
ATOM     35  C   UNL A   1      43.103  33.109  29.416  1.00  0.00     0.074 A 
ATOM     36  C   UNL A   1      42.210  34.088  30.001  1.00  0.00     0.031 C 
ATOM     37  C   UNL A   1      44.333  33.394  28.925  1.00  0.00     0.037 A 
BRANCH  24  38
ATOM     38  C   UNL A   1      47.366  28.441  26.781  1.00  0.00     0.058 A 
ATOM     39  C   UNL A   1      48.491  28.116  27.563  1.00  0.00     0.135 A 
ATOM     40  C   UNL A   1      47.449  28.244  25.397  1.00  0.00     0.135 A 
ATOM     41  F   UNL A   1      48.467  28.305  28.893  1.00  0.00    -0.206 F 
ATOM     42  C   UNL A   1      49.671  27.666  26.988  1.00  0.00     0.059 A 
ATOM     43  C   UNL A   1      48.615  27.769  24.802  1.00  0.00     0.059 A 
ATOM     44  F   UNL A   1      46.405  28.540  24.607  1.00  0.00    -0.206 F 
ATOM     45  C   UNL A   1      49.727  27.504  25.604  1.00  0.00     0.060 A 
BRANCH  45  46
ATOM     46  S   UNL A   1      51.281  26.951  24.872  1.00  0.00     0.124 S 
ATOM     47  O   UNL A   1      50.974  27.028  23.447  1.00  0.00    -0.237 OA
ATOM     48  O   UNL A   1      52.232  27.941  25.369  1.00  0.00    -0.237 OA
ATOM     49  O   UNL A   1      51.447  25.604  25.408  1.00  0.00    -0.744 OA
ENDBRANCH  45  46
ENDBRANCH  24  38
BRANCH  25  50
ATOM     50  C   UNL A   1      38.832  31.687  30.770  1.00  0.00     0.058 A 
ATOM     51  C   UNL A   1      37.851  32.403  30.069  1.00  0.00     0.135 A 
ATOM     52  C   UNL A   1      38.624  31.465  32.141  1.00  0.00     0.135 A 
ATOM     53  F   UNL A   1      38.005  32.635  28.756  1.00  0.00    -0.206 F 
ATOM     54  C   UNL A   1      36.732  32.926  30.707  1.00  0.00     0.059 A 
ATOM     55  C   UNL A   1      37.503  31.965  32.801  1.00  0.00     0.059 A 
ATOM     56  F   UNL A   1      39.520  30.766  32.853  1.00  0.00    -0.206 F 
ATOM     57  C   UNL A   1      36.571  32.711  32.078  1.00  0.00     0.060 A 
BRANCH  57  58
ATOM     58  S   UNL A   1      35.120  33.409  32.898  1.00  0.00     0.124 S 
ATOM     59  O   UNL A   1      35.243  34.822  32.558  1.00  0.00    -0.237 OA
ATOM     60  O   UNL A   1      34.029  32.688  32.252  1.00  0.00    -0.237 OA
ATOM     61  O   UNL A   1      35.336  33.076  34.302  1.00  0.00    -0.744 OA
ENDBRANCH  57  58
ENDBRANCH  25  50
BRANCH  37  62
ATOM     62  C   UNL A   1      44.757  34.833  28.929  1.00  0.00     0.058 A 
ATOM     63  C   UNL A   1      44.428  35.701  27.879  1.00  0.00     0.135 A 
ATOM     64  C   UNL A   1      45.466  35.355  30.023  1.00  0.00     0.135 A 
ATOM     65  F   UNL A   1      43.761  35.245  26.807  1.00  0.00    -0.206 F 
ATOM     66  C   UNL A   1      44.804  37.040  27.904  1.00  0.00     0.059 A 
ATOM     67  C   UNL A   1      45.831  36.695  30.080  1.00  0.00     0.059 A 
ATOM     68  F   UNL A   1      45.798  34.563  31.055  1.00  0.00    -0.206 F 
ATOM     69  C   UNL A   1      45.504  37.528  29.010  1.00  0.00     0.060 A 
BRANCH  69  70
ATOM     70  S   UNL A   1      45.949  39.276  29.057  1.00  0.00     0.124 S 
ATOM     71  O   UNL A   1      44.983  39.848  28.125  1.00  0.00    -0.237 OA
ATOM     72  O   UNL A   1      45.752  39.615  30.463  1.00  0.00    -0.237 OA
ATOM     73  O   UNL A   1      47.338  39.281  28.608  1.00  0.00    -0.744 OA
ENDBRANCH  69  70
ENDBRANCH  37  62
ENDBRANCH  11  12
ENDBRANCH   4   6
ENDBRANCH   3   4
ENDBRANCH   2   3
ENDBRANCH   1   2
BRANCH   1  74
ATOM     74  O   UNL A   1      35.226  21.251  24.550  1.00  0.00    -0.462 OA
BRANCH  74  75
ATOM     75  C   UNL A   1      34.008  20.886  25.039  1.00  0.00     0.309 C 
ATOM     76  O   UNL A   1      33.655  19.727  25.224  1.00  0.00    -0.252 OA
BRANCH  75  77
ATOM     77  C   UNL A   1      33.089  22.068  25.292  1.00  0.00     0.111 C 
ATOM     78  C   UNL A   1      32.538  22.103  26.721  1.00  0.00     0.016 C 
ATOM     79  C   UNL A   1      31.979  22.177  24.245  1.00  0.00     0.093 C 
ATOM     80  C   UNL A   1      31.642  23.318  26.950  1.00  0.00     0.001 C 
ATOM     81  C   UNL A   1      31.045  23.371  24.495  1.00  0.00     0.014 C 
ATOM     82  C   UNL A   1      30.511  23.382  25.928  1.00  0.00     0.001 C 
BRANCH  79  83
ATOM     83  C   UNL A   1      32.364  22.044  22.762  1.00  0.00     0.228 C 
ATOM     84  O   UNL A   1      31.772  21.226  22.047  1.00  0.00    -0.274 OA
ATOM     85  N   UNL A   1      33.249  22.848  22.104  1.00  0.00    -0.326 N 
ATOM     86  H   UNL A   1      33.804  22.448  21.395  1.00  0.00     0.169 HD
BRANCH  85  87
ATOM     87  C   UNL A   1      33.410  24.203  22.377  1.00  0.00     0.041 A 
ATOM     88  C   UNL A   1      32.722  25.111  21.588  1.00  0.00     0.028 A 
ATOM     89  C   UNL A   1      34.173  24.646  23.443  1.00  0.00     0.028 A 
ATOM     90  C   UNL A   1      32.623  26.434  22.007  1.00  0.00     0.028 A 
ATOM     91  C   UNL A   1      34.018  25.954  23.896  1.00  0.00     0.028 A 
ATOM     92  C   UNL A   1      33.172  26.842  23.223  1.00  0.00     0.041 A 
BRANCH  92  93
ATOM     93  N   UNL A   1      32.898  28.056  23.874  1.00  0.00    -0.319 N 
ATOM     94  C   UNL A   1      31.737  28.637  24.352  1.00  0.00     0.291 C 
ATOM     95  H   UNL A   1      33.698  28.609  24.023  1.00  0.00     0.170 HD
ATOM     96  O   UNL A   1      31.849  29.681  24.987  1.00  0.00    -0.265 OA
BRANCH  94  97
ATOM     97  C   UNL A   1      30.461  28.017  24.099  1.00  0.00     0.191 A 
ATOM     98  C   UNL A   1      29.912  26.817  24.512  1.00  0.00     0.056 A 
ATOM     99  O   UNL A   1      29.580  28.670  23.280  1.00  0.00    -0.459 OA
ATOM    100  C   UNL A   1      28.648  26.715  23.876  1.00  0.00     0.043 A 
ATOM    101  C   UNL A   1      28.489  27.874  23.152  1.00  0.00     0.196 A 
ENDBRANCH  94  97
ENDBRANCH  92  93
ENDBRANCH  85  87
ENDBRANCH  79  83
ENDBRANCH  75  77
ENDBRANCH  74  75
ENDBRANCH   1  74
TORSDOF 18
ENDMDL
MODEL 3
REMARK VINA RESULT:     -11.2      4.129      8.668
REMARK SMILES O=C(OCCOC(=O)[C@@H]1CCCC[C@H]1C(=O)Nc1ccc(NC(=O)c2ccco2)cc1)c1ccc(-c2c3nc(c(-c4c(F)cc(S(=O)(=O)[O-])cc4F)c4ccc([nH]4)c(-c4c(F)cc(S(=O)(=O)[O-])cc4F)c4nc(c(-c5c(F)cc(S(=O)(=O)[O-])cc5F)c5ccc2[nH]5)C=C4)C=C3)cc1
REMARK SMILES IDX 5 1 4 2 3 3 2 4 1 5 32 6 33 7 97 8 34 9 96 10 35 11 36 12
REMARK SMILES IDX 37 13 90 14 38 15 95 16 89 17 91 18 39 19 94 20 88 21 87 22
REMARK SMILES IDX 40 24 74 25 53 26 73 27 54 28 57 29 72 30 92 31 55 32 56 33
REMARK SMILES IDX 71 35 93 36 58 37 41 38 42 39 51 40 43 41 44 42 50 43 52 44
REMARK SMILES IDX 45 45 46 46 47 47 48 48 49 49 75 50 76 51 85 52 77 53 78 54
REMARK SMILES IDX 84 55 86 56 79 57 80 58 81 59 82 60 83 61 59 62 60 63 69 64
REMARK SMILES IDX 61 65 62 66 68 67 70 68 63 69 64 70 65 71 66 72 67 73 6 74
REMARK SMILES IDX 7 75 8 76 9 77 10 78 14 79 11 80 13 81 12 82 15 83 16 84
REMARK SMILES IDX 17 85 18 87 19 88 31 89 20 90 30 91 21 92 22 93 23 94 24 96
REMARK SMILES IDX 25 97 26 98 29 99 27 100 28 101
REMARK H PARENT 91 23 57 34 17 86 22 95
REMARK Flexibility Score: inf
ROOT
ATOM      1  C   UNL A   1      32.314  29.809  27.245  1.00  0.00     0.274 C 
ENDROOT
BRANCH   1   2
ATOM      2  C   UNL A   1      33.685  30.460  27.075  1.00  0.00     0.275 C 
BRANCH   2   3
ATOM      3  O   UNL A   1      34.735  29.757  27.750  1.00  0.00    -0.458 OA
BRANCH   3   4
ATOM      4  C   UNL A   1      35.580  30.342  28.639  1.00  0.00     0.338 C 
ATOM      5  O   UNL A   1      35.239  31.344  29.260  1.00  0.00    -0.246 OA
BRANCH   4   6
ATOM      6  C   UNL A   1      37.014  29.937  28.626  1.00  0.00     0.060 A 
ATOM      7  C   UNL A   1      37.802  29.781  27.485  1.00  0.00     0.016 A 
ATOM      8  C   UNL A   1      37.589  29.651  29.865  1.00  0.00     0.016 A 
ATOM      9  C   UNL A   1      39.163  29.458  27.594  1.00  0.00     0.010 A 
ATOM     10  C   UNL A   1      38.960  29.407  29.983  1.00  0.00     0.010 A 
ATOM     11  C   UNL A   1      39.771  29.302  28.845  1.00  0.00    -0.014 A 
BRANCH  11  12
ATOM     12  C   UNL A   1      41.217  28.964  28.970  1.00  0.00     0.031 A 
ATOM     13  C   UNL A   1      41.672  27.543  28.758  1.00  0.00     0.074 A 
ATOM     14  C   UNL A   1      42.128  29.901  29.310  1.00  0.00     0.049 A 
ATOM     15  N   UNL A   1      42.889  27.061  28.771  1.00  0.00    -0.248 NA
ATOM     16  C   UNL A   1      40.634  26.531  28.496  1.00  0.00     0.031 C 
ATOM     17  C   UNL A   1      41.842  31.311  29.573  1.00  0.00     0.029 A 
ATOM     18  N   UNL A   1      43.480  29.807  29.535  1.00  0.00    -0.354 N 
ATOM     19  C   UNL A   1      42.760  25.718  28.444  1.00  0.00     0.074 A 
ATOM     20  C   UNL A   1      41.347  25.421  28.407  1.00  0.00     0.031 C 
ATOM     21  C   UNL A   1      42.952  31.923  30.019  1.00  0.00     0.029 A 
ATOM     22  C   UNL A   1      44.051  30.968  30.007  1.00  0.00     0.049 A 
ATOM     23  H   UNL A   1      43.995  28.983  29.374  1.00  0.00     0.167 HD
ATOM     24  C   UNL A   1      43.723  24.835  28.089  1.00  0.00     0.037 A 
ATOM     25  C   UNL A   1      45.321  31.243  30.361  1.00  0.00     0.037 A 
ATOM     26  C   UNL A   1      45.127  25.128  28.107  1.00  0.00     0.049 A 
ATOM     27  C   UNL A   1      46.383  30.220  30.070  1.00  0.00     0.074 A 
ATOM     28  C   UNL A   1      46.184  24.335  27.700  1.00  0.00     0.029 A 
ATOM     29  N   UNL A   1      45.670  26.318  28.565  1.00  0.00    -0.354 N 
ATOM     30  N   UNL A   1      46.245  29.004  29.599  1.00  0.00    -0.248 NA
ATOM     31  C   UNL A   1      47.779  30.631  30.277  1.00  0.00     0.031 C 
ATOM     32  C   UNL A   1      47.371  25.043  27.928  1.00  0.00     0.029 A 
ATOM     33  C   UNL A   1      47.048  26.282  28.458  1.00  0.00     0.049 A 
ATOM     34  H   UNL A   1      45.150  27.078  28.916  1.00  0.00     0.167 HD
ATOM     35  C   UNL A   1      47.534  28.535  29.376  1.00  0.00     0.074 A 
ATOM     36  C   UNL A   1      48.438  29.588  29.792  1.00  0.00     0.031 C 
ATOM     37  C   UNL A   1      47.930  27.353  28.847  1.00  0.00     0.037 A 
BRANCH  24  38
ATOM     38  C   UNL A   1      43.248  23.518  27.547  1.00  0.00     0.058 A 
ATOM     39  C   UNL A   1      42.892  22.480  28.428  1.00  0.00     0.135 A 
ATOM     40  C   UNL A   1      43.182  23.263  26.171  1.00  0.00     0.135 A 
ATOM     41  F   UNL A   1      42.957  22.669  29.757  1.00  0.00    -0.206 F 
ATOM     42  C   UNL A   1      42.540  21.220  27.965  1.00  0.00     0.059 A 
ATOM     43  C   UNL A   1      42.806  22.014  25.684  1.00  0.00     0.059 A 
ATOM     44  F   UNL A   1      43.512  24.219  25.289  1.00  0.00    -0.206 F 
ATOM     45  C   UNL A   1      42.509  20.993  26.589  1.00  0.00     0.060 A 
BRANCH  45  46
ATOM     46  S   UNL A   1      42.082  19.339  26.006  1.00  0.00     0.124 S 
ATOM     47  O   UNL A   1      42.549  18.512  27.115  1.00  0.00    -0.237 OA
ATOM     48  O   UNL A   1      40.634  19.427  25.846  1.00  0.00    -0.237 OA
ATOM     49  O   UNL A   1      42.840  19.213  24.765  1.00  0.00    -0.744 OA
ENDBRANCH  45  46
ENDBRANCH  24  38
BRANCH  25  50
ATOM     50  C   UNL A   1      45.683  32.565  30.940  1.00  0.00     0.058 A 
ATOM     51  C   UNL A   1      46.079  33.636  30.127  1.00  0.00     0.135 A 
ATOM     52  C   UNL A   1      45.687  32.763  32.329  1.00  0.00     0.135 A 
ATOM     53  F   UNL A   1      46.087  33.494  28.792  1.00  0.00    -0.206 F 
ATOM     54  C   UNL A   1      46.512  34.842  30.667  1.00  0.00     0.059 A 
ATOM     55  C   UNL A   1      46.101  33.967  32.895  1.00  0.00     0.059 A 
ATOM     56  F   UNL A   1      45.294  31.778  33.151  1.00  0.00    -0.206 F 
ATOM     57  C   UNL A   1      46.530  34.995  32.055  1.00  0.00     0.060 A 
BRANCH  57  58
ATOM     58  S   UNL A   1      47.110  36.562  32.744  1.00  0.00     0.124 S 
ATOM     59  O   UNL A   1      45.983  37.443  32.457  1.00  0.00    -0.237 OA
ATOM     60  O   UNL A   1      47.313  36.220  34.148  1.00  0.00    -0.237 OA
ATOM     61  O   UNL A   1      48.330  36.828  31.990  1.00  0.00    -0.744 OA
ENDBRANCH  57  58
ENDBRANCH  25  50
BRANCH  37  62
ATOM     62  C   UNL A   1      49.400  27.163  28.616  1.00  0.00     0.058 A 
ATOM     63  C   UNL A   1      50.220  26.540  29.567  1.00  0.00     0.135 A 
ATOM     64  C   UNL A   1      49.982  27.574  27.406  1.00  0.00     0.135 A 
ATOM     65  F   UNL A   1      49.711  26.141  30.743  1.00  0.00    -0.206 F 
ATOM     66  C   UNL A   1      51.577  26.346  29.333  1.00  0.00     0.059 A 
ATOM     67  C   UNL A   1      51.331  27.368  27.142  1.00  0.00     0.059 A 
ATOM     68  F   UNL A   1      49.235  28.170  26.463  1.00  0.00    -0.206 F 
ATOM     69  C   UNL A   1      52.123  26.762  28.116  1.00  0.00     0.060 A 
BRANCH  69  70
ATOM     70  S   UNL A   1      53.875  26.465  27.801  1.00  0.00     0.124 S 
ATOM     71  O   UNL A   1      54.384  26.261  29.153  1.00  0.00    -0.237 OA
ATOM     72  O   UNL A   1      53.846  25.282  26.948  1.00  0.00    -0.237 OA
ATOM     73  O   UNL A   1      54.310  27.693  27.142  1.00  0.00    -0.744 OA
ENDBRANCH  69  70
ENDBRANCH  37  62
ENDBRANCH  11  12
ENDBRANCH   4   6
ENDBRANCH   3   4
ENDBRANCH   2   3
ENDBRANCH   1   2
BRANCH   1  74
ATOM     74  O   UNL A   1      31.827  29.152  26.066  1.00  0.00    -0.462 OA
BRANCH  74  75
ATOM     75  C   UNL A   1      31.765  27.794  26.156  1.00  0.00     0.309 C 
ATOM     76  O   UNL A   1      31.386  27.183  27.148  1.00  0.00    -0.252 OA
BRANCH  75  77
ATOM     77  C   UNL A   1      32.267  27.091  24.907  1.00  0.00     0.111 C 
ATOM     78  C   UNL A   1      33.370  27.870  24.183  1.00  0.00     0.016 C 
ATOM     79  C   UNL A   1      31.128  26.696  23.965  1.00  0.00     0.093 C 
ATOM     80  C   UNL A   1      33.870  27.123  22.950  1.00  0.00     0.001 C 
ATOM     81  C   UNL A   1      31.628  25.985  22.699  1.00  0.00     0.014 C 
ATOM     82  C   UNL A   1      32.728  26.782  21.997  1.00  0.00     0.001 C 
BRANCH  79  83
ATOM     83  C   UNL A   1      29.893  26.006  24.568  1.00  0.00     0.228 C 
ATOM     84  O   UNL A   1      28.766  26.287  24.141  1.00  0.00    -0.274 OA
ATOM     85  N   UNL A   1      29.925  24.994  25.483  1.00  0.00    -0.326 N 
ATOM     86  H   UNL A   1      29.210  24.955  26.160  1.00  0.00     0.169 HD
BRANCH  85  87
ATOM     87  C   UNL A   1      30.911  24.014  25.512  1.00  0.00     0.041 A 
ATOM     88  C   UNL A   1      31.116  23.263  24.365  1.00  0.00     0.028 A 
ATOM     89  C   UNL A   1      31.720  23.824  26.619  1.00  0.00     0.028 A 
ATOM     90  C   UNL A   1      32.268  22.491  24.257  1.00  0.00     0.028 A 
ATOM     91  C   UNL A   1      32.905  23.104  26.485  1.00  0.00     0.028 A 
ATOM     92  C   UNL A   1      33.229  22.494  25.268  1.00  0.00     0.041 A 
BRANCH  92  93
ATOM     93  N   UNL A   1      34.535  21.992  25.152  1.00  0.00    -0.319 N 
ATOM     94  C   UNL A   1      35.052  20.725  24.947  1.00  0.00     0.291 C 
ATOM     95  H   UNL A   1      35.229  22.685  25.234  1.00  0.00     0.170 HD
ATOM     96  O   UNL A   1      36.263  20.630  24.779  1.00  0.00    -0.265 OA
BRANCH  94  97
ATOM     97  C   UNL A   1      34.176  19.581  24.935  1.00  0.00     0.191 A 
ATOM     98  C   UNL A   1      34.136  18.450  24.140  1.00  0.00     0.056 A 
ATOM     99  O   UNL A   1      33.146  19.548  25.835  1.00  0.00    -0.459 OA
ATOM    100  C   UNL A   1      32.997  17.711  24.552  1.00  0.00     0.043 A 
ATOM    101  C   UNL A   1      32.441  18.415  25.595  1.00  0.00     0.196 A 
ENDBRANCH  94  97
ENDBRANCH  92  93
ENDBRANCH  85  87
ENDBRANCH  79  83
ENDBRANCH  75  77
ENDBRANCH  74  75
ENDBRANCH   1  74
TORSDOF 18
ENDMDL
