MODEL 1
REMARK VINA RESULT:     -13.1      0.000      0.000
REMARK SMILES C[C@@H]1C(C(=O)OCCOC(=O)c2ccc(-c3c4nc(c(-c5c(F)cc(S(=O)(=O)[O-])cc5F)c5ccc([nH]5)c(-c5c(F)cc(S(=O)(=O)[O-])cc5F)c5nc(c(-c6c(F)cc(S(=O)(=O)[O-])cc6F)c6ccc3[nH]6)C=C5)C=C4)cc2)=NC2=C1C(=O)C[C@H](c1ccccc1)C2
REMARK SMILES IDX 8 1 7 2 6 3 4 4 5 5 3 6 1 7 2 8 80 9 78 10 79 11 81 12 91 13
REMARK SMILES IDX 82 14 83 15 84 16 85 17 86 18 90 19 87 20 89 21 88 22 9 23
REMARK SMILES IDX 10 24 11 25 12 26 13 27 77 28 14 29 76 30 15 31 16 32 17 33
REMARK SMILES IDX 70 34 18 35 75 36 69 37 71 38 19 39 74 40 68 41 67 42 20 44
REMARK SMILES IDX 54 45 33 46 53 47 34 48 37 49 52 50 72 51 35 52 36 53 51 55
REMARK SMILES IDX 73 56 38 57 21 58 22 59 31 60 23 61 24 62 30 63 32 64 25 65
REMARK SMILES IDX 26 66 27 67 28 68 29 69 55 70 56 71 65 72 57 73 58 74 64 75
REMARK SMILES IDX 66 76 59 77 60 78 61 79 62 80 63 81 39 82 40 83 49 84 41 85
REMARK SMILES IDX 42 86 48 87 50 88 43 89 44 90 45 91 46 92 47 93
REMARK H PARENT 71 43 37 54
REMARK Flexibility Score: inf
ROOT
ATOM      1  C   UNL A   1      34.117  28.951  26.027  1.00  0.00     0.275 C 
ENDROOT
BRANCH   1   2
ATOM      2  C   UNL A   1      33.794  28.731  24.561  1.00  0.00     0.275 C 
BRANCH   2   3
ATOM      3  O   UNL A   1      33.763  27.321  24.280  1.00  0.00    -0.458 OA
BRANCH   3   4
ATOM      4  C   UNL A   1      33.286  26.963  23.060  1.00  0.00     0.353 C 
ATOM      5  O   UNL A   1      33.817  27.137  21.980  1.00  0.00    -0.245 OA
BRANCH   4   6
ATOM      6  C   UNL A   1      32.023  26.137  23.270  1.00  0.00     0.133 C 
ATOM      7  C   UNL A   1      29.915  27.412  23.494  1.00  0.00     0.020 C 
ATOM      8  C   UNL A   1      30.976  26.616  24.247  1.00  0.00     0.078 C 
ATOM      9  C   UNL A   1      30.529  25.234  24.549  1.00  0.00     0.026 C 
ATOM     10  N   UNL A   1      31.805  24.965  22.720  1.00  0.00    -0.249 NA
ATOM     11  C   UNL A   1      30.912  24.381  23.596  1.00  0.00     0.049 C 
ATOM     12  C   UNL A   1      30.290  24.717  25.902  1.00  0.00     0.161 C 
ATOM     13  C   UNL A   1      30.877  22.900  23.850  1.00  0.00     0.065 C 
ATOM     14  O   UNL A   1      29.587  25.364  26.676  1.00  0.00    -0.294 OA
ATOM     15  C   UNL A   1      30.986  23.417  26.317  1.00  0.00     0.089 C 
ATOM     16  C   UNL A   1      31.634  22.598  25.164  1.00  0.00     0.033 C 
BRANCH  16  17
ATOM     17  C   UNL A   1      33.157  22.786  25.012  1.00  0.00    -0.044 A 
ATOM     18  C   UNL A   1      33.960  24.267  25.716  1.00  0.00     0.004 A 
ATOM     19  C   UNL A   1      34.229  21.465  24.309  1.00  0.00     0.004 A 
ATOM     20  C   UNL A   1      35.760  24.418  25.788  1.00  0.00     0.000 A 
ATOM     21  C   UNL A   1      36.043  21.597  24.408  1.00  0.00     0.000 A 
ATOM     22  C   UNL A   1      36.831  23.068  25.154  1.00  0.00     0.000 A 
ENDBRANCH  16  17
ENDBRANCH   4   6
ENDBRANCH   3   4
ENDBRANCH   2   3
ENDBRANCH   1   2
BRANCH   1  23
ATOM     23  O   UNL A   1      33.241  29.980  26.550  1.00  0.00    -0.458 OA
BRANCH  23  24
ATOM     24  C   UNL A   1      33.921  30.987  27.429  1.00  0.00     0.338 C 
ATOM     25  O   UNL A   1      33.197  31.978  27.148  1.00  0.00    -0.246 OA
BRANCH  24  26
ATOM     26  C   UNL A   1      35.680  30.703  28.659  1.00  0.00     0.060 A 
ATOM     27  C   UNL A   1      36.801  31.604  28.978  1.00  0.00     0.016 A 
ATOM     28  C   UNL A   1      36.249  29.476  29.244  1.00  0.00     0.016 A 
ATOM     29  C   UNL A   1      38.162  31.252  28.867  1.00  0.00     0.010 A 
ATOM     30  C   UNL A   1      37.518  29.003  28.914  1.00  0.00     0.010 A 
ATOM     31  C   UNL A   1      38.503  29.924  28.653  1.00  0.00    -0.014 A 
BRANCH  31  32
ATOM     32  C   UNL A   1      39.863  29.475  28.941  1.00  0.00     0.031 A 
ATOM     33  C   UNL A   1      40.033  29.543  30.423  1.00  0.00     0.074 A 
ATOM     34  C   UNL A   1      40.764  28.920  28.100  1.00  0.00     0.049 A 
ATOM     35  N   UNL A   1      40.521  30.556  31.064  1.00  0.00    -0.248 NA
ATOM     36  C   UNL A   1      39.240  28.640  31.291  1.00  0.00     0.031 C 
ATOM     37  C   UNL A   1      40.628  28.570  26.688  1.00  0.00     0.029 A 
ATOM     38  N   UNL A   1      42.035  28.499  28.385  1.00  0.00    -0.354 N 
ATOM     39  C   UNL A   1      40.393  30.220  32.401  1.00  0.00     0.074 A 
ATOM     40  C   UNL A   1      39.330  29.264  32.469  1.00  0.00     0.031 C 
ATOM     41  C   UNL A   1      41.682  27.802  26.304  1.00  0.00     0.029 A 
ATOM     42  C   UNL A   1      42.639  27.711  27.395  1.00  0.00     0.049 A 
ATOM     43  H   UNL A   1      42.492  28.733  29.224  1.00  0.00     0.167 HD
ATOM     44  C   UNL A   1      41.446  30.422  33.235  1.00  0.00     0.037 A 
ATOM     45  C   UNL A   1      43.830  27.046  27.494  1.00  0.00     0.037 A 
ATOM     46  C   UNL A   1      42.363  31.380  32.652  1.00  0.00     0.049 A 
ATOM     47  C   UNL A   1      44.600  27.717  28.579  1.00  0.00     0.074 A 
ATOM     48  C   UNL A   1      42.235  32.663  32.152  1.00  0.00     0.029 A 
ATOM     49  N   UNL A   1      43.505  30.865  32.088  1.00  0.00    -0.354 N 
ATOM     50  N   UNL A   1      45.042  28.940  28.488  1.00  0.00    -0.248 NA
ATOM     51  C   UNL A   1      44.405  27.218  29.931  1.00  0.00     0.031 C 
ATOM     52  C   UNL A   1      43.040  32.686  30.975  1.00  0.00     0.029 A 
ATOM     53  C   UNL A   1      43.713  31.469  30.877  1.00  0.00     0.049 A 
ATOM     54  H   UNL A   1      44.080  30.173  32.489  1.00  0.00     0.167 HD
ATOM     55  C   UNL A   1      44.722  29.515  29.709  1.00  0.00     0.074 A 
ATOM     56  C   UNL A   1      44.379  28.387  30.579  1.00  0.00     0.031 C 
ATOM     57  C   UNL A   1      44.462  30.853  29.803  1.00  0.00     0.037 A 
BRANCH  44  58
ATOM     58  C   UNL A   1      41.880  29.406  34.271  1.00  0.00     0.058 A 
ATOM     59  C   UNL A   1      42.102  28.081  33.852  1.00  0.00     0.135 A 
ATOM     60  C   UNL A   1      41.817  29.592  35.675  1.00  0.00     0.135 A 
ATOM     61  F   UNL A   1      42.161  27.781  32.546  1.00  0.00    -0.206 F 
ATOM     62  C   UNL A   1      42.191  27.018  34.751  1.00  0.00     0.059 A 
ATOM     63  C   UNL A   1      41.954  28.557  36.587  1.00  0.00     0.059 A 
ATOM     64  F   UNL A   1      41.535  30.763  36.251  1.00  0.00    -0.206 F 
ATOM     65  C   UNL A   1      42.114  27.269  36.118  1.00  0.00     0.060 A 
BRANCH  65  66
ATOM     66  S   UNL A   1      42.213  25.904  37.281  1.00  0.00     0.124 S 
ATOM     67  O   UNL A   1      43.172  26.416  38.251  1.00  0.00    -0.237 OA
ATOM     68  O   UNL A   1      40.829  25.803  37.733  1.00  0.00    -0.237 OA
ATOM     69  O   UNL A   1      42.678  24.793  36.454  1.00  0.00    -0.744 OA
ENDBRANCH  65  66
ENDBRANCH  44  58
BRANCH  45  70
ATOM     70  C   UNL A   1      44.219  25.680  27.015  1.00  0.00     0.058 A 
ATOM     71  C   UNL A   1      43.426  24.539  27.284  1.00  0.00     0.135 A 
ATOM     72  C   UNL A   1      45.194  25.513  26.014  1.00  0.00     0.135 A 
ATOM     73  F   UNL A   1      42.457  24.595  28.211  1.00  0.00    -0.206 F 
ATOM     74  C   UNL A   1      43.550  23.338  26.564  1.00  0.00     0.059 A 
ATOM     75  C   UNL A   1      45.337  24.328  25.285  1.00  0.00     0.059 A 
ATOM     76  F   UNL A   1      45.978  26.535  25.646  1.00  0.00    -0.206 F 
ATOM     77  C   UNL A   1      44.494  23.252  25.544  1.00  0.00     0.060 A 
BRANCH  77  78
ATOM     78  S   UNL A   1      44.543  21.786  24.474  1.00  0.00     0.124 S 
ATOM     79  O   UNL A   1      43.491  20.954  25.048  1.00  0.00    -0.237 OA
ATOM     80  O   UNL A   1      44.263  22.349  23.158  1.00  0.00    -0.237 OA
ATOM     81  O   UNL A   1      45.903  21.282  24.656  1.00  0.00    -0.744 OA
ENDBRANCH  77  78
ENDBRANCH  45  70
BRANCH  57  82
ATOM     82  C   UNL A   1      44.865  31.745  28.654  1.00  0.00     0.058 A 
ATOM     83  C   UNL A   1      44.207  31.846  27.414  1.00  0.00     0.135 A 
ATOM     84  C   UNL A   1      45.929  32.630  28.883  1.00  0.00     0.135 A 
ATOM     85  F   UNL A   1      43.113  31.115  27.150  1.00  0.00    -0.206 F 
ATOM     86  C   UNL A   1      44.629  32.746  26.430  1.00  0.00     0.059 A 
ATOM     87  C   UNL A   1      46.343  33.557  27.935  1.00  0.00     0.059 A 
ATOM     88  F   UNL A   1      46.562  32.628  30.068  1.00  0.00    -0.206 F 
ATOM     89  C   UNL A   1      45.705  33.594  26.700  1.00  0.00     0.060 A 
BRANCH  89  90
ATOM     90  S   UNL A   1      46.258  34.766  25.442  1.00  0.00     0.124 S 
ATOM     91  O   UNL A   1      45.976  36.050  26.074  1.00  0.00    -0.237 OA
ATOM     92  O   UNL A   1      47.670  34.427  25.294  1.00  0.00    -0.237 OA
ATOM     93  O   UNL A   1      45.425  34.445  24.286  1.00  0.00    -0.744 OA
ENDBRANCH  89  90
ENDBRANCH  57  82
ENDBRANCH  31  32
ENDBRANCH  24  26
ENDBRANCH  23  24
ENDBRANCH   1  23
TORSDOF 15
ENDMDL
MODEL 2
REMARK VINA RESULT:     -12.7      2.955      9.282
REMARK SMILES C[C@@H]1C(C(=O)OCCOC(=O)c2ccc(-c3c4nc(c(-c5c(F)cc(S(=O)(=O)[O-])cc5F)c5ccc([nH]5)c(-c5c(F)cc(S(=O)(=O)[O-])cc5F)c5nc(c(-c6c(F)cc(S(=O)(=O)[O-])cc6F)c6ccc3[nH]6)C=C5)C=C4)cc2)=NC2=C1C(=O)C[C@H](c1ccccc1)C2
REMARK SMILES IDX 8 1 7 2 6 3 4 4 5 5 3 6 1 7 2 8 80 9 78 10 79 11 81 12 91 13
REMARK SMILES IDX 82 14 83 15 84 16 85 17 86 18 90 19 87 20 89 21 88 22 9 23
REMARK SMILES IDX 10 24 11 25 12 26 13 27 77 28 14 29 76 30 15 31 16 32 17 33
REMARK SMILES IDX 70 34 18 35 75 36 69 37 71 38 19 39 74 40 68 41 67 42 20 44
REMARK SMILES IDX 54 45 33 46 53 47 34 48 37 49 52 50 72 51 35 52 36 53 51 55
REMARK SMILES IDX 73 56 38 57 21 58 22 59 31 60 23 61 24 62 30 63 32 64 25 65
REMARK SMILES IDX 26 66 27 67 28 68 29 69 55 70 56 71 65 72 57 73 58 74 64 75
REMARK SMILES IDX 66 76 59 77 60 78 61 79 62 80 63 81 39 82 40 83 49 84 41 85
REMARK SMILES IDX 42 86 48 87 50 88 43 89 44 90 45 91 46 92 47 93
REMARK H PARENT 71 43 37 54
REMARK Flexibility Score: inf
ROOT
ATOM      1  C   UNL A   1      36.021  21.479  25.221  1.00  0.00     0.275 C 
ENDROOT
BRANCH   1   2
ATOM      2  C   UNL A   1      35.091  21.568  26.416  1.00  0.00     0.275 C 
BRANCH   2   3
ATOM      3  O   UNL A   1      33.810  22.068  25.994  1.00  0.00    -0.458 OA
BRANCH   3   4
ATOM      4  C   UNL A   1      33.743  23.399  25.732  1.00  0.00     0.353 C 
ATOM      5  O   UNL A   1      34.433  24.280  26.207  1.00  0.00    -0.245 OA
BRANCH   4   6
ATOM      6  C   UNL A   1      32.755  23.606  24.591  1.00  0.00     0.133 C 
ATOM      7  C   UNL A   1      32.897  21.990  22.723  1.00  0.00     0.020 C 
ATOM      8  C   UNL A   1      33.215  23.415  23.166  1.00  0.00     0.078 C 
ATOM      9  C   UNL A   1      32.230  24.395  22.646  1.00  0.00     0.026 C 
ATOM     10  N   UNL A   1      31.524  24.034  24.747  1.00  0.00    -0.249 NA
ATOM     11  C   UNL A   1      31.243  24.602  23.520  1.00  0.00     0.049 C 
ATOM     12  C   UNL A   1      32.544  25.452  21.676  1.00  0.00     0.161 C 
ATOM     13  C   UNL A   1      30.334  25.789  23.365  1.00  0.00     0.065 C 
ATOM     14  O   UNL A   1      33.150  25.160  20.646  1.00  0.00    -0.294 OA
ATOM     15  C   UNL A   1      32.161  26.894  22.023  1.00  0.00     0.089 C 
ATOM     16  C   UNL A   1      31.195  27.066  23.229  1.00  0.00     0.033 C 
BRANCH  16  17
ATOM     17  C   UNL A   1      31.877  27.450  24.557  1.00  0.00    -0.044 A 
ATOM     18  C   UNL A   1      33.561  28.157  24.537  1.00  0.00     0.004 A 
ATOM     19  C   UNL A   1      30.972  27.401  26.160  1.00  0.00     0.004 A 
ATOM     20  C   UNL A   1      34.308  28.853  26.030  1.00  0.00     0.000 A 
ATOM     21  C   UNL A   1      31.706  28.130  27.659  1.00  0.00     0.000 A 
ATOM     22  C   UNL A   1      33.376  28.871  27.613  1.00  0.00     0.000 A 
ENDBRANCH  16  17
ENDBRANCH   4   6
ENDBRANCH   3   4
ENDBRANCH   2   3
ENDBRANCH   1   2
BRANCH   1  23
ATOM     23  O   UNL A   1      37.376  21.746  25.661  1.00  0.00    -0.458 OA
BRANCH  23  24
ATOM     24  C   UNL A   1      37.832  23.159  25.445  1.00  0.00     0.338 C 
ATOM     25  O   UNL A   1      37.208  23.379  24.374  1.00  0.00    -0.246 OA
BRANCH  24  26
ATOM     26  C   UNL A   1      39.237  24.297  26.636  1.00  0.00     0.060 A 
ATOM     27  C   UNL A   1      39.478  24.334  28.088  1.00  0.00     0.016 A 
ATOM     28  C   UNL A   1      40.086  25.446  26.272  1.00  0.00     0.016 A 
ATOM     29  C   UNL A   1      39.550  25.515  28.854  1.00  0.00     0.010 A 
ATOM     30  C   UNL A   1      39.957  26.697  26.876  1.00  0.00     0.010 A 
ATOM     31  C   UNL A   1      39.615  26.740  28.204  1.00  0.00    -0.014 A 
BRANCH  31  32
ATOM     32  C   UNL A   1      40.095  27.914  28.930  1.00  0.00     0.031 A 
ATOM     33  C   UNL A   1      41.308  28.399  28.207  1.00  0.00     0.074 A 
ATOM     34  C   UNL A   1      39.498  28.583  29.941  1.00  0.00     0.049 A 
ATOM     35  N   UNL A   1      42.524  28.060  28.495  1.00  0.00    -0.248 NA
ATOM     36  C   UNL A   1      41.172  28.943  26.835  1.00  0.00     0.031 C 
ATOM     37  C   UNL A   1      38.196  28.358  30.567  1.00  0.00     0.029 A 
ATOM     38  N   UNL A   1      39.957  29.686  30.610  1.00  0.00    -0.354 N 
ATOM     39  C   UNL A   1      43.297  28.659  27.514  1.00  0.00     0.074 A 
ATOM     40  C   UNL A   1      42.429  28.857  26.393  1.00  0.00     0.031 C 
ATOM     41  C   UNL A   1      37.883  29.415  31.363  1.00  0.00     0.029 A 
ATOM     42  C   UNL A   1      39.011  30.332  31.416  1.00  0.00     0.049 A 
ATOM     43  H   UNL A   1      40.885  30.002  30.530  1.00  0.00     0.167 HD
ATOM     44  C   UNL A   1      44.426  29.320  27.878  1.00  0.00     0.037 A 
ATOM     45  C   UNL A   1      39.168  31.528  32.063  1.00  0.00     0.037 A 
ATOM     46  C   UNL A   1      44.853  28.886  29.192  1.00  0.00     0.049 A 
ATOM     47  C   UNL A   1      40.636  31.744  32.202  1.00  0.00     0.074 A 
ATOM     48  C   UNL A   1      45.129  27.658  29.765  1.00  0.00     0.029 A 
ATOM     49  N   UNL A   1      44.575  29.737  30.234  1.00  0.00    -0.354 N 
ATOM     50  N   UNL A   1      41.399  30.993  32.947  1.00  0.00    -0.248 NA
ATOM     51  C   UNL A   1      41.306  32.438  31.115  1.00  0.00     0.031 C 
ATOM     52  C   UNL A   1      44.558  27.718  31.070  1.00  0.00     0.029 A 
ATOM     53  C   UNL A   1      44.073  29.009  31.280  1.00  0.00     0.049 A 
ATOM     54  H   UNL A   1      44.715  30.712  30.230  1.00  0.00     0.167 HD
ATOM     55  C   UNL A   1      42.509  30.737  32.156  1.00  0.00     0.074 A 
ATOM     56  C   UNL A   1      42.419  31.701  31.057  1.00  0.00     0.031 C 
ATOM     57  C   UNL A   1      43.212  29.573  32.296  1.00  0.00     0.037 A 
BRANCH  44  58
ATOM     58  C   UNL A   1      44.813  30.665  27.299  1.00  0.00     0.058 A 
ATOM     59  C   UNL A   1      46.089  30.799  26.718  1.00  0.00     0.135 A 
ATOM     60  C   UNL A   1      44.125  31.883  27.529  1.00  0.00     0.135 A 
ATOM     61  F   UNL A   1      46.841  29.715  26.473  1.00  0.00    -0.206 F 
ATOM     62  C   UNL A   1      46.659  32.042  26.448  1.00  0.00     0.059 A 
ATOM     63  C   UNL A   1      44.653  33.126  27.220  1.00  0.00     0.059 A 
ATOM     64  F   UNL A   1      42.941  31.956  28.143  1.00  0.00    -0.206 F 
ATOM     65  C   UNL A   1      45.932  33.200  26.705  1.00  0.00     0.060 A 
BRANCH  65  66
ATOM     66  S   UNL A   1      46.667  34.805  26.373  1.00  0.00     0.124 S 
ATOM     67  O   UNL A   1      45.483  35.637  26.196  1.00  0.00    -0.237 OA
ATOM     68  O   UNL A   1      47.439  35.032  27.590  1.00  0.00    -0.237 OA
ATOM     69  O   UNL A   1      47.461  34.567  25.171  1.00  0.00    -0.744 OA
ENDBRANCH  65  66
ENDBRANCH  44  58
BRANCH  45  70
ATOM     70  C   UNL A   1      38.209  32.667  32.238  1.00  0.00     0.058 A 
ATOM     71  C   UNL A   1      37.575  33.287  31.136  1.00  0.00     0.135 A 
ATOM     72  C   UNL A   1      37.648  32.955  33.496  1.00  0.00     0.135 A 
ATOM     73  F   UNL A   1      38.022  33.068  29.890  1.00  0.00    -0.206 F 
ATOM     74  C   UNL A   1      36.424  34.084  31.268  1.00  0.00     0.059 A 
ATOM     75  C   UNL A   1      36.505  33.745  33.653  1.00  0.00     0.059 A 
ATOM     76  F   UNL A   1      38.140  32.394  34.609  1.00  0.00    -0.206 F 
ATOM     77  C   UNL A   1      35.879  34.285  32.534  1.00  0.00     0.060 A 
BRANCH  77  78
ATOM     78  S   UNL A   1      34.291  35.146  32.712  1.00  0.00     0.124 S 
ATOM     79  O   UNL A   1      34.586  36.119  33.758  1.00  0.00    -0.237 OA
ATOM     80  O   UNL A   1      34.080  35.691  31.375  1.00  0.00    -0.237 OA
ATOM     81  O   UNL A   1      33.370  34.078  33.097  1.00  0.00    -0.744 OA
ENDBRANCH  77  78
ENDBRANCH  45  70
BRANCH  57  82
ATOM     82  C   UNL A   1      42.985  28.744  33.536  1.00  0.00     0.058 A 
ATOM     83  C   UNL A   1      43.632  28.913  34.775  1.00  0.00     0.135 A 
ATOM     84  C   UNL A   1      41.961  27.786  33.479  1.00  0.00     0.135 A 
ATOM     85  F   UNL A   1      44.547  29.878  34.951  1.00  0.00    -0.206 F 
ATOM     86  C   UNL A   1      43.310  28.124  35.885  1.00  0.00     0.059 A 
ATOM     87  C   UNL A   1      41.600  27.017  34.577  1.00  0.00     0.059 A 
ATOM     88  F   UNL A   1      41.263  27.616  32.344  1.00  0.00    -0.206 F 
ATOM     89  C   UNL A   1      42.295  27.172  35.772  1.00  0.00     0.060 A 
BRANCH  89  90
ATOM     90  S   UNL A   1      41.865  26.150  37.197  1.00  0.00     0.124 S 
ATOM     91  O   UNL A   1      41.852  24.810  36.620  1.00  0.00    -0.237 OA
ATOM     92  O   UNL A   1      42.954  26.430  38.128  1.00  0.00    -0.237 OA
ATOM     93  O   UNL A   1      40.560  26.664  37.605  1.00  0.00    -0.744 OA
ENDBRANCH  89  90
ENDBRANCH  57  82
ENDBRANCH  31  32
ENDBRANCH  24  26
ENDBRANCH  23  24
ENDBRANCH   1  23
TORSDOF 15
ENDMDL
MODEL 3
REMARK VINA RESULT:     -12.6      1.464      2.424
REMARK SMILES C[C@@H]1C(C(=O)OCCOC(=O)c2ccc(-c3c4nc(c(-c5c(F)cc(S(=O)(=O)[O-])cc5F)c5ccc([nH]5)c(-c5c(F)cc(S(=O)(=O)[O-])cc5F)c5nc(c(-c6c(F)cc(S(=O)(=O)[O-])cc6F)c6ccc3[nH]6)C=C5)C=C4)cc2)=NC2=C1C(=O)C[C@H](c1ccccc1)C2
REMARK SMILES IDX 8 1 7 2 6 3 4 4 5 5 3 6 1 7 2 8 80 9 78 10 79 11 81 12 91 13
REMARK SMILES IDX 82 14 83 15 84 16 85 17 86 18 90 19 87 20 89 21 88 22 9 23
REMARK SMILES IDX 10 24 11 25 12 26 13 27 77 28 14 29 76 30 15 31 16 32 17 33
REMARK SMILES IDX 70 34 18 35 75 36 69 37 71 38 19 39 74 40 68 41 67 42 20 44
REMARK SMILES IDX 54 45 33 46 53 47 34 48 37 49 52 50 72 51 35 52 36 53 51 55
REMARK SMILES IDX 73 56 38 57 21 58 22 59 31 60 23 61 24 62 30 63 32 64 25 65
REMARK SMILES IDX 26 66 27 67 28 68 29 69 55 70 56 71 65 72 57 73 58 74 64 75
REMARK SMILES IDX 66 76 59 77 60 78 61 79 62 80 63 81 39 82 40 83 49 84 41 85
REMARK SMILES IDX 42 86 48 87 50 88 43 89 44 90 45 91 46 92 47 93
REMARK H PARENT 71 43 37 54
REMARK Flexibility Score: inf
ROOT
ATOM      1  C   UNL A   1      34.393  31.102  27.516  1.00  0.00     0.275 C 
ENDROOT
BRANCH   1   2
ATOM      2  C   UNL A   1      33.272  30.320  26.859  1.00  0.00     0.275 C 
BRANCH   2   3
ATOM      3  O   UNL A   1      33.786  29.600  25.725  1.00  0.00    -0.458 OA
BRANCH   3   4
ATOM      4  C   UNL A   1      33.509  28.271  25.683  1.00  0.00     0.353 C 
ATOM      5  O   UNL A   1      33.791  27.432  26.516  1.00  0.00    -0.245 OA
BRANCH   4   6
ATOM      6  C   UNL A   1      32.617  28.013  24.476  1.00  0.00     0.133 C 
ATOM      7  C   UNL A   1      30.672  29.520  24.218  1.00  0.00     0.020 C 
ATOM      8  C   UNL A   1      31.118  28.119  24.623  1.00  0.00     0.078 C 
ATOM      9  C   UNL A   1      30.874  27.123  23.550  1.00  0.00     0.026 C 
ATOM     10  N   UNL A   1      33.053  27.608  23.305  1.00  0.00    -0.249 NA
ATOM     11  C   UNL A   1      31.948  26.977  22.771  1.00  0.00     0.049 C 
ATOM     12  C   UNL A   1      29.922  26.010  23.653  1.00  0.00     0.161 C 
ATOM     13  C   UNL A   1      32.056  25.794  21.850  1.00  0.00     0.065 C 
ATOM     14  O   UNL A   1      28.772  26.237  24.027  1.00  0.00    -0.294 OA
ATOM     15  C   UNL A   1      30.423  24.594  23.352  1.00  0.00     0.089 C 
ATOM     16  C   UNL A   1      31.814  24.501  22.663  1.00  0.00     0.033 C 
BRANCH  16  17
ATOM     17  C   UNL A   1      32.987  24.183  23.611  1.00  0.00    -0.044 A 
ATOM     18  C   UNL A   1      32.754  24.322  25.417  1.00  0.00     0.004 A 
ATOM     19  C   UNL A   1      34.570  23.477  22.988  1.00  0.00     0.004 A 
ATOM     20  C   UNL A   1      34.006  23.726  26.577  1.00  0.00     0.000 A 
ATOM     21  C   UNL A   1      35.821  22.846  24.152  1.00  0.00     0.000 A 
ATOM     22  C   UNL A   1      35.554  22.954  25.957  1.00  0.00     0.000 A 
ENDBRANCH  16  17
ENDBRANCH   4   6
ENDBRANCH   3   4
ENDBRANCH   2   3
ENDBRANCH   1   2
BRANCH   1  23
ATOM     23  O   UNL A   1      33.821  32.207  28.258  1.00  0.00    -0.458 OA
BRANCH  23  24
ATOM     24  C   UNL A   1      34.527  32.526  29.542  1.00  0.00     0.338 C 
ATOM     25  O   UNL A   1      33.840  33.528  29.873  1.00  0.00    -0.246 OA
BRANCH  24  26
ATOM     26  C   UNL A   1      36.266  31.546  30.380  1.00  0.00     0.060 A 
ATOM     27  C   UNL A   1      37.529  32.088  30.910  1.00  0.00     0.016 A 
ATOM     28  C   UNL A   1      36.654  30.124  30.381  1.00  0.00     0.016 A 
ATOM     29  C   UNL A   1      38.810  31.635  30.535  1.00  0.00     0.010 A 
ATOM     30  C   UNL A   1      37.816  29.661  29.767  1.00  0.00     0.010 A 
ATOM     31  C   UNL A   1      38.924  30.471  29.787  1.00  0.00    -0.014 A 
BRANCH  31  32
ATOM     32  C   UNL A   1      40.206  29.771  29.740  1.00  0.00     0.031 A 
ATOM     33  C   UNL A   1      40.584  29.472  31.153  1.00  0.00     0.074 A 
ATOM     34  C   UNL A   1      40.867  29.295  28.662  1.00  0.00     0.049 A 
ATOM     35  N   UNL A   1      41.332  30.226  31.892  1.00  0.00    -0.248 NA
ATOM     36  C   UNL A   1      39.765  28.522  31.943  1.00  0.00     0.031 C 
ATOM     37  C   UNL A   1      40.480  29.302  27.252  1.00  0.00     0.029 A 
ATOM     38  N   UNL A   1      42.066  28.635  28.631  1.00  0.00    -0.354 N 
ATOM     39  C   UNL A   1      41.327  29.615  33.135  1.00  0.00     0.074 A 
ATOM     40  C   UNL A   1      40.126  28.839  33.189  1.00  0.00     0.031 C 
ATOM     41  C   UNL A   1      41.312  28.494  26.545  1.00  0.00     0.029 A 
ATOM     42  C   UNL A   1      42.375  28.013  27.414  1.00  0.00     0.049 A 
ATOM     43  H   UNL A   1      42.668  28.599  29.409  1.00  0.00     0.167 HD
ATOM     44  C   UNL A   1      42.503  29.462  33.798  1.00  0.00     0.037 A 
ATOM     45  C   UNL A   1      43.427  27.173  27.169  1.00  0.00     0.037 A 
ATOM     46  C   UNL A   1      43.492  30.380  33.272  1.00  0.00     0.049 A 
ATOM     47  C   UNL A   1      44.447  27.454  28.218  1.00  0.00     0.074 A 
ATOM     48  C   UNL A   1      43.535  31.748  33.073  1.00  0.00     0.029 A 
ATOM     49  N   UNL A   1      44.433  29.843  32.428  1.00  0.00    -0.354 N 
ATOM     50  N   UNL A   1      45.089  28.587  28.302  1.00  0.00    -0.248 NA
ATOM     51  C   UNL A   1      44.349  26.695  29.454  1.00  0.00     0.031 C 
ATOM     52  C   UNL A   1      44.163  31.919  31.804  1.00  0.00     0.029 A 
ATOM     53  C   UNL A   1      44.583  30.670  31.346  1.00  0.00     0.049 A 
ATOM     54  H   UNL A   1      44.921  29.000  32.575  1.00  0.00     0.167 HD
ATOM     55  C   UNL A   1      45.048  28.908  29.651  1.00  0.00     0.074 A 
ATOM     56  C   UNL A   1      44.625  27.675  30.320  1.00  0.00     0.031 C 
ATOM     57  C   UNL A   1      45.053  30.212  30.058  1.00  0.00     0.037 A 
BRANCH  44  58
ATOM     58  C   UNL A   1      42.879  28.183  34.516  1.00  0.00     0.058 A 
ATOM     59  C   UNL A   1      43.258  28.265  35.870  1.00  0.00     0.135 A 
ATOM     60  C   UNL A   1      43.156  26.943  33.888  1.00  0.00     0.135 A 
ATOM     61  F   UNL A   1      43.064  29.398  36.563  1.00  0.00    -0.206 F 
ATOM     62  C   UNL A   1      43.915  27.225  36.526  1.00  0.00     0.059 A 
ATOM     63  C   UNL A   1      43.761  25.878  34.537  1.00  0.00     0.059 A 
ATOM     64  F   UNL A   1      42.939  26.710  32.591  1.00  0.00    -0.206 F 
ATOM     65  C   UNL A   1      44.163  26.036  35.848  1.00  0.00     0.060 A 
BRANCH  65  66
ATOM     66  S   UNL A   1      45.022  24.697  36.683  1.00  0.00     0.124 S 
ATOM     67  O   UNL A   1      44.507  24.823  38.042  1.00  0.00    -0.237 OA
ATOM     68  O   UNL A   1      44.565  23.537  35.925  1.00  0.00    -0.237 OA
ATOM     69  O   UNL A   1      46.430  25.039  36.505  1.00  0.00    -0.744 OA
ENDBRANCH  65  66
ENDBRANCH  44  58
BRANCH  45  70
ATOM     70  C   UNL A   1      43.490  25.910  26.363  1.00  0.00     0.058 A 
ATOM     71  C   UNL A   1      44.496  25.691  25.393  1.00  0.00     0.135 A 
ATOM     72  C   UNL A   1      42.767  24.767  26.750  1.00  0.00     0.135 A 
ATOM     73  F   UNL A   1      45.254  26.713  24.964  1.00  0.00    -0.206 F 
ATOM     74  C   UNL A   1      44.807  24.415  24.892  1.00  0.00     0.059 A 
ATOM     75  C   UNL A   1      43.057  23.487  26.265  1.00  0.00     0.059 A 
ATOM     76  F   UNL A   1      41.815  24.845  27.690  1.00  0.00    -0.206 F 
ATOM     77  C   UNL A   1      44.096  23.311  25.358  1.00  0.00     0.060 A 
BRANCH  77  78
ATOM     78  S   UNL A   1      44.603  21.636  24.876  1.00  0.00     0.124 S 
ATOM     79  O   UNL A   1      44.676  21.746  23.423  1.00  0.00    -0.237 OA
ATOM     80  O   UNL A   1      45.878  21.484  25.568  1.00  0.00    -0.237 OA
ATOM     81  O   UNL A   1      43.520  20.797  25.383  1.00  0.00    -0.744 OA
ENDBRANCH  77  78
ENDBRANCH  45  70
BRANCH  57  82
ATOM     82  C   UNL A   1      45.454  31.272  29.061  1.00  0.00     0.058 A 
ATOM     83  C   UNL A   1      46.771  31.632  28.719  1.00  0.00     0.135 A 
ATOM     84  C   UNL A   1      44.419  31.879  28.333  1.00  0.00     0.135 A 
ATOM     85  F   UNL A   1      47.823  31.024  29.287  1.00  0.00    -0.206 F 
ATOM     86  C   UNL A   1      47.038  32.594  27.739  1.00  0.00     0.059 A 
ATOM     87  C   UNL A   1      44.662  32.810  27.331  1.00  0.00     0.059 A 
ATOM     88  F   UNL A   1      43.142  31.536  28.567  1.00  0.00    -0.206 F 
ATOM     89  C   UNL A   1      45.973  33.182  27.054  1.00  0.00     0.060 A 
BRANCH  89  90
ATOM     90  S   UNL A   1      46.302  34.421  25.782  1.00  0.00     0.124 S 
ATOM     91  O   UNL A   1      46.005  35.666  26.482  1.00  0.00    -0.237 OA
ATOM     92  O   UNL A   1      47.709  34.188  25.470  1.00  0.00    -0.237 OA
ATOM     93  O   UNL A   1      45.370  34.069  24.714  1.00  0.00    -0.744 OA
ENDBRANCH  89  90
ENDBRANCH  57  82
ENDBRANCH  31  32
ENDBRANCH  24  26
ENDBRANCH  23  24
ENDBRANCH   1  23
TORSDOF 15
ENDMDL
