MODEL 1
REMARK VINA RESULT:     -13.0      0.000      0.000
REMARK SMILES CS(=O)(=O)c1ccc(C2=NN(c3ccc(C(=O)OCCOC(=O)c4ccc(-c5c6nc(c(-c7c(F)cc(S(=O)(=O)[O-])cc7F)c7ccc([nH]7)c(-c7c(F)cc(S(=O)(=O)[O-])cc7F)c7nc(c(-c8c(F)cc(S(=O)(=O)[O-])cc8F)c8ccc5[nH]8)C=C7)C=C6)cc4)cc3)[C@H](c3ccccc3)C2)cc1
REMARK SMILES IDX 19 1 18 2 16 3 17 4 15 5 12 6 13 7 91 8 14 9 90 10 11 11
REMARK SMILES IDX 9 12 10 13 99 14 92 15 8 16 5 17 6 18 101 19 7 20 100 21
REMARK SMILES IDX 2 22 1 23 3 24 4 25 93 26 94 27 98 28 95 29 97 30 96 31
REMARK SMILES IDX 20 32 21 33 22 34 23 35 24 36 25 37 89 38 26 39 88 40 27 41
REMARK SMILES IDX 28 42 29 43 82 44 30 45 87 46 81 47 83 48 31 49 86 50 80 51
REMARK SMILES IDX 79 52 32 54 66 55 45 56 65 57 46 58 49 59 64 60 84 61 47 62
REMARK SMILES IDX 48 63 63 65 85 66 50 67 33 68 34 69 43 70 35 71 36 72 42 73
REMARK SMILES IDX 44 74 37 75 38 76 39 77 40 78 41 79 67 80 68 81 77 82 69 83
REMARK SMILES IDX 70 84 76 85 78 86 71 87 72 88 73 89 74 90 75 91 51 92 52 93
REMARK SMILES IDX 61 94 53 95 54 96 60 97 62 98 55 99 56 100 57 101 58 102
REMARK SMILES IDX 59 103
REMARK H PARENT 83 53 49 64
REMARK Flexibility Score: inf
ROOT
ATOM      1  C   UNL A   1      35.088  32.062  28.511  1.00  0.00     0.275 C 
ENDROOT
BRANCH   1   2
ATOM      2  O   UNL A   1      34.583  30.778  28.100  1.00  0.00    -0.458 OA
BRANCH   2   3
ATOM      3  C   UNL A   1      33.393  30.802  27.451  1.00  0.00     0.338 C 
ATOM      4  O   UNL A   1      32.675  31.778  27.299  1.00  0.00    -0.246 OA
BRANCH   3   5
ATOM      5  C   UNL A   1      33.058  29.471  26.885  1.00  0.00     0.060 A 
ATOM      6  C   UNL A   1      32.435  27.048  25.604  1.00  0.00     0.060 A 
ATOM      7  C   UNL A   1      33.618  27.724  25.295  1.00  0.00     0.029 A 
ATOM      8  C   UNL A   1      31.606  27.559  26.612  1.00  0.00     0.029 A 
ATOM      9  C   UNL A   1      33.913  28.940  25.909  1.00  0.00     0.018 A 
ATOM     10  C   UNL A   1      31.913  28.763  27.256  1.00  0.00     0.018 A 
BRANCH   6  11
ATOM     11  N   UNL A   1      31.984  25.996  24.807  1.00  0.00    -0.257 N 
ATOM     12  C   UNL A   1      32.277  24.062  23.968  1.00  0.00     0.071 C 
ATOM     13  N   UNL A   1      32.345  24.719  25.085  1.00  0.00    -0.176 NA
ATOM     14  C   UNL A   1      31.944  24.883  22.748  1.00  0.00     0.091 C 
ATOM     15  C   UNL A   1      31.719  26.254  23.388  1.00  0.00     0.144 C 
BRANCH  12  16
ATOM     16  C   UNL A   1      32.482  22.600  23.879  1.00  0.00    -0.002 A 
ATOM     17  C   UNL A   1      32.755  19.822  23.860  1.00  0.00     0.067 A 
ATOM     18  C   UNL A   1      33.227  20.557  24.951  1.00  0.00     0.021 A 
ATOM     19  C   UNL A   1      32.170  20.469  22.766  1.00  0.00     0.021 A 
ATOM     20  C   UNL A   1      33.094  21.947  24.955  1.00  0.00     0.011 A 
ATOM     21  C   UNL A   1      32.034  21.861  22.777  1.00  0.00     0.011 A 
BRANCH  17  22
ATOM     22  S   UNL A   1      32.851  18.048  23.899  1.00  0.00     0.175 S 
ATOM     23  C   UNL A   1      34.515  17.669  24.374  1.00  0.00     0.163 C 
ATOM     24  O   UNL A   1      32.654  17.599  22.533  1.00  0.00    -0.224 OA
ATOM     25  O   UNL A   1      31.981  17.586  24.965  1.00  0.00    -0.224 OA
ENDBRANCH  17  22
ENDBRANCH  12  16
BRANCH  15  26
ATOM     26  C   UNL A   1      30.350  26.905  23.252  1.00  0.00    -0.023 A 
ATOM     27  C   UNL A   1      29.184  26.368  23.813  1.00  0.00     0.006 A 
ATOM     28  C   UNL A   1      30.273  28.180  22.654  1.00  0.00     0.006 A 
ATOM     29  C   UNL A   1      27.981  27.080  23.770  1.00  0.00     0.000 A 
ATOM     30  C   UNL A   1      29.079  28.899  22.633  1.00  0.00     0.000 A 
ATOM     31  C   UNL A   1      27.931  28.347  23.191  1.00  0.00     0.000 A 
ENDBRANCH  15  26
ENDBRANCH   6  11
ENDBRANCH   3   5
ENDBRANCH   2   3
ENDBRANCH   1   2
BRANCH   1  32
ATOM     32  C   UNL A   1      35.200  32.142  30.031  1.00  0.00     0.275 C 
BRANCH  32  33
ATOM     33  O   UNL A   1      36.565  31.943  30.444  1.00  0.00    -0.458 OA
BRANCH  33  34
ATOM     34  C   UNL A   1      36.844  30.732  30.981  1.00  0.00     0.338 C 
ATOM     35  O   UNL A   1      36.193  30.117  31.805  1.00  0.00    -0.246 OA
BRANCH  34  36
ATOM     36  C   UNL A   1      38.088  30.216  30.391  1.00  0.00     0.060 A 
ATOM     37  C   UNL A   1      39.131  29.844  31.236  1.00  0.00     0.016 A 
ATOM     38  C   UNL A   1      38.267  30.214  29.009  1.00  0.00     0.016 A 
ATOM     39  C   UNL A   1      40.378  29.514  30.711  1.00  0.00     0.010 A 
ATOM     40  C   UNL A   1      39.503  29.825  28.479  1.00  0.00     0.010 A 
ATOM     41  C   UNL A   1      40.580  29.497  29.325  1.00  0.00    -0.014 A 
BRANCH  41  42
ATOM     42  C   UNL A   1      41.927  29.202  28.763  1.00  0.00     0.031 A 
ATOM     43  C   UNL A   1      42.236  27.822  28.243  1.00  0.00     0.074 A 
ATOM     44  C   UNL A   1      42.870  30.163  28.698  1.00  0.00     0.049 A 
ATOM     45  N   UNL A   1      43.385  27.313  27.875  1.00  0.00    -0.248 NA
ATOM     46  C   UNL A   1      41.104  26.889  28.134  1.00  0.00     0.031 C 
ATOM     47  C   UNL A   1      42.692  31.554  29.116  1.00  0.00     0.029 A 
ATOM     48  N   UNL A   1      44.169  30.115  28.253  1.00  0.00    -0.354 N 
ATOM     49  C   UNL A   1      43.124  25.987  27.545  1.00  0.00     0.074 A 
ATOM     50  C   UNL A   1      41.709  25.771  27.755  1.00  0.00     0.031 C 
ATOM     51  C   UNL A   1      43.827  32.232  28.882  1.00  0.00     0.029 A 
ATOM     52  C   UNL A   1      44.837  31.311  28.369  1.00  0.00     0.049 A 
ATOM     53  H   UNL A   1      44.582  29.300  27.885  1.00  0.00     0.167 HD
ATOM     54  C   UNL A   1      43.988  25.038  27.110  1.00  0.00     0.037 A 
ATOM     55  C   UNL A   1      46.124  31.625  28.126  1.00  0.00     0.037 A 
ATOM     56  C   UNL A   1      45.386  25.272  26.852  1.00  0.00     0.049 A 
ATOM     57  C   UNL A   1      47.068  30.554  27.659  1.00  0.00     0.074 A 
ATOM     58  C   UNL A   1      46.342  24.376  26.406  1.00  0.00     0.029 A 
ATOM     59  N   UNL A   1      46.024  26.495  26.999  1.00  0.00    -0.354 N 
ATOM     60  N   UNL A   1      46.823  29.289  27.414  1.00  0.00    -0.248 NA
ATOM     61  C   UNL A   1      48.470  30.946  27.455  1.00  0.00     0.031 C 
ATOM     62  C   UNL A   1      47.564  25.052  26.304  1.00  0.00     0.029 A 
ATOM     63  C   UNL A   1      47.361  26.377  26.656  1.00  0.00     0.049 A 
ATOM     64  H   UNL A   1      45.591  27.325  27.304  1.00  0.00     0.167 HD
ATOM     65  C   UNL A   1      48.035  28.735  27.021  1.00  0.00     0.074 A 
ATOM     66  C   UNL A   1      49.011  29.807  27.043  1.00  0.00     0.031 C 
ATOM     67  C   UNL A   1      48.317  27.455  26.679  1.00  0.00     0.037 A 
BRANCH  54  68
ATOM     68  C   UNL A   1      43.453  23.647  26.922  1.00  0.00     0.058 A 
ATOM     69  C   UNL A   1      43.128  23.139  25.655  1.00  0.00     0.135 A 
ATOM     70  C   UNL A   1      43.282  22.801  28.030  1.00  0.00     0.135 A 
ATOM     71  F   UNL A   1      43.258  23.911  24.565  1.00  0.00    -0.206 F 
ATOM     72  C   UNL A   1      42.626  21.850  25.495  1.00  0.00     0.059 A 
ATOM     73  C   UNL A   1      42.804  21.501  27.892  1.00  0.00     0.059 A 
ATOM     74  F   UNL A   1      43.579  23.236  29.265  1.00  0.00    -0.206 F 
ATOM     75  C   UNL A   1      42.463  21.041  26.621  1.00  0.00     0.060 A 
BRANCH  75  76
ATOM     76  S   UNL A   1      41.808  19.372  26.404  1.00  0.00     0.124 S 
ATOM     77  O   UNL A   1      42.077  18.782  27.712  1.00  0.00    -0.237 OA
ATOM     78  O   UNL A   1      40.403  19.622  26.098  1.00  0.00    -0.237 OA
ATOM     79  O   UNL A   1      42.600  18.838  25.299  1.00  0.00    -0.744 OA
ENDBRANCH  75  76
ENDBRANCH  54  68
BRANCH  55  80
ATOM     80  C   UNL A   1      46.600  33.016  28.353  1.00  0.00     0.058 A 
ATOM     81  C   UNL A   1      46.539  33.975  27.331  1.00  0.00     0.135 A 
ATOM     82  C   UNL A   1      47.098  33.420  29.601  1.00  0.00     0.135 A 
ATOM     83  F   UNL A   1      46.082  33.633  26.117  1.00  0.00    -0.206 F 
ATOM     84  C   UNL A   1      46.956  35.286  27.539  1.00  0.00     0.059 A 
ATOM     85  C   UNL A   1      47.498  34.730  29.840  1.00  0.00     0.059 A 
ATOM     86  F   UNL A   1      47.167  32.541  30.614  1.00  0.00    -0.206 F 
ATOM     87  C   UNL A   1      47.429  35.655  28.799  1.00  0.00     0.060 A 
BRANCH  87  88
ATOM     88  S   UNL A   1      47.898  37.376  29.084  1.00  0.00     0.124 S 
ATOM     89  O   UNL A   1      49.332  37.254  29.317  1.00  0.00    -0.237 OA
ATOM     90  O   UNL A   1      47.507  38.016  27.831  1.00  0.00    -0.237 OA
ATOM     91  O   UNL A   1      47.097  37.752  30.245  1.00  0.00    -0.744 OA
ENDBRANCH  87  88
ENDBRANCH  55  80
BRANCH  67  92
ATOM     92  C   UNL A   1      49.730  27.147  26.275  1.00  0.00     0.058 A 
ATOM     93  C   UNL A   1      50.703  26.791  27.221  1.00  0.00     0.135 A 
ATOM     94  C   UNL A   1      50.103  27.167  24.921  1.00  0.00     0.135 A 
ATOM     95  F   UNL A   1      50.396  26.764  28.528  1.00  0.00    -0.206 F 
ATOM     96  C   UNL A   1      52.006  26.484  26.842  1.00  0.00     0.059 A 
ATOM     97  C   UNL A   1      51.394  26.844  24.517  1.00  0.00     0.059 A 
ATOM     98  F   UNL A   1      49.207  27.494  23.977  1.00  0.00    -0.206 F 
ATOM     99  C   UNL A   1      52.342  26.515  25.486  1.00  0.00     0.060 A 
BRANCH  99 100
ATOM    100  S   UNL A   1      54.028  26.089  24.999  1.00  0.00     0.124 S 
ATOM    101  O   UNL A   1      53.879  24.688  24.620  1.00  0.00    -0.237 OA
ATOM    102  O   UNL A   1      54.285  27.019  23.904  1.00  0.00    -0.237 OA
ATOM    103  O   UNL A   1      54.802  26.334  26.213  1.00  0.00    -0.744 OA
ENDBRANCH  99 100
ENDBRANCH  67  92
ENDBRANCH  41  42
ENDBRANCH  34  36
ENDBRANCH  33  34
ENDBRANCH  32  33
ENDBRANCH   1  32
TORSDOF 18
ENDMDL
MODEL 2
REMARK VINA RESULT:     -12.9      6.412     12.035
REMARK SMILES CS(=O)(=O)c1ccc(C2=NN(c3ccc(C(=O)OCCOC(=O)c4ccc(-c5c6nc(c(-c7c(F)cc(S(=O)(=O)[O-])cc7F)c7ccc([nH]7)c(-c7c(F)cc(S(=O)(=O)[O-])cc7F)c7nc(c(-c8c(F)cc(S(=O)(=O)[O-])cc8F)c8ccc5[nH]8)C=C7)C=C6)cc4)cc3)[C@H](c3ccccc3)C2)cc1
REMARK SMILES IDX 19 1 18 2 16 3 17 4 15 5 12 6 13 7 91 8 14 9 90 10 11 11
REMARK SMILES IDX 9 12 10 13 99 14 92 15 8 16 5 17 6 18 101 19 7 20 100 21
REMARK SMILES IDX 2 22 1 23 3 24 4 25 93 26 94 27 98 28 95 29 97 30 96 31
REMARK SMILES IDX 20 32 21 33 22 34 23 35 24 36 25 37 89 38 26 39 88 40 27 41
REMARK SMILES IDX 28 42 29 43 82 44 30 45 87 46 81 47 83 48 31 49 86 50 80 51
REMARK SMILES IDX 79 52 32 54 66 55 45 56 65 57 46 58 49 59 64 60 84 61 47 62
REMARK SMILES IDX 48 63 63 65 85 66 50 67 33 68 34 69 43 70 35 71 36 72 42 73
REMARK SMILES IDX 44 74 37 75 38 76 39 77 40 78 41 79 67 80 68 81 77 82 69 83
REMARK SMILES IDX 70 84 76 85 78 86 71 87 72 88 73 89 74 90 75 91 51 92 52 93
REMARK SMILES IDX 61 94 53 95 54 96 60 97 62 98 55 99 56 100 57 101 58 102
REMARK SMILES IDX 59 103
REMARK H PARENT 83 53 49 64
REMARK Flexibility Score: inf
ROOT
ATOM      1  C   UNL A   1      40.424  22.370  27.134  1.00  0.00     0.275 C 
ENDROOT
BRANCH   1   2
ATOM      2  O   UNL A   1      39.217  22.864  26.524  1.00  0.00    -0.458 OA
BRANCH   2   3
ATOM      3  C   UNL A   1      38.557  21.977  25.741  1.00  0.00     0.338 C 
ATOM      4  O   UNL A   1      38.923  20.843  25.470  1.00  0.00    -0.246 OA
BRANCH   3   5
ATOM      5  C   UNL A   1      37.268  22.534  25.258  1.00  0.00     0.060 A 
ATOM      6  C   UNL A   1      34.725  23.459  24.503  1.00  0.00     0.060 A 
ATOM      7  C   UNL A   1      35.164  23.605  25.821  1.00  0.00     0.029 A 
ATOM      8  C   UNL A   1      35.600  22.914  23.553  1.00  0.00     0.029 A 
ATOM      9  C   UNL A   1      36.413  23.120  26.203  1.00  0.00     0.018 A 
ATOM     10  C   UNL A   1      36.869  22.456  23.922  1.00  0.00     0.018 A 
BRANCH   6  11
ATOM     11  N   UNL A   1      33.387  23.670  24.167  1.00  0.00    -0.257 N 
ATOM     12  C   UNL A   1      31.710  24.971  24.003  1.00  0.00     0.071 C 
ATOM     13  N   UNL A   1      32.974  24.881  23.718  1.00  0.00    -0.176 NA
ATOM     14  C   UNL A   1      31.137  23.825  24.797  1.00  0.00     0.091 C 
ATOM     15  C   UNL A   1      32.357  22.904  24.876  1.00  0.00     0.144 C 
BRANCH  12  16
ATOM     16  C   UNL A   1      30.864  26.103  23.566  1.00  0.00    -0.002 A 
ATOM     17  C   UNL A   1      29.237  28.278  22.924  1.00  0.00     0.067 A 
ATOM     18  C   UNL A   1      28.693  27.181  23.599  1.00  0.00     0.021 A 
ATOM     19  C   UNL A   1      30.584  28.284  22.546  1.00  0.00     0.021 A 
ATOM     20  C   UNL A   1      29.508  26.092  23.913  1.00  0.00     0.011 A 
ATOM     21  C   UNL A   1      31.399  27.193  22.869  1.00  0.00     0.011 A 
BRANCH  17  22
ATOM     22  S   UNL A   1      28.216  29.696  22.602  1.00  0.00     0.175 S 
ATOM     23  C   UNL A   1      28.998  31.049  23.439  1.00  0.00     0.163 C 
ATOM     24  O   UNL A   1      26.942  29.438  23.248  1.00  0.00    -0.224 OA
ATOM     25  O   UNL A   1      28.284  29.971  21.179  1.00  0.00    -0.224 OA
ENDBRANCH  17  22
ENDBRANCH  12  16
BRANCH  15  26
ATOM     26  C   UNL A   1      32.262  21.516  24.259  1.00  0.00    -0.023 A 
ATOM     27  C   UNL A   1      32.097  21.295  22.885  1.00  0.00     0.006 A 
ATOM     28  C   UNL A   1      32.491  20.399  25.088  1.00  0.00     0.006 A 
ATOM     29  C   UNL A   1      32.153  19.999  22.361  1.00  0.00     0.000 A 
ATOM     30  C   UNL A   1      32.570  19.110  24.562  1.00  0.00     0.000 A 
ATOM     31  C   UNL A   1      32.399  18.911  23.196  1.00  0.00     0.000 A 
ENDBRANCH  15  26
ENDBRANCH   6  11
ENDBRANCH   3   5
ENDBRANCH   2   3
ENDBRANCH   1   2
BRANCH   1  32
ATOM     32  C   UNL A   1      41.657  22.988  26.480  1.00  0.00     0.275 C 
BRANCH  32  33
ATOM     33  O   UNL A   1      41.447  24.392  26.242  1.00  0.00    -0.458 OA
BRANCH  33  34
ATOM     34  C   UNL A   1      42.484  25.202  26.559  1.00  0.00     0.338 C 
ATOM     35  O   UNL A   1      43.601  25.205  26.074  1.00  0.00    -0.246 OA
BRANCH  34  36
ATOM     36  C   UNL A   1      42.059  26.144  27.606  1.00  0.00     0.060 A 
ATOM     37  C   UNL A   1      42.837  27.274  27.851  1.00  0.00     0.016 A 
ATOM     38  C   UNL A   1      40.967  25.851  28.420  1.00  0.00     0.016 A 
ATOM     39  C   UNL A   1      42.560  28.095  28.942  1.00  0.00     0.010 A 
ATOM     40  C   UNL A   1      40.653  26.708  29.481  1.00  0.00     0.010 A 
ATOM     41  C   UNL A   1      41.462  27.824  29.770  1.00  0.00    -0.014 A 
BRANCH  41  42
ATOM     42  C   UNL A   1      41.199  28.665  30.971  1.00  0.00     0.031 A 
ATOM     43  C   UNL A   1      40.068  29.660  30.954  1.00  0.00     0.074 A 
ATOM     44  C   UNL A   1      41.952  28.534  32.080  1.00  0.00     0.049 A 
ATOM     45  N   UNL A   1      39.777  30.599  31.819  1.00  0.00    -0.248 NA
ATOM     46  C   UNL A   1      39.149  29.597  29.807  1.00  0.00     0.031 C 
ATOM     47  C   UNL A   1      43.045  27.576  32.254  1.00  0.00     0.029 A 
ATOM     48  N   UNL A   1      41.911  29.208  33.276  1.00  0.00    -0.354 N 
ATOM     49  C   UNL A   1      38.679  31.273  31.294  1.00  0.00     0.074 A 
ATOM     50  C   UNL A   1      38.354  30.633  30.037  1.00  0.00     0.031 C 
ATOM     51  C   UNL A   1      43.551  27.705  33.491  1.00  0.00     0.029 A 
ATOM     52  C   UNL A   1      42.871  28.803  34.172  1.00  0.00     0.049 A 
ATOM     53  H   UNL A   1      41.255  29.916  33.472  1.00  0.00     0.167 HD
ATOM     54  C   UNL A   1      38.007  32.329  31.813  1.00  0.00     0.037 A 
ATOM     55  C   UNL A   1      43.195  29.282  35.389  1.00  0.00     0.037 A 
ATOM     56  C   UNL A   1      38.300  32.927  33.090  1.00  0.00     0.049 A 
ATOM     57  C   UNL A   1      42.447  30.463  35.939  1.00  0.00     0.074 A 
ATOM     58  C   UNL A   1      37.673  33.997  33.705  1.00  0.00     0.029 A 
ATOM     59  N   UNL A   1      39.293  32.495  33.958  1.00  0.00    -0.354 N 
ATOM     60  N   UNL A   1      41.454  31.132  35.402  1.00  0.00    -0.248 NA
ATOM     61  C   UNL A   1      42.876  30.970  37.250  1.00  0.00     0.031 C 
ATOM     62  C   UNL A   1      38.302  34.227  34.935  1.00  0.00     0.029 A 
ATOM     63  C   UNL A   1      39.298  33.278  35.100  1.00  0.00     0.049 A 
ATOM     64  H   UNL A   1      39.904  31.742  33.786  1.00  0.00     0.167 HD
ATOM     65  C   UNL A   1      41.135  32.133  36.311  1.00  0.00     0.074 A 
ATOM     66  C   UNL A   1      42.027  31.972  37.442  1.00  0.00     0.031 C 
ATOM     67  C   UNL A   1      40.192  33.102  36.217  1.00  0.00     0.037 A 
BRANCH  54  68
ATOM     68  C   UNL A   1      36.910  32.929  30.980  1.00  0.00     0.058 A 
ATOM     69  C   UNL A   1      37.177  33.810  29.921  1.00  0.00     0.135 A 
ATOM     70  C   UNL A   1      35.569  32.598  31.235  1.00  0.00     0.135 A 
ATOM     71  F   UNL A   1      38.441  34.172  29.646  1.00  0.00    -0.206 F 
ATOM     72  C   UNL A   1      36.151  34.366  29.161  1.00  0.00     0.059 A 
ATOM     73  C   UNL A   1      34.529  33.123  30.473  1.00  0.00     0.059 A 
ATOM     74  F   UNL A   1      35.259  31.759  32.235  1.00  0.00    -0.206 F 
ATOM     75  C   UNL A   1      34.830  34.019  29.448  1.00  0.00     0.060 A 
BRANCH  75  76
ATOM     76  S   UNL A   1      33.505  34.746  28.460  1.00  0.00     0.124 S 
ATOM     77  O   UNL A   1      32.991  33.576  27.757  1.00  0.00    -0.237 OA
ATOM     78  O   UNL A   1      32.626  35.311  29.478  1.00  0.00    -0.237 OA
ATOM     79  O   UNL A   1      34.201  35.724  27.627  1.00  0.00    -0.744 OA
ENDBRANCH  75  76
ENDBRANCH  54  68
BRANCH  55  80
ATOM     80  C   UNL A   1      44.307  28.659  36.156  1.00  0.00     0.058 A 
ATOM     81  C   UNL A   1      44.068  27.589  37.030  1.00  0.00     0.135 A 
ATOM     82  C   UNL A   1      45.630  29.101  36.008  1.00  0.00     0.135 A 
ATOM     83  F   UNL A   1      42.818  27.139  37.214  1.00  0.00    -0.206 F 
ATOM     84  C   UNL A   1      45.103  26.979  37.733  1.00  0.00     0.059 A 
ATOM     85  C   UNL A   1      46.685  28.492  36.681  1.00  0.00     0.059 A 
ATOM     86  F   UNL A   1      45.911  30.116  35.175  1.00  0.00    -0.206 F 
ATOM     87  C   UNL A   1      46.409  27.436  37.547  1.00  0.00     0.060 A 
BRANCH  87  88
ATOM     88  S   UNL A   1      47.757  26.592  38.404  1.00  0.00     0.124 S 
ATOM     89  O   UNL A   1      47.041  25.911  39.476  1.00  0.00    -0.237 OA
ATOM     90  O   UNL A   1      48.302  25.734  37.355  1.00  0.00    -0.237 OA
ATOM     91  O   UNL A   1      48.626  27.688  38.819  1.00  0.00    -0.744 OA
ENDBRANCH  87  88
ENDBRANCH  55  80
BRANCH  67  92
ATOM     92  C   UNL A   1      40.058  34.046  37.377  1.00  0.00     0.058 A 
ATOM     93  C   UNL A   1      40.707  35.289  37.389  1.00  0.00     0.135 A 
ATOM     94  C   UNL A   1      39.238  33.720  38.469  1.00  0.00     0.135 A 
ATOM     95  F   UNL A   1      41.507  35.643  36.370  1.00  0.00    -0.206 F 
ATOM     96  C   UNL A   1      40.564  36.172  38.455  1.00  0.00     0.059 A 
ATOM     97  C   UNL A   1      39.065  34.595  39.536  1.00  0.00     0.059 A 
ATOM     98  F   UNL A   1      38.590  32.545  38.502  1.00  0.00    -0.206 F 
ATOM     99  C   UNL A   1      39.741  35.815  39.525  1.00  0.00     0.060 A 
BRANCH  99 100
ATOM    100  S   UNL A   1      39.539  36.978  40.892  1.00  0.00     0.124 S 
ATOM    101  O   UNL A   1      39.020  38.154  40.202  1.00  0.00    -0.237 OA
ATOM    102  O   UNL A   1      38.593  36.283  41.760  1.00  0.00    -0.237 OA
ATOM    103  O   UNL A   1      40.891  37.108  41.427  1.00  0.00    -0.744 OA
ENDBRANCH  99 100
ENDBRANCH  67  92
ENDBRANCH  41  42
ENDBRANCH  34  36
ENDBRANCH  33  34
ENDBRANCH  32  33
ENDBRANCH   1  32
TORSDOF 18
ENDMDL
MODEL 3
REMARK VINA RESULT:     -12.9      6.206     11.733
REMARK SMILES CS(=O)(=O)c1ccc(C2=NN(c3ccc(C(=O)OCCOC(=O)c4ccc(-c5c6nc(c(-c7c(F)cc(S(=O)(=O)[O-])cc7F)c7ccc([nH]7)c(-c7c(F)cc(S(=O)(=O)[O-])cc7F)c7nc(c(-c8c(F)cc(S(=O)(=O)[O-])cc8F)c8ccc5[nH]8)C=C7)C=C6)cc4)cc3)[C@H](c3ccccc3)C2)cc1
REMARK SMILES IDX 19 1 18 2 16 3 17 4 15 5 12 6 13 7 91 8 14 9 90 10 11 11
REMARK SMILES IDX 9 12 10 13 99 14 92 15 8 16 5 17 6 18 101 19 7 20 100 21
REMARK SMILES IDX 2 22 1 23 3 24 4 25 93 26 94 27 98 28 95 29 97 30 96 31
REMARK SMILES IDX 20 32 21 33 22 34 23 35 24 36 25 37 89 38 26 39 88 40 27 41
REMARK SMILES IDX 28 42 29 43 82 44 30 45 87 46 81 47 83 48 31 49 86 50 80 51
REMARK SMILES IDX 79 52 32 54 66 55 45 56 65 57 46 58 49 59 64 60 84 61 47 62
REMARK SMILES IDX 48 63 63 65 85 66 50 67 33 68 34 69 43 70 35 71 36 72 42 73
REMARK SMILES IDX 44 74 37 75 38 76 39 77 40 78 41 79 67 80 68 81 77 82 69 83
REMARK SMILES IDX 70 84 76 85 78 86 71 87 72 88 73 89 74 90 75 91 51 92 52 93
REMARK SMILES IDX 61 94 53 95 54 96 60 97 62 98 55 99 56 100 57 101 58 102
REMARK SMILES IDX 59 103
REMARK H PARENT 83 53 49 64
REMARK Flexibility Score: inf
ROOT
ATOM      1  C   UNL A   1      40.290  22.212  27.170  1.00  0.00     0.275 C 
ENDROOT
BRANCH   1   2
ATOM      2  O   UNL A   1      39.081  22.759  26.610  1.00  0.00    -0.458 OA
BRANCH   2   3
ATOM      3  C   UNL A   1      38.430  21.954  25.735  1.00  0.00     0.338 C 
ATOM      4  O   UNL A   1      38.781  20.838  25.383  1.00  0.00    -0.246 OA
BRANCH   3   5
ATOM      5  C   UNL A   1      37.171  22.580  25.257  1.00  0.00     0.060 A 
ATOM      6  C   UNL A   1      34.676  23.632  24.505  1.00  0.00     0.060 A 
ATOM      7  C   UNL A   1      35.099  23.705  25.834  1.00  0.00     0.029 A 
ATOM      8  C   UNL A   1      35.545  23.093  23.545  1.00  0.00     0.029 A 
ATOM      9  C   UNL A   1      36.324  23.158  26.213  1.00  0.00     0.018 A 
ATOM     10  C   UNL A   1      36.790  22.572  23.913  1.00  0.00     0.018 A 
BRANCH   6  11
ATOM     11  N   UNL A   1      33.353  23.907  24.159  1.00  0.00    -0.257 N 
ATOM     12  C   UNL A   1      31.717  25.265  24.062  1.00  0.00     0.071 C 
ATOM     13  N   UNL A   1      32.983  25.160  23.797  1.00  0.00    -0.176 NA
ATOM     14  C   UNL A   1      31.094  24.078  24.752  1.00  0.00     0.091 C 
ATOM     15  C   UNL A   1      32.286  23.119  24.785  1.00  0.00     0.144 C 
BRANCH  12  16
ATOM     16  C   UNL A   1      30.912  26.452  23.697  1.00  0.00    -0.002 A 
ATOM     17  C   UNL A   1      29.332  28.694  23.187  1.00  0.00     0.067 A 
ATOM     18  C   UNL A   1      28.726  27.486  23.541  1.00  0.00     0.021 A 
ATOM     19  C   UNL A   1      30.723  28.783  23.061  1.00  0.00     0.021 A 
ATOM     20  C   UNL A   1      29.518  26.364  23.790  1.00  0.00     0.011 A 
ATOM     21  C   UNL A   1      31.514  27.658  23.318  1.00  0.00     0.011 A 
BRANCH  17  22
ATOM     22  S   UNL A   1      28.323  30.139  22.954  1.00  0.00     0.175 S 
ATOM     23  C   UNL A   1      28.452  30.540  21.233  1.00  0.00     0.163 C 
ATOM     24  O   UNL A   1      28.951  31.202  23.716  1.00  0.00    -0.224 OA
ATOM     25  O   UNL A   1      26.946  29.758  23.208  1.00  0.00    -0.224 OA
ENDBRANCH  17  22
ENDBRANCH  12  16
BRANCH  15  26
ATOM     26  C   UNL A   1      32.166  21.786  24.060  1.00  0.00    -0.023 A 
ATOM     27  C   UNL A   1      31.962  21.678  22.678  1.00  0.00     0.006 A 
ATOM     28  C   UNL A   1      32.413  20.604  24.789  1.00  0.00     0.006 A 
ATOM     29  C   UNL A   1      31.997  20.429  22.049  1.00  0.00     0.000 A 
ATOM     30  C   UNL A   1      32.471  19.362  24.157  1.00  0.00     0.000 A 
ATOM     31  C   UNL A   1      32.261  19.275  22.785  1.00  0.00     0.000 A 
ENDBRANCH  15  26
ENDBRANCH   6  11
ENDBRANCH   3   5
ENDBRANCH   2   3
ENDBRANCH   1   2
BRANCH   1  32
ATOM     32  C   UNL A   1      41.517  22.723  26.419  1.00  0.00     0.275 C 
BRANCH  32  33
ATOM     33  O   UNL A   1      41.379  24.126  26.130  1.00  0.00    -0.458 OA
BRANCH  33  34
ATOM     34  C   UNL A   1      42.452  24.895  26.433  1.00  0.00     0.338 C 
ATOM     35  O   UNL A   1      43.582  24.802  25.990  1.00  0.00    -0.246 OA
BRANCH  34  36
ATOM     36  C   UNL A   1      42.049  25.928  27.399  1.00  0.00     0.060 A 
ATOM     37  C   UNL A   1      42.711  27.154  27.390  1.00  0.00     0.016 A 
ATOM     38  C   UNL A   1      41.108  25.644  28.386  1.00  0.00     0.016 A 
ATOM     39  C   UNL A   1      42.474  28.088  28.396  1.00  0.00     0.010 A 
ATOM     40  C   UNL A   1      40.826  26.606  29.363  1.00  0.00     0.010 A 
ATOM     41  C   UNL A   1      41.526  27.828  29.394  1.00  0.00    -0.014 A 
BRANCH  41  42
ATOM     42  C   UNL A   1      41.314  28.799  30.503  1.00  0.00     0.031 A 
ATOM     43  C   UNL A   1      42.239  28.794  31.692  1.00  0.00     0.074 A 
ATOM     44  C   UNL A   1      40.311  29.697  30.446  1.00  0.00     0.049 A 
ATOM     45  N   UNL A   1      42.130  29.432  32.830  1.00  0.00    -0.248 NA
ATOM     46  C   UNL A   1      43.440  27.949  31.591  1.00  0.00     0.031 C 
ATOM     47  C   UNL A   1      39.372  29.851  29.333  1.00  0.00     0.029 A 
ATOM     48  N   UNL A   1      39.914  30.655  31.347  1.00  0.00    -0.354 N 
ATOM     49  C   UNL A   1      43.215  29.024  33.599  1.00  0.00     0.074 A 
ATOM     50  C   UNL A   1      43.971  28.085  32.798  1.00  0.00     0.031 C 
ATOM     51  C   UNL A   1      38.528  30.858  29.605  1.00  0.00     0.029 A 
ATOM     52  C   UNL A   1      38.815  31.375  30.940  1.00  0.00     0.049 A 
ATOM     53  H   UNL A   1      40.373  30.811  32.204  1.00  0.00     0.167 HD
ATOM     54  C   UNL A   1      43.547  29.397  34.859  1.00  0.00     0.037 A 
ATOM     55  C   UNL A   1      38.096  32.317  31.580  1.00  0.00     0.037 A 
ATOM     56  C   UNL A   1      42.822  30.372  35.632  1.00  0.00     0.049 A 
ATOM     57  C   UNL A   1      38.472  32.705  32.982  1.00  0.00     0.074 A 
ATOM     58  C   UNL A   1      43.081  30.821  36.916  1.00  0.00     0.029 A 
ATOM     59  N   UNL A   1      41.705  31.064  35.187  1.00  0.00    -0.354 N 
ATOM     60  N   UNL A   1      39.461  32.263  33.722  1.00  0.00    -0.248 NA
ATOM     61  C   UNL A   1      37.623  33.704  33.646  1.00  0.00     0.031 C 
ATOM     62  C   UNL A   1      42.108  31.768  37.255  1.00  0.00     0.029 A 
ATOM     63  C   UNL A   1      41.262  31.933  36.170  1.00  0.00     0.049 A 
ATOM     64  H   UNL A   1      41.288  30.953  34.302  1.00  0.00     0.167 HD
ATOM     65  C   UNL A   1      39.358  32.933  34.935  1.00  0.00     0.074 A 
ATOM     66  C   UNL A   1      38.222  33.826  34.824  1.00  0.00     0.031 C 
ATOM     67  C   UNL A   1      40.131  32.817  36.042  1.00  0.00     0.037 A 
BRANCH  54  68
ATOM     68  C   UNL A   1      44.727  28.718  35.495  1.00  0.00     0.058 A 
ATOM     69  C   UNL A   1      44.596  27.528  36.226  1.00  0.00     0.135 A 
ATOM     70  C   UNL A   1      46.014  29.260  35.349  1.00  0.00     0.135 A 
ATOM     71  F   UNL A   1      43.386  26.977  36.409  1.00  0.00    -0.206 F 
ATOM     72  C   UNL A   1      45.697  26.913  36.816  1.00  0.00     0.059 A 
ATOM     73  C   UNL A   1      47.132  28.650  35.910  1.00  0.00     0.059 A 
ATOM     74  F   UNL A   1      46.196  30.396  34.658  1.00  0.00    -0.206 F 
ATOM     75  C   UNL A   1      46.961  27.484  36.656  1.00  0.00     0.060 A 
BRANCH  75  76
ATOM     76  S   UNL A   1      48.383  26.681  37.428  1.00  0.00     0.124 S 
ATOM     77  O   UNL A   1      47.817  25.392  37.809  1.00  0.00    -0.237 OA
ATOM     78  O   UNL A   1      49.355  26.650  36.340  1.00  0.00    -0.237 OA
ATOM     79  O   UNL A   1      48.717  27.573  38.535  1.00  0.00    -0.744 OA
ENDBRANCH  75  76
ENDBRANCH  54  68
BRANCH  55  80
ATOM     80  C   UNL A   1      36.924  32.936  30.906  1.00  0.00     0.058 A 
ATOM     81  C   UNL A   1      35.615  32.596  31.279  1.00  0.00     0.135 A 
ATOM     82  C   UNL A   1      37.088  33.897  29.898  1.00  0.00     0.135 A 
ATOM     83  F   UNL A   1      35.407  31.673  32.230  1.00  0.00    -0.206 F 
ATOM     84  C   UNL A   1      34.510  33.188  30.676  1.00  0.00     0.059 A 
ATOM     85  C   UNL A   1      36.000  34.521  29.296  1.00  0.00     0.059 A 
ATOM     86  F   UNL A   1      38.321  34.263  29.512  1.00  0.00    -0.206 F 
ATOM     87  C   UNL A   1      34.713  34.153  29.688  1.00  0.00     0.060 A 
BRANCH  87  88
ATOM     88  S   UNL A   1      33.277  34.973  28.962  1.00  0.00     0.124 S 
ATOM     89  O   UNL A   1      32.436  35.183  30.134  1.00  0.00    -0.237 OA
ATOM     90  O   UNL A   1      33.867  36.173  28.376  1.00  0.00    -0.237 OA
ATOM     91  O   UNL A   1      32.786  33.993  27.998  1.00  0.00    -0.744 OA
ENDBRANCH  87  88
ENDBRANCH  55  80
BRANCH  67  92
ATOM     92  C   UNL A   1      39.790  33.693  37.213  1.00  0.00     0.058 A 
ATOM     93  C   UNL A   1      38.931  33.256  38.231  1.00  0.00     0.135 A 
ATOM     94  C   UNL A   1      40.364  34.969  37.337  1.00  0.00     0.135 A 
ATOM     95  F   UNL A   1      38.352  32.046  38.154  1.00  0.00    -0.206 F 
ATOM     96  C   UNL A   1      38.634  34.061  39.326  1.00  0.00     0.059 A 
ATOM     97  C   UNL A   1      40.098  35.783  38.433  1.00  0.00     0.059 A 
ATOM     98  F   UNL A   1      41.199  35.431  36.393  1.00  0.00    -0.206 F 
ATOM     99  C   UNL A   1      39.222  35.325  39.417  1.00  0.00     0.060 A 
BRANCH  99 100
ATOM    100  S   UNL A   1      38.854  36.354  40.855  1.00  0.00     0.124 S 
ATOM    101  O   UNL A   1      40.128  36.333  41.566  1.00  0.00    -0.237 OA
ATOM    102  O   UNL A   1      38.489  37.628  40.246  1.00  0.00    -0.237 OA
ATOM    103  O   UNL A   1      37.758  35.642  41.508  1.00  0.00    -0.744 OA
ENDBRANCH  99 100
ENDBRANCH  67  92
ENDBRANCH  41  42
ENDBRANCH  34  36
ENDBRANCH  33  34
ENDBRANCH  32  33
ENDBRANCH   1  32
TORSDOF 18
ENDMDL
