MODEL 1
REMARK VINA RESULT:     -10.7      0.000      0.000
REMARK SMILES Cc1noc(C)c1CNC(=O)C[C@](C)(C(=O)OCCOC(=O)c1ccc(-c2c3nc(c(-c4c(F)cc(S(=O)(=O)[O-])cc4F)c4ccc([nH]4)c(-c4c(F)cc(S(=O)(=O)[O-])cc4F)c4nc(c(-c5c(F)cc(S(=O)(=O)[O-])cc5F)c5ccc2[nH]5)C=C4)C=C3)cc1)C(C)C
REMARK SMILES IDX 18 1 17 2 15 3 16 4 13 5 14 6 12 7 10 8 9 9 11 11 8 12 7 13
REMARK SMILES IDX 1 14 2 15 3 16 4 17 5 18 6 19 89 20 90 21 91 22 19 23 20 24
REMARK SMILES IDX 21 25 22 26 23 27 24 28 88 29 25 30 87 31 26 32 27 33 28 34
REMARK SMILES IDX 81 35 29 36 86 37 80 38 82 39 30 40 85 41 79 42 78 43 31 45
REMARK SMILES IDX 65 46 44 47 64 48 45 49 48 50 63 51 83 52 46 53 47 54 62 56
REMARK SMILES IDX 84 57 49 58 32 59 33 60 42 61 34 62 35 63 41 64 43 65 36 66
REMARK SMILES IDX 37 67 38 68 39 69 40 70 66 71 67 72 76 73 68 74 69 75 75 76
REMARK SMILES IDX 77 77 70 78 71 79 72 80 73 81 74 82 50 83 51 84 60 85 52 86
REMARK SMILES IDX 53 87 59 88 61 89 54 90 55 91 56 92 57 93 58 94
REMARK H PARENT 9 10 82 44 48 55
REMARK Flexibility Score: inf
ROOT
ATOM      1  C   UNL A   1      32.715  29.042  25.613  1.00  0.00     0.274 C 
ENDROOT
BRANCH   1   2
ATOM      2  O   UNL A   1      32.149  27.724  25.774  1.00  0.00    -0.462 OA
BRANCH   2   3
ATOM      3  C   UNL A   1      31.694  27.093  24.652  1.00  0.00     0.312 C 
ATOM      4  O   UNL A   1      30.847  27.560  23.903  1.00  0.00    -0.252 OA
BRANCH   3   5
ATOM      5  C   UNL A   1      32.352  25.704  24.455  1.00  0.00     0.076 C 
ATOM      6  C   UNL A   1      33.575  25.631  25.404  1.00  0.00     0.024 C 
BRANCH   5   7
ATOM      7  C   UNL A   1      31.246  24.665  24.884  1.00  0.00     0.118 C 
BRANCH   7   8
ATOM      8  C   UNL A   1      31.469  23.857  26.160  1.00  0.00     0.221 C 
ATOM      9  N   UNL A   1      31.988  22.586  26.140  1.00  0.00    -0.352 N 
ATOM     10  H   UNL A   1      32.298  22.249  27.011  1.00  0.00     0.163 HD
ATOM     11  O   UNL A   1      31.205  24.362  27.255  1.00  0.00    -0.275 OA
BRANCH   9  12
ATOM     12  C   UNL A   1      32.150  21.662  25.030  1.00  0.00     0.157 C 
BRANCH  12  13
ATOM     13  C   UNL A   1      33.456  20.910  25.013  1.00  0.00     0.037 A 
ATOM     14  C   UNL A   1      35.557  22.501  25.570  1.00  0.00     0.071 C 
ATOM     15  C   UNL A   1      34.846  21.261  25.195  1.00  0.00     0.086 A 
ATOM     16  N   UNL A   1      35.649  20.215  24.968  1.00  0.00    -0.085 NA
ATOM     17  O   UNL A   1      34.844  19.168  24.645  1.00  0.00    -0.361 OA
ATOM     18  C   UNL A   1      33.553  19.562  24.682  1.00  0.00     0.138 A 
ATOM     19  C   UNL A   1      32.584  18.501  24.358  1.00  0.00     0.091 C 
ENDBRANCH  12  13
ENDBRANCH   9  12
ENDBRANCH   7   8
ENDBRANCH   5   7
BRANCH   5  20
ATOM     20  C   UNL A   1      32.789  25.458  22.975  1.00  0.00     0.000 C 
ATOM     21  C   UNL A   1      33.575  26.570  22.276  1.00  0.00     0.008 C 
ATOM     22  C   UNL A   1      33.538  24.116  22.794  1.00  0.00     0.008 C 
ENDBRANCH   5  20
ENDBRANCH   3   5
ENDBRANCH   2   3
ENDBRANCH   1   2
BRANCH   1  23
ATOM     23  C   UNL A   1      32.748  29.778  26.947  1.00  0.00     0.275 C 
BRANCH  23  24
ATOM     24  O   UNL A   1      33.933  29.381  27.651  1.00  0.00    -0.458 OA
BRANCH  24  25
ATOM     25  C   UNL A   1      34.706  30.387  28.119  1.00  0.00     0.338 C 
ATOM     26  O   UNL A   1      34.349  31.524  28.369  1.00  0.00    -0.246 OA
BRANCH  25  27
ATOM     27  C   UNL A   1      36.088  29.901  28.325  1.00  0.00     0.060 A 
ATOM     28  C   UNL A   1      36.492  29.343  29.542  1.00  0.00     0.016 A 
ATOM     29  C   UNL A   1      37.022  30.101  27.311  1.00  0.00     0.016 A 
ATOM     30  C   UNL A   1      37.836  29.041  29.767  1.00  0.00     0.010 A 
ATOM     31  C   UNL A   1      38.348  29.710  27.506  1.00  0.00     0.010 A 
ATOM     32  C   UNL A   1      38.778  29.192  28.742  1.00  0.00    -0.014 A 
BRANCH  32  33
ATOM     33  C   UNL A   1      40.213  28.831  28.927  1.00  0.00     0.031 A 
ATOM     34  C   UNL A   1      41.208  29.901  29.298  1.00  0.00     0.074 A 
ATOM     35  C   UNL A   1      40.648  27.574  28.701  1.00  0.00     0.049 A 
ATOM     36  N   UNL A   1      42.507  29.913  29.148  1.00  0.00    -0.248 NA
ATOM     37  C   UNL A   1      40.658  31.134  29.885  1.00  0.00     0.031 C 
ATOM     38  C   UNL A   1      39.805  26.419  28.385  1.00  0.00     0.029 A 
ATOM     39  N   UNL A   1      41.925  27.064  28.672  1.00  0.00    -0.354 N 
ATOM     40  C   UNL A   1      42.926  31.170  29.572  1.00  0.00     0.074 A 
ATOM     41  C   UNL A   1      41.740  31.897  29.975  1.00  0.00     0.031 C 
ATOM     42  C   UNL A   1      40.582  25.341  28.197  1.00  0.00     0.029 A 
ATOM     43  C   UNL A   1      41.980  25.748  28.274  1.00  0.00     0.049 A 
ATOM     44  H   UNL A   1      42.722  27.590  28.912  1.00  0.00     0.167 HD
ATOM     45  C   UNL A   1      44.185  31.669  29.618  1.00  0.00     0.037 A 
ATOM     46  C   UNL A   1      43.025  24.972  27.931  1.00  0.00     0.037 A 
ATOM     47  C   UNL A   1      45.363  30.913  29.271  1.00  0.00     0.049 A 
ATOM     48  C   UNL A   1      44.412  25.554  27.947  1.00  0.00     0.074 A 
ATOM     49  C   UNL A   1      46.685  31.326  29.270  1.00  0.00     0.029 A 
ATOM     50  N   UNL A   1      45.364  29.577  28.896  1.00  0.00    -0.354 N 
ATOM     51  N   UNL A   1      44.789  26.773  28.251  1.00  0.00    -0.248 NA
ATOM     52  C   UNL A   1      45.512  24.663  27.554  1.00  0.00     0.031 C 
ATOM     53  C   UNL A   1      47.482  30.249  28.872  1.00  0.00     0.029 A 
ATOM     54  C   UNL A   1      46.663  29.151  28.667  1.00  0.00     0.049 A 
ATOM     55  H   UNL A   1      44.561  29.015  28.807  1.00  0.00     0.167 HD
ATOM     56  C   UNL A   1      46.172  26.787  28.108  1.00  0.00     0.074 A 
ATOM     57  C   UNL A   1      46.566  25.453  27.704  1.00  0.00     0.031 C 
ATOM     58  C   UNL A   1      47.039  27.813  28.289  1.00  0.00     0.037 A 
BRANCH  45  59
ATOM     59  C   UNL A   1      44.370  33.100  30.043  1.00  0.00     0.058 A 
ATOM     60  C   UNL A   1      44.153  34.170  29.161  1.00  0.00     0.135 A 
ATOM     61  C   UNL A   1      44.693  33.408  31.376  1.00  0.00     0.135 A 
ATOM     62  F   UNL A   1      43.858  33.934  27.874  1.00  0.00    -0.206 F 
ATOM     63  C   UNL A   1      44.259  35.492  29.583  1.00  0.00     0.059 A 
ATOM     64  C   UNL A   1      44.778  34.723  31.825  1.00  0.00     0.059 A 
ATOM     65  F   UNL A   1      44.912  32.425  32.263  1.00  0.00    -0.206 F 
ATOM     66  C   UNL A   1      44.566  35.760  30.917  1.00  0.00     0.060 A 
BRANCH  66  67
ATOM     67  S   UNL A   1      44.664  37.481  31.455  1.00  0.00     0.124 S 
ATOM     68  O   UNL A   1      44.680  38.186  30.177  1.00  0.00    -0.237 OA
ATOM     69  O   UNL A   1      43.447  37.631  32.247  1.00  0.00    -0.237 OA
ATOM     70  O   UNL A   1      45.910  37.531  32.214  1.00  0.00    -0.744 OA
ENDBRANCH  66  67
ENDBRANCH  45  59
BRANCH  46  71
ATOM     71  C   UNL A   1      42.795  23.576  27.469  1.00  0.00     0.058 A 
ATOM     72  C   UNL A   1      42.635  22.527  28.385  1.00  0.00     0.135 A 
ATOM     73  C   UNL A   1      42.734  23.265  26.101  1.00  0.00     0.135 A 
ATOM     74  F   UNL A   1      42.694  22.773  29.703  1.00  0.00    -0.206 F 
ATOM     75  C   UNL A   1      42.441  21.215  27.963  1.00  0.00     0.059 A 
ATOM     76  C   UNL A   1      42.508  21.967  25.655  1.00  0.00     0.059 A 
ATOM     77  F   UNL A   1      42.866  24.234  25.183  1.00  0.00    -0.206 F 
ATOM     78  C   UNL A   1      42.379  20.947  26.595  1.00  0.00     0.060 A 
BRANCH  78  79
ATOM     79  S   UNL A   1      42.087  19.249  26.054  1.00  0.00     0.124 S 
ATOM     80  O   UNL A   1      42.530  18.492  27.217  1.00  0.00    -0.237 OA
ATOM     81  O   UNL A   1      40.649  19.248  25.800  1.00  0.00    -0.237 OA
ATOM     82  O   UNL A   1      42.924  19.130  24.863  1.00  0.00    -0.744 OA
ENDBRANCH  78  79
ENDBRANCH  46  71
BRANCH  58  83
ATOM     83  C   UNL A   1      48.502  27.521  28.114  1.00  0.00     0.058 A 
ATOM     84  C   UNL A   1      49.171  27.792  26.912  1.00  0.00     0.135 A 
ATOM     85  C   UNL A   1      49.252  27.004  29.183  1.00  0.00     0.135 A 
ATOM     86  F   UNL A   1      48.497  28.278  25.857  1.00  0.00    -0.206 F 
ATOM     87  C   UNL A   1      50.532  27.542  26.767  1.00  0.00     0.059 A 
ATOM     88  C   UNL A   1      50.618  26.770  29.068  1.00  0.00     0.059 A 
ATOM     89  F   UNL A   1      48.660  26.734  30.357  1.00  0.00    -0.206 F 
ATOM     90  C   UNL A   1      51.247  27.031  27.853  1.00  0.00     0.060 A 
BRANCH  90  91
ATOM     91  S   UNL A   1      53.019  26.741  27.662  1.00  0.00     0.124 S 
ATOM     92  O   UNL A   1      53.034  25.511  26.879  1.00  0.00    -0.237 OA
ATOM     93  O   UNL A   1      53.459  27.944  26.962  1.00  0.00    -0.237 OA
ATOM     94  O   UNL A   1      53.492  26.615  29.037  1.00  0.00    -0.744 OA
ENDBRANCH  90  91
ENDBRANCH  58  83
ENDBRANCH  32  33
ENDBRANCH  25  27
ENDBRANCH  24  25
ENDBRANCH  23  24
ENDBRANCH   1  23
TORSDOF 19
ENDMDL
MODEL 2
REMARK VINA RESULT:     -10.6      0.975      2.277
REMARK SMILES Cc1noc(C)c1CNC(=O)C[C@](C)(C(=O)OCCOC(=O)c1ccc(-c2c3nc(c(-c4c(F)cc(S(=O)(=O)[O-])cc4F)c4ccc([nH]4)c(-c4c(F)cc(S(=O)(=O)[O-])cc4F)c4nc(c(-c5c(F)cc(S(=O)(=O)[O-])cc5F)c5ccc2[nH]5)C=C4)C=C3)cc1)C(C)C
REMARK SMILES IDX 18 1 17 2 15 3 16 4 13 5 14 6 12 7 10 8 9 9 11 11 8 12 7 13
REMARK SMILES IDX 1 14 2 15 3 16 4 17 5 18 6 19 89 20 90 21 91 22 19 23 20 24
REMARK SMILES IDX 21 25 22 26 23 27 24 28 88 29 25 30 87 31 26 32 27 33 28 34
REMARK SMILES IDX 81 35 29 36 86 37 80 38 82 39 30 40 85 41 79 42 78 43 31 45
REMARK SMILES IDX 65 46 44 47 64 48 45 49 48 50 63 51 83 52 46 53 47 54 62 56
REMARK SMILES IDX 84 57 49 58 32 59 33 60 42 61 34 62 35 63 41 64 43 65 36 66
REMARK SMILES IDX 37 67 38 68 39 69 40 70 66 71 67 72 76 73 68 74 69 75 75 76
REMARK SMILES IDX 77 77 70 78 71 79 72 80 73 81 74 82 50 83 51 84 60 85 52 86
REMARK SMILES IDX 53 87 59 88 61 89 54 90 55 91 56 92 57 93 58 94
REMARK H PARENT 9 10 82 44 48 55
REMARK Flexibility Score: inf
ROOT
ATOM      1  C   UNL A   1      33.712  28.647  25.281  1.00  0.00     0.274 C 
ENDROOT
BRANCH   1   2
ATOM      2  O   UNL A   1      32.798  28.102  24.305  1.00  0.00    -0.462 OA
BRANCH   2   3
ATOM      3  C   UNL A   1      33.231  27.045  23.558  1.00  0.00     0.312 C 
ATOM      4  O   UNL A   1      34.011  27.147  22.620  1.00  0.00    -0.252 OA
BRANCH   3   5
ATOM      5  C   UNL A   1      32.599  25.707  24.015  1.00  0.00     0.076 C 
ATOM      6  C   UNL A   1      33.338  24.566  23.270  1.00  0.00     0.024 C 
BRANCH   5   7
ATOM      7  C   UNL A   1      32.873  25.635  25.566  1.00  0.00     0.118 C 
BRANCH   7   8
ATOM      8  C   UNL A   1      32.847  24.266  26.243  1.00  0.00     0.221 C 
ATOM      9  N   UNL A   1      33.997  23.582  26.553  1.00  0.00    -0.352 N 
ATOM     10  H   UNL A   1      33.878  22.831  27.179  1.00  0.00     0.163 HD
ATOM     11  O   UNL A   1      31.765  23.759  26.552  1.00  0.00    -0.275 OA
BRANCH   9  12
ATOM     12  C   UNL A   1      35.360  23.795  26.101  1.00  0.00     0.157 C 
BRANCH  12  13
ATOM     13  C   UNL A   1      36.074  22.556  25.623  1.00  0.00     0.037 A 
ATOM     14  C   UNL A   1      34.364  20.668  24.746  1.00  0.00     0.071 C 
ATOM     15  C   UNL A   1      35.665  21.270  25.108  1.00  0.00     0.086 A 
ATOM     16  N   UNL A   1      36.713  20.458  24.927  1.00  0.00    -0.085 NA
ATOM     17  O   UNL A   1      37.817  21.160  25.298  1.00  0.00    -0.361 OA
ATOM     18  C   UNL A   1      37.454  22.398  25.695  1.00  0.00     0.138 A 
ATOM     19  C   UNL A   1      38.576  23.257  26.112  1.00  0.00     0.091 C 
ENDBRANCH  12  13
ENDBRANCH   9  12
ENDBRANCH   7   8
ENDBRANCH   5   7
BRANCH   5  20
ATOM     20  C   UNL A   1      31.064  25.645  23.728  1.00  0.00     0.000 C 
ATOM     21  C   UNL A   1      30.467  24.284  23.363  1.00  0.00     0.008 C 
ATOM     22  C   UNL A   1      30.223  26.280  24.861  1.00  0.00     0.008 C 
ENDBRANCH   5  20
ENDBRANCH   3   5
ENDBRANCH   2   3
ENDBRANCH   1   2
BRANCH   1  23
ATOM     23  C   UNL A   1      32.967  29.521  26.284  1.00  0.00     0.275 C 
BRANCH  23  24
ATOM     24  O   UNL A   1      33.601  29.378  27.563  1.00  0.00    -0.458 OA
BRANCH  24  25
ATOM     25  C   UNL A   1      34.359  30.423  27.964  1.00  0.00     0.338 C 
ATOM     26  O   UNL A   1      33.995  31.577  28.104  1.00  0.00    -0.246 OA
BRANCH  25  27
ATOM     27  C   UNL A   1      35.735  29.960  28.251  1.00  0.00     0.060 A 
ATOM     28  C   UNL A   1      36.112  29.538  29.531  1.00  0.00     0.016 A 
ATOM     29  C   UNL A   1      36.691  30.047  27.242  1.00  0.00     0.016 A 
ATOM     30  C   UNL A   1      37.449  29.261  29.815  1.00  0.00     0.010 A 
ATOM     31  C   UNL A   1      38.011  29.677  27.506  1.00  0.00     0.010 A 
ATOM     32  C   UNL A   1      38.413  29.297  28.800  1.00  0.00    -0.014 A 
BRANCH  32  33
ATOM     33  C   UNL A   1      39.842  28.956  29.053  1.00  0.00     0.031 A 
ATOM     34  C   UNL A   1      40.798  30.036  29.494  1.00  0.00     0.074 A 
ATOM     35  C   UNL A   1      40.310  27.711  28.829  1.00  0.00     0.049 A 
ATOM     36  N   UNL A   1      42.103  30.072  29.413  1.00  0.00    -0.248 NA
ATOM     37  C   UNL A   1      40.198  31.248  30.073  1.00  0.00     0.031 C 
ATOM     38  C   UNL A   1      39.505  26.548  28.450  1.00  0.00     0.029 A 
ATOM     39  N   UNL A   1      41.596  27.222  28.858  1.00  0.00    -0.354 N 
ATOM     40  C   UNL A   1      42.478  31.327  29.880  1.00  0.00     0.074 A 
ATOM     41  C   UNL A   1      41.260  32.027  30.233  1.00  0.00     0.031 C 
ATOM     42  C   UNL A   1      40.309  25.487  28.284  1.00  0.00     0.029 A 
ATOM     43  C   UNL A   1      41.694  25.915  28.441  1.00  0.00     0.049 A 
ATOM     44  H   UNL A   1      42.370  27.757  29.149  1.00  0.00     0.167 HD
ATOM     45  C   UNL A   1      43.724  31.846  30.000  1.00  0.00     0.037 A 
ATOM     46  C   UNL A   1      42.769  25.162  28.140  1.00  0.00     0.037 A 
ATOM     47  C   UNL A   1      44.931  31.116  29.703  1.00  0.00     0.049 A 
ATOM     48  C   UNL A   1      44.143  25.767  28.239  1.00  0.00     0.074 A 
ATOM     49  C   UNL A   1      46.244  31.550  29.779  1.00  0.00     0.029 A 
ATOM     50  N   UNL A   1      44.975  29.787  29.306  1.00  0.00    -0.354 N 
ATOM     51  N   UNL A   1      44.483  26.986  28.583  1.00  0.00    -0.248 NA
ATOM     52  C   UNL A   1      45.278  24.901  27.889  1.00  0.00     0.031 C 
ATOM     53  C   UNL A   1      47.079  30.494  29.404  1.00  0.00     0.029 A 
ATOM     54  C   UNL A   1      46.291  29.387  29.137  1.00  0.00     0.049 A 
ATOM     55  H   UNL A   1      44.188  29.213  29.165  1.00  0.00     0.167 HD
ATOM     56  C   UNL A   1      45.871  27.025  28.512  1.00  0.00     0.074 A 
ATOM     57  C   UNL A   1      46.308  25.706  28.107  1.00  0.00     0.031 C 
ATOM     58  C   UNL A   1      46.709  28.062  28.757  1.00  0.00     0.037 A 
BRANCH  45  59
ATOM     59  C   UNL A   1      43.862  33.272  30.460  1.00  0.00     0.058 A 
ATOM     60  C   UNL A   1      44.141  33.597  31.796  1.00  0.00     0.135 A 
ATOM     61  C   UNL A   1      43.790  34.325  29.533  1.00  0.00     0.135 A 
ATOM     62  F   UNL A   1      44.205  32.632  32.726  1.00  0.00    -0.206 F 
ATOM     63  C   UNL A   1      44.335  34.915  32.198  1.00  0.00     0.059 A 
ATOM     64  C   UNL A   1      44.008  35.649  29.908  1.00  0.00     0.059 A 
ATOM     65  F   UNL A   1      43.525  34.073  28.241  1.00  0.00    -0.206 F 
ATOM     66  C   UNL A   1      44.273  35.934  31.246  1.00  0.00     0.060 A 
BRANCH  66  67
ATOM     67  S   UNL A   1      44.563  37.635  31.779  1.00  0.00     0.124 S 
ATOM     68  O   UNL A   1      45.931  37.554  32.282  1.00  0.00    -0.237 OA
ATOM     69  O   UNL A   1      44.386  38.386  30.539  1.00  0.00    -0.237 OA
ATOM     70  O   UNL A   1      43.536  37.856  32.792  1.00  0.00    -0.744 OA
ENDBRANCH  66  67
ENDBRANCH  45  59
BRANCH  46  71
ATOM     71  C   UNL A   1      42.588  23.771  27.643  1.00  0.00     0.058 A 
ATOM     72  C   UNL A   1      42.453  23.504  26.273  1.00  0.00     0.135 A 
ATOM     73  C   UNL A   1      42.542  22.684  28.530  1.00  0.00     0.135 A 
ATOM     74  F   UNL A   1      42.481  24.511  25.387  1.00  0.00    -0.206 F 
ATOM     75  C   UNL A   1      42.262  22.209  25.800  1.00  0.00     0.059 A 
ATOM     76  C   UNL A   1      42.385  21.378  28.079  1.00  0.00     0.059 A 
ATOM     77  F   UNL A   1      42.681  22.883  29.849  1.00  0.00    -0.206 F 
ATOM     78  C   UNL A   1      42.229  21.153  26.712  1.00  0.00     0.060 A 
BRANCH  78  79
ATOM     79  S   UNL A   1      42.020  19.471  26.089  1.00  0.00     0.124 S 
ATOM     80  O   UNL A   1      42.506  18.681  27.213  1.00  0.00    -0.237 OA
ATOM     81  O   UNL A   1      40.583  19.411  25.837  1.00  0.00    -0.237 OA
ATOM     82  O   UNL A   1      42.858  19.453  24.893  1.00  0.00    -0.744 OA
ENDBRANCH  78  79
ENDBRANCH  46  71
BRANCH  58  83
ATOM     83  C   UNL A   1      48.184  27.797  28.654  1.00  0.00     0.058 A 
ATOM     84  C   UNL A   1      48.946  27.419  29.769  1.00  0.00     0.135 A 
ATOM     85  C   UNL A   1      48.832  27.879  27.411  1.00  0.00     0.135 A 
ATOM     86  F   UNL A   1      48.376  27.335  30.982  1.00  0.00    -0.206 F 
ATOM     87  C   UNL A   1      50.307  27.151  29.660  1.00  0.00     0.059 A 
ATOM     88  C   UNL A   1      50.186  27.592  27.274  1.00  0.00     0.059 A 
ATOM     89  F   UNL A   1      48.145  28.230  26.312  1.00  0.00    -0.206 F 
ATOM     90  C   UNL A   1      50.918  27.239  28.406  1.00  0.00     0.060 A 
BRANCH  90  91
ATOM     91  S   UNL A   1      52.677  26.858  28.272  1.00  0.00     0.124 S 
ATOM     92  O   UNL A   1      53.250  28.181  28.054  1.00  0.00    -0.237 OA
ATOM     93  O   UNL A   1      52.965  26.248  29.566  1.00  0.00    -0.237 OA
ATOM     94  O   UNL A   1      52.742  25.950  27.130  1.00  0.00    -0.744 OA
ENDBRANCH  90  91
ENDBRANCH  58  83
ENDBRANCH  32  33
ENDBRANCH  25  27
ENDBRANCH  24  25
ENDBRANCH  23  24
ENDBRANCH   1  23
TORSDOF 19
ENDMDL
MODEL 3
REMARK VINA RESULT:     -10.6      1.137      2.504
REMARK SMILES Cc1noc(C)c1CNC(=O)C[C@](C)(C(=O)OCCOC(=O)c1ccc(-c2c3nc(c(-c4c(F)cc(S(=O)(=O)[O-])cc4F)c4ccc([nH]4)c(-c4c(F)cc(S(=O)(=O)[O-])cc4F)c4nc(c(-c5c(F)cc(S(=O)(=O)[O-])cc5F)c5ccc2[nH]5)C=C4)C=C3)cc1)C(C)C
REMARK SMILES IDX 18 1 17 2 15 3 16 4 13 5 14 6 12 7 10 8 9 9 11 11 8 12 7 13
REMARK SMILES IDX 1 14 2 15 3 16 4 17 5 18 6 19 89 20 90 21 91 22 19 23 20 24
REMARK SMILES IDX 21 25 22 26 23 27 24 28 88 29 25 30 87 31 26 32 27 33 28 34
REMARK SMILES IDX 81 35 29 36 86 37 80 38 82 39 30 40 85 41 79 42 78 43 31 45
REMARK SMILES IDX 65 46 44 47 64 48 45 49 48 50 63 51 83 52 46 53 47 54 62 56
REMARK SMILES IDX 84 57 49 58 32 59 33 60 42 61 34 62 35 63 41 64 43 65 36 66
REMARK SMILES IDX 37 67 38 68 39 69 40 70 66 71 67 72 76 73 68 74 69 75 75 76
REMARK SMILES IDX 77 77 70 78 71 79 72 80 73 81 74 82 50 83 51 84 60 85 52 86
REMARK SMILES IDX 53 87 59 88 61 89 54 90 55 91 56 92 57 93 58 94
REMARK H PARENT 9 10 82 44 48 55
REMARK Flexibility Score: inf
ROOT
ATOM      1  C   UNL A   1      31.766  27.955  27.586  1.00  0.00     0.274 C 
ENDROOT
BRANCH   1   2
ATOM      2  O   UNL A   1      32.246  26.884  26.745  1.00  0.00    -0.462 OA
BRANCH   2   3
ATOM      3  C   UNL A   1      31.351  26.302  25.894  1.00  0.00     0.312 C 
ATOM      4  O   UNL A   1      30.485  25.513  26.251  1.00  0.00    -0.252 OA
BRANCH   3   5
ATOM      5  C   UNL A   1      31.578  26.729  24.423  1.00  0.00     0.076 C 
ATOM      6  C   UNL A   1      33.056  27.178  24.294  1.00  0.00     0.024 C 
BRANCH   5   7
ATOM      7  C   UNL A   1      31.310  25.427  23.574  1.00  0.00     0.118 C 
BRANCH   7   8
ATOM      8  C   UNL A   1      32.109  25.225  22.289  1.00  0.00     0.221 C 
ATOM      9  N   UNL A   1      33.189  24.379  22.224  1.00  0.00    -0.352 N 
ATOM     10  H   UNL A   1      33.485  24.151  21.313  1.00  0.00     0.163 HD
ATOM     11  O   UNL A   1      31.766  25.814  21.259  1.00  0.00    -0.275 OA
BRANCH   9  12
ATOM     12  C   UNL A   1      33.960  23.767  23.293  1.00  0.00     0.157 C 
BRANCH  12  13
ATOM     13  C   UNL A   1      33.264  22.642  24.016  1.00  0.00     0.037 A 
ATOM     14  C   UNL A   1      32.046  20.939  22.322  1.00  0.00     0.071 C 
ATOM     15  C   UNL A   1      32.453  21.514  23.622  1.00  0.00     0.086 A 
ATOM     16  N   UNL A   1      31.975  20.858  24.685  1.00  0.00    -0.085 NA
ATOM     17  O   UNL A   1      32.443  21.506  25.785  1.00  0.00    -0.361 OA
ATOM     18  C   UNL A   1      33.212  22.547  25.403  1.00  0.00     0.138 A 
ATOM     19  C   UNL A   1      33.787  23.320  26.518  1.00  0.00     0.091 C 
ENDBRANCH  12  13
ENDBRANCH   9  12
ENDBRANCH   7   8
ENDBRANCH   5   7
BRANCH   5  20
ATOM     20  C   UNL A   1      30.615  27.878  23.982  1.00  0.00     0.000 C 
ATOM     21  C   UNL A   1      31.145  28.895  22.969  1.00  0.00     0.008 C 
ATOM     22  C   UNL A   1      29.244  27.348  23.499  1.00  0.00     0.008 C 
ENDBRANCH   5  20
ENDBRANCH   3   5
ENDBRANCH   2   3
ENDBRANCH   1   2
BRANCH   1  23
ATOM     23  C   UNL A   1      32.478  29.260  27.252  1.00  0.00     0.275 C 
BRANCH  23  24
ATOM     24  O   UNL A   1      33.849  29.142  27.660  1.00  0.00    -0.458 OA
BRANCH  24  25
ATOM     25  C   UNL A   1      34.440  30.284  28.077  1.00  0.00     0.338 C 
ATOM     26  O   UNL A   1      33.897  31.356  28.274  1.00  0.00    -0.246 OA
BRANCH  25  27
ATOM     27  C   UNL A   1      35.883  30.046  28.301  1.00  0.00     0.060 A 
ATOM     28  C   UNL A   1      36.806  30.114  27.252  1.00  0.00     0.016 A 
ATOM     29  C   UNL A   1      36.303  29.649  29.568  1.00  0.00     0.016 A 
ATOM     30  C   UNL A   1      38.131  29.729  27.455  1.00  0.00     0.010 A 
ATOM     31  C   UNL A   1      37.651  29.356  29.789  1.00  0.00     0.010 A 
ATOM     32  C   UNL A   1      38.580  29.374  28.733  1.00  0.00    -0.014 A 
BRANCH  32  33
ATOM     33  C   UNL A   1      40.000  29.007  28.999  1.00  0.00     0.031 A 
ATOM     34  C   UNL A   1      40.971  30.069  29.451  1.00  0.00     0.074 A 
ATOM     35  C   UNL A   1      40.448  27.754  28.777  1.00  0.00     0.049 A 
ATOM     36  N   UNL A   1      42.277  30.082  29.382  1.00  0.00    -0.248 NA
ATOM     37  C   UNL A   1      40.387  31.291  30.026  1.00  0.00     0.031 C 
ATOM     38  C   UNL A   1      39.626  26.607  28.388  1.00  0.00     0.029 A 
ATOM     39  N   UNL A   1      41.725  27.243  28.817  1.00  0.00    -0.354 N 
ATOM     40  C   UNL A   1      42.669  31.330  29.855  1.00  0.00     0.074 A 
ATOM     41  C   UNL A   1      41.461  32.051  30.198  1.00  0.00     0.031 C 
ATOM     42  C   UNL A   1      40.413  25.532  28.228  1.00  0.00     0.029 A 
ATOM     43  C   UNL A   1      41.803  25.935  28.399  1.00  0.00     0.049 A 
ATOM     44  H   UNL A   1      42.506  27.763  29.116  1.00  0.00     0.167 HD
ATOM     45  C   UNL A   1      43.924  31.826  29.988  1.00  0.00     0.037 A 
ATOM     46  C   UNL A   1      42.868  25.163  28.106  1.00  0.00     0.037 A 
ATOM     47  C   UNL A   1      45.120  31.075  29.701  1.00  0.00     0.049 A 
ATOM     48  C   UNL A   1      44.252  25.743  28.219  1.00  0.00     0.074 A 
ATOM     49  C   UNL A   1      46.439  31.486  29.790  1.00  0.00     0.029 A 
ATOM     50  N   UNL A   1      45.144  29.746  29.302  1.00  0.00    -0.354 N 
ATOM     51  N   UNL A   1      44.609  26.955  28.569  1.00  0.00    -0.248 NA
ATOM     52  C   UNL A   1      45.373  24.858  27.879  1.00  0.00     0.031 C 
ATOM     53  C   UNL A   1      47.260  30.415  29.421  1.00  0.00     0.029 A 
ATOM     54  C   UNL A   1      46.454  29.323  29.145  1.00  0.00     0.049 A 
ATOM     55  H   UNL A   1      44.348  29.187  29.152  1.00  0.00     0.167 HD
ATOM     56  C   UNL A   1      45.999  26.971  28.512  1.00  0.00     0.074 A 
ATOM     57  C   UNL A   1      46.416  25.644  28.108  1.00  0.00     0.031 C 
ATOM     58  C   UNL A   1      46.853  27.991  28.766  1.00  0.00     0.037 A 
BRANCH  45  59
ATOM     59  C   UNL A   1      44.082  33.249  30.451  1.00  0.00     0.058 A 
ATOM     60  C   UNL A   1      44.360  33.566  31.790  1.00  0.00     0.135 A 
ATOM     61  C   UNL A   1      44.032  34.305  29.526  1.00  0.00     0.135 A 
ATOM     62  F   UNL A   1      44.403  32.599  32.718  1.00  0.00    -0.206 F 
ATOM     63  C   UNL A   1      44.574  34.880  32.196  1.00  0.00     0.059 A 
ATOM     64  C   UNL A   1      44.270  35.624  29.906  1.00  0.00     0.059 A 
ATOM     65  F   UNL A   1      43.770  34.060  28.233  1.00  0.00    -0.206 F 
ATOM     66  C   UNL A   1      44.532  35.902  31.246  1.00  0.00     0.060 A 
BRANCH  66  67
ATOM     67  S   UNL A   1      44.848  37.597  31.784  1.00  0.00     0.124 S 
ATOM     68  O   UNL A   1      44.275  37.589  33.126  1.00  0.00    -0.237 OA
ATOM     69  O   UNL A   1      46.304  37.681  31.716  1.00  0.00    -0.237 OA
ATOM     70  O   UNL A   1      44.131  38.405  30.802  1.00  0.00    -0.744 OA
ENDBRANCH  66  67
ENDBRANCH  45  59
BRANCH  46  71
ATOM     71  C   UNL A   1      42.667  23.777  27.605  1.00  0.00     0.058 A 
ATOM     72  C   UNL A   1      42.589  23.507  26.231  1.00  0.00     0.135 A 
ATOM     73  C   UNL A   1      42.545  22.695  28.492  1.00  0.00     0.135 A 
ATOM     74  F   UNL A   1      42.691  24.510  25.345  1.00  0.00    -0.206 F 
ATOM     75  C   UNL A   1      42.379  22.218  25.754  1.00  0.00     0.059 A 
ATOM     76  C   UNL A   1      42.368  21.392  28.038  1.00  0.00     0.059 A 
ATOM     77  F   UNL A   1      42.627  22.896  29.816  1.00  0.00    -0.206 F 
ATOM     78  C   UNL A   1      42.270  21.167  26.666  1.00  0.00     0.060 A 
BRANCH  78  79
ATOM     79  S   UNL A   1      42.038  19.490  26.038  1.00  0.00     0.124 S 
ATOM     80  O   UNL A   1      40.629  19.509  25.670  1.00  0.00    -0.237 OA
ATOM     81  O   UNL A   1      42.989  19.440  24.931  1.00  0.00    -0.237 OA
ATOM     82  O   UNL A   1      42.383  18.654  27.185  1.00  0.00    -0.744 OA
ENDBRANCH  78  79
ENDBRANCH  46  71
BRANCH  58  83
ATOM     83  C   UNL A   1      48.324  27.701  28.677  1.00  0.00     0.058 A 
ATOM     84  C   UNL A   1      49.061  27.272  29.790  1.00  0.00     0.135 A 
ATOM     85  C   UNL A   1      48.992  27.810  27.447  1.00  0.00     0.135 A 
ATOM     86  F   UNL A   1      48.470  27.161  30.991  1.00  0.00    -0.206 F 
ATOM     87  C   UNL A   1      50.418  26.981  29.692  1.00  0.00     0.059 A 
ATOM     88  C   UNL A   1      50.342  27.500  27.321  1.00  0.00     0.059 A 
ATOM     89  F   UNL A   1      48.329  28.209  26.350  1.00  0.00    -0.206 F 
ATOM     90  C   UNL A   1      51.049  27.097  28.452  1.00  0.00     0.060 A 
BRANCH  90  91
ATOM     91  S   UNL A   1      52.803  26.684  28.332  1.00  0.00     0.124 S 
ATOM     92  O   UNL A   1      53.106  26.284  29.701  1.00  0.00    -0.237 OA
ATOM     93  O   UNL A   1      52.805  25.611  27.342  1.00  0.00    -0.237 OA
ATOM     94  O   UNL A   1      53.416  27.935  27.893  1.00  0.00    -0.744 OA
ENDBRANCH  90  91
ENDBRANCH  58  83
ENDBRANCH  32  33
ENDBRANCH  25  27
ENDBRANCH  24  25
ENDBRANCH  23  24
ENDBRANCH   1  23
TORSDOF 19
ENDMDL
