MODEL 1
REMARK VINA RESULT:     -10.6      0.000      0.000
REMARK SMILES NC(=O)CC[N@@H+]1[C@@H](C(=O)OCCOC(=O)c2ccc(-c3c4nc(c(-c5c(F)cc(S(=O)(=O)[O-])cc5F)c5ccc([nH]5)c(-c5c(F)cc(S(=O)(=O)[O-])cc5F)c5nc(c(-c6c(F)cc(S(=O)(=O)[O-])cc6F)c6ccc3[nH]6)C=C5)C=C4)cc2)CC[C@@H]2CCCC[C@H]21
REMARK SMILES IDX 11 1 10 2 8 3 9 4 7 5 6 6 89 7 82 9 84 10 88 11 83 12 85 13
REMARK SMILES IDX 87 14 86 15 5 16 4 17 2 18 1 19 3 22 12 23 13 24 14 25 15 26
REMARK SMILES IDX 16 27 17 28 81 29 18 30 80 31 19 32 20 33 21 34 74 35 22 36
REMARK SMILES IDX 79 37 73 38 75 39 23 40 78 41 72 42 71 43 24 45 58 46 37 47
REMARK SMILES IDX 57 48 38 49 41 50 56 51 76 52 39 53 40 54 55 56 77 57 42 58
REMARK SMILES IDX 25 59 26 60 35 61 27 62 28 63 34 64 36 65 29 66 30 67 31 68
REMARK SMILES IDX 32 69 33 70 59 71 60 72 69 73 61 74 62 75 68 76 70 77 63 78
REMARK SMILES IDX 64 79 65 80 66 81 67 82 43 83 44 84 53 85 45 86 46 87 52 88
REMARK SMILES IDX 54 89 47 90 48 91 49 92 50 93 51 94
REMARK H PARENT 6 8 1 20 1 21 75 44 41 55
REMARK Flexibility Score: inf
ROOT
ATOM      1  C   UNL A   1      31.525  28.270  26.626  1.00  0.00     0.274 C 
ENDROOT
BRANCH   1   2
ATOM      2  O   UNL A   1      31.440  26.898  27.059  1.00  0.00    -0.458 OA
BRANCH   2   3
ATOM      3  C   UNL A   1      31.394  25.970  26.063  1.00  0.00     0.365 C 
ATOM      4  O   UNL A   1      30.528  25.949  25.191  1.00  0.00    -0.245 OA
BRANCH   3   5
ATOM      5  C   UNL A   1      32.552  24.948  26.106  1.00  0.00     0.295 C 
ATOM      6  N   UNL A   1      33.309  24.754  24.794  1.00  0.00    -0.320 N 
ATOM      7  C   UNL A   1      34.513  23.884  25.091  1.00  0.00     0.187 C 
ATOM      8  H   UNL A   1      32.755  24.287  24.076  1.00  0.00     0.349 HD
ATOM      9  C   UNL A   1      32.070  23.618  26.688  1.00  0.00     0.078 C 
ATOM     10  C   UNL A   1      34.085  22.528  25.745  1.00  0.00     0.048 C 
ATOM     11  C   UNL A   1      35.380  23.535  23.859  1.00  0.00     0.065 C 
ATOM     12  C   UNL A   1      33.252  22.730  27.005  1.00  0.00     0.016 C 
ATOM     13  C   UNL A   1      35.293  21.643  26.092  1.00  0.00     0.010 C 
ATOM     14  C   UNL A   1      36.565  22.626  24.186  1.00  0.00     0.006 C 
ATOM     15  C   UNL A   1      36.130  21.338  24.861  1.00  0.00     0.001 C 
BRANCH   6  16
ATOM     16  C   UNL A   1      33.675  26.111  24.267  1.00  0.00     0.273 C 
BRANCH  16  17
ATOM     17  C   UNL A   1      33.258  26.587  22.867  1.00  0.00     0.161 C 
BRANCH  17  18
ATOM     18  C   UNL A   1      32.674  25.560  21.919  1.00  0.00     0.223 C 
ATOM     19  N   UNL A   1      31.540  24.923  22.307  1.00  0.00    -0.369 N 
ATOM     20  H   UNL A   1      31.130  24.249  21.719  1.00  0.00     0.159 HD
ATOM     21  H   UNL A   1      31.128  25.135  23.175  1.00  0.00     0.159 HD
ATOM     22  O   UNL A   1      33.209  25.274  20.851  1.00  0.00    -0.275 OA
ENDBRANCH  17  18
ENDBRANCH  16  17
ENDBRANCH   6  16
ENDBRANCH   3   5
ENDBRANCH   2   3
ENDBRANCH   1   2
BRANCH   1  23
ATOM     23  C   UNL A   1      32.968  28.729  26.372  1.00  0.00     0.275 C 
BRANCH  23  24
ATOM     24  O   UNL A   1      33.754  28.773  27.579  1.00  0.00    -0.458 OA
BRANCH  24  25
ATOM     25  C   UNL A   1      34.261  29.990  27.888  1.00  0.00     0.338 C 
ATOM     26  O   UNL A   1      33.643  31.036  27.985  1.00  0.00    -0.246 OA
BRANCH  25  27
ATOM     27  C   UNL A   1      35.683  29.876  28.255  1.00  0.00     0.060 A 
ATOM     28  C   UNL A   1      36.628  30.054  27.241  1.00  0.00     0.016 A 
ATOM     29  C   UNL A   1      36.087  29.501  29.537  1.00  0.00     0.016 A 
ATOM     30  C   UNL A   1      37.981  29.867  27.497  1.00  0.00     0.010 A 
ATOM     31  C   UNL A   1      37.449  29.297  29.792  1.00  0.00     0.010 A 
ATOM     32  C   UNL A   1      38.401  29.469  28.771  1.00  0.00    -0.014 A 
BRANCH  32  33
ATOM     33  C   UNL A   1      39.834  29.163  28.996  1.00  0.00     0.031 A 
ATOM     34  C   UNL A   1      40.732  30.210  29.587  1.00  0.00     0.074 A 
ATOM     35  C   UNL A   1      40.310  27.936  28.721  1.00  0.00     0.049 A 
ATOM     36  N   UNL A   1      42.020  30.166  29.809  1.00  0.00    -0.248 NA
ATOM     37  C   UNL A   1      40.094  31.475  29.989  1.00  0.00     0.031 C 
ATOM     38  C   UNL A   1      39.518  26.820  28.203  1.00  0.00     0.029 A 
ATOM     39  N   UNL A   1      41.576  27.422  28.842  1.00  0.00    -0.354 N 
ATOM     40  C   UNL A   1      42.354  31.399  30.355  1.00  0.00     0.074 A 
ATOM     41  C   UNL A   1      41.132  32.174  30.426  1.00  0.00     0.031 C 
ATOM     42  C   UNL A   1      40.318  25.752  28.045  1.00  0.00     0.029 A 
ATOM     43  C   UNL A   1      41.684  26.121  28.412  1.00  0.00     0.049 A 
ATOM     44  H   UNL A   1      42.335  27.936  29.200  1.00  0.00     0.167 HD
ATOM     45  C   UNL A   1      43.567  31.844  30.756  1.00  0.00     0.037 A 
ATOM     46  C   UNL A   1      42.767  25.327  28.303  1.00  0.00     0.037 A 
ATOM     47  C   UNL A   1      44.777  31.064  30.693  1.00  0.00     0.049 A 
ATOM     48  C   UNL A   1      44.114  25.859  28.707  1.00  0.00     0.074 A 
ATOM     49  C   UNL A   1      46.058  31.426  31.070  1.00  0.00     0.029 A 
ATOM     50  N   UNL A   1      44.852  29.760  30.223  1.00  0.00    -0.354 N 
ATOM     51  N   UNL A   1      44.419  27.038  29.196  1.00  0.00    -0.248 NA
ATOM     52  C   UNL A   1      45.263  24.960  28.539  1.00  0.00     0.031 C 
ATOM     53  C   UNL A   1      46.914  30.351  30.800  1.00  0.00     0.029 A 
ATOM     54  C   UNL A   1      46.159  29.308  30.287  1.00  0.00     0.049 A 
ATOM     55  H   UNL A   1      44.089  29.235  29.892  1.00  0.00     0.167 HD
ATOM     56  C   UNL A   1      45.794  27.017  29.404  1.00  0.00     0.074 A 
ATOM     57  C   UNL A   1      46.259  25.705  29.002  1.00  0.00     0.031 C 
ATOM     58  C   UNL A   1      46.600  27.997  29.884  1.00  0.00     0.037 A 
BRANCH  45  59
ATOM     59  C   UNL A   1      43.652  33.252  31.268  1.00  0.00     0.058 A 
ATOM     60  C   UNL A   1      43.805  34.345  30.401  1.00  0.00     0.135 A 
ATOM     61  C   UNL A   1      43.566  33.513  32.645  1.00  0.00     0.135 A 
ATOM     62  F   UNL A   1      43.913  34.148  29.078  1.00  0.00    -0.206 F 
ATOM     63  C   UNL A   1      43.894  35.647  30.884  1.00  0.00     0.059 A 
ATOM     64  C   UNL A   1      43.633  34.808  33.148  1.00  0.00     0.059 A 
ATOM     65  F   UNL A   1      43.424  32.501  33.516  1.00  0.00    -0.206 F 
ATOM     66  C   UNL A   1      43.813  35.868  32.260  1.00  0.00     0.060 A 
BRANCH  66  67
ATOM     67  S   UNL A   1      43.940  37.560  32.877  1.00  0.00     0.124 S 
ATOM     68  O   UNL A   1      42.848  37.598  33.845  1.00  0.00    -0.237 OA
ATOM     69  O   UNL A   1      45.286  37.590  33.441  1.00  0.00    -0.237 OA
ATOM     70  O   UNL A   1      43.748  38.373  31.680  1.00  0.00    -0.744 OA
ENDBRANCH  66  67
ENDBRANCH  45  59
BRANCH  46  71
ATOM     71  C   UNL A   1      42.621  23.952  27.758  1.00  0.00     0.058 A 
ATOM     72  C   UNL A   1      42.530  22.841  28.609  1.00  0.00     0.135 A 
ATOM     73  C   UNL A   1      42.558  23.726  26.375  1.00  0.00     0.135 A 
ATOM     74  F   UNL A   1      42.597  23.007  29.939  1.00  0.00    -0.206 F 
ATOM     75  C   UNL A   1      42.386  21.552  28.107  1.00  0.00     0.059 A 
ATOM     76  C   UNL A   1      42.393  22.449  25.850  1.00  0.00     0.059 A 
ATOM     77  F   UNL A   1      42.632  24.759  25.521  1.00  0.00    -0.206 F 
ATOM     78  C   UNL A   1      42.316  21.366  26.725  1.00  0.00     0.060 A 
BRANCH  78  79
ATOM     79  S   UNL A   1      42.069  19.697  26.080  1.00  0.00     0.124 S 
ATOM     80  O   UNL A   1      40.649  19.720  25.749  1.00  0.00    -0.237 OA
ATOM     81  O   UNL A   1      42.989  19.663  24.946  1.00  0.00    -0.237 OA
ATOM     82  O   UNL A   1      42.444  18.846  27.205  1.00  0.00    -0.744 OA
ENDBRANCH  78  79
ENDBRANCH  46  71
BRANCH  58  83
ATOM     83  C   UNL A   1      48.060  27.678  30.019  1.00  0.00     0.058 A 
ATOM     84  C   UNL A   1      48.551  26.938  31.107  1.00  0.00     0.135 A 
ATOM     85  C   UNL A   1      48.972  28.078  29.029  1.00  0.00     0.135 A 
ATOM     86  F   UNL A   1      47.720  26.538  32.081  1.00  0.00    -0.206 F 
ATOM     87  C   UNL A   1      49.901  26.621  31.217  1.00  0.00     0.059 A 
ATOM     88  C   UNL A   1      50.322  27.755  29.110  1.00  0.00     0.059 A 
ATOM     89  F   UNL A   1      48.549  28.780  27.966  1.00  0.00    -0.206 F 
ATOM     90  C   UNL A   1      50.780  27.036  30.214  1.00  0.00     0.060 A 
BRANCH  90  91
ATOM     91  S   UNL A   1      52.525  26.594  30.348  1.00  0.00     0.124 S 
ATOM     92  O   UNL A   1      53.131  27.885  30.656  1.00  0.00    -0.237 OA
ATOM     93  O   UNL A   1      52.522  25.619  31.435  1.00  0.00    -0.237 OA
ATOM     94  O   UNL A   1      52.838  26.051  29.030  1.00  0.00    -0.744 OA
ENDBRANCH  90  91
ENDBRANCH  58  83
ENDBRANCH  32  33
ENDBRANCH  25  27
ENDBRANCH  24  25
ENDBRANCH  23  24
ENDBRANCH   1  23
TORSDOF 17
ENDMDL
MODEL 2
REMARK VINA RESULT:     -10.3      2.946      9.036
REMARK SMILES NC(=O)CC[N@@H+]1[C@@H](C(=O)OCCOC(=O)c2ccc(-c3c4nc(c(-c5c(F)cc(S(=O)(=O)[O-])cc5F)c5ccc([nH]5)c(-c5c(F)cc(S(=O)(=O)[O-])cc5F)c5nc(c(-c6c(F)cc(S(=O)(=O)[O-])cc6F)c6ccc3[nH]6)C=C5)C=C4)cc2)CC[C@@H]2CCCC[C@H]21
REMARK SMILES IDX 11 1 10 2 8 3 9 4 7 5 6 6 89 7 82 9 84 10 88 11 83 12 85 13
REMARK SMILES IDX 87 14 86 15 5 16 4 17 2 18 1 19 3 22 12 23 13 24 14 25 15 26
REMARK SMILES IDX 16 27 17 28 81 29 18 30 80 31 19 32 20 33 21 34 74 35 22 36
REMARK SMILES IDX 79 37 73 38 75 39 23 40 78 41 72 42 71 43 24 45 58 46 37 47
REMARK SMILES IDX 57 48 38 49 41 50 56 51 76 52 39 53 40 54 55 56 77 57 42 58
REMARK SMILES IDX 25 59 26 60 35 61 27 62 28 63 34 64 36 65 29 66 30 67 31 68
REMARK SMILES IDX 32 69 33 70 59 71 60 72 69 73 61 74 62 75 68 76 70 77 63 78
REMARK SMILES IDX 64 79 65 80 66 81 67 82 43 83 44 84 53 85 45 86 46 87 52 88
REMARK SMILES IDX 54 89 47 90 48 91 49 92 50 93 51 94
REMARK H PARENT 6 8 1 20 1 21 75 44 41 55
REMARK Flexibility Score: inf
ROOT
ATOM      1  C   UNL A   1      35.953  21.645  24.589  1.00  0.00     0.274 C 
ENDROOT
BRANCH   1   2
ATOM      2  O   UNL A   1      34.842  22.056  25.411  1.00  0.00    -0.458 OA
BRANCH   2   3
ATOM      3  C   UNL A   1      33.657  22.216  24.759  1.00  0.00     0.365 C 
ATOM      4  O   UNL A   1      33.182  21.378  23.996  1.00  0.00    -0.245 OA
BRANCH   3   5
ATOM      5  C   UNL A   1      32.937  23.543  25.086  1.00  0.00     0.295 C 
ATOM      6  N   UNL A   1      33.621  24.808  24.573  1.00  0.00    -0.320 N 
ATOM      7  C   UNL A   1      32.672  25.964  24.812  1.00  0.00     0.187 C 
ATOM      8  H   UNL A   1      34.495  25.017  25.054  1.00  0.00     0.349 HD
ATOM      9  C   UNL A   1      32.629  23.629  26.582  1.00  0.00     0.078 C 
ATOM     10  C   UNL A   1      32.272  26.067  26.320  1.00  0.00     0.048 C 
ATOM     11  C   UNL A   1      33.219  27.349  24.396  1.00  0.00     0.065 C 
ATOM     12  C   UNL A   1      31.673  24.770  26.851  1.00  0.00     0.016 C 
ATOM     13  C   UNL A   1      31.277  27.210  26.583  1.00  0.00     0.010 C 
ATOM     14  C   UNL A   1      32.253  28.498  24.684  1.00  0.00     0.006 C 
ATOM     15  C   UNL A   1      31.844  28.549  26.145  1.00  0.00     0.001 C 
BRANCH   6  16
ATOM     16  C   UNL A   1      33.948  24.600  23.122  1.00  0.00     0.273 C 
BRANCH  16  17
ATOM     17  C   UNL A   1      32.865  24.570  22.033  1.00  0.00     0.161 C 
BRANCH  17  18
ATOM     18  C   UNL A   1      32.836  25.713  21.038  1.00  0.00     0.223 C 
ATOM     19  N   UNL A   1      31.962  25.621  20.004  1.00  0.00    -0.369 N 
ATOM     20  H   UNL A   1      31.912  26.343  19.337  1.00  0.00     0.159 HD
ATOM     21  H   UNL A   1      31.377  24.834  19.921  1.00  0.00     0.159 HD
ATOM     22  O   UNL A   1      33.590  26.678  21.126  1.00  0.00    -0.275 OA
ENDBRANCH  17  18
ENDBRANCH  16  17
ENDBRANCH   6  16
ENDBRANCH   3   5
ENDBRANCH   2   3
ENDBRANCH   1   2
BRANCH   1  23
ATOM     23  C   UNL A   1      36.925  22.792  24.280  1.00  0.00     0.275 C 
BRANCH  23  24
ATOM     24  O   UNL A   1      37.361  23.482  25.467  1.00  0.00    -0.458 OA
BRANCH  24  25
ATOM     25  C   UNL A   1      38.557  23.077  25.959  1.00  0.00     0.338 C 
ATOM     26  O   UNL A   1      39.127  22.026  25.721  1.00  0.00    -0.246 OA
BRANCH  25  27
ATOM     27  C   UNL A   1      39.189  24.161  26.729  1.00  0.00     0.060 A 
ATOM     28  C   UNL A   1      38.779  24.336  28.054  1.00  0.00     0.016 A 
ATOM     29  C   UNL A   1      40.086  25.056  26.146  1.00  0.00     0.016 A 
ATOM     30  C   UNL A   1      39.264  25.397  28.809  1.00  0.00     0.010 A 
ATOM     31  C   UNL A   1      40.564  26.135  26.901  1.00  0.00     0.010 A 
ATOM     32  C   UNL A   1      40.148  26.316  28.232  1.00  0.00    -0.014 A 
BRANCH  32  33
ATOM     33  C   UNL A   1      40.565  27.504  29.014  1.00  0.00     0.031 A 
ATOM     34  C   UNL A   1      41.913  27.521  29.675  1.00  0.00     0.074 A 
ATOM     35  C   UNL A   1      39.760  28.580  29.083  1.00  0.00     0.049 A 
ATOM     36  N   UNL A   1      42.443  28.433  30.448  1.00  0.00    -0.248 NA
ATOM     37  C   UNL A   1      42.783  26.359  29.428  1.00  0.00     0.031 C 
ATOM     38  C   UNL A   1      38.457  28.702  28.429  1.00  0.00     0.029 A 
ATOM     39  N   UNL A   1      39.923  29.776  29.734  1.00  0.00    -0.354 N 
ATOM     40  C   UNL A   1      43.697  27.949  30.799  1.00  0.00     0.074 A 
ATOM     41  C   UNL A   1      43.848  26.660  30.158  1.00  0.00     0.031 C 
ATOM     42  C   UNL A   1      37.935  29.906  28.717  1.00  0.00     0.029 A 
ATOM     43  C   UNL A   1      38.848  30.622  29.605  1.00  0.00     0.049 A 
ATOM     44  H   UNL A   1      40.732  30.006  30.245  1.00  0.00     0.167 HD
ATOM     45  C   UNL A   1      44.635  28.528  31.585  1.00  0.00     0.037 A 
ATOM     46  C   UNL A   1      38.616  31.826  30.163  1.00  0.00     0.037 A 
ATOM     47  C   UNL A   1      44.484  29.816  32.211  1.00  0.00     0.049 A 
ATOM     48  C   UNL A   1      39.650  32.427  31.074  1.00  0.00     0.074 A 
ATOM     49  C   UNL A   1      45.374  30.487  33.032  1.00  0.00     0.029 A 
ATOM     50  N   UNL A   1      43.367  30.630  32.082  1.00  0.00    -0.354 N 
ATOM     51  N   UNL A   1      40.821  31.946  31.420  1.00  0.00    -0.248 NA
ATOM     52  C   UNL A   1      39.331  33.728  31.678  1.00  0.00     0.031 C 
ATOM     53  C   UNL A   1      44.783  31.695  33.423  1.00  0.00     0.029 A 
ATOM     54  C   UNL A   1      43.539  31.791  32.819  1.00  0.00     0.049 A 
ATOM     55  H   UNL A   1      42.570  30.415  31.548  1.00  0.00     0.167 HD
ATOM     56  C   UNL A   1      41.383  32.891  32.272  1.00  0.00     0.074 A 
ATOM     57  C   UNL A   1      40.430  33.977  32.378  1.00  0.00     0.031 C 
ATOM     58  C   UNL A   1      42.579  32.861  32.909  1.00  0.00     0.037 A 
BRANCH  45  59
ATOM     59  C   UNL A   1      45.895  27.754  31.840  1.00  0.00     0.058 A 
ATOM     60  C   UNL A   1      46.995  27.827  30.972  1.00  0.00     0.135 A 
ATOM     61  C   UNL A   1      46.008  26.937  32.976  1.00  0.00     0.135 A 
ATOM     62  F   UNL A   1      46.932  28.578  29.861  1.00  0.00    -0.206 F 
ATOM     63  C   UNL A   1      48.157  27.098  31.209  1.00  0.00     0.059 A 
ATOM     64  C   UNL A   1      47.166  26.214  33.243  1.00  0.00     0.059 A 
ATOM     65  F   UNL A   1      44.981  26.829  33.835  1.00  0.00    -0.206 F 
ATOM     66  C   UNL A   1      48.230  26.289  32.345  1.00  0.00     0.060 A 
BRANCH  66  67
ATOM     67  S   UNL A   1      49.736  25.338  32.638  1.00  0.00     0.124 S 
ATOM     68  O   UNL A   1      49.222  24.213  33.413  1.00  0.00    -0.237 OA
ATOM     69  O   UNL A   1      50.180  25.024  31.284  1.00  0.00    -0.237 OA
ATOM     70  O   UNL A   1      50.588  26.269  33.372  1.00  0.00    -0.744 OA
ENDBRANCH  66  67
ENDBRANCH  45  59
BRANCH  46  71
ATOM     71  C   UNL A   1      37.333  32.528  29.896  1.00  0.00     0.058 A 
ATOM     72  C   UNL A   1      36.144  32.127  30.520  1.00  0.00     0.135 A 
ATOM     73  C   UNL A   1      37.278  33.622  29.019  1.00  0.00     0.135 A 
ATOM     74  F   UNL A   1      36.146  31.078  31.358  1.00  0.00    -0.206 F 
ATOM     75  C   UNL A   1      34.941  32.783  30.281  1.00  0.00     0.059 A 
ATOM     76  C   UNL A   1      36.092  34.308  28.781  1.00  0.00     0.059 A 
ATOM     77  F   UNL A   1      38.392  34.048  28.405  1.00  0.00    -0.206 F 
ATOM     78  C   UNL A   1      34.925  33.874  29.411  1.00  0.00     0.060 A 
BRANCH  78  79
ATOM     79  S   UNL A   1      33.374  34.761  29.150  1.00  0.00     0.124 S 
ATOM     80  O   UNL A   1      32.836  34.814  30.504  1.00  0.00    -0.237 OA
ATOM     81  O   UNL A   1      33.832  36.032  28.594  1.00  0.00    -0.237 OA
ATOM     82  O   UNL A   1      32.653  33.902  28.215  1.00  0.00    -0.744 OA
ENDBRANCH  78  79
ENDBRANCH  46  71
BRANCH  58  83
ATOM     83  C   UNL A   1      42.932  34.047  33.760  1.00  0.00     0.058 A 
ATOM     84  C   UNL A   1      42.676  34.060  35.140  1.00  0.00     0.135 A 
ATOM     85  C   UNL A   1      43.573  35.162  33.197  1.00  0.00     0.135 A 
ATOM     86  F   UNL A   1      42.060  33.021  35.723  1.00  0.00    -0.206 F 
ATOM     87  C   UNL A   1      43.028  35.149  35.932  1.00  0.00     0.059 A 
ATOM     88  C   UNL A   1      43.950  36.253  33.974  1.00  0.00     0.059 A 
ATOM     89  F   UNL A   1      43.846  35.192  31.883  1.00  0.00    -0.206 F 
ATOM     90  C   UNL A   1      43.663  36.242  35.338  1.00  0.00     0.060 A 
BRANCH  90  91
ATOM     91  S   UNL A   1      44.145  37.638  36.377  1.00  0.00     0.124 S 
ATOM     92  O   UNL A   1      43.142  37.575  37.435  1.00  0.00    -0.237 OA
ATOM     93  O   UNL A   1      45.506  37.285  36.770  1.00  0.00    -0.237 OA
ATOM     94  O   UNL A   1      44.037  38.781  35.476  1.00  0.00    -0.744 OA
ENDBRANCH  90  91
ENDBRANCH  58  83
ENDBRANCH  32  33
ENDBRANCH  25  27
ENDBRANCH  24  25
ENDBRANCH  23  24
ENDBRANCH   1  23
TORSDOF 17
ENDMDL
MODEL 3
REMARK VINA RESULT:     -10.3      1.141      8.564
REMARK SMILES NC(=O)CC[N@@H+]1[C@@H](C(=O)OCCOC(=O)c2ccc(-c3c4nc(c(-c5c(F)cc(S(=O)(=O)[O-])cc5F)c5ccc([nH]5)c(-c5c(F)cc(S(=O)(=O)[O-])cc5F)c5nc(c(-c6c(F)cc(S(=O)(=O)[O-])cc6F)c6ccc3[nH]6)C=C5)C=C4)cc2)CC[C@@H]2CCCC[C@H]21
REMARK SMILES IDX 11 1 10 2 8 3 9 4 7 5 6 6 89 7 82 9 84 10 88 11 83 12 85 13
REMARK SMILES IDX 87 14 86 15 5 16 4 17 2 18 1 19 3 22 12 23 13 24 14 25 15 26
REMARK SMILES IDX 16 27 17 28 81 29 18 30 80 31 19 32 20 33 21 34 74 35 22 36
REMARK SMILES IDX 79 37 73 38 75 39 23 40 78 41 72 42 71 43 24 45 58 46 37 47
REMARK SMILES IDX 57 48 38 49 41 50 56 51 76 52 39 53 40 54 55 56 77 57 42 58
REMARK SMILES IDX 25 59 26 60 35 61 27 62 28 63 34 64 36 65 29 66 30 67 31 68
REMARK SMILES IDX 32 69 33 70 59 71 60 72 69 73 61 74 62 75 68 76 70 77 63 78
REMARK SMILES IDX 64 79 65 80 66 81 67 82 43 83 44 84 53 85 45 86 46 87 52 88
REMARK SMILES IDX 54 89 47 90 48 91 49 92 50 93 51 94
REMARK H PARENT 6 8 1 20 1 21 75 44 41 55
REMARK Flexibility Score: inf
ROOT
ATOM      1  C   UNL A   1      32.240  27.128  26.483  1.00  0.00     0.274 C 
ENDROOT
BRANCH   1   2
ATOM      2  O   UNL A   1      33.324  26.184  26.375  1.00  0.00    -0.458 OA
BRANCH   2   3
ATOM      3  C   UNL A   1      33.804  25.982  25.117  1.00  0.00     0.365 C 
ATOM      4  O   UNL A   1      33.871  26.864  24.264  1.00  0.00    -0.245 OA
BRANCH   3   5
ATOM      5  C   UNL A   1      34.291  24.539  24.857  1.00  0.00     0.295 C 
ATOM      6  N   UNL A   1      33.266  23.440  25.121  1.00  0.00    -0.320 N 
ATOM      7  C   UNL A   1      33.858  22.139  24.620  1.00  0.00     0.187 C 
ATOM      8  H   UNL A   1      33.046  23.323  26.110  1.00  0.00     0.349 HD
ATOM      9  C   UNL A   1      35.607  24.279  25.593  1.00  0.00     0.078 C 
ATOM     10  C   UNL A   1      35.239  21.847  25.295  1.00  0.00     0.048 C 
ATOM     11  C   UNL A   1      32.973  20.892  24.850  1.00  0.00     0.065 C 
ATOM     12  C   UNL A   1      36.230  22.990  25.105  1.00  0.00     0.016 C 
ATOM     13  C   UNL A   1      35.880  20.551  24.774  1.00  0.00     0.010 C 
ATOM     14  C   UNL A   1      33.615  19.591  24.368  1.00  0.00     0.006 C 
ATOM     15  C   UNL A   1      34.974  19.354  25.001  1.00  0.00     0.001 C 
BRANCH   6  16
ATOM     16  C   UNL A   1      31.992  23.819  24.421  1.00  0.00     0.273 C 
BRANCH  16  17
ATOM     17  C   UNL A   1      30.653  23.939  25.163  1.00  0.00     0.161 C 
BRANCH  17  18
ATOM     18  C   UNL A   1      30.578  23.392  26.574  1.00  0.00     0.223 C 
ATOM     19  N   UNL A   1      29.535  22.578  26.876  1.00  0.00    -0.369 N 
ATOM     20  H   UNL A   1      29.451  22.202  27.782  1.00  0.00     0.159 HD
ATOM     21  H   UNL A   1      28.863  22.363  26.190  1.00  0.00     0.159 HD
ATOM     22  O   UNL A   1      31.400  23.688  27.437  1.00  0.00    -0.275 OA
ENDBRANCH  17  18
ENDBRANCH  16  17
ENDBRANCH   6  16
ENDBRANCH   3   5
ENDBRANCH   2   3
ENDBRANCH   1   2
BRANCH   1  23
ATOM     23  C   UNL A   1      32.629  28.400  27.251  1.00  0.00     0.275 C 
BRANCH  23  24
ATOM     24  O   UNL A   1      34.055  28.546  27.390  1.00  0.00    -0.458 OA
BRANCH  24  25
ATOM     25  C   UNL A   1      34.467  29.760  27.826  1.00  0.00     0.338 C 
ATOM     26  O   UNL A   1      33.774  30.748  28.001  1.00  0.00    -0.246 OA
BRANCH  25  27
ATOM     27  C   UNL A   1      35.884  29.710  28.223  1.00  0.00     0.060 A 
ATOM     28  C   UNL A   1      36.841  29.959  27.235  1.00  0.00     0.016 A 
ATOM     29  C   UNL A   1      36.278  29.328  29.506  1.00  0.00     0.016 A 
ATOM     30  C   UNL A   1      38.196  29.834  27.519  1.00  0.00     0.010 A 
ATOM     31  C   UNL A   1      37.643  29.188  29.788  1.00  0.00     0.010 A 
ATOM     32  C   UNL A   1      38.607  29.430  28.794  1.00  0.00    -0.014 A 
BRANCH  32  33
ATOM     33  C   UNL A   1      40.048  29.192  29.045  1.00  0.00     0.031 A 
ATOM     34  C   UNL A   1      40.652  27.862  28.701  1.00  0.00     0.074 A 
ATOM     35  C   UNL A   1      40.819  30.183  29.530  1.00  0.00     0.049 A 
ATOM     36  N   UNL A   1      41.871  27.431  28.895  1.00  0.00    -0.248 NA
ATOM     37  C   UNL A   1      39.765  26.886  28.044  1.00  0.00     0.031 C 
ATOM     38  C   UNL A   1      40.356  31.536  29.841  1.00  0.00     0.029 A 
ATOM     39  N   UNL A   1      42.154  30.204  29.841  1.00  0.00    -0.354 N 
ATOM     40  C   UNL A   1      41.897  26.131  28.406  1.00  0.00     0.074 A 
ATOM     41  C   UNL A   1      40.568  25.840  27.911  1.00  0.00     0.031 C 
ATOM     42  C   UNL A   1      41.392  32.255  30.306  1.00  0.00     0.029 A 
ATOM     43  C   UNL A   1      42.578  31.404  30.360  1.00  0.00     0.049 A 
ATOM     44  H   UNL A   1      42.752  29.434  29.706  1.00  0.00     0.167 HD
ATOM     45  C   UNL A   1      42.934  25.261  28.376  1.00  0.00     0.037 A 
ATOM     46  C   UNL A   1      43.780  31.765  30.850  1.00  0.00     0.037 A 
ATOM     47  C   UNL A   1      44.256  25.561  28.861  1.00  0.00     0.049 A 
ATOM     48  C   UNL A   1      44.904  30.765  30.853  1.00  0.00     0.074 A 
ATOM     49  C   UNL A   1      45.374  24.745  28.881  1.00  0.00     0.029 A 
ATOM     50  N   UNL A   1      44.639  26.777  29.409  1.00  0.00    -0.354 N 
ATOM     51  N   UNL A   1      44.906  29.529  30.414  1.00  0.00    -0.248 NA
ATOM     52  C   UNL A   1      46.184  31.204  31.426  1.00  0.00     0.031 C 
ATOM     53  C   UNL A   1      46.426  25.459  29.468  1.00  0.00     0.029 A 
ATOM     54  C   UNL A   1      45.972  26.729  29.783  1.00  0.00     0.049 A 
ATOM     55  H   UNL A   1      44.051  27.558  29.517  1.00  0.00     0.167 HD
ATOM     56  C   UNL A   1      46.190  29.046  30.646  1.00  0.00     0.074 A 
ATOM     57  C   UNL A   1      46.940  30.128  31.251  1.00  0.00     0.031 C 
ATOM     58  C   UNL A   1      46.701  27.819  30.382  1.00  0.00     0.037 A 
BRANCH  45  59
ATOM     59  C   UNL A   1      42.667  23.888  27.832  1.00  0.00     0.058 A 
ATOM     60  C   UNL A   1      42.408  22.797  28.675  1.00  0.00     0.135 A 
ATOM     61  C   UNL A   1      42.658  23.664  26.446  1.00  0.00     0.135 A 
ATOM     62  F   UNL A   1      42.426  22.953  30.008  1.00  0.00    -0.206 F 
ATOM     63  C   UNL A   1      42.172  21.524  28.164  1.00  0.00     0.059 A 
ATOM     64  C   UNL A   1      42.405  22.405  25.912  1.00  0.00     0.059 A 
ATOM     65  F   UNL A   1      42.904  24.675  25.597  1.00  0.00    -0.206 F 
ATOM     66  C   UNL A   1      42.179  21.338  26.780  1.00  0.00     0.060 A 
BRANCH  66  67
ATOM     67  S   UNL A   1      41.883  19.681  26.126  1.00  0.00     0.124 S 
ATOM     68  O   UNL A   1      40.454  19.735  25.836  1.00  0.00    -0.237 OA
ATOM     69  O   UNL A   1      42.764  19.638  24.963  1.00  0.00    -0.237 OA
ATOM     70  O   UNL A   1      42.268  18.807  27.230  1.00  0.00    -0.744 OA
ENDBRANCH  66  67
ENDBRANCH  45  59
BRANCH  46  71
ATOM     71  C   UNL A   1      43.971  33.130  31.404  1.00  0.00     0.058 A 
ATOM     72  C   UNL A   1      44.314  34.208  30.576  1.00  0.00     0.135 A 
ATOM     73  C   UNL A   1      43.802  33.383  32.774  1.00  0.00     0.135 A 
ATOM     74  F   UNL A   1      44.498  34.011  29.261  1.00  0.00    -0.206 F 
ATOM     75  C   UNL A   1      44.487  35.490  31.085  1.00  0.00     0.059 A 
ATOM     76  C   UNL A   1      43.948  34.661  33.304  1.00  0.00     0.059 A 
ATOM     77  F   UNL A   1      43.464  32.385  33.605  1.00  0.00    -0.206 F 
ATOM     78  C   UNL A   1      44.300  35.707  32.452  1.00  0.00     0.060 A 
BRANCH  78  79
ATOM     79  S   UNL A   1      44.466  37.385  33.101  1.00  0.00     0.124 S 
ATOM     80  O   UNL A   1      45.912  37.494  33.262  1.00  0.00    -0.237 OA
ATOM     81  O   UNL A   1      43.880  38.190  32.033  1.00  0.00    -0.237 OA
ATOM     82  O   UNL A   1      43.692  37.341  34.338  1.00  0.00    -0.744 OA
ENDBRANCH  78  79
ENDBRANCH  46  71
BRANCH  58  83
ATOM     83  C   UNL A   1      48.143  27.588  30.728  1.00  0.00     0.058 A 
ATOM     84  C   UNL A   1      48.524  27.072  31.977  1.00  0.00     0.135 A 
ATOM     85  C   UNL A   1      49.152  27.842  29.785  1.00  0.00     0.135 A 
ATOM     86  F   UNL A   1      47.598  26.819  32.914  1.00  0.00    -0.206 F 
ATOM     87  C   UNL A   1      49.859  26.834  32.286  1.00  0.00     0.059 A 
ATOM     88  C   UNL A   1      50.491  27.593  30.066  1.00  0.00     0.059 A 
ATOM     89  F   UNL A   1      48.836  28.327  28.573  1.00  0.00    -0.206 F 
ATOM     90  C   UNL A   1      50.836  27.100  31.323  1.00  0.00     0.060 A 
BRANCH  90  91
ATOM     91  S   UNL A   1      52.564  26.759  31.721  1.00  0.00     0.124 S 
ATOM     92  O   UNL A   1      52.981  28.021  32.321  1.00  0.00    -0.237 OA
ATOM     93  O   UNL A   1      52.461  25.625  32.635  1.00  0.00    -0.237 OA
ATOM     94  O   UNL A   1      53.155  26.455  30.421  1.00  0.00    -0.744 OA
ENDBRANCH  90  91
ENDBRANCH  58  83
ENDBRANCH  32  33
ENDBRANCH  25  27
ENDBRANCH  24  25
ENDBRANCH  23  24
ENDBRANCH   1  23
TORSDOF 17
ENDMDL
