MODEL 1
REMARK VINA RESULT:      -9.6      0.000      0.000
REMARK SMILES Cc1cc(CNC(=O)C[C@H](C)CC(=O)OCCOC(=O)c2ccc(-c3c4nc(c(-c5c(F)cc(S(=O)(=O)[O-])cc5F)c5ccc([nH]5)c(-c5c(F)cc(S(=O)(=O)[O-])cc5F)c5nc(c(-c6c(F)cc(S(=O)(=O)[O-])cc6F)c6ccc3[nH]6)C=C5)C=C4)cc2)cc(C)c1F
REMARK SMILES IDX 16 1 15 2 13 3 14 4 12 5 10 6 11 7 9 8 7 9 6 10 8 12 5 13
REMARK SMILES IDX 4 14 1 15 2 16 3 17 90 18 88 19 91 20 87 21 89 22 17 23
REMARK SMILES IDX 18 24 19 25 20 26 21 27 22 28 86 29 23 30 85 31 24 32 25 33
REMARK SMILES IDX 26 34 79 35 27 36 84 37 78 38 80 39 28 40 83 41 77 42 76 43
REMARK SMILES IDX 29 45 63 46 42 47 62 48 43 49 46 50 61 51 81 52 44 53 45 54
REMARK SMILES IDX 60 56 82 57 47 58 30 59 31 60 40 61 32 62 33 63 39 64 41 65
REMARK SMILES IDX 34 66 35 67 36 68 37 69 38 70 64 71 65 72 74 73 66 74 67 75
REMARK SMILES IDX 73 76 75 77 68 78 69 79 70 80 71 81 72 82 48 83 49 84 58 85
REMARK SMILES IDX 50 86 51 87 57 88 59 89 52 90 53 91 54 92 55 93 56 94
REMARK H PARENT 6 11 80 44 46 55
REMARK Flexibility Score: inf
ROOT
ATOM      1  C   UNL A   1      32.560  32.992  27.643  1.00  0.00     0.274 C 
ENDROOT
BRANCH   1   2
ATOM      2  O   UNL A   1      33.316  34.194  27.928  1.00  0.00    -0.462 OA
BRANCH   2   3
ATOM      3  C   UNL A   1      33.432  34.498  29.245  1.00  0.00     0.306 C 
ATOM      4  O   UNL A   1      32.506  34.931  29.933  1.00  0.00    -0.252 OA
BRANCH   3   5
ATOM      5  C   UNL A   1      34.816  34.284  29.855  1.00  0.00     0.126 C 
BRANCH   5   6
ATOM      6  C   UNL A   1      35.520  32.898  29.939  1.00  0.00     0.006 C 
ATOM      7  C   UNL A   1      36.968  33.030  29.472  1.00  0.00     0.009 C 
BRANCH   6   8
ATOM      8  C   UNL A   1      35.460  32.317  31.381  1.00  0.00     0.104 C 
BRANCH   8   9
ATOM      9  C   UNL A   1      34.741  33.153  32.444  1.00  0.00     0.220 C 
ATOM     10  N   UNL A   1      35.414  34.107  33.134  1.00  0.00    -0.352 N 
ATOM     11  H   UNL A   1      34.934  34.529  33.884  1.00  0.00     0.163 HD
ATOM     12  O   UNL A   1      33.569  32.931  32.753  1.00  0.00    -0.275 OA
BRANCH  10  13
ATOM     13  C   UNL A   1      36.742  34.565  32.891  1.00  0.00     0.151 C 
BRANCH  13  14
ATOM     14  C   UNL A   1      37.763  33.853  33.763  1.00  0.00    -0.028 A 
ATOM     15  C   UNL A   1      39.646  33.548  37.885  1.00  0.00     0.047 C 
ATOM     16  C   UNL A   1      39.304  33.213  36.468  1.00  0.00    -0.015 A 
ATOM     17  C   UNL A   1      38.058  34.189  35.548  1.00  0.00     0.012 A 
ATOM     18  C   UNL A   1      40.108  31.758  35.668  1.00  0.00     0.129 A 
ATOM     19  C   UNL A   1      39.699  31.356  33.934  1.00  0.00    -0.015 A 
ATOM     20  F   UNL A   1      40.870  30.926  36.393  1.00  0.00    -0.206 F 
ATOM     21  C   UNL A   1      38.624  32.448  32.974  1.00  0.00     0.012 A 
ATOM     22  C   UNL A   1      39.930  29.989  33.362  1.00  0.00     0.047 C 
ENDBRANCH  13  14
ENDBRANCH  10  13
ENDBRANCH   8   9
ENDBRANCH   6   8
ENDBRANCH   5   6
ENDBRANCH   3   5
ENDBRANCH   2   3
ENDBRANCH   1   2
BRANCH   1  23
ATOM     23  C   UNL A   1      33.468  31.815  27.265  1.00  0.00     0.275 C 
BRANCH  23  24
ATOM     24  O   UNL A   1      32.907  30.496  27.545  1.00  0.00    -0.458 OA
BRANCH  24  25
ATOM     25  C   UNL A   1      33.903  29.391  27.708  1.00  0.00     0.338 C 
ATOM     26  O   UNL A   1      33.146  28.423  27.489  1.00  0.00    -0.246 OA
BRANCH  25  27
ATOM     27  C   UNL A   1      35.972  29.531  28.255  1.00  0.00     0.060 A 
ATOM     28  C   UNL A   1      36.614  29.310  29.574  1.00  0.00     0.016 A 
ATOM     29  C   UNL A   1      37.196  29.897  27.402  1.00  0.00     0.016 A 
ATOM     30  C   UNL A   1      37.911  29.009  29.862  1.00  0.00     0.010 A 
ATOM     31  C   UNL A   1      38.535  29.684  27.654  1.00  0.00     0.010 A 
ATOM     32  C   UNL A   1      38.830  29.149  28.865  1.00  0.00    -0.014 A 
BRANCH  32  33
ATOM     33  C   UNL A   1      40.161  28.906  29.294  1.00  0.00     0.031 A 
ATOM     34  C   UNL A   1      40.699  27.611  28.847  1.00  0.00     0.074 A 
ATOM     35  C   UNL A   1      40.768  30.007  29.743  1.00  0.00     0.049 A 
ATOM     36  N   UNL A   1      41.910  27.190  28.939  1.00  0.00    -0.248 NA
ATOM     37  C   UNL A   1      39.766  26.670  28.177  1.00  0.00     0.031 C 
ATOM     38  C   UNL A   1      40.102  31.298  29.993  1.00  0.00     0.029 A 
ATOM     39  N   UNL A   1      42.071  30.255  29.974  1.00  0.00    -0.354 N 
ATOM     40  C   UNL A   1      41.889  25.926  28.382  1.00  0.00     0.074 A 
ATOM     41  C   UNL A   1      40.553  25.637  27.936  1.00  0.00     0.031 C 
ATOM     42  C   UNL A   1      41.026  32.218  30.294  1.00  0.00     0.029 A 
ATOM     43  C   UNL A   1      42.313  31.549  30.353  1.00  0.00     0.049 A 
ATOM     44  H   UNL A   1      42.778  29.576  29.880  1.00  0.00     0.167 HD
ATOM     45  C   UNL A   1      42.951  25.109  28.303  1.00  0.00     0.037 A 
ATOM     46  C   UNL A   1      43.477  32.069  30.754  1.00  0.00     0.037 A 
ATOM     47  C   UNL A   1      44.220  25.536  28.820  1.00  0.00     0.049 A 
ATOM     48  C   UNL A   1      44.617  31.093  30.747  1.00  0.00     0.074 A 
ATOM     49  C   UNL A   1      45.392  24.831  28.934  1.00  0.00     0.029 A 
ATOM     50  N   UNL A   1      44.457  26.820  29.324  1.00  0.00    -0.354 N 
ATOM     51  N   UNL A   1      44.616  29.848  30.309  1.00  0.00    -0.248 NA
ATOM     52  C   UNL A   1      45.884  31.542  31.309  1.00  0.00     0.031 C 
ATOM     53  C   UNL A   1      46.319  25.671  29.562  1.00  0.00     0.029 A 
ATOM     54  C   UNL A   1      45.752  26.927  29.773  1.00  0.00     0.049 A 
ATOM     55  H   UNL A   1      43.790  27.544  29.354  1.00  0.00     0.167 HD
ATOM     56  C   UNL A   1      45.878  29.348  30.552  1.00  0.00     0.074 A 
ATOM     57  C   UNL A   1      46.628  30.456  31.138  1.00  0.00     0.031 C 
ATOM     58  C   UNL A   1      46.382  28.104  30.339  1.00  0.00     0.037 A 
BRANCH  45  59
ATOM     59  C   UNL A   1      42.719  23.735  27.765  1.00  0.00     0.058 A 
ATOM     60  C   UNL A   1      42.537  22.623  28.603  1.00  0.00     0.135 A 
ATOM     61  C   UNL A   1      42.730  23.517  26.379  1.00  0.00     0.135 A 
ATOM     62  F   UNL A   1      42.597  22.762  29.938  1.00  0.00    -0.206 F 
ATOM     63  C   UNL A   1      42.350  21.347  28.084  1.00  0.00     0.059 A 
ATOM     64  C   UNL A   1      42.518  22.255  25.837  1.00  0.00     0.059 A 
ATOM     65  F   UNL A   1      42.970  24.535  25.536  1.00  0.00    -0.206 F 
ATOM     66  C   UNL A   1      42.321  21.176  26.699  1.00  0.00     0.060 A 
BRANCH  66  67
ATOM     67  S   UNL A   1      41.996  19.529  26.044  1.00  0.00     0.124 S 
ATOM     68  O   UNL A   1      42.393  18.679  27.164  1.00  0.00    -0.237 OA
ATOM     69  O   UNL A   1      40.563  19.589  25.772  1.00  0.00    -0.237 OA
ATOM     70  O   UNL A   1      42.853  19.453  24.867  1.00  0.00    -0.744 OA
ENDBRANCH  66  67
ENDBRANCH  45  59
BRANCH  46  71
ATOM     71  C   UNL A   1      43.543  33.473  31.220  1.00  0.00     0.058 A 
ATOM     72  C   UNL A   1      43.215  33.815  32.536  1.00  0.00     0.135 A 
ATOM     73  C   UNL A   1      44.038  34.495  30.386  1.00  0.00     0.135 A 
ATOM     74  F   UNL A   1      42.762  32.877  33.380  1.00  0.00    -0.206 F 
ATOM     75  C   UNL A   1      43.360  35.118  33.006  1.00  0.00     0.059 A 
ATOM     76  C   UNL A   1      44.227  35.794  30.841  1.00  0.00     0.059 A 
ATOM     77  F   UNL A   1      44.399  34.220  29.122  1.00  0.00    -0.206 F 
ATOM     78  C   UNL A   1      43.870  36.099  32.152  1.00  0.00     0.060 A 
BRANCH  78  79
ATOM     79  S   UNL A   1      44.060  37.780  32.780  1.00  0.00     0.124 S 
ATOM     80  O   UNL A   1      43.049  37.813  33.831  1.00  0.00    -0.237 OA
ATOM     81  O   UNL A   1      45.449  37.781  33.227  1.00  0.00    -0.237 OA
ATOM     82  O   UNL A   1      43.781  38.610  31.612  1.00  0.00    -0.744 OA
ENDBRANCH  78  79
ENDBRANCH  46  71
BRANCH  58  83
ATOM     83  C   UNL A   1      47.809  27.930  30.728  1.00  0.00     0.058 A 
ATOM     84  C   UNL A   1      48.165  27.514  32.016  1.00  0.00     0.135 A 
ATOM     85  C   UNL A   1      48.812  28.103  29.764  1.00  0.00     0.135 A 
ATOM     86  F   UNL A   1      47.225  27.348  32.961  1.00  0.00    -0.206 F 
ATOM     87  C   UNL A   1      49.489  27.300  32.349  1.00  0.00     0.059 A 
ATOM     88  C   UNL A   1      50.137  27.847  30.062  1.00  0.00     0.059 A 
ATOM     89  F   UNL A   1      48.496  28.481  28.515  1.00  0.00    -0.206 F 
ATOM     90  C   UNL A   1      50.464  27.460  31.361  1.00  0.00     0.060 A 
BRANCH  90  91
ATOM     91  S   UNL A   1      52.178  27.140  31.803  1.00  0.00     0.124 S 
ATOM     92  O   UNL A   1      52.502  26.025  30.921  1.00  0.00    -0.237 OA
ATOM     93  O   UNL A   1      52.817  28.413  31.483  1.00  0.00    -0.237 OA
ATOM     94  O   UNL A   1      52.107  26.817  33.225  1.00  0.00    -0.744 OA
ENDBRANCH  90  91
ENDBRANCH  58  83
ENDBRANCH  32  33
ENDBRANCH  25  27
ENDBRANCH  24  25
ENDBRANCH  23  24
ENDBRANCH   1  23
TORSDOF 19
ENDMDL
MODEL 2
REMARK VINA RESULT:      -9.5      4.192     10.912
REMARK SMILES Cc1cc(CNC(=O)C[C@H](C)CC(=O)OCCOC(=O)c2ccc(-c3c4nc(c(-c5c(F)cc(S(=O)(=O)[O-])cc5F)c5ccc([nH]5)c(-c5c(F)cc(S(=O)(=O)[O-])cc5F)c5nc(c(-c6c(F)cc(S(=O)(=O)[O-])cc6F)c6ccc3[nH]6)C=C5)C=C4)cc2)cc(C)c1F
REMARK SMILES IDX 16 1 15 2 13 3 14 4 12 5 10 6 11 7 9 8 7 9 6 10 8 12 5 13
REMARK SMILES IDX 4 14 1 15 2 16 3 17 90 18 88 19 91 20 87 21 89 22 17 23
REMARK SMILES IDX 18 24 19 25 20 26 21 27 22 28 86 29 23 30 85 31 24 32 25 33
REMARK SMILES IDX 26 34 79 35 27 36 84 37 78 38 80 39 28 40 83 41 77 42 76 43
REMARK SMILES IDX 29 45 63 46 42 47 62 48 43 49 46 50 61 51 81 52 44 53 45 54
REMARK SMILES IDX 60 56 82 57 47 58 30 59 31 60 40 61 32 62 33 63 39 64 41 65
REMARK SMILES IDX 34 66 35 67 36 68 37 69 38 70 64 71 65 72 74 73 66 74 67 75
REMARK SMILES IDX 73 76 75 77 68 78 69 79 70 80 71 81 72 82 48 83 49 84 58 85
REMARK SMILES IDX 50 86 51 87 57 88 59 89 52 90 53 91 54 92 55 93 56 94
REMARK H PARENT 6 11 80 44 46 55
REMARK Flexibility Score: inf
ROOT
ATOM      1  C   UNL A   1      33.322  29.890  27.321  1.00  0.00     0.274 C 
ENDROOT
BRANCH   1   2
ATOM      2  O   UNL A   1      33.033  29.335  26.014  1.00  0.00    -0.462 OA
BRANCH   2   3
ATOM      3  C   UNL A   1      31.978  28.483  25.977  1.00  0.00     0.306 C 
ATOM      4  O   UNL A   1      31.662  27.741  26.906  1.00  0.00    -0.252 OA
BRANCH   3   5
ATOM      5  C   UNL A   1      31.177  28.478  24.675  1.00  0.00     0.126 C 
BRANCH   5   6
ATOM      6  C   UNL A   1      30.862  27.192  23.857  1.00  0.00     0.006 C 
ATOM      7  C   UNL A   1      29.354  26.955  23.836  1.00  0.00     0.009 C 
BRANCH   6   8
ATOM      8  C   UNL A   1      31.423  27.288  22.409  1.00  0.00     0.104 C 
BRANCH   8   9
ATOM      9  C   UNL A   1      32.941  27.186  22.238  1.00  0.00     0.220 C 
ATOM     10  N   UNL A   1      33.523  25.984  22.003  1.00  0.00    -0.352 N 
ATOM     11  H   UNL A   1      34.508  25.961  22.020  1.00  0.00     0.163 HD
ATOM     12  O   UNL A   1      33.672  28.166  22.387  1.00  0.00    -0.275 OA
BRANCH  10  13
ATOM     13  C   UNL A   1      32.863  24.749  21.733  1.00  0.00     0.151 C 
BRANCH  13  14
ATOM     14  C   UNL A   1      33.033  23.749  22.864  1.00  0.00    -0.028 A 
ATOM     15  C   UNL A   1      35.875  20.934  25.015  1.00  0.00     0.047 C 
ATOM     16  C   UNL A   1      34.647  21.735  24.718  1.00  0.00    -0.015 A 
ATOM     17  C   UNL A   1      34.601  22.888  23.297  1.00  0.00     0.012 A 
ATOM     18  C   UNL A   1      33.190  21.599  25.842  1.00  0.00     0.129 A 
ATOM     19  C   UNL A   1      31.688  22.568  25.472  1.00  0.00    -0.015 A 
ATOM     20  F   UNL A   1      33.284  20.910  26.989  1.00  0.00    -0.206 F 
ATOM     21  C   UNL A   1      31.581  23.544  23.953  1.00  0.00     0.012 A 
ATOM     22  C   UNL A   1      30.663  22.874  26.525  1.00  0.00     0.047 C 
ENDBRANCH  13  14
ENDBRANCH  10  13
ENDBRANCH   8   9
ENDBRANCH   6   8
ENDBRANCH   5   6
ENDBRANCH   3   5
ENDBRANCH   2   3
ENDBRANCH   1   2
BRANCH   1  23
ATOM     23  C   UNL A   1      34.801  30.270  27.473  1.00  0.00     0.275 C 
BRANCH  23  24
ATOM     24  O   UNL A   1      35.068  31.290  28.482  1.00  0.00    -0.458 OA
BRANCH  24  25
ATOM     25  C   UNL A   1      36.176  30.979  29.438  1.00  0.00     0.338 C 
ATOM     26  O   UNL A   1      35.687  31.490  30.466  1.00  0.00    -0.246 OA
BRANCH  25  27
ATOM     27  C   UNL A   1      38.053  30.022  29.038  1.00  0.00     0.060 A 
ATOM     28  C   UNL A   1      38.625  29.573  27.745  1.00  0.00     0.016 A 
ATOM     29  C   UNL A   1      39.172  29.599  30.003  1.00  0.00     0.016 A 
ATOM     30  C   UNL A   1      39.925  29.337  27.411  1.00  0.00     0.010 A 
ATOM     31  C   UNL A   1      40.488  29.283  29.735  1.00  0.00     0.010 A 
ATOM     32  C   UNL A   1      40.833  29.259  28.424  1.00  0.00    -0.014 A 
BRANCH  32  33
ATOM     33  C   UNL A   1      42.137  28.913  27.980  1.00  0.00     0.031 A 
ATOM     34  C   UNL A   1      43.139  29.966  28.211  1.00  0.00     0.074 A 
ATOM     35  C   UNL A   1      42.268  27.608  27.731  1.00  0.00     0.049 A 
ATOM     36  N   UNL A   1      44.414  29.881  28.067  1.00  0.00    -0.248 NA
ATOM     37  C   UNL A   1      42.657  31.283  28.700  1.00  0.00     0.031 C 
ATOM     38  C   UNL A   1      41.158  26.639  27.692  1.00  0.00     0.029 A 
ATOM     39  N   UNL A   1      43.372  26.856  27.564  1.00  0.00    -0.354 N 
ATOM     40  C   UNL A   1      44.892  31.133  28.404  1.00  0.00     0.074 A 
ATOM     41  C   UNL A   1      43.782  31.970  28.776  1.00  0.00     0.031 C 
ATOM     42  C   UNL A   1      41.657  25.404  27.562  1.00  0.00     0.029 A 
ATOM     43  C   UNL A   1      43.096  25.523  27.411  1.00  0.00     0.049 A 
ATOM     44  H   UNL A   1      44.284  27.227  27.553  1.00  0.00     0.167 HD
ATOM     45  C   UNL A   1      46.184  31.494  28.360  1.00  0.00     0.037 A 
ATOM     46  C   UNL A   1      43.962  24.547  27.119  1.00  0.00     0.037 A 
ATOM     47  C   UNL A   1      47.175  30.545  27.941  1.00  0.00     0.049 A 
ATOM     48  C   UNL A   1      45.382  25.013  26.979  1.00  0.00     0.074 A 
ATOM     49  C   UNL A   1      48.519  30.732  27.727  1.00  0.00     0.029 A 
ATOM     50  N   UNL A   1      46.893  29.203  27.662  1.00  0.00    -0.354 N 
ATOM     51  N   UNL A   1      45.866  26.220  27.202  1.00  0.00    -0.248 NA
ATOM     52  C   UNL A   1      46.362  24.038  26.519  1.00  0.00     0.031 C 
ATOM     53  C   UNL A   1      49.034  29.516  27.262  1.00  0.00     0.029 A 
ATOM     54  C   UNL A   1      48.031  28.548  27.257  1.00  0.00     0.049 A 
ATOM     55  H   UNL A   1      46.004  28.787  27.745  1.00  0.00     0.167 HD
ATOM     56  C   UNL A   1      47.209  26.165  26.897  1.00  0.00     0.074 A 
ATOM     57  C   UNL A   1      47.464  24.778  26.515  1.00  0.00     0.031 C 
ATOM     58  C   UNL A   1      48.150  27.146  26.905  1.00  0.00     0.037 A 
BRANCH  45  59
ATOM     59  C   UNL A   1      46.506  32.922  28.657  1.00  0.00     0.058 A 
ATOM     60  C   UNL A   1      46.784  33.372  29.958  1.00  0.00     0.135 A 
ATOM     61  C   UNL A   1      46.485  33.872  27.625  1.00  0.00     0.135 A 
ATOM     62  F   UNL A   1      46.739  32.519  30.995  1.00  0.00    -0.206 F 
ATOM     63  C   UNL A   1      47.055  34.710  30.220  1.00  0.00     0.059 A 
ATOM     64  C   UNL A   1      46.780  35.209  27.859  1.00  0.00     0.059 A 
ATOM     65  F   UNL A   1      46.157  33.505  26.376  1.00  0.00    -0.206 F 
ATOM     66  C   UNL A   1      47.070  35.618  29.160  1.00  0.00     0.060 A 
BRANCH  66  67
ATOM     67  S   UNL A   1      47.504  37.333  29.506  1.00  0.00     0.124 S 
ATOM     68  O   UNL A   1      46.901  37.533  30.821  1.00  0.00    -0.237 OA
ATOM     69  O   UNL A   1      48.962  37.288  29.478  1.00  0.00    -0.237 OA
ATOM     70  O   UNL A   1      46.880  38.071  28.413  1.00  0.00    -0.744 OA
ENDBRANCH  66  67
ENDBRANCH  45  59
BRANCH  46  71
ATOM     71  C   UNL A   1      43.479  23.166  26.896  1.00  0.00     0.058 A 
ATOM     72  C   UNL A   1      43.443  22.609  25.614  1.00  0.00     0.135 A 
ATOM     73  C   UNL A   1      43.136  22.330  27.978  1.00  0.00     0.135 A 
ATOM     74  F   UNL A   1      43.782  23.353  24.549  1.00  0.00    -0.206 F 
ATOM     75  C   UNL A   1      43.075  21.282  25.406  1.00  0.00     0.059 A 
ATOM     76  C   UNL A   1      42.801  20.994  27.802  1.00  0.00     0.059 A 
ATOM     77  F   UNL A   1      43.181  22.800  29.235  1.00  0.00    -0.206 F 
ATOM     78  C   UNL A   1      42.758  20.483  26.508  1.00  0.00     0.060 A 
BRANCH  78  79
ATOM     79  S   UNL A   1      42.291  18.763  26.222  1.00  0.00     0.124 S 
ATOM     80  O   UNL A   1      42.396  18.207  27.566  1.00  0.00    -0.237 OA
ATOM     81  O   UNL A   1      40.940  18.902  25.689  1.00  0.00    -0.237 OA
ATOM     82  O   UNL A   1      43.291  18.295  25.267  1.00  0.00    -0.744 OA
ENDBRANCH  78  79
ENDBRANCH  46  71
BRANCH  58  83
ATOM     83  C   UNL A   1      49.518  26.708  26.514  1.00  0.00     0.058 A 
ATOM     84  C   UNL A   1      50.405  26.172  27.456  1.00  0.00     0.135 A 
ATOM     85  C   UNL A   1      49.898  26.752  25.165  1.00  0.00     0.135 A 
ATOM     86  F   UNL A   1      50.070  26.125  28.755  1.00  0.00    -0.206 F 
ATOM     87  C   UNL A   1      51.651  25.716  27.072  1.00  0.00     0.059 A 
ATOM     88  C   UNL A   1      51.120  26.256  24.753  1.00  0.00     0.059 A 
ATOM     89  F   UNL A   1      49.058  27.242  24.238  1.00  0.00    -0.206 F 
ATOM     90  C   UNL A   1      51.993  25.753  25.717  1.00  0.00     0.060 A 
BRANCH  90  91
ATOM     91  S   UNL A   1      53.604  25.119  25.233  1.00  0.00     0.124 S 
ATOM     92  O   UNL A   1      54.450  25.625  26.308  1.00  0.00    -0.237 OA
ATOM     93  O   UNL A   1      53.375  23.678  25.226  1.00  0.00    -0.237 OA
ATOM     94  O   UNL A   1      53.827  25.721  23.922  1.00  0.00    -0.744 OA
ENDBRANCH  90  91
ENDBRANCH  58  83
ENDBRANCH  32  33
ENDBRANCH  25  27
ENDBRANCH  24  25
ENDBRANCH  23  24
ENDBRANCH   1  23
TORSDOF 19
ENDMDL
MODEL 3
REMARK VINA RESULT:      -9.4      1.497      2.377
REMARK SMILES Cc1cc(CNC(=O)C[C@H](C)CC(=O)OCCOC(=O)c2ccc(-c3c4nc(c(-c5c(F)cc(S(=O)(=O)[O-])cc5F)c5ccc([nH]5)c(-c5c(F)cc(S(=O)(=O)[O-])cc5F)c5nc(c(-c6c(F)cc(S(=O)(=O)[O-])cc6F)c6ccc3[nH]6)C=C5)C=C4)cc2)cc(C)c1F
REMARK SMILES IDX 16 1 15 2 13 3 14 4 12 5 10 6 11 7 9 8 7 9 6 10 8 12 5 13
REMARK SMILES IDX 4 14 1 15 2 16 3 17 90 18 88 19 91 20 87 21 89 22 17 23
REMARK SMILES IDX 18 24 19 25 20 26 21 27 22 28 86 29 23 30 85 31 24 32 25 33
REMARK SMILES IDX 26 34 79 35 27 36 84 37 78 38 80 39 28 40 83 41 77 42 76 43
REMARK SMILES IDX 29 45 63 46 42 47 62 48 43 49 46 50 61 51 81 52 44 53 45 54
REMARK SMILES IDX 60 56 82 57 47 58 30 59 31 60 40 61 32 62 33 63 39 64 41 65
REMARK SMILES IDX 34 66 35 67 36 68 37 69 38 70 64 71 65 72 74 73 66 74 67 75
REMARK SMILES IDX 73 76 75 77 68 78 69 79 70 80 71 81 72 82 48 83 49 84 58 85
REMARK SMILES IDX 50 86 51 87 57 88 59 89 52 90 53 91 54 92 55 93 56 94
REMARK H PARENT 6 11 80 44 46 55
REMARK Flexibility Score: inf
ROOT
ATOM      1  C   UNL A   1      35.411  33.774  29.200  1.00  0.00     0.274 C 
ENDROOT
BRANCH   1   2
ATOM      2  O   UNL A   1      36.717  33.148  29.205  1.00  0.00    -0.462 OA
BRANCH   2   3
ATOM      3  C   UNL A   1      37.565  33.604  30.162  1.00  0.00     0.306 C 
ATOM      4  O   UNL A   1      38.271  34.604  30.032  1.00  0.00    -0.252 OA
BRANCH   3   5
ATOM      5  C   UNL A   1      37.616  32.781  31.448  1.00  0.00     0.126 C 
BRANCH   5   6
ATOM      6  C   UNL A   1      36.433  32.674  32.455  1.00  0.00     0.006 C 
ATOM      7  C   UNL A   1      35.847  31.265  32.409  1.00  0.00     0.009 C 
BRANCH   6   8
ATOM      8  C   UNL A   1      36.883  33.034  33.900  1.00  0.00     0.104 C 
BRANCH   8   9
ATOM      9  C   UNL A   1      38.108  33.941  34.046  1.00  0.00     0.220 C 
ATOM     10  N   UNL A   1      39.135  33.579  34.856  1.00  0.00    -0.352 N 
ATOM     11  H   UNL A   1      39.838  34.253  35.003  1.00  0.00     0.163 HD
ATOM     12  O   UNL A   1      38.159  35.046  33.504  1.00  0.00    -0.275 OA
BRANCH  10  13
ATOM     13  C   UNL A   1      39.305  32.327  35.517  1.00  0.00     0.151 C 
BRANCH  13  14
ATOM     14  C   UNL A   1      40.090  31.336  34.672  1.00  0.00    -0.028 A 
ATOM     15  C   UNL A   1      44.203  29.849  33.447  1.00  0.00     0.047 C 
ATOM     16  C   UNL A   1      42.715  29.911  33.587  1.00  0.00    -0.015 A 
ATOM     17  C   UNL A   1      41.924  31.187  34.634  1.00  0.00     0.012 A 
ATOM     18  C   UNL A   1      41.678  28.641  32.740  1.00  0.00     0.129 A 
ATOM     19  C   UNL A   1      39.861  28.724  32.902  1.00  0.00    -0.015 A 
ATOM     20  F   UNL A   1      42.256  27.593  32.135  1.00  0.00    -0.206 F 
ATOM     21  C   UNL A   1      39.084  30.108  33.768  1.00  0.00     0.012 A 
ATOM     22  C   UNL A   1      38.988  27.530  32.651  1.00  0.00     0.047 C 
ENDBRANCH  13  14
ENDBRANCH  10  13
ENDBRANCH   8   9
ENDBRANCH   6   8
ENDBRANCH   5   6
ENDBRANCH   3   5
ENDBRANCH   2   3
ENDBRANCH   1   2
BRANCH   1  23
ATOM     23  C   UNL A   1      34.276  32.744  29.260  1.00  0.00     0.275 C 
BRANCH  23  24
ATOM     24  O   UNL A   1      33.887  32.188  27.968  1.00  0.00    -0.458 OA
BRANCH  24  25
ATOM     25  C   UNL A   1      34.400  30.813  27.675  1.00  0.00     0.338 C 
ATOM     26  O   UNL A   1      33.383  30.347  27.121  1.00  0.00    -0.246 OA
BRANCH  25  27
ATOM     27  C   UNL A   1      36.300  29.961  28.189  1.00  0.00     0.060 A 
ATOM     28  C   UNL A   1      37.523  29.817  27.361  1.00  0.00     0.016 A 
ATOM     29  C   UNL A   1      36.772  29.320  29.504  1.00  0.00     0.016 A 
ATOM     30  C   UNL A   1      38.817  29.655  27.754  1.00  0.00     0.010 A 
ATOM     31  C   UNL A   1      38.055  29.066  29.943  1.00  0.00     0.010 A 
ATOM     32  C   UNL A   1      39.047  29.341  29.061  1.00  0.00    -0.014 A 
BRANCH  32  33
ATOM     33  C   UNL A   1      40.416  29.097  29.344  1.00  0.00     0.031 A 
ATOM     34  C   UNL A   1      40.892  27.784  28.880  1.00  0.00     0.074 A 
ATOM     35  C   UNL A   1      41.077  30.205  29.689  1.00  0.00     0.049 A 
ATOM     36  N   UNL A   1      42.103  27.354  28.849  1.00  0.00    -0.248 NA
ATOM     37  C   UNL A   1      39.884  26.832  28.348  1.00  0.00     0.031 C 
ATOM     38  C   UNL A   1      40.451  31.509  29.971  1.00  0.00     0.029 A 
ATOM     39  N   UNL A   1      42.399  30.447  29.764  1.00  0.00    -0.354 N 
ATOM     40  C   UNL A   1      42.011  26.074  28.337  1.00  0.00     0.074 A 
ATOM     41  C   UNL A   1      40.631  25.785  28.052  1.00  0.00     0.031 C 
ATOM     42  C   UNL A   1      41.409  32.429  30.139  1.00  0.00     0.029 A 
ATOM     43  C   UNL A   1      42.690  31.749  30.073  1.00  0.00     0.049 A 
ATOM     44  H   UNL A   1      43.086  29.758  29.612  1.00  0.00     0.167 HD
ATOM     45  C   UNL A   1      43.052  25.244  28.164  1.00  0.00     0.037 A 
ATOM     46  C   UNL A   1      43.896  32.270  30.326  1.00  0.00     0.037 A 
ATOM     47  C   UNL A   1      44.374  25.675  28.522  1.00  0.00     0.049 A 
ATOM     48  C   UNL A   1      45.021  31.282  30.221  1.00  0.00     0.074 A 
ATOM     49  C   UNL A   1      45.547  24.961  28.526  1.00  0.00     0.029 A 
ATOM     50  N   UNL A   1      44.674  26.971  28.957  1.00  0.00    -0.354 N 
ATOM     51  N   UNL A   1      44.963  30.025  29.824  1.00  0.00    -0.248 NA
ATOM     52  C   UNL A   1      46.346  31.735  30.623  1.00  0.00     0.031 C 
ATOM     53  C   UNL A   1      46.544  25.811  29.020  1.00  0.00     0.029 A 
ATOM     54  C   UNL A   1      46.012  27.078  29.254  1.00  0.00     0.049 A 
ATOM     55  H   UNL A   1      44.020  27.702  29.039  1.00  0.00     0.167 HD
ATOM     56  C   UNL A   1      46.240  29.520  29.939  1.00  0.00     0.074 A 
ATOM     57  C   UNL A   1      47.059  30.637  30.403  1.00  0.00     0.031 C 
ATOM     58  C   UNL A   1      46.709  28.265  29.710  1.00  0.00     0.037 A 
BRANCH  45  59
ATOM     59  C   UNL A   1      42.752  23.858  27.698  1.00  0.00     0.058 A 
ATOM     60  C   UNL A   1      42.525  22.799  28.593  1.00  0.00     0.135 A 
ATOM     61  C   UNL A   1      42.743  23.569  26.325  1.00  0.00     0.135 A 
ATOM     62  F   UNL A   1      42.601  23.003  29.919  1.00  0.00    -0.206 F 
ATOM     63  C   UNL A   1      42.275  21.509  28.141  1.00  0.00     0.059 A 
ATOM     64  C   UNL A   1      42.468  22.293  25.850  1.00  0.00     0.059 A 
ATOM     65  F   UNL A   1      43.023  24.531  25.431  1.00  0.00    -0.206 F 
ATOM     66  C   UNL A   1      42.228  21.270  26.767  1.00  0.00     0.060 A 
BRANCH  66  67
ATOM     67  S   UNL A   1      41.821  19.608  26.198  1.00  0.00     0.124 S 
ATOM     68  O   UNL A   1      40.376  19.704  26.010  1.00  0.00    -0.237 OA
ATOM     69  O   UNL A   1      42.613  19.503  24.978  1.00  0.00    -0.237 OA
ATOM     70  O   UNL A   1      42.253  18.754  27.300  1.00  0.00    -0.744 OA
ENDBRANCH  66  67
ENDBRANCH  45  59
BRANCH  46  71
ATOM     71  C   UNL A   1      44.022  33.686  30.738  1.00  0.00     0.058 A 
ATOM     72  C   UNL A   1      44.151  34.039  32.085  1.00  0.00     0.135 A 
ATOM     73  C   UNL A   1      44.124  34.716  29.782  1.00  0.00     0.135 A 
ATOM     74  F   UNL A   1      44.086  33.095  33.036  1.00  0.00    -0.206 F 
ATOM     75  C   UNL A   1      44.360  35.360  32.474  1.00  0.00     0.059 A 
ATOM     76  C   UNL A   1      44.369  36.036  30.142  1.00  0.00     0.059 A 
ATOM     77  F   UNL A   1      44.040  34.434  28.472  1.00  0.00    -0.206 F 
ATOM     78  C   UNL A   1      44.471  36.350  31.494  1.00  0.00     0.060 A 
BRANCH  78  79
ATOM     79  S   UNL A   1      44.750  38.055  32.015  1.00  0.00     0.124 S 
ATOM     80  O   UNL A   1      46.191  38.184  31.826  1.00  0.00    -0.237 OA
ATOM     81  O   UNL A   1      43.912  38.798  31.080  1.00  0.00    -0.237 OA
ATOM     82  O   UNL A   1      44.294  38.063  33.402  1.00  0.00    -0.744 OA
ENDBRANCH  78  79
ENDBRANCH  46  71
BRANCH  58  83
ATOM     83  C   UNL A   1      48.170  28.088  29.941  1.00  0.00     0.058 A 
ATOM     84  C   UNL A   1      48.666  27.714  31.195  1.00  0.00     0.135 A 
ATOM     85  C   UNL A   1      49.059  28.217  28.865  1.00  0.00     0.135 A 
ATOM     86  F   UNL A   1      47.838  27.591  32.245  1.00  0.00    -0.206 F 
ATOM     87  C   UNL A   1      50.018  27.497  31.384  1.00  0.00     0.059 A 
ATOM     88  C   UNL A   1      50.408  27.957  29.020  1.00  0.00     0.059 A 
ATOM     89  F   UNL A   1      48.607  28.555  27.646  1.00  0.00    -0.206 F 
ATOM     90  C   UNL A   1      50.877  27.611  30.287  1.00  0.00     0.060 A 
BRANCH  90  91
ATOM     91  S   UNL A   1      52.626  27.288  30.545  1.00  0.00     0.124 S 
ATOM     92  O   UNL A   1      52.581  26.074  31.352  1.00  0.00    -0.237 OA
ATOM     93  O   UNL A   1      53.111  27.127  29.178  1.00  0.00    -0.237 OA
ATOM     94  O   UNL A   1      53.095  28.485  31.236  1.00  0.00    -0.744 OA
ENDBRANCH  90  91
ENDBRANCH  58  83
ENDBRANCH  32  33
ENDBRANCH  25  27
ENDBRANCH  24  25
ENDBRANCH  23  24
ENDBRANCH   1  23
TORSDOF 19
ENDMDL
