MODEL 1
REMARK VINA RESULT:      -9.0      0.000      0.000
REMARK SMILES CC(C)CN(C)c1cc2c(cc1Cl)C=C(C(=O)OCCOC(=O)c1ccc(-c3c4nc(c(-c5c(F)cc(S(=O)(=O)[O-])cc5F)c5ccc([nH]5)c(-c5c(F)cc(S(=O)(=O)[O-])cc5F)c5nc(c(-c6c(F)cc(S(=O)(=O)[O-])cc6F)c6ccc3[nH]6)C=C5)C=C4)cc1)[C@H](C(F)(F)F)O2
REMARK SMILES IDX 19 1 18 2 16 3 17 4 15 5 7 6 8 7 12 8 9 9 11 10 13 11 10 12
REMARK SMILES IDX 95 13 14 14 90 15 5 16 6 17 4 18 2 19 1 20 3 21 91 22 92 23
REMARK SMILES IDX 93 24 94 25 20 26 21 27 22 28 23 29 24 30 25 31 89 32 26 33
REMARK SMILES IDX 88 34 27 35 28 36 29 37 82 38 30 39 87 40 81 41 83 42 31 43
REMARK SMILES IDX 86 44 80 45 79 46 32 48 66 49 45 50 65 51 46 52 49 53 64 54
REMARK SMILES IDX 84 55 47 56 48 57 63 59 85 60 50 61 33 62 34 63 43 64 35 65
REMARK SMILES IDX 36 66 42 67 44 68 37 69 38 70 39 71 40 72 41 73 67 74 68 75
REMARK SMILES IDX 77 76 69 77 70 78 76 79 78 80 71 81 72 82 73 83 74 84 75 85
REMARK SMILES IDX 51 86 52 87 61 88 53 89 54 90 60 91 62 92 55 93 56 94 57 95
REMARK SMILES IDX 58 96 59 97
REMARK H PARENT 83 47 49 58
REMARK Flexibility Score: inf
ROOT
ATOM      1  C   UNL A   1      40.870  21.064  25.969  1.00  0.00     0.275 C 
ENDROOT
BRANCH   1   2
ATOM      2  O   UNL A   1      41.715  22.155  25.547  1.00  0.00    -0.459 OA
BRANCH   2   3
ATOM      3  C   UNL A   1      43.043  21.961  25.672  1.00  0.00     0.338 C 
ATOM      4  O   UNL A   1      43.660  20.981  25.281  1.00  0.00    -0.246 OA
BRANCH   3   5
ATOM      5  C   UNL A   1      43.711  23.133  26.275  1.00  0.00     0.087 C 
ATOM      6  C   UNL A   1      46.220  27.505  26.736  1.00  0.00     0.059 A 
ATOM      7  C   UNL A   1      45.718  26.551  27.643  1.00  0.00     0.074 A 
ATOM      8  C   UNL A   1      46.041  27.255  25.359  1.00  0.00     0.065 A 
ATOM      9  C   UNL A   1      45.052  25.404  27.198  1.00  0.00     0.130 A 
ATOM     10  C   UNL A   1      45.331  26.137  24.917  1.00  0.00     0.034 A 
ATOM     11  Cl  UNL A   1      46.722  28.277  24.141  1.00  0.00    -0.082 Cl
ATOM     12  C   UNL A   1      44.842  25.209  25.838  1.00  0.00     0.019 A 
ATOM     13  O   UNL A   1      44.610  24.530  28.151  1.00  0.00    -0.475 OA
ATOM     14  C   UNL A   1      44.111  24.048  25.379  1.00  0.00     0.027 C 
ATOM     15  C   UNL A   1      44.087  23.226  27.736  1.00  0.00     0.316 C 
BRANCH   6  16
ATOM     16  N   UNL A   1      46.882  28.647  27.196  1.00  0.00    -0.373 N 
ATOM     17  C   UNL A   1      47.894  28.417  28.216  1.00  0.00     0.143 C 
BRANCH  16  18
ATOM     18  C   UNL A   1      46.131  29.916  27.242  1.00  0.00     0.119 C 
BRANCH  18  19
ATOM     19  C   UNL A   1      44.888  29.826  28.153  1.00  0.00     0.002 C 
ATOM     20  C   UNL A   1      44.811  31.004  29.128  1.00  0.00     0.009 C 
ATOM     21  C   UNL A   1      43.599  29.779  27.326  1.00  0.00     0.009 C 
ENDBRANCH  18  19
ENDBRANCH  16  18
ENDBRANCH   6  16
BRANCH  15  22
ATOM     22  C   UNL A   1      43.025  22.821  28.773  1.00  0.00     0.430 C 
ATOM     23  F   UNL A   1      42.663  21.526  28.683  1.00  0.00    -0.167 F 
ATOM     24  F   UNL A   1      43.440  23.064  30.041  1.00  0.00    -0.167 F 
ATOM     25  F   UNL A   1      41.896  23.564  28.618  1.00  0.00    -0.167 F 
ENDBRANCH  15  22
ENDBRANCH   3   5
ENDBRANCH   2   3
ENDBRANCH   1   2
BRANCH   1  26
ATOM     26  C   UNL A   1      39.398  21.434  25.803  1.00  0.00     0.275 C 
BRANCH  26  27
ATOM     27  O   UNL A   1      39.018  22.428  26.772  1.00  0.00    -0.458 OA
BRANCH  27  28
ATOM     28  C   UNL A   1      38.660  23.628  26.258  1.00  0.00     0.338 C 
ATOM     29  O   UNL A   1      37.923  23.841  25.314  1.00  0.00    -0.246 OA
BRANCH  28  30
ATOM     30  C   UNL A   1      39.240  24.698  27.082  1.00  0.00     0.060 A 
ATOM     31  C   UNL A   1      40.096  25.646  26.532  1.00  0.00     0.016 A 
ATOM     32  C   UNL A   1      38.822  24.809  28.407  1.00  0.00     0.016 A 
ATOM     33  C   UNL A   1      40.553  26.700  27.334  1.00  0.00     0.010 A 
ATOM     34  C   UNL A   1      39.232  25.889  29.188  1.00  0.00     0.010 A 
ATOM     35  C   UNL A   1      40.114  26.843  28.666  1.00  0.00    -0.014 A 
BRANCH  35  36
ATOM     36  C   UNL A   1      40.557  27.997  29.501  1.00  0.00     0.031 A 
ATOM     37  C   UNL A   1      39.671  29.205  29.687  1.00  0.00     0.074 A 
ATOM     38  C   UNL A   1      41.776  27.973  30.079  1.00  0.00     0.049 A 
ATOM     39  N   UNL A   1      39.889  30.289  30.388  1.00  0.00    -0.248 NA
ATOM     40  C   UNL A   1      38.385  29.213  28.970  1.00  0.00     0.031 C 
ATOM     41  C   UNL A   1      42.769  26.907  29.916  1.00  0.00     0.029 A 
ATOM     42  N   UNL A   1      42.386  28.859  30.933  1.00  0.00    -0.354 N 
ATOM     43  C   UNL A   1      38.781  31.105  30.190  1.00  0.00     0.074 A 
ATOM     44  C   UNL A   1      37.918  30.420  29.255  1.00  0.00     0.031 C 
ATOM     45  C   UNL A   1      43.829  27.168  30.696  1.00  0.00     0.029 A 
ATOM     46  C   UNL A   1      43.611  28.432  31.392  1.00  0.00     0.049 A 
ATOM     47  H   UNL A   1      41.984  29.720  31.192  1.00  0.00     0.167 HD
ATOM     48  C   UNL A   1      38.487  32.298  30.763  1.00  0.00     0.037 A 
ATOM     49  C   UNL A   1      44.453  28.984  32.288  1.00  0.00     0.037 A 
ATOM     50  C   UNL A   1      39.319  32.957  31.736  1.00  0.00     0.049 A 
ATOM     51  C   UNL A   1      44.082  30.285  32.947  1.00  0.00     0.074 A 
ATOM     52  C   UNL A   1      39.079  34.140  32.414  1.00  0.00     0.029 A 
ATOM     53  N   UNL A   1      40.542  32.481  32.185  1.00  0.00    -0.354 N 
ATOM     54  N   UNL A   1      43.004  31.013  32.782  1.00  0.00    -0.248 NA
ATOM     55  C   UNL A   1      45.039  30.838  33.915  1.00  0.00     0.031 C 
ATOM     56  C   UNL A   1      40.163  34.388  33.262  1.00  0.00     0.029 A 
ATOM     57  C   UNL A   1      41.064  33.344  33.135  1.00  0.00     0.049 A 
ATOM     58  H   UNL A   1      40.973  31.651  31.877  1.00  0.00     0.167 HD
ATOM     59  C   UNL A   1      43.147  32.100  33.639  1.00  0.00     0.074 A 
ATOM     60  C   UNL A   1      44.405  31.925  34.333  1.00  0.00     0.031 C 
ATOM     61  C   UNL A   1      42.312  33.149  33.827  1.00  0.00     0.037 A 
BRANCH  48  62
ATOM     62  C   UNL A   1      37.183  32.953  30.397  1.00  0.00     0.058 A 
ATOM     63  C   UNL A   1      36.063  32.854  31.238  1.00  0.00     0.135 A 
ATOM     64  C   UNL A   1      37.069  33.749  29.246  1.00  0.00     0.135 A 
ATOM     65  F   UNL A   1      36.113  32.096  32.345  1.00  0.00    -0.206 F 
ATOM     66  C   UNL A   1      34.871  33.507  30.943  1.00  0.00     0.059 A 
ATOM     67  C   UNL A   1      35.893  34.432  28.943  1.00  0.00     0.059 A 
ATOM     68  F   UNL A   1      38.110  33.881  28.409  1.00  0.00    -0.206 F 
ATOM     69  C   UNL A   1      34.797  34.298  29.795  1.00  0.00     0.060 A 
BRANCH  69  70
ATOM     70  S   UNL A   1      33.251  35.165  29.450  1.00  0.00     0.124 S 
ATOM     71  O   UNL A   1      32.663  34.314  28.421  1.00  0.00    -0.237 OA
ATOM     72  O   UNL A   1      32.585  35.140  30.749  1.00  0.00    -0.237 OA
ATOM     73  O   UNL A   1      33.691  36.481  29.000  1.00  0.00    -0.744 OA
ENDBRANCH  69  70
ENDBRANCH  48  62
BRANCH  49  74
ATOM     74  C   UNL A   1      45.705  28.279  32.667  1.00  0.00     0.058 A 
ATOM     75  C   UNL A   1      45.701  27.316  33.690  1.00  0.00     0.135 A 
ATOM     76  C   UNL A   1      46.924  28.546  32.026  1.00  0.00     0.135 A 
ATOM     77  F   UNL A   1      44.560  27.030  34.334  1.00  0.00    -0.206 F 
ATOM     78  C   UNL A   1      46.863  26.658  34.077  1.00  0.00     0.059 A 
ATOM     79  C   UNL A   1      48.096  27.884  32.382  1.00  0.00     0.059 A 
ATOM     80  F   UNL A   1      46.978  29.446  31.033  1.00  0.00    -0.206 F 
ATOM     81  C   UNL A   1      48.056  26.950  33.417  1.00  0.00     0.060 A 
BRANCH  81  82
ATOM     82  S   UNL A   1      49.554  26.065  33.906  1.00  0.00     0.124 S 
ATOM     83  O   UNL A   1      49.221  25.656  35.266  1.00  0.00    -0.237 OA
ATOM     84  O   UNL A   1      49.616  24.995  32.916  1.00  0.00    -0.237 OA
ATOM     85  O   UNL A   1      50.597  27.079  33.788  1.00  0.00    -0.744 OA
ENDBRANCH  81  82
ENDBRANCH  49  74
BRANCH  61  86
ATOM     86  C   UNL A   1      42.714  34.185  34.837  1.00  0.00     0.058 A 
ATOM     87  C   UNL A   1      43.482  35.302  34.472  1.00  0.00     0.135 A 
ATOM     88  C   UNL A   1      42.266  34.099  36.165  1.00  0.00     0.135 A 
ATOM     89  F   UNL A   1      43.938  35.425  33.216  1.00  0.00    -0.206 F 
ATOM     90  C   UNL A   1      43.803  36.293  35.392  1.00  0.00     0.059 A 
ATOM     91  C   UNL A   1      42.558  35.090  37.098  1.00  0.00     0.059 A 
ATOM     92  F   UNL A   1      41.522  33.055  36.562  1.00  0.00    -0.206 F 
ATOM     93  C   UNL A   1      43.332  36.181  36.702  1.00  0.00     0.060 A 
BRANCH  93  94
ATOM     94  S   UNL A   1      43.714  37.501  37.873  1.00  0.00     0.124 S 
ATOM     95  O   UNL A   1      42.445  37.644  38.580  1.00  0.00    -0.237 OA
ATOM     96  O   UNL A   1      44.809  36.925  38.648  1.00  0.00    -0.237 OA
ATOM     97  O   UNL A   1      44.084  38.622  37.015  1.00  0.00    -0.744 OA
ENDBRANCH  93  94
ENDBRANCH  61  86
ENDBRANCH  35  36
ENDBRANCH  28  30
ENDBRANCH  27  28
ENDBRANCH  26  27
ENDBRANCH   1  26
TORSDOF 18
ENDMDL
MODEL 2
REMARK VINA RESULT:      -8.9      5.343     12.129
REMARK SMILES CC(C)CN(C)c1cc2c(cc1Cl)C=C(C(=O)OCCOC(=O)c1ccc(-c3c4nc(c(-c5c(F)cc(S(=O)(=O)[O-])cc5F)c5ccc([nH]5)c(-c5c(F)cc(S(=O)(=O)[O-])cc5F)c5nc(c(-c6c(F)cc(S(=O)(=O)[O-])cc6F)c6ccc3[nH]6)C=C5)C=C4)cc1)[C@H](C(F)(F)F)O2
REMARK SMILES IDX 19 1 18 2 16 3 17 4 15 5 7 6 8 7 12 8 9 9 11 10 13 11 10 12
REMARK SMILES IDX 95 13 14 14 90 15 5 16 6 17 4 18 2 19 1 20 3 21 91 22 92 23
REMARK SMILES IDX 93 24 94 25 20 26 21 27 22 28 23 29 24 30 25 31 89 32 26 33
REMARK SMILES IDX 88 34 27 35 28 36 29 37 82 38 30 39 87 40 81 41 83 42 31 43
REMARK SMILES IDX 86 44 80 45 79 46 32 48 66 49 45 50 65 51 46 52 49 53 64 54
REMARK SMILES IDX 84 55 47 56 48 57 63 59 85 60 50 61 33 62 34 63 43 64 35 65
REMARK SMILES IDX 36 66 42 67 44 68 37 69 38 70 39 71 40 72 41 73 67 74 68 75
REMARK SMILES IDX 77 76 69 77 70 78 76 79 78 80 71 81 72 82 73 83 74 84 75 85
REMARK SMILES IDX 51 86 52 87 61 88 53 89 54 90 60 91 62 92 55 93 56 94 57 95
REMARK SMILES IDX 58 96 59 97
REMARK H PARENT 83 47 49 58
REMARK Flexibility Score: inf
ROOT
ATOM      1  C   UNL A   1      33.060  29.995  27.254  1.00  0.00     0.275 C 
ENDROOT
BRANCH   1   2
ATOM      2  O   UNL A   1      32.814  30.080  25.835  1.00  0.00    -0.459 OA
BRANCH   2   3
ATOM      3  C   UNL A   1      32.021  29.125  25.311  1.00  0.00     0.338 C 
ATOM      4  O   UNL A   1      30.848  29.265  24.997  1.00  0.00    -0.246 OA
BRANCH   3   5
ATOM      5  C   UNL A   1      32.764  27.871  25.067  1.00  0.00     0.087 C 
ATOM      6  C   UNL A   1      34.512  23.153  25.623  1.00  0.00     0.059 A 
ATOM      7  C   UNL A   1      34.751  24.197  24.707  1.00  0.00     0.074 A 
ATOM      8  C   UNL A   1      33.601  23.401  26.670  1.00  0.00     0.065 A 
ATOM      9  C   UNL A   1      34.099  25.429  24.821  1.00  0.00     0.130 A 
ATOM     10  C   UNL A   1      32.911  24.611  26.753  1.00  0.00     0.034 A 
ATOM     11  Cl  UNL A   1      33.318  22.254  27.934  1.00  0.00    -0.082 Cl
ATOM     12  C   UNL A   1      33.165  25.627  25.831  1.00  0.00     0.019 A 
ATOM     13  O   UNL A   1      34.403  26.384  23.892  1.00  0.00    -0.475 OA
ATOM     14  C   UNL A   1      32.454  26.884  25.921  1.00  0.00     0.027 C 
ATOM     15  C   UNL A   1      33.903  27.748  24.081  1.00  0.00     0.316 C 
BRANCH   6  16
ATOM     16  N   UNL A   1      35.172  21.927  25.495  1.00  0.00    -0.373 N 
ATOM     17  C   UNL A   1      36.604  21.956  25.749  1.00  0.00     0.143 C 
BRANCH  16  18
ATOM     18  C   UNL A   1      34.666  20.967  24.497  1.00  0.00     0.119 C 
BRANCH  18  19
ATOM     19  C   UNL A   1      33.537  20.077  25.061  1.00  0.00     0.002 C 
ATOM     20  C   UNL A   1      32.153  20.575  24.635  1.00  0.00     0.009 C 
ATOM     21  C   UNL A   1      33.702  18.622  24.612  1.00  0.00     0.009 C 
ENDBRANCH  18  19
ENDBRANCH  16  18
ENDBRANCH   6  16
BRANCH  15  22
ATOM     22  C   UNL A   1      33.698  28.346  22.677  1.00  0.00     0.430 C 
ATOM     23  F   UNL A   1      34.774  28.202  21.879  1.00  0.00    -0.167 F 
ATOM     24  F   UNL A   1      32.623  27.806  22.051  1.00  0.00    -0.167 F 
ATOM     25  F   UNL A   1      33.434  29.678  22.758  1.00  0.00    -0.167 F 
ENDBRANCH  15  22
ENDBRANCH   3   5
ENDBRANCH   2   3
ENDBRANCH   1   2
BRANCH   1  26
ATOM     26  C   UNL A   1      34.122  31.009  27.672  1.00  0.00     0.275 C 
BRANCH  26  27
ATOM     27  O   UNL A   1      35.422  30.390  27.702  1.00  0.00    -0.458 OA
BRANCH  27  28
ATOM     28  C   UNL A   1      36.136  30.601  28.833  1.00  0.00     0.338 C 
ATOM     29  O   UNL A   1      35.743  31.078  29.880  1.00  0.00    -0.246 OA
BRANCH  28  30
ATOM     30  C   UNL A   1      37.495  30.075  28.649  1.00  0.00     0.060 A 
ATOM     31  C   UNL A   1      37.966  29.723  27.387  1.00  0.00     0.016 A 
ATOM     32  C   UNL A   1      38.345  30.043  29.753  1.00  0.00     0.016 A 
ATOM     33  C   UNL A   1      39.298  29.312  27.246  1.00  0.00     0.010 A 
ATOM     34  C   UNL A   1      39.685  29.688  29.603  1.00  0.00     0.010 A 
ATOM     35  C   UNL A   1      40.177  29.304  28.348  1.00  0.00    -0.014 A 
BRANCH  35  36
ATOM     36  C   UNL A   1      41.609  28.921  28.186  1.00  0.00     0.031 A 
ATOM     37  C   UNL A   1      41.998  27.498  27.861  1.00  0.00     0.074 A 
ATOM     38  C   UNL A   1      42.572  29.850  28.354  1.00  0.00     0.049 A 
ATOM     39  N   UNL A   1      43.191  26.992  27.671  1.00  0.00    -0.248 NA
ATOM     40  C   UNL A   1      40.913  26.509  27.766  1.00  0.00     0.031 C 
ATOM     41  C   UNL A   1      42.344  31.243  28.751  1.00  0.00     0.029 A 
ATOM     42  N   UNL A   1      43.935  29.774  28.199  1.00  0.00    -0.354 N 
ATOM     43  C   UNL A   1      43.000  25.633  27.445  1.00  0.00     0.074 A 
ATOM     44  C   UNL A   1      41.583  25.380  27.582  1.00  0.00     0.031 C 
ATOM     45  C   UNL A   1      43.513  31.902  28.741  1.00  0.00     0.029 A 
ATOM     46  C   UNL A   1      44.579  30.978  28.369  1.00  0.00     0.049 A 
ATOM     47  H   UNL A   1      44.406  28.936  27.986  1.00  0.00     0.167 HD
ATOM     48  C   UNL A   1      43.914  24.687  27.115  1.00  0.00     0.037 A 
ATOM     49  C   UNL A   1      45.878  31.306  28.221  1.00  0.00     0.037 A 
ATOM     50  C   UNL A   1      45.317  24.947  26.925  1.00  0.00     0.049 A 
ATOM     51  C   UNL A   1      46.865  30.249  27.806  1.00  0.00     0.074 A 
ATOM     52  C   UNL A   1      46.310  24.064  26.536  1.00  0.00     0.029 A 
ATOM     53  N   UNL A   1      45.923  26.183  27.090  1.00  0.00    -0.354 N 
ATOM     54  N   UNL A   1      46.653  28.981  27.548  1.00  0.00    -0.248 NA
ATOM     55  C   UNL A   1      48.267  30.666  27.660  1.00  0.00     0.031 C 
ATOM     56  C   UNL A   1      47.521  24.762  26.480  1.00  0.00     0.029 A 
ATOM     57  C   UNL A   1      47.276  26.086  26.805  1.00  0.00     0.049 A 
ATOM     58  H   UNL A   1      45.461  27.007  27.366  1.00  0.00     0.167 HD
ATOM     59  C   UNL A   1      47.891  28.455  27.192  1.00  0.00     0.074 A 
ATOM     60  C   UNL A   1      48.842  29.544  27.250  1.00  0.00     0.031 C 
ATOM     61  C   UNL A   1      48.209  27.183  26.854  1.00  0.00     0.037 A 
BRANCH  48  62
ATOM     62  C   UNL A   1      43.422  23.284  26.883  1.00  0.00     0.058 A 
ATOM     63  C   UNL A   1      43.371  22.740  25.590  1.00  0.00     0.135 A 
ATOM     64  C   UNL A   1      43.075  22.450  27.958  1.00  0.00     0.135 A 
ATOM     65  F   UNL A   1      43.680  23.497  24.525  1.00  0.00    -0.206 F 
ATOM     66  C   UNL A   1      42.980  21.424  25.368  1.00  0.00     0.059 A 
ATOM     67  C   UNL A   1      42.703  21.122  27.762  1.00  0.00     0.059 A 
ATOM     68  F   UNL A   1      43.110  22.918  29.216  1.00  0.00    -0.206 F 
ATOM     69  C   UNL A   1      42.652  20.621  26.462  1.00  0.00     0.060 A 
BRANCH  69  70
ATOM     70  S   UNL A   1      42.180  18.905  26.154  1.00  0.00     0.124 S 
ATOM     71  O   UNL A   1      43.113  18.532  25.095  1.00  0.00    -0.237 OA
ATOM     72  O   UNL A   1      42.413  18.281  27.452  1.00  0.00    -0.237 OA
ATOM     73  O   UNL A   1      40.781  19.003  25.751  1.00  0.00    -0.744 OA
ENDBRANCH  69  70
ENDBRANCH  48  62
BRANCH  49  74
ATOM     74  C   UNL A   1      46.317  32.715  28.402  1.00  0.00     0.058 A 
ATOM     75  C   UNL A   1      46.309  33.610  27.320  1.00  0.00     0.135 A 
ATOM     76  C   UNL A   1      46.750  33.197  29.646  1.00  0.00     0.135 A 
ATOM     77  F   UNL A   1      45.907  33.193  26.110  1.00  0.00    -0.206 F 
ATOM     78  C   UNL A   1      46.734  34.926  27.459  1.00  0.00     0.059 A 
ATOM     79  C   UNL A   1      47.160  34.517  29.815  1.00  0.00     0.059 A 
ATOM     80  F   UNL A   1      46.761  32.386  30.714  1.00  0.00    -0.206 F 
ATOM     81  C   UNL A   1      47.159  35.370  28.711  1.00  0.00     0.060 A 
BRANCH  81  82
ATOM     82  S   UNL A   1      47.678  37.092  28.888  1.00  0.00     0.124 S 
ATOM     83  O   UNL A   1      47.742  37.230  30.339  1.00  0.00    -0.237 OA
ATOM     84  O   UNL A   1      48.959  37.101  28.190  1.00  0.00    -0.237 OA
ATOM     85  O   UNL A   1      46.608  37.834  28.229  1.00  0.00    -0.744 OA
ENDBRANCH  81  82
ENDBRANCH  49  74
BRANCH  61  86
ATOM     86  C   UNL A   1      49.639  26.894  26.499  1.00  0.00     0.058 A 
ATOM     87  C   UNL A   1      50.549  26.426  27.458  1.00  0.00     0.135 A 
ATOM     88  C   UNL A   1      50.083  27.015  25.172  1.00  0.00     0.135 A 
ATOM     89  F   UNL A   1      50.173  26.300  28.740  1.00  0.00    -0.206 F 
ATOM     90  C   UNL A   1      51.857  26.100  27.118  1.00  0.00     0.059 A 
ATOM     91  C   UNL A   1      51.381  26.674  24.805  1.00  0.00     0.059 A 
ATOM     92  F   UNL A   1      49.247  27.450  24.216  1.00  0.00    -0.206 F 
ATOM     93  C   UNL A   1      52.263  26.223  25.787  1.00  0.00     0.060 A 
BRANCH  93  94
ATOM     94  S   UNL A   1      53.949  25.747  25.350  1.00  0.00     0.124 S 
ATOM     95  O   UNL A   1      53.876  25.708  23.893  1.00  0.00    -0.237 OA
ATOM     96  O   UNL A   1      54.738  26.838  25.916  1.00  0.00    -0.237 OA
ATOM     97  O   UNL A   1      54.119  24.454  26.005  1.00  0.00    -0.744 OA
ENDBRANCH  93  94
ENDBRANCH  61  86
ENDBRANCH  35  36
ENDBRANCH  28  30
ENDBRANCH  27  28
ENDBRANCH  26  27
ENDBRANCH   1  26
TORSDOF 18
ENDMDL
MODEL 3
REMARK VINA RESULT:      -8.9      5.122     11.949
REMARK SMILES CC(C)CN(C)c1cc2c(cc1Cl)C=C(C(=O)OCCOC(=O)c1ccc(-c3c4nc(c(-c5c(F)cc(S(=O)(=O)[O-])cc5F)c5ccc([nH]5)c(-c5c(F)cc(S(=O)(=O)[O-])cc5F)c5nc(c(-c6c(F)cc(S(=O)(=O)[O-])cc6F)c6ccc3[nH]6)C=C5)C=C4)cc1)[C@H](C(F)(F)F)O2
REMARK SMILES IDX 19 1 18 2 16 3 17 4 15 5 7 6 8 7 12 8 9 9 11 10 13 11 10 12
REMARK SMILES IDX 95 13 14 14 90 15 5 16 6 17 4 18 2 19 1 20 3 21 91 22 92 23
REMARK SMILES IDX 93 24 94 25 20 26 21 27 22 28 23 29 24 30 25 31 89 32 26 33
REMARK SMILES IDX 88 34 27 35 28 36 29 37 82 38 30 39 87 40 81 41 83 42 31 43
REMARK SMILES IDX 86 44 80 45 79 46 32 48 66 49 45 50 65 51 46 52 49 53 64 54
REMARK SMILES IDX 84 55 47 56 48 57 63 59 85 60 50 61 33 62 34 63 43 64 35 65
REMARK SMILES IDX 36 66 42 67 44 68 37 69 38 70 39 71 40 72 41 73 67 74 68 75
REMARK SMILES IDX 77 76 69 77 70 78 76 79 78 80 71 81 72 82 73 83 74 84 75 85
REMARK SMILES IDX 51 86 52 87 61 88 53 89 54 90 60 91 62 92 55 93 56 94 57 95
REMARK SMILES IDX 58 96 59 97
REMARK H PARENT 83 47 49 58
REMARK Flexibility Score: inf
ROOT
ATOM      1  C   UNL A   1      34.745  33.358  30.393  1.00  0.00     0.275 C 
ENDROOT
BRANCH   1   2
ATOM      2  O   UNL A   1      34.182  32.285  29.609  1.00  0.00    -0.459 OA
BRANCH   2   3
ATOM      3  C   UNL A   1      34.296  32.402  28.272  1.00  0.00     0.338 C 
ATOM      4  O   UNL A   1      34.570  33.429  27.668  1.00  0.00    -0.246 OA
BRANCH   3   5
ATOM      5  C   UNL A   1      34.137  31.099  27.594  1.00  0.00     0.087 C 
ATOM      6  C   UNL A   1      32.210  27.389  24.740  1.00  0.00     0.059 A 
ATOM      7  C   UNL A   1      33.344  27.516  25.566  1.00  0.00     0.074 A 
ATOM      8  C   UNL A   1      31.346  28.500  24.642  1.00  0.00     0.065 A 
ATOM      9  C   UNL A   1      33.615  28.705  26.252  1.00  0.00     0.130 A 
ATOM     10  C   UNL A   1      31.645  29.703  25.285  1.00  0.00     0.034 A 
ATOM     11  Cl  UNL A   1      29.854  28.432  23.769  1.00  0.00    -0.082 Cl
ATOM     12  C   UNL A   1      32.777  29.802  26.094  1.00  0.00     0.019 A 
ATOM     13  O   UNL A   1      34.733  28.730  27.037  1.00  0.00    -0.475 OA
ATOM     14  C   UNL A   1      33.083  31.047  26.765  1.00  0.00     0.027 C 
ATOM     15  C   UNL A   1      34.955  29.873  27.927  1.00  0.00     0.316 C 
BRANCH   6  16
ATOM     16  N   UNL A   1      31.953  26.195  24.060  1.00  0.00    -0.373 N 
ATOM     17  C   UNL A   1      31.104  25.243  24.762  1.00  0.00     0.143 C 
BRANCH  16  18
ATOM     18  C   UNL A   1      33.002  25.661  23.172  1.00  0.00     0.119 C 
BRANCH  18  19
ATOM     19  C   UNL A   1      33.471  24.254  23.602  1.00  0.00     0.002 C 
ATOM     20  C   UNL A   1      33.653  23.323  22.400  1.00  0.00     0.009 C 
ATOM     21  C   UNL A   1      34.789  24.324  24.381  1.00  0.00     0.009 C 
ENDBRANCH  18  19
ENDBRANCH  16  18
ENDBRANCH   6  16
BRANCH  15  22
ATOM     22  C   UNL A   1      36.478  30.046  28.060  1.00  0.00     0.430 C 
ATOM     23  F   UNL A   1      37.004  29.339  29.080  1.00  0.00    -0.167 F 
ATOM     24  F   UNL A   1      37.126  29.703  26.919  1.00  0.00    -0.167 F 
ATOM     25  F   UNL A   1      36.795  31.352  28.272  1.00  0.00    -0.167 F 
ENDBRANCH  15  22
ENDBRANCH   3   5
ENDBRANCH   2   3
ENDBRANCH   1   2
BRANCH   1  26
ATOM     26  C   UNL A   1      35.464  32.802  31.620  1.00  0.00     0.275 C 
BRANCH  26  27
ATOM     27  O   UNL A   1      36.806  32.411  31.280  1.00  0.00    -0.458 OA
BRANCH  27  28
ATOM     28  C   UNL A   1      37.302  31.371  31.993  1.00  0.00     0.338 C 
ATOM     29  O   UNL A   1      36.763  30.771  32.904  1.00  0.00    -0.246 OA
BRANCH  28  30
ATOM     30  C   UNL A   1      38.608  30.987  31.440  1.00  0.00     0.060 A 
ATOM     31  C   UNL A   1      39.419  30.060  32.087  1.00  0.00     0.016 A 
ATOM     32  C   UNL A   1      38.968  31.489  30.190  1.00  0.00     0.016 A 
ATOM     33  C   UNL A   1      40.614  29.656  31.478  1.00  0.00     0.010 A 
ATOM     34  C   UNL A   1      40.129  31.044  29.559  1.00  0.00     0.010 A 
ATOM     35  C   UNL A   1      40.976  30.131  30.201  1.00  0.00    -0.014 A 
BRANCH  35  36
ATOM     36  C   UNL A   1      42.221  29.657  29.529  1.00  0.00     0.031 A 
ATOM     37  C   UNL A   1      43.437  30.547  29.434  1.00  0.00     0.074 A 
ATOM     38  C   UNL A   1      42.254  28.426  28.978  1.00  0.00     0.049 A 
ATOM     39  N   UNL A   1      44.606  30.293  28.900  1.00  0.00    -0.248 NA
ATOM     40  C   UNL A   1      43.320  31.908  29.983  1.00  0.00     0.031 C 
ATOM     41  C   UNL A   1      41.125  27.493  28.923  1.00  0.00     0.029 A 
ATOM     42  N   UNL A   1      43.277  27.738  28.372  1.00  0.00    -0.354 N 
ATOM     43  C   UNL A   1      45.353  31.457  29.039  1.00  0.00     0.074 A 
ATOM     44  C   UNL A   1      44.488  32.440  29.653  1.00  0.00     0.031 C 
ATOM     45  C   UNL A   1      41.535  26.336  28.381  1.00  0.00     0.029 A 
ATOM     46  C   UNL A   1      42.944  26.450  28.020  1.00  0.00     0.049 A 
ATOM     47  H   UNL A   1      44.165  28.130  28.205  1.00  0.00     0.167 HD
ATOM     48  C   UNL A   1      46.652  31.680  28.722  1.00  0.00     0.037 A 
ATOM     49  C   UNL A   1      43.694  25.465  27.487  1.00  0.00     0.037 A 
ATOM     50  C   UNL A   1      47.531  30.687  28.161  1.00  0.00     0.049 A 
ATOM     51  C   UNL A   1      45.147  25.721  27.189  1.00  0.00     0.074 A 
ATOM     52  C   UNL A   1      48.877  30.801  27.858  1.00  0.00     0.029 A 
ATOM     53  N   UNL A   1      47.158  29.391  27.837  1.00  0.00    -0.354 N 
ATOM     54  N   UNL A   1      45.845  26.815  27.377  1.00  0.00    -0.248 NA
ATOM     55  C   UNL A   1      45.914  24.609  26.609  1.00  0.00     0.031 C 
ATOM     56  C   UNL A   1      49.315  29.580  27.336  1.00  0.00     0.029 A 
ATOM     57  C   UNL A   1      48.250  28.696  27.343  1.00  0.00     0.049 A 
ATOM     58  H   UNL A   1      46.252  29.020  27.945  1.00  0.00     0.167 HD
ATOM     59  C   UNL A   1      47.137  26.516  26.955  1.00  0.00     0.074 A 
ATOM     60  C   UNL A   1      47.128  25.136  26.520  1.00  0.00     0.031 C 
ATOM     61  C   UNL A   1      48.228  27.317  26.926  1.00  0.00     0.037 A 
BRANCH  48  62
ATOM     62  C   UNL A   1      47.228  33.037  29.022  1.00  0.00     0.058 A 
ATOM     63  C   UNL A   1      47.872  33.296  30.242  1.00  0.00     0.135 A 
ATOM     64  C   UNL A   1      47.210  34.061  28.061  1.00  0.00     0.135 A 
ATOM     65  F   UNL A   1      47.908  32.356  31.201  1.00  0.00    -0.206 F 
ATOM     66  C   UNL A   1      48.465  34.526  30.507  1.00  0.00     0.059 A 
ATOM     67  C   UNL A   1      47.818  35.293  28.295  1.00  0.00     0.059 A 
ATOM     68  F   UNL A   1      46.611  33.866  26.876  1.00  0.00    -0.206 F 
ATOM     69  C   UNL A   1      48.436  35.517  29.524  1.00  0.00     0.060 A 
BRANCH  69  70
ATOM     70  S   UNL A   1      49.242  37.094  29.876  1.00  0.00     0.124 S 
ATOM     71  O   UNL A   1      49.809  36.844  31.197  1.00  0.00    -0.237 OA
ATOM     72  O   UNL A   1      50.205  37.201  28.784  1.00  0.00    -0.237 OA
ATOM     73  O   UNL A   1      48.144  38.055  29.835  1.00  0.00    -0.744 OA
ENDBRANCH  69  70
ENDBRANCH  48  62
BRANCH  49  74
ATOM     74  C   UNL A   1      43.105  24.119  27.259  1.00  0.00     0.058 A 
ATOM     75  C   UNL A   1      42.638  23.751  25.986  1.00  0.00     0.135 A 
ATOM     76  C   UNL A   1      42.995  23.179  28.293  1.00  0.00     0.135 A 
ATOM     77  F   UNL A   1      42.720  24.620  24.967  1.00  0.00    -0.206 F 
ATOM     78  C   UNL A   1      42.065  22.507  25.751  1.00  0.00     0.059 A 
ATOM     79  C   UNL A   1      42.443  21.918  28.077  1.00  0.00     0.059 A 
ATOM     80  F   UNL A   1      43.440  23.476  29.523  1.00  0.00    -0.206 F 
ATOM     81  C   UNL A   1      41.971  21.597  26.805  1.00  0.00     0.060 A 
BRANCH  81  82
ATOM     82  S   UNL A   1      41.254  19.970  26.481  1.00  0.00     0.124 S 
ATOM     83  O   UNL A   1      41.448  19.305  27.764  1.00  0.00    -0.237 OA
ATOM     84  O   UNL A   1      39.875  20.305  26.137  1.00  0.00    -0.237 OA
ATOM     85  O   UNL A   1      42.061  19.462  25.376  1.00  0.00    -0.744 OA
ENDBRANCH  81  82
ENDBRANCH  49  74
BRANCH  61  86
ATOM     86  C   UNL A   1      49.514  26.723  26.428  1.00  0.00     0.058 A 
ATOM     87  C   UNL A   1      49.919  26.872  25.093  1.00  0.00     0.135 A 
ATOM     88  C   UNL A   1      50.384  26.062  27.311  1.00  0.00     0.135 A 
ATOM     89  F   UNL A   1      49.119  27.491  24.211  1.00  0.00    -0.206 F 
ATOM     90  C   UNL A   1      51.138  26.376  24.645  1.00  0.00     0.059 A 
ATOM     91  C   UNL A   1      51.618  25.576  26.889  1.00  0.00     0.059 A 
ATOM     92  F   UNL A   1      50.047  25.901  28.600  1.00  0.00    -0.206 F 
ATOM     93  C   UNL A   1      51.983  25.733  25.552  1.00  0.00     0.060 A 
BRANCH  93  94
ATOM     94  S   UNL A   1      53.585  25.138  24.967  1.00  0.00     0.124 S 
ATOM     95  O   UNL A   1      53.551  25.532  23.562  1.00  0.00    -0.237 OA
ATOM     96  O   UNL A   1      54.519  25.879  25.810  1.00  0.00    -0.237 OA
ATOM     97  O   UNL A   1      53.528  23.702  25.219  1.00  0.00    -0.744 OA
ENDBRANCH  93  94
ENDBRANCH  61  86
ENDBRANCH  35  36
ENDBRANCH  28  30
ENDBRANCH  27  28
ENDBRANCH  26  27
ENDBRANCH   1  26
TORSDOF 18
ENDMDL
