MODEL 1
REMARK VINA RESULT:     -10.1      0.000      0.000
REMARK SMILES CC[NH2+]C(C)(C)C(=O)N[C@@](C)(C(=O)OCCOC(=O)c1ccc(-c2c3nc(c(-c4c(F)cc(S(=O)(=O)[O-])cc4F)c4ccc([nH]4)c(-c4c(F)cc(S(=O)(=O)[O-])cc4F)c4nc(c(-c5c(F)cc(S(=O)(=O)[O-])cc5F)c5ccc2[nH]5)C=C4)C=C3)cc1)C(F)(F)F
REMARK SMILES IDX 15 1 14 2 12 3 13 4 10 5 11 6 9 7 7 8 8 9 4 11 5 12 6 13
REMARK SMILES IDX 3 14 2 17 1 18 86 19 87 20 88 21 89 22 16 23 17 24 18 25
REMARK SMILES IDX 19 26 20 27 21 28 85 29 22 30 84 31 23 32 24 33 25 34 78 35
REMARK SMILES IDX 26 36 83 37 77 38 79 39 27 40 82 41 76 42 75 43 28 45 62 46
REMARK SMILES IDX 41 47 61 48 42 49 45 50 60 51 80 52 43 53 44 54 59 56 81 57
REMARK SMILES IDX 46 58 29 59 30 60 39 61 31 62 32 63 38 64 40 65 33 66 34 67
REMARK SMILES IDX 35 68 36 69 37 70 63 71 64 72 73 73 65 74 66 75 72 76 74 77
REMARK SMILES IDX 67 78 68 79 69 80 70 81 71 82 47 83 48 84 57 85 49 86 50 87
REMARK SMILES IDX 56 88 58 89 51 90 52 91 53 92 54 93 55 94
REMARK H PARENT 9 10 3 15 3 16 79 44 45 55
REMARK Flexibility Score: inf
ROOT
ATOM      1  C   UNL A   1      32.141  30.350  26.379  1.00  0.00     0.274 C 
ENDROOT
BRANCH   1   2
ATOM      2  O   UNL A   1      32.138  29.014  25.826  1.00  0.00    -0.460 OA
BRANCH   2   3
ATOM      3  C   UNL A   1      31.377  28.838  24.698  1.00  0.00     0.341 C 
ATOM      4  O   UNL A   1      30.610  29.691  24.271  1.00  0.00    -0.249 OA
BRANCH   3   5
ATOM      5  C   UNL A   1      31.416  27.381  24.216  1.00  0.00     0.231 C 
ATOM      6  C   UNL A   1      30.350  27.324  23.089  1.00  0.00     0.058 C 
BRANCH   5   7
ATOM      7  N   UNL A   1      30.897  26.423  25.281  1.00  0.00    -0.328 N 
ATOM      8  C   UNL A   1      30.880  25.117  25.657  1.00  0.00     0.281 C 
ATOM      9  O   UNL A   1      30.439  24.968  26.806  1.00  0.00    -0.268 OA
ATOM     10  H   UNL A   1      30.384  26.943  25.942  1.00  0.00     0.165 HD
BRANCH   8  11
ATOM     11  C   UNL A   1      31.347  23.900  24.793  1.00  0.00     0.169 C 
ATOM     12  C   UNL A   1      30.666  23.974  23.431  1.00  0.00     0.090 C 
ATOM     13  C   UNL A   1      31.027  22.589  25.537  1.00  0.00     0.090 C 
BRANCH  11  14
ATOM     14  N   UNL A   1      32.832  23.847  24.618  1.00  0.00    -0.334 N 
ATOM     15  H   UNL A   1      33.176  24.807  24.658  1.00  0.00     0.347 HD
ATOM     16  H   UNL A   1      33.154  23.230  25.364  1.00  0.00     0.347 HD
BRANCH  14  17
ATOM     17  C   UNL A   1      33.359  23.245  23.393  1.00  0.00     0.257 C 
ATOM     18  C   UNL A   1      34.870  23.083  23.536  1.00  0.00     0.071 C 
ENDBRANCH  14  17
ENDBRANCH  11  14
ENDBRANCH   8  11
ENDBRANCH   5   7
BRANCH   5  19
ATOM     19  C   UNL A   1      32.773  27.174  23.517  1.00  0.00     0.422 C 
ATOM     20  F   UNL A   1      33.734  26.706  24.330  1.00  0.00    -0.168 F 
ATOM     21  F   UNL A   1      32.653  26.309  22.480  1.00  0.00    -0.168 F 
ATOM     22  F   UNL A   1      33.247  28.319  22.968  1.00  0.00    -0.168 F 
ENDBRANCH   5  19
ENDBRANCH   3   5
ENDBRANCH   2   3
ENDBRANCH   1   2
BRANCH   1  23
ATOM     23  C   UNL A   1      33.550  30.782  26.765  1.00  0.00     0.275 C 
BRANCH  23  24
ATOM     24  O   UNL A   1      33.910  30.142  27.998  1.00  0.00    -0.458 OA
BRANCH  24  25
ATOM     25  C   UNL A   1      34.769  30.830  28.783  1.00  0.00     0.338 C 
ATOM     26  O   UNL A   1      34.511  31.827  29.441  1.00  0.00    -0.246 OA
BRANCH  25  27
ATOM     27  C   UNL A   1      36.096  30.177  28.785  1.00  0.00     0.060 A 
ATOM     28  C   UNL A   1      36.667  29.701  29.965  1.00  0.00     0.016 A 
ATOM     29  C   UNL A   1      36.842  30.163  27.605  1.00  0.00     0.016 A 
ATOM     30  C   UNL A   1      38.015  29.339  29.992  1.00  0.00     0.010 A 
ATOM     31  C   UNL A   1      38.158  29.689  27.614  1.00  0.00     0.010 A 
ATOM     32  C   UNL A   1      38.782  29.317  28.818  1.00  0.00    -0.014 A 
BRANCH  32  33
ATOM     33  C   UNL A   1      40.232  28.960  28.841  1.00  0.00     0.031 A 
ATOM     34  C   UNL A   1      41.265  30.001  29.204  1.00  0.00     0.074 A 
ATOM     35  C   UNL A   1      40.647  27.711  28.543  1.00  0.00     0.049 A 
ATOM     36  N   UNL A   1      42.559  29.988  29.003  1.00  0.00    -0.248 NA
ATOM     37  C   UNL A   1      40.778  31.227  29.858  1.00  0.00     0.031 C 
ATOM     38  C   UNL A   1      39.780  26.575  28.220  1.00  0.00     0.029 A 
ATOM     39  N   UNL A   1      41.914  27.184  28.464  1.00  0.00    -0.354 N 
ATOM     40  C   UNL A   1      43.026  31.227  29.428  1.00  0.00     0.074 A 
ATOM     41  C   UNL A   1      41.880  31.962  29.918  1.00  0.00     0.031 C 
ATOM     42  C   UNL A   1      40.531  25.483  28.026  1.00  0.00     0.029 A 
ATOM     43  C   UNL A   1      41.938  25.859  28.098  1.00  0.00     0.049 A 
ATOM     44  H   UNL A   1      42.728  27.707  28.651  1.00  0.00     0.167 HD
ATOM     45  C   UNL A   1      44.293  31.708  29.400  1.00  0.00     0.037 A 
ATOM     46  C   UNL A   1      42.966  25.043  27.794  1.00  0.00     0.037 A 
ATOM     47  C   UNL A   1      45.441  30.944  28.984  1.00  0.00     0.049 A 
ATOM     48  C   UNL A   1      44.364  25.588  27.793  1.00  0.00     0.074 A 
ATOM     49  C   UNL A   1      46.762  31.350  28.889  1.00  0.00     0.029 A 
ATOM     50  N   UNL A   1      45.413  29.603  28.634  1.00  0.00    -0.354 N 
ATOM     51  N   UNL A   1      44.772  26.805  28.060  1.00  0.00    -0.248 NA
ATOM     52  C   UNL A   1      45.439  24.659  27.417  1.00  0.00     0.031 C 
ATOM     53  C   UNL A   1      47.531  30.256  28.477  1.00  0.00     0.029 A 
ATOM     54  C   UNL A   1      46.692  29.163  28.340  1.00  0.00     0.049 A 
ATOM     55  H   UNL A   1      44.602  29.045  28.600  1.00  0.00     0.167 HD
ATOM     56  C   UNL A   1      46.148  26.791  27.870  1.00  0.00     0.074 A 
ATOM     57  C   UNL A   1      46.508  25.438  27.501  1.00  0.00     0.031 C 
ATOM     58  C   UNL A   1      47.032  27.813  27.974  1.00  0.00     0.037 A 
BRANCH  45  59
ATOM     59  C   UNL A   1      44.513  33.139  29.805  1.00  0.00     0.058 A 
ATOM     60  C   UNL A   1      44.903  33.492  31.105  1.00  0.00     0.135 A 
ATOM     61  C   UNL A   1      44.393  34.166  28.853  1.00  0.00     0.135 A 
ATOM     62  F   UNL A   1      45.012  32.551  32.056  1.00  0.00    -0.206 F 
ATOM     63  C   UNL A   1      45.161  34.816  31.451  1.00  0.00     0.059 A 
ATOM     64  C   UNL A   1      44.665  35.494  29.172  1.00  0.00     0.059 A 
ATOM     65  F   UNL A   1      44.021  33.881  27.595  1.00  0.00    -0.206 F 
ATOM     66  C   UNL A   1      45.039  35.809  30.476  1.00  0.00     0.060 A 
BRANCH  66  67
ATOM     67  S   UNL A   1      45.405  37.520  30.927  1.00  0.00     0.124 S 
ATOM     68  O   UNL A   1      45.826  37.369  32.316  1.00  0.00    -0.237 OA
ATOM     69  O   UNL A   1      46.458  37.878  29.982  1.00  0.00    -0.237 OA
ATOM     70  O   UNL A   1      44.132  38.203  30.728  1.00  0.00    -0.744 OA
ENDBRANCH  66  67
ENDBRANCH  45  59
BRANCH  46  71
ATOM     71  C   UNL A   1      42.696  23.640  27.389  1.00  0.00     0.058 A 
ATOM     72  C   UNL A   1      42.600  23.281  26.037  1.00  0.00     0.135 A 
ATOM     73  C   UNL A   1      42.555  22.625  28.348  1.00  0.00     0.135 A 
ATOM     74  F   UNL A   1      42.715  24.220  25.085  1.00  0.00    -0.206 F 
ATOM     75  C   UNL A   1      42.372  21.966  25.648  1.00  0.00     0.059 A 
ATOM     76  C   UNL A   1      42.353  21.299  27.985  1.00  0.00     0.059 A 
ATOM     77  F   UNL A   1      42.653  22.917  29.655  1.00  0.00    -0.206 F 
ATOM     78  C   UNL A   1      42.253  20.980  26.631  1.00  0.00     0.060 A 
BRANCH  78  79
ATOM     79  S   UNL A   1      42.029  19.259  26.132  1.00  0.00     0.124 S 
ATOM     80  O   UNL A   1      42.429  18.550  27.341  1.00  0.00    -0.237 OA
ATOM     81  O   UNL A   1      40.608  19.208  25.803  1.00  0.00    -0.237 OA
ATOM     82  O   UNL A   1      42.931  19.129  24.992  1.00  0.00    -0.744 OA
ENDBRANCH  78  79
ENDBRANCH  46  71
BRANCH  58  83
ATOM     83  C   UNL A   1      48.472  27.498  27.696  1.00  0.00     0.058 A 
ATOM     84  C   UNL A   1      49.023  27.679  26.419  1.00  0.00     0.135 A 
ATOM     85  C   UNL A   1      49.312  27.032  28.718  1.00  0.00     0.135 A 
ATOM     86  F   UNL A   1      48.254  28.117  25.407  1.00  0.00    -0.206 F 
ATOM     87  C   UNL A   1      50.356  27.386  26.156  1.00  0.00     0.059 A 
ATOM     88  C   UNL A   1      50.653  26.748  28.483  1.00  0.00     0.059 A 
ATOM     89  F   UNL A   1      48.830  26.848  29.957  1.00  0.00    -0.206 F 
ATOM     90  C   UNL A   1      51.162  26.916  27.195  1.00  0.00     0.060 A 
BRANCH  90  91
ATOM     91  S   UNL A   1      52.897  26.550  26.852  1.00  0.00     0.124 S 
ATOM     92  O   UNL A   1      53.550  27.085  28.042  1.00  0.00    -0.237 OA
ATOM     93  O   UNL A   1      52.896  25.096  26.729  1.00  0.00    -0.237 OA
ATOM     94  O   UNL A   1      53.156  27.277  25.613  1.00  0.00    -0.744 OA
ENDBRANCH  90  91
ENDBRANCH  58  83
ENDBRANCH  32  33
ENDBRANCH  25  27
ENDBRANCH  24  25
ENDBRANCH  23  24
ENDBRANCH   1  23
TORSDOF 19
ENDMDL
MODEL 2
REMARK VINA RESULT:     -10.1      5.426     11.866
REMARK SMILES CC[NH2+]C(C)(C)C(=O)N[C@@](C)(C(=O)OCCOC(=O)c1ccc(-c2c3nc(c(-c4c(F)cc(S(=O)(=O)[O-])cc4F)c4ccc([nH]4)c(-c4c(F)cc(S(=O)(=O)[O-])cc4F)c4nc(c(-c5c(F)cc(S(=O)(=O)[O-])cc5F)c5ccc2[nH]5)C=C4)C=C3)cc1)C(F)(F)F
REMARK SMILES IDX 15 1 14 2 12 3 13 4 10 5 11 6 9 7 7 8 8 9 4 11 5 12 6 13
REMARK SMILES IDX 3 14 2 17 1 18 86 19 87 20 88 21 89 22 16 23 17 24 18 25
REMARK SMILES IDX 19 26 20 27 21 28 85 29 22 30 84 31 23 32 24 33 25 34 78 35
REMARK SMILES IDX 26 36 83 37 77 38 79 39 27 40 82 41 76 42 75 43 28 45 62 46
REMARK SMILES IDX 41 47 61 48 42 49 45 50 60 51 80 52 43 53 44 54 59 56 81 57
REMARK SMILES IDX 46 58 29 59 30 60 39 61 31 62 32 63 38 64 40 65 33 66 34 67
REMARK SMILES IDX 35 68 36 69 37 70 63 71 64 72 73 73 65 74 66 75 72 76 74 77
REMARK SMILES IDX 67 78 68 79 69 80 70 81 71 82 47 83 48 84 57 85 49 86 50 87
REMARK SMILES IDX 56 88 58 89 51 90 52 91 53 92 54 93 55 94
REMARK H PARENT 9 10 3 15 3 16 79 44 45 55
REMARK Flexibility Score: inf
ROOT
ATOM      1  C   UNL A   1      41.627  20.095  25.968  1.00  0.00     0.274 C 
ENDROOT
BRANCH   1   2
ATOM      2  O   UNL A   1      42.539  21.072  25.418  1.00  0.00    -0.460 OA
BRANCH   2   3
ATOM      3  C   UNL A   1      43.820  20.634  25.197  1.00  0.00     0.341 C 
ATOM      4  O   UNL A   1      44.111  19.450  25.090  1.00  0.00    -0.249 OA
BRANCH   3   5
ATOM      5  C   UNL A   1      44.838  21.770  25.367  1.00  0.00     0.231 C 
ATOM      6  C   UNL A   1      46.216  21.074  25.204  1.00  0.00     0.058 C 
BRANCH   5   7
ATOM      7  N   UNL A   1      44.848  22.308  26.792  1.00  0.00    -0.328 N 
ATOM      8  C   UNL A   1      45.163  23.396  27.544  1.00  0.00     0.281 C 
ATOM      9  O   UNL A   1      44.724  23.307  28.700  1.00  0.00    -0.268 OA
ATOM     10  H   UNL A   1      44.493  21.610  27.389  1.00  0.00     0.165 HD
BRANCH   8  11
ATOM     11  C   UNL A   1      45.979  24.643  27.069  1.00  0.00     0.169 C 
ATOM     12  C   UNL A   1      47.323  24.173  26.525  1.00  0.00     0.090 C 
ATOM     13  C   UNL A   1      46.136  25.630  28.243  1.00  0.00     0.090 C 
BRANCH  11  14
ATOM     14  N   UNL A   1      45.261  25.447  26.032  1.00  0.00    -0.334 N 
ATOM     15  H   UNL A   1      45.970  25.867  25.431  1.00  0.00     0.347 HD
ATOM     16  H   UNL A   1      44.636  24.780  25.581  1.00  0.00     0.347 HD
BRANCH  14  17
ATOM     17  C   UNL A   1      44.381  26.524  26.486  1.00  0.00     0.257 C 
ATOM     18  C   UNL A   1      43.559  27.019  25.299  1.00  0.00     0.071 C 
ENDBRANCH  14  17
ENDBRANCH  11  14
ENDBRANCH   8  11
ENDBRANCH   5   7
BRANCH   5  19
ATOM     19  C   UNL A   1      44.692  22.693  24.142  1.00  0.00     0.422 C 
ATOM     20  F   UNL A   1      43.729  23.620  24.275  1.00  0.00    -0.168 F 
ATOM     21  F   UNL A   1      45.854  23.340  23.885  1.00  0.00    -0.168 F 
ATOM     22  F   UNL A   1      44.416  22.001  23.009  1.00  0.00    -0.168 F 
ENDBRANCH   5  19
ENDBRANCH   3   5
ENDBRANCH   2   3
ENDBRANCH   1   2
BRANCH   1  23
ATOM     23  C   UNL A   1      40.265  20.714  26.258  1.00  0.00     0.275 C 
BRANCH  23  24
ATOM     24  O   UNL A   1      40.430  22.124  26.462  1.00  0.00    -0.458 OA
BRANCH  24  25
ATOM     25  C   UNL A   1      39.342  22.883  26.202  1.00  0.00     0.338 C 
ATOM     26  O   UNL A   1      38.371  22.555  25.535  1.00  0.00    -0.246 OA
BRANCH  25  27
ATOM     27  C   UNL A   1      39.455  24.191  26.883  1.00  0.00     0.060 A 
ATOM     28  C   UNL A   1      40.196  25.234  26.328  1.00  0.00     0.016 A 
ATOM     29  C   UNL A   1      38.921  24.331  28.165  1.00  0.00     0.016 A 
ATOM     30  C   UNL A   1      40.512  26.353  27.100  1.00  0.00     0.010 A 
ATOM     31  C   UNL A   1      39.144  25.506  28.891  1.00  0.00     0.010 A 
ATOM     32  C   UNL A   1      39.986  26.515  28.390  1.00  0.00    -0.014 A 
BRANCH  32  33
ATOM     33  C   UNL A   1      40.342  27.694  29.236  1.00  0.00     0.031 A 
ATOM     34  C   UNL A   1      41.631  27.702  30.023  1.00  0.00     0.074 A 
ATOM     35  C   UNL A   1      39.528  28.767  29.313  1.00  0.00     0.049 A 
ATOM     36  N   UNL A   1      41.985  28.470  31.023  1.00  0.00    -0.248 NA
ATOM     37  C   UNL A   1      42.647  26.702  29.653  1.00  0.00     0.031 C 
ATOM     38  C   UNL A   1      38.272  28.943  28.580  1.00  0.00     0.029 A 
ATOM     39  N   UNL A   1      39.638  29.923  30.048  1.00  0.00    -0.354 N 
ATOM     40  C   UNL A   1      43.221  27.996  31.451  1.00  0.00     0.074 A 
ATOM     41  C   UNL A   1      43.568  26.887  30.590  1.00  0.00     0.031 C 
ATOM     42  C   UNL A   1      37.755  30.146  28.864  1.00  0.00     0.029 A 
ATOM     43  C   UNL A   1      38.580  30.785  29.883  1.00  0.00     0.049 A 
ATOM     44  H   UNL A   1      40.403  30.115  30.639  1.00  0.00     0.167 HD
ATOM     45  C   UNL A   1      43.987  28.442  32.476  1.00  0.00     0.037 A 
ATOM     46  C   UNL A   1      38.266  31.932  30.515  1.00  0.00     0.037 A 
ATOM     47  C   UNL A   1      43.674  29.595  33.282  1.00  0.00     0.049 A 
ATOM     48  C   UNL A   1      39.141  32.422  31.631  1.00  0.00     0.074 A 
ATOM     49  C   UNL A   1      44.370  30.109  34.363  1.00  0.00     0.029 A 
ATOM     50  N   UNL A   1      42.597  30.441  33.065  1.00  0.00    -0.354 N 
ATOM     51  N   UNL A   1      40.232  31.882  32.118  1.00  0.00    -0.248 NA
ATOM     52  C   UNL A   1      38.726  33.660  32.306  1.00  0.00     0.031 C 
ATOM     53  C   UNL A   1      43.709  31.262  34.804  1.00  0.00     0.029 A 
ATOM     54  C   UNL A   1      42.618  31.479  33.980  1.00  0.00     0.049 A 
ATOM     55  H   UNL A   1      41.917  30.320  32.363  1.00  0.00     0.167 HD
ATOM     56  C   UNL A   1      40.625  32.705  33.166  1.00  0.00     0.074 A 
ATOM     57  C   UNL A   1      39.676  33.799  33.220  1.00  0.00     0.031 C 
ATOM     58  C   UNL A   1      41.667  32.558  34.019  1.00  0.00     0.037 A 
BRANCH  45  59
ATOM     59  C   UNL A   1      45.231  27.669  32.814  1.00  0.00     0.058 A 
ATOM     60  C   UNL A   1      46.486  28.016  32.293  1.00  0.00     0.135 A 
ATOM     61  C   UNL A   1      45.172  26.604  33.728  1.00  0.00     0.135 A 
ATOM     62  F   UNL A   1      46.594  29.012  31.400  1.00  0.00    -0.206 F 
ATOM     63  C   UNL A   1      47.640  27.328  32.660  1.00  0.00     0.059 A 
ATOM     64  C   UNL A   1      46.315  25.915  34.125  1.00  0.00     0.059 A 
ATOM     65  F   UNL A   1      43.995  26.231  34.256  1.00  0.00    -0.206 F 
ATOM     66  C   UNL A   1      47.543  26.279  33.577  1.00  0.00     0.060 A 
BRANCH  66  67
ATOM     67  S   UNL A   1      49.050  25.413  34.071  1.00  0.00     0.124 S 
ATOM     68  O   UNL A   1      49.468  24.818  32.805  1.00  0.00    -0.237 OA
ATOM     69  O   UNL A   1      49.890  26.498  34.568  1.00  0.00    -0.237 OA
ATOM     70  O   UNL A   1      48.584  24.471  35.083  1.00  0.00    -0.744 OA
ENDBRANCH  66  67
ENDBRANCH  45  59
BRANCH  46  71
ATOM     71  C   UNL A   1      37.019  32.653  30.153  1.00  0.00     0.058 A 
ATOM     72  C   UNL A   1      35.802  32.359  30.784  1.00  0.00     0.135 A 
ATOM     73  C   UNL A   1      37.028  33.671  29.186  1.00  0.00     0.135 A 
ATOM     74  F   UNL A   1      35.743  31.385  31.704  1.00  0.00    -0.206 F 
ATOM     75  C   UNL A   1      34.635  33.046  30.468  1.00  0.00     0.059 A 
ATOM     76  C   UNL A   1      35.881  34.390  28.872  1.00  0.00     0.059 A 
ATOM     77  F   UNL A   1      38.172  33.998  28.564  1.00  0.00    -0.206 F 
ATOM     78  C   UNL A   1      34.686  34.064  29.512  1.00  0.00     0.060 A 
BRANCH  78  79
ATOM     79  S   UNL A   1      33.190  35.008  29.150  1.00  0.00     0.124 S 
ATOM     80  O   UNL A   1      33.748  36.275  28.693  1.00  0.00    -0.237 OA
ATOM     81  O   UNL A   1      32.539  34.192  28.129  1.00  0.00    -0.237 OA
ATOM     82  O   UNL A   1      32.506  35.045  30.439  1.00  0.00    -0.744 OA
ENDBRANCH  78  79
ENDBRANCH  46  71
BRANCH  58  83
ATOM     83  C   UNL A   1      41.838  33.613  35.072  1.00  0.00     0.058 A 
ATOM     84  C   UNL A   1      42.659  34.729  34.857  1.00  0.00     0.135 A 
ATOM     85  C   UNL A   1      41.159  33.517  36.296  1.00  0.00     0.135 A 
ATOM     86  F   UNL A   1      43.333  34.861  33.703  1.00  0.00    -0.206 F 
ATOM     87  C   UNL A   1      42.821  35.708  35.832  1.00  0.00     0.059 A 
ATOM     88  C   UNL A   1      41.294  34.491  37.280  1.00  0.00     0.059 A 
ATOM     89  F   UNL A   1      40.359  32.468  36.544  1.00  0.00    -0.206 F 
ATOM     90  C   UNL A   1      42.138  35.576  37.042  1.00  0.00     0.060 A 
BRANCH  90  91
ATOM     91  S   UNL A   1      42.342  36.856  38.299  1.00  0.00     0.124 S 
ATOM     92  O   UNL A   1      43.137  37.847  37.582  1.00  0.00    -0.237 OA
ATOM     93  O   UNL A   1      40.964  37.238  38.590  1.00  0.00    -0.237 OA
ATOM     94  O   UNL A   1      43.033  36.160  39.381  1.00  0.00    -0.744 OA
ENDBRANCH  90  91
ENDBRANCH  58  83
ENDBRANCH  32  33
ENDBRANCH  25  27
ENDBRANCH  24  25
ENDBRANCH  23  24
ENDBRANCH   1  23
TORSDOF 19
ENDMDL
MODEL 3
REMARK VINA RESULT:     -10.0      5.843     11.124
REMARK SMILES CC[NH2+]C(C)(C)C(=O)N[C@@](C)(C(=O)OCCOC(=O)c1ccc(-c2c3nc(c(-c4c(F)cc(S(=O)(=O)[O-])cc4F)c4ccc([nH]4)c(-c4c(F)cc(S(=O)(=O)[O-])cc4F)c4nc(c(-c5c(F)cc(S(=O)(=O)[O-])cc5F)c5ccc2[nH]5)C=C4)C=C3)cc1)C(F)(F)F
REMARK SMILES IDX 15 1 14 2 12 3 13 4 10 5 11 6 9 7 7 8 8 9 4 11 5 12 6 13
REMARK SMILES IDX 3 14 2 17 1 18 86 19 87 20 88 21 89 22 16 23 17 24 18 25
REMARK SMILES IDX 19 26 20 27 21 28 85 29 22 30 84 31 23 32 24 33 25 34 78 35
REMARK SMILES IDX 26 36 83 37 77 38 79 39 27 40 82 41 76 42 75 43 28 45 62 46
REMARK SMILES IDX 41 47 61 48 42 49 45 50 60 51 80 52 43 53 44 54 59 56 81 57
REMARK SMILES IDX 46 58 29 59 30 60 39 61 31 62 32 63 38 64 40 65 33 66 34 67
REMARK SMILES IDX 35 68 36 69 37 70 63 71 64 72 73 73 65 74 66 75 72 76 74 77
REMARK SMILES IDX 67 78 68 79 69 80 70 81 71 82 47 83 48 84 57 85 49 86 50 87
REMARK SMILES IDX 56 88 58 89 51 90 52 91 53 92 54 93 55 94
REMARK H PARENT 9 10 3 15 3 16 79 44 45 55
REMARK Flexibility Score: inf
ROOT
ATOM      1  C   UNL A   1      37.532  23.234  25.887  1.00  0.00     0.274 C 
ENDROOT
BRANCH   1   2
ATOM      2  O   UNL A   1      36.381  22.359  25.878  1.00  0.00    -0.460 OA
BRANCH   2   3
ATOM      3  C   UNL A   1      35.171  22.968  25.664  1.00  0.00     0.341 C 
ATOM      4  O   UNL A   1      34.859  24.032  26.182  1.00  0.00    -0.249 OA
BRANCH   3   5
ATOM      5  C   UNL A   1      34.195  22.037  24.931  1.00  0.00     0.231 C 
ATOM      6  C   UNL A   1      34.989  20.714  24.757  1.00  0.00     0.058 C 
BRANCH   5   7
ATOM      7  N   UNL A   1      33.927  22.512  23.508  1.00  0.00    -0.328 N 
ATOM      8  C   UNL A   1      33.277  23.458  22.780  1.00  0.00     0.281 C 
ATOM      9  O   UNL A   1      33.627  23.451  21.590  1.00  0.00    -0.268 OA
ATOM     10  H   UNL A   1      34.400  21.912  22.888  1.00  0.00     0.165 HD
BRANCH   8  11
ATOM     11  C   UNL A   1      32.206  24.464  23.316  1.00  0.00     0.169 C 
ATOM     12  C   UNL A   1      30.942  23.691  23.676  1.00  0.00     0.090 C 
ATOM     13  C   UNL A   1      31.945  25.549  22.254  1.00  0.00     0.090 C 
BRANCH  11  14
ATOM     14  N   UNL A   1      32.682  25.243  24.500  1.00  0.00    -0.334 N 
ATOM     15  H   UNL A   1      31.880  25.378  25.117  1.00  0.00     0.347 HD
ATOM     16  H   UNL A   1      33.446  24.685  24.882  1.00  0.00     0.347 HD
BRANCH  14  17
ATOM     17  C   UNL A   1      33.275  26.560  24.263  1.00  0.00     0.257 C 
ATOM     18  C   UNL A   1      33.606  27.199  25.609  1.00  0.00     0.071 C 
ENDBRANCH  14  17
ENDBRANCH  11  14
ENDBRANCH   8  11
ENDBRANCH   5   7
BRANCH   5  19
ATOM     19  C   UNL A   1      33.057  21.711  25.916  1.00  0.00     0.422 C 
ATOM     20  F   UNL A   1      32.072  20.972  25.379  1.00  0.00    -0.168 F 
ATOM     21  F   UNL A   1      33.531  21.044  26.997  1.00  0.00    -0.168 F 
ATOM     22  F   UNL A   1      32.478  22.829  26.419  1.00  0.00    -0.168 F 
ENDBRANCH   5  19
ENDBRANCH   3   5
ENDBRANCH   2   3
ENDBRANCH   1   2
BRANCH   1  23
ATOM     23  C   UNL A   1      38.818  22.450  26.118  1.00  0.00     0.275 C 
BRANCH  23  24
ATOM     24  O   UNL A   1      39.507  23.012  27.244  1.00  0.00    -0.458 OA
BRANCH  24  25
ATOM     25  C   UNL A   1      40.564  23.800  26.948  1.00  0.00     0.338 C 
ATOM     26  O   UNL A   1      41.468  23.537  26.168  1.00  0.00    -0.246 OA
BRANCH  25  27
ATOM     27  C   UNL A   1      40.467  25.084  27.675  1.00  0.00     0.060 A 
ATOM     28  C   UNL A   1      41.469  26.049  27.576  1.00  0.00     0.016 A 
ATOM     29  C   UNL A   1      39.420  25.269  28.578  1.00  0.00     0.016 A 
ATOM     30  C   UNL A   1      41.494  27.124  28.467  1.00  0.00     0.010 A 
ATOM     31  C   UNL A   1      39.388  26.409  29.389  1.00  0.00     0.010 A 
ATOM     32  C   UNL A   1      40.451  27.330  29.382  1.00  0.00    -0.014 A 
BRANCH  32  33
ATOM     33  C   UNL A   1      40.482  28.458  30.359  1.00  0.00     0.031 A 
ATOM     34  C   UNL A   1      41.528  28.490  31.450  1.00  0.00     0.074 A 
ATOM     35  C   UNL A   1      39.587  29.466  30.289  1.00  0.00     0.049 A 
ATOM     36  N   UNL A   1      41.553  29.199  32.550  1.00  0.00    -0.248 NA
ATOM     37  C   UNL A   1      42.685  27.593  31.293  1.00  0.00     0.031 C 
ATOM     38  C   UNL A   1      38.545  29.614  29.270  1.00  0.00     0.029 A 
ATOM     39  N   UNL A   1      39.411  30.565  31.096  1.00  0.00    -0.354 N 
ATOM     40  C   UNL A   1      42.677  28.777  33.252  1.00  0.00     0.074 A 
ATOM     41  C   UNL A   1      43.322  27.764  32.444  1.00  0.00     0.031 C 
ATOM     42  C   UNL A   1      37.874  30.755  29.484  1.00  0.00     0.029 A 
ATOM     43  C   UNL A   1      38.359  31.365  30.716  1.00  0.00     0.049 A 
ATOM     44  H   UNL A   1      39.984  30.760  31.873  1.00  0.00     0.167 HD
ATOM     45  C   UNL A   1      43.121  29.190  34.464  1.00  0.00     0.037 A 
ATOM     46  C   UNL A   1      37.801  32.434  31.314  1.00  0.00     0.037 A 
ATOM     47  C   UNL A   1      42.520  30.253  35.230  1.00  0.00     0.049 A 
ATOM     48  C   UNL A   1      38.323  32.892  32.644  1.00  0.00     0.074 A 
ATOM     49  C   UNL A   1      42.876  30.724  36.482  1.00  0.00     0.029 A 
ATOM     50  N   UNL A   1      41.464  31.038  34.795  1.00  0.00    -0.354 N 
ATOM     51  N   UNL A   1      39.299  32.389  33.361  1.00  0.00    -0.248 NA
ATOM     52  C   UNL A   1      37.649  34.042  33.262  1.00  0.00     0.031 C 
ATOM     53  C   UNL A   1      42.031  31.792  36.807  1.00  0.00     0.029 A 
ATOM     54  C   UNL A   1      41.167  32.000  35.745  1.00  0.00     0.049 A 
ATOM     55  H   UNL A   1      40.994  30.928  33.936  1.00  0.00     0.167 HD
ATOM     56  C   UNL A   1      39.345  33.151  34.522  1.00  0.00     0.074 A 
ATOM     57  C   UNL A   1      38.325  34.171  34.396  1.00  0.00     0.031 C 
ATOM     58  C   UNL A   1      40.148  33.007  35.603  1.00  0.00     0.037 A 
BRANCH  45  59
ATOM     59  C   UNL A   1      44.302  28.477  35.063  1.00  0.00     0.058 A 
ATOM     60  C   UNL A   1      44.154  27.323  35.846  1.00  0.00     0.135 A 
ATOM     61  C   UNL A   1      45.606  28.924  34.791  1.00  0.00     0.135 A 
ATOM     62  F   UNL A   1      42.929  26.867  36.151  1.00  0.00    -0.206 F 
ATOM     63  C   UNL A   1      45.259  26.639  36.346  1.00  0.00     0.059 A 
ATOM     64  C   UNL A   1      46.726  28.244  35.264  1.00  0.00     0.059 A 
ATOM     65  F   UNL A   1      45.802  30.025  34.048  1.00  0.00    -0.206 F 
ATOM     66  C   UNL A   1      46.540  27.107  36.048  1.00  0.00     0.060 A 
BRANCH  66  67
ATOM     67  S   UNL A   1      47.968  26.195  36.675  1.00  0.00     0.124 S 
ATOM     68  O   UNL A   1      48.400  25.477  35.480  1.00  0.00    -0.237 OA
ATOM     69  O   UNL A   1      48.853  27.264  37.126  1.00  0.00    -0.237 OA
ATOM     70  O   UNL A   1      47.402  25.366  37.735  1.00  0.00    -0.744 OA
ENDBRANCH  66  67
ENDBRANCH  45  59
BRANCH  46  71
ATOM     71  C   UNL A   1      36.628  33.097  30.688  1.00  0.00     0.058 A 
ATOM     72  C   UNL A   1      35.332  32.892  31.179  1.00  0.00     0.135 A 
ATOM     73  C   UNL A   1      36.787  33.971  29.601  1.00  0.00     0.135 A 
ATOM     74  F   UNL A   1      35.130  32.056  32.209  1.00  0.00    -0.206 F 
ATOM     75  C   UNL A   1      34.231  33.528  30.615  1.00  0.00     0.059 A 
ATOM     76  C   UNL A   1      35.707  34.638  29.036  1.00  0.00     0.059 A 
ATOM     77  F   UNL A   1      38.011  34.210  29.103  1.00  0.00    -0.206 F 
ATOM     78  C   UNL A   1      34.430  34.403  29.545  1.00  0.00     0.060 A 
BRANCH  78  79
ATOM     79  S   UNL A   1      33.015  35.287  28.854  1.00  0.00     0.124 S 
ATOM     80  O   UNL A   1      33.659  36.455  28.266  1.00  0.00    -0.237 OA
ATOM     81  O   UNL A   1      32.467  34.318  27.909  1.00  0.00    -0.237 OA
ATOM     82  O   UNL A   1      32.185  35.543  30.026  1.00  0.00    -0.744 OA
ENDBRANCH  78  79
ENDBRANCH  46  71
BRANCH  58  83
ATOM     83  C   UNL A   1      39.960  33.984  36.725  1.00  0.00     0.058 A 
ATOM     84  C   UNL A   1      40.664  35.196  36.761  1.00  0.00     0.135 A 
ATOM     85  C   UNL A   1      39.053  33.716  37.762  1.00  0.00     0.135 A 
ATOM     86  F   UNL A   1      41.548  35.493  35.794  1.00  0.00    -0.206 F 
ATOM     87  C   UNL A   1      40.494  36.103  37.801  1.00  0.00     0.059 A 
ATOM     88  C   UNL A   1      38.853  34.615  38.804  1.00  0.00     0.059 A 
ATOM     89  F   UNL A   1      38.353  32.570  37.766  1.00  0.00    -0.206 F 
ATOM     90  C   UNL A   1      39.589  35.800  38.821  1.00  0.00     0.060 A 
BRANCH  90  91
ATOM     91  S   UNL A   1      39.361  36.988  40.162  1.00  0.00     0.124 S 
ATOM     92  O   UNL A   1      38.676  38.077  39.475  1.00  0.00    -0.237 OA
ATOM     93  O   UNL A   1      38.557  36.235  41.119  1.00  0.00    -0.237 OA
ATOM     94  O   UNL A   1      40.726  37.276  40.593  1.00  0.00    -0.744 OA
ENDBRANCH  90  91
ENDBRANCH  58  83
ENDBRANCH  32  33
ENDBRANCH  25  27
ENDBRANCH  24  25
ENDBRANCH  23  24
ENDBRANCH   1  23
TORSDOF 19
ENDMDL
