MODEL 1
REMARK VINA RESULT:      -9.2      0.000      0.000
REMARK SMILES O=C(CCCN1C(=O)C(=O)/C(=C(\[O-])c2ccccc2)[C@H]1c1ccc([N+](=O)[O-])cc1)OCCOC(=O)c1ccc(-c2c3nc(c(-c4c(F)cc(S(=O)(=O)[O-])cc4F)c4ccc([nH]4)c(-c4c(F)cc(S(=O)(=O)[O-])cc4F)c4nc(c(-c5c(F)cc(S(=O)(=O)[O-])cc5F)c5ccc2[nH]5)C=C4)C=C3)cc1
REMARK SMILES IDX 31 1 30 2 2 3 1 4 3 5 4 6 5 7 6 8 7 9 20 10 8 11 9 12 11 13
REMARK SMILES IDX 10 14 12 15 13 16 21 17 22 18 29 19 23 20 28 21 24 22 25 23
REMARK SMILES IDX 26 24 27 25 14 26 15 27 19 28 16 29 18 30 17 31 32 32 33 33
REMARK SMILES IDX 34 34 35 35 36 36 37 37 101 38 38 39 100 40 39 41 40 42
REMARK SMILES IDX 41 43 94 44 42 45 99 46 93 47 95 48 43 49 98 50 92 51 91 52
REMARK SMILES IDX 44 54 78 55 57 56 77 57 58 58 61 59 76 60 96 61 59 62 60 63
REMARK SMILES IDX 75 65 97 66 62 67 45 68 46 69 55 70 47 71 48 72 54 73 56 74
REMARK SMILES IDX 49 75 50 76 51 77 52 78 53 79 79 80 80 81 89 82 81 83 82 84
REMARK SMILES IDX 88 85 90 86 83 87 84 88 85 89 86 90 87 91 63 92 64 93 73 94
REMARK SMILES IDX 65 95 66 96 72 97 74 98 67 99 68 100 69 101 70 102 71 103
REMARK H PARENT 95 53 61 64
REMARK Flexibility Score: inf
ROOT
ATOM      1  C   UNL A   1      45.608  24.055  25.245  1.00  0.00     0.274 C 
ENDROOT
BRANCH   1   2
ATOM      2  O   UNL A   1      46.158  24.416  26.520  1.00  0.00    -0.462 OA
BRANCH   2   3
ATOM      3  C   UNL A   1      45.606  23.904  27.653  1.00  0.00     0.305 C 
ATOM      4  O   UNL A   1      45.170  22.758  27.673  1.00  0.00    -0.252 OA
BRANCH   3   5
ATOM      5  C   UNL A   1      45.452  24.842  28.833  1.00  0.00     0.124 C 
BRANCH   5   6
ATOM      6  C   UNL A   1      44.683  24.254  30.019  1.00  0.00     0.033 C 
BRANCH   6   7
ATOM      7  C   UNL A   1      44.583  25.146  31.270  1.00  0.00     0.121 C 
BRANCH   7   8
ATOM      8  N   UNL A   1      45.660  25.040  32.257  1.00  0.00    -0.325 N 
ATOM      9  C   UNL A   1      46.765  25.872  32.291  1.00  0.00     0.295 C 
ATOM     10  C   UNL A   1      45.643  24.067  33.356  1.00  0.00     0.150 C 
ATOM     11  O   UNL A   1      47.020  26.843  31.620  1.00  0.00    -0.265 OA
ATOM     12  C   UNL A   1      47.729  25.259  33.305  1.00  0.00     0.248 C 
ATOM     13  C   UNL A   1      47.055  24.083  33.890  1.00  0.00     0.025 C 
ATOM     14  O   UNL A   1      48.862  25.617  33.545  1.00  0.00    -0.283 OA
ATOM     15  C   UNL A   1      47.706  23.238  34.709  1.00  0.00    -0.092 C 
ATOM     16  O   UNL A   1      49.022  23.409  35.092  1.00  0.00    -0.872 OA
BRANCH  10  17
ATOM     17  C   UNL A   1      44.535  24.295  34.381  1.00  0.00    -0.020 A 
ATOM     18  C   UNL A   1      43.331  23.567  34.385  1.00  0.00     0.013 A 
ATOM     19  C   UNL A   1      44.666  25.356  35.301  1.00  0.00     0.013 A 
ATOM     20  C   UNL A   1      42.265  23.938  35.212  1.00  0.00     0.086 A 
ATOM     21  C   UNL A   1      43.622  25.711  36.158  1.00  0.00     0.086 A 
ATOM     22  C   UNL A   1      42.411  25.018  36.088  1.00  0.00     0.269 A 
BRANCH  22  23
ATOM     23  N   UNL A   1      41.277  25.454  36.909  1.00  0.00     0.062 N 
ATOM     24  O   UNL A   1      41.511  26.221  37.854  1.00  0.00    -0.258 OA
ATOM     25  O   UNL A   1      40.154  25.014  36.620  1.00  0.00    -0.258 OA
ENDBRANCH  22  23
ENDBRANCH  10  17
BRANCH  15  26
ATOM     26  C   UNL A   1      47.055  22.091  35.362  1.00  0.00    -0.033 A 
ATOM     27  C   UNL A   1      46.809  22.147  36.740  1.00  0.00     0.007 A 
ATOM     28  C   UNL A   1      46.666  20.949  34.653  1.00  0.00     0.007 A 
ATOM     29  C   UNL A   1      46.155  21.100  37.389  1.00  0.00     0.001 A 
ATOM     30  C   UNL A   1      46.016  19.896  35.305  1.00  0.00     0.001 A 
ATOM     31  C   UNL A   1      45.753  19.976  36.670  1.00  0.00     0.000 A 
ENDBRANCH  15  26
ENDBRANCH   7   8
ENDBRANCH   6   7
ENDBRANCH   5   6
ENDBRANCH   3   5
ENDBRANCH   2   3
ENDBRANCH   1   2
BRANCH   1  32
ATOM     32  C   UNL A   1      44.202  24.607  25.008  1.00  0.00     0.275 C 
BRANCH  32  33
ATOM     33  O   UNL A   1      44.062  25.896  25.615  1.00  0.00    -0.458 OA
BRANCH  33  34
ATOM     34  C   UNL A   1      42.775  26.199  25.917  1.00  0.00     0.338 C 
ATOM     35  O   UNL A   1      41.785  25.771  25.345  1.00  0.00    -0.246 OA
BRANCH  34  36
ATOM     36  C   UNL A   1      42.701  26.975  27.171  1.00  0.00     0.060 A 
ATOM     37  C   UNL A   1      41.935  26.415  28.197  1.00  0.00     0.016 A 
ATOM     38  C   UNL A   1      43.327  28.214  27.348  1.00  0.00     0.016 A 
ATOM     39  C   UNL A   1      41.724  27.124  29.373  1.00  0.00     0.010 A 
ATOM     40  C   UNL A   1      43.118  28.924  28.539  1.00  0.00     0.010 A 
ATOM     41  C   UNL A   1      42.278  28.400  29.536  1.00  0.00    -0.014 A 
BRANCH  41  42
ATOM     42  C   UNL A   1      41.836  29.201  30.703  1.00  0.00     0.031 A 
ATOM     43  C   UNL A   1      42.693  29.227  31.940  1.00  0.00     0.074 A 
ATOM     44  C   UNL A   1      40.757  30.001  30.608  1.00  0.00     0.049 A 
ATOM     45  N   UNL A   1      42.596  29.990  32.998  1.00  0.00    -0.248 NA
ATOM     46  C   UNL A   1      43.818  28.278  31.987  1.00  0.00     0.031 C 
ATOM     47  C   UNL A   1      39.860  30.072  29.454  1.00  0.00     0.029 A 
ATOM     48  N   UNL A   1      40.249  30.922  31.487  1.00  0.00    -0.354 N 
ATOM     49  C   UNL A   1      43.658  29.635  33.821  1.00  0.00     0.074 A 
ATOM     50  C   UNL A   1      44.358  28.552  33.167  1.00  0.00     0.031 C 
ATOM     51  C   UNL A   1      38.915  30.999  29.694  1.00  0.00     0.029 A 
ATOM     52  C   UNL A   1      39.136  31.578  31.017  1.00  0.00     0.049 A 
ATOM     53  H   UNL A   1      40.644  31.097  32.372  1.00  0.00     0.167 HD
ATOM     54  C   UNL A   1      44.030  30.179  35.004  1.00  0.00     0.037 A 
ATOM     55  C   UNL A   1      38.386  32.540  31.589  1.00  0.00     0.037 A 
ATOM     56  C   UNL A   1      43.325  31.249  35.661  1.00  0.00     0.049 A 
ATOM     57  C   UNL A   1      38.792  33.089  32.933  1.00  0.00     0.074 A 
ATOM     58  C   UNL A   1      43.625  31.869  36.861  1.00  0.00     0.029 A 
ATOM     59  N   UNL A   1      42.176  31.854  35.176  1.00  0.00    -0.354 N 
ATOM     60  N   UNL A   1      39.827  32.775  33.677  1.00  0.00    -0.248 NA
ATOM     61  C   UNL A   1      37.936  34.136  33.509  1.00  0.00     0.031 C 
ATOM     62  C   UNL A   1      42.632  32.819  37.124  1.00  0.00     0.029 A 
ATOM     63  C   UNL A   1      41.741  32.824  36.063  1.00  0.00     0.049 A 
ATOM     64  H   UNL A   1      41.733  31.627  34.326  1.00  0.00     0.167 HD
ATOM     65  C   UNL A   1      39.756  33.599  34.795  1.00  0.00     0.074 A 
ATOM     66  C   UNL A   1      38.592  34.441  34.620  1.00  0.00     0.031 C 
ATOM     67  C   UNL A   1      40.577  33.653  35.874  1.00  0.00     0.037 A 
BRANCH  54  68
ATOM     68  C   UNL A   1      45.261  29.627  35.669  1.00  0.00     0.058 A 
ATOM     69  C   UNL A   1      45.170  28.772  36.779  1.00  0.00     0.135 A 
ATOM     70  C   UNL A   1      46.538  29.908  35.160  1.00  0.00     0.135 A 
ATOM     71  F   UNL A   1      43.974  28.488  37.318  1.00  0.00    -0.206 F 
ATOM     72  C   UNL A   1      46.304  28.222  37.368  1.00  0.00     0.059 A 
ATOM     73  C   UNL A   1      47.685  29.351  35.720  1.00  0.00     0.059 A 
ATOM     74  F   UNL A   1      46.681  30.724  34.105  1.00  0.00    -0.206 F 
ATOM     75  C   UNL A   1      47.557  28.514  36.828  1.00  0.00     0.060 A 
BRANCH  75  76
ATOM     76  S   UNL A   1      49.017  27.769  37.585  1.00  0.00     0.124 S 
ATOM     77  O   UNL A   1      48.412  26.828  38.522  1.00  0.00    -0.237 OA
ATOM     78  O   UNL A   1      49.693  27.172  36.437  1.00  0.00    -0.237 OA
ATOM     79  O   UNL A   1      49.703  28.904  38.193  1.00  0.00    -0.744 OA
ENDBRANCH  75  76
ENDBRANCH  54  68
BRANCH  55  80
ATOM     80  C   UNL A   1      37.170  33.049  30.901  1.00  0.00     0.058 A 
ATOM     81  C   UNL A   1      37.252  33.978  29.854  1.00  0.00     0.135 A 
ATOM     82  C   UNL A   1      35.891  32.637  31.309  1.00  0.00     0.135 A 
ATOM     83  F   UNL A   1      38.450  34.410  29.433  1.00  0.00    -0.206 F 
ATOM     84  C   UNL A   1      36.111  34.507  29.257  1.00  0.00     0.059 A 
ATOM     85  C   UNL A   1      34.737  33.130  30.710  1.00  0.00     0.059 A 
ATOM     86  F   UNL A   1      35.756  31.740  32.298  1.00  0.00    -0.206 F 
ATOM     87  C   UNL A   1      34.857  34.079  29.696  1.00  0.00     0.060 A 
BRANCH  87  88
ATOM     88  S   UNL A   1      33.379  34.760  28.912  1.00  0.00     0.124 S 
ATOM     89  O   UNL A   1      33.027  33.697  27.978  1.00  0.00    -0.237 OA
ATOM     90  O   UNL A   1      32.479  34.936  30.048  1.00  0.00    -0.237 OA
ATOM     91  O   UNL A   1      33.862  35.999  28.308  1.00  0.00    -0.744 OA
ENDBRANCH  87  88
ENDBRANCH  55  80
BRANCH  67  92
ATOM     92  C   UNL A   1      40.253  34.669  36.936  1.00  0.00     0.058 A 
ATOM     93  C   UNL A   1      40.749  35.980  36.875  1.00  0.00     0.135 A 
ATOM     94  C   UNL A   1      39.418  34.334  38.015  1.00  0.00     0.135 A 
ATOM     95  F   UNL A   1      41.553  36.351  35.865  1.00  0.00    -0.206 F 
ATOM     96  C   UNL A   1      40.461  36.914  37.865  1.00  0.00     0.059 A 
ATOM     97  C   UNL A   1      39.095  35.260  39.002  1.00  0.00     0.059 A 
ATOM     98  F   UNL A   1      38.904  33.098  38.115  1.00  0.00    -0.206 F 
ATOM     99  C   UNL A   1      39.636  36.543  38.928  1.00  0.00     0.060 A 
BRANCH  99 100
ATOM    100  S   UNL A   1      39.266  37.763  40.206  1.00  0.00     0.124 S 
ATOM    101  O   UNL A   1      38.140  38.476  39.613  1.00  0.00    -0.237 OA
ATOM    102  O   UNL A   1      38.949  36.924  41.359  1.00  0.00    -0.237 OA
ATOM    103  O   UNL A   1      40.505  38.525  40.316  1.00  0.00    -0.744 OA
ENDBRANCH  99 100
ENDBRANCH  67  92
ENDBRANCH  41  42
ENDBRANCH  34  36
ENDBRANCH  33  34
ENDBRANCH  32  33
ENDBRANCH   1  32
TORSDOF 20
ENDMDL
MODEL 2
REMARK VINA RESULT:      -8.6      5.299     10.347
REMARK SMILES O=C(CCCN1C(=O)C(=O)/C(=C(\[O-])c2ccccc2)[C@H]1c1ccc([N+](=O)[O-])cc1)OCCOC(=O)c1ccc(-c2c3nc(c(-c4c(F)cc(S(=O)(=O)[O-])cc4F)c4ccc([nH]4)c(-c4c(F)cc(S(=O)(=O)[O-])cc4F)c4nc(c(-c5c(F)cc(S(=O)(=O)[O-])cc5F)c5ccc2[nH]5)C=C4)C=C3)cc1
REMARK SMILES IDX 31 1 30 2 2 3 1 4 3 5 4 6 5 7 6 8 7 9 20 10 8 11 9 12 11 13
REMARK SMILES IDX 10 14 12 15 13 16 21 17 22 18 29 19 23 20 28 21 24 22 25 23
REMARK SMILES IDX 26 24 27 25 14 26 15 27 19 28 16 29 18 30 17 31 32 32 33 33
REMARK SMILES IDX 34 34 35 35 36 36 37 37 101 38 38 39 100 40 39 41 40 42
REMARK SMILES IDX 41 43 94 44 42 45 99 46 93 47 95 48 43 49 98 50 92 51 91 52
REMARK SMILES IDX 44 54 78 55 57 56 77 57 58 58 61 59 76 60 96 61 59 62 60 63
REMARK SMILES IDX 75 65 97 66 62 67 45 68 46 69 55 70 47 71 48 72 54 73 56 74
REMARK SMILES IDX 49 75 50 76 51 77 52 78 53 79 79 80 80 81 89 82 81 83 82 84
REMARK SMILES IDX 88 85 90 86 83 87 84 88 85 89 86 90 87 91 63 92 64 93 73 94
REMARK SMILES IDX 65 95 66 96 72 97 74 98 67 99 68 100 69 101 70 102 71 103
REMARK H PARENT 95 53 61 64
REMARK Flexibility Score: inf
ROOT
ATOM      1  C   UNL A   1      46.848  22.453  38.646  1.00  0.00     0.274 C 
ENDROOT
BRANCH   1   2
ATOM      2  O   UNL A   1      46.513  21.068  38.473  1.00  0.00    -0.462 OA
BRANCH   2   3
ATOM      3  C   UNL A   1      47.322  20.115  39.009  1.00  0.00     0.305 C 
ATOM      4  O   UNL A   1      48.070  19.457  38.294  1.00  0.00    -0.252 OA
BRANCH   3   5
ATOM      5  C   UNL A   1      47.171  19.830  40.489  1.00  0.00     0.124 C 
BRANCH   5   6
ATOM      6  C   UNL A   1      46.285  18.629  40.821  1.00  0.00     0.033 C 
BRANCH   6   7
ATOM      7  C   UNL A   1      44.913  18.950  41.443  1.00  0.00     0.121 C 
BRANCH   7   8
ATOM      8  N   UNL A   1      44.674  18.492  42.814  1.00  0.00    -0.325 N 
ATOM      9  C   UNL A   1      44.285  19.319  43.851  1.00  0.00     0.295 C 
ATOM     10  C   UNL A   1      44.768  17.082  43.211  1.00  0.00     0.150 C 
ATOM     11  O   UNL A   1      43.999  20.492  43.836  1.00  0.00    -0.265 OA
ATOM     12  C   UNL A   1      44.392  18.485  45.126  1.00  0.00     0.248 C 
ATOM     13  C   UNL A   1      44.785  17.120  44.720  1.00  0.00     0.025 C 
ATOM     14  O   UNL A   1      44.253  18.871  46.267  1.00  0.00    -0.283 OA
ATOM     15  C   UNL A   1      45.108  16.185  45.630  1.00  0.00    -0.092 C 
ATOM     16  O   UNL A   1      45.073  16.402  46.994  1.00  0.00    -0.872 OA
BRANCH  10  17
ATOM     17  C   UNL A   1      43.715  16.177  42.575  1.00  0.00    -0.020 A 
ATOM     18  C   UNL A   1      42.784  15.437  43.327  1.00  0.00     0.013 A 
ATOM     19  C   UNL A   1      43.740  15.980  41.178  1.00  0.00     0.013 A 
ATOM     20  C   UNL A   1      41.970  14.473  42.721  1.00  0.00     0.086 A 
ATOM     21  C   UNL A   1      42.906  15.047  40.559  1.00  0.00     0.086 A 
ATOM     22  C   UNL A   1      42.043  14.273  41.339  1.00  0.00     0.269 A 
BRANCH  22  23
ATOM     23  N   UNL A   1      41.243  13.219  40.708  1.00  0.00     0.062 N 
ATOM     24  O   UNL A   1      40.685  12.397  41.449  1.00  0.00    -0.258 OA
ATOM     25  O   UNL A   1      41.186  13.203  39.470  1.00  0.00    -0.258 OA
ENDBRANCH  22  23
ENDBRANCH  10  17
BRANCH  15  26
ATOM     26  C   UNL A   1      45.445  14.798  45.272  1.00  0.00    -0.033 A 
ATOM     27  C   UNL A   1      44.639  13.759  45.758  1.00  0.00     0.007 A 
ATOM     28  C   UNL A   1      46.537  14.479  44.457  1.00  0.00     0.007 A 
ATOM     29  C   UNL A   1      44.896  12.434  45.406  1.00  0.00     0.001 A 
ATOM     30  C   UNL A   1      46.799  13.151  44.110  1.00  0.00     0.001 A 
ATOM     31  C   UNL A   1      45.974  12.131  44.577  1.00  0.00     0.000 A 
ENDBRANCH  15  26
ENDBRANCH   7   8
ENDBRANCH   6   7
ENDBRANCH   5   6
ENDBRANCH   3   5
ENDBRANCH   2   3
ENDBRANCH   1   2
BRANCH   1  32
ATOM     32  C   UNL A   1      47.398  23.110  37.380  1.00  0.00     0.275 C 
BRANCH  32  33
ATOM     33  O   UNL A   1      46.548  24.184  36.964  1.00  0.00    -0.458 OA
BRANCH  33  34
ATOM     34  C   UNL A   1      46.860  25.364  37.558  1.00  0.00     0.338 C 
ATOM     35  O   UNL A   1      47.780  25.551  38.338  1.00  0.00    -0.246 OA
BRANCH  34  36
ATOM     36  C   UNL A   1      46.056  26.463  36.990  1.00  0.00     0.060 A 
ATOM     37  C   UNL A   1      44.679  26.403  37.223  1.00  0.00     0.016 A 
ATOM     38  C   UNL A   1      46.602  27.508  36.237  1.00  0.00     0.016 A 
ATOM     39  C   UNL A   1      43.833  27.337  36.638  1.00  0.00     0.010 A 
ATOM     40  C   UNL A   1      45.747  28.454  35.654  1.00  0.00     0.010 A 
ATOM     41  C   UNL A   1      44.356  28.344  35.815  1.00  0.00    -0.014 A 
BRANCH  41  42
ATOM     42  C   UNL A   1      43.398  29.167  35.039  1.00  0.00     0.031 A 
ATOM     43  C   UNL A   1      43.068  28.769  33.626  1.00  0.00     0.074 A 
ATOM     44  C   UNL A   1      42.732  30.174  35.634  1.00  0.00     0.049 A 
ATOM     45  N   UNL A   1      42.136  29.230  32.832  1.00  0.00    -0.248 NA
ATOM     46  C   UNL A   1      43.886  27.699  33.030  1.00  0.00     0.031 C 
ATOM     47  C   UNL A   1      42.955  30.641  37.002  1.00  0.00     0.029 A 
ATOM     48  N   UNL A   1      41.715  30.969  35.169  1.00  0.00    -0.354 N 
ATOM     49  C   UNL A   1      42.236  28.492  31.659  1.00  0.00     0.074 A 
ATOM     50  C   UNL A   1      43.352  27.587  31.821  1.00  0.00     0.031 C 
ATOM     51  C   UNL A   1      42.090  31.635  37.270  1.00  0.00     0.029 A 
ATOM     52  C   UNL A   1      41.261  31.879  36.093  1.00  0.00     0.049 A 
ATOM     53  H   UNL A   1      41.345  30.893  34.259  1.00  0.00     0.167 HD
ATOM     54  C   UNL A   1      41.452  28.546  30.556  1.00  0.00     0.037 A 
ATOM     55  C   UNL A   1      40.282  32.801  35.998  1.00  0.00     0.037 A 
ATOM     56  C   UNL A   1      40.349  29.456  30.391  1.00  0.00     0.049 A 
ATOM     57  C   UNL A   1      39.461  32.877  34.736  1.00  0.00     0.074 A 
ATOM     58  C   UNL A   1      39.495  29.586  29.309  1.00  0.00     0.029 A 
ATOM     59  N   UNL A   1      39.951  30.395  31.329  1.00  0.00    -0.354 N 
ATOM     60  N   UNL A   1      39.538  32.139  33.654  1.00  0.00    -0.248 NA
ATOM     61  C   UNL A   1      38.409  33.902  34.689  1.00  0.00     0.031 C 
ATOM     62  C   UNL A   1      38.607  30.634  29.576  1.00  0.00     0.029 A 
ATOM     63  C   UNL A   1      38.878  31.124  30.844  1.00  0.00     0.049 A 
ATOM     64  H   UNL A   1      40.369  30.526  32.211  1.00  0.00     0.167 HD
ATOM     65  C   UNL A   1      38.533  32.597  32.809  1.00  0.00     0.074 A 
ATOM     66  C   UNL A   1      37.846  33.659  33.513  1.00  0.00     0.031 C 
ATOM     67  C   UNL A   1      38.207  32.181  31.558  1.00  0.00     0.037 A 
BRANCH  54  68
ATOM     68  C   UNL A   1      41.759  27.591  29.435  1.00  0.00     0.058 A 
ATOM     69  C   UNL A   1      40.888  26.539  29.113  1.00  0.00     0.135 A 
ATOM     70  C   UNL A   1      42.903  27.763  28.641  1.00  0.00     0.135 A 
ATOM     71  F   UNL A   1      39.790  26.318  29.854  1.00  0.00    -0.206 F 
ATOM     72  C   UNL A   1      41.145  25.682  28.047  1.00  0.00     0.059 A 
ATOM     73  C   UNL A   1      43.169  26.932  27.556  1.00  0.00     0.059 A 
ATOM     74  F   UNL A   1      43.771  28.750  28.910  1.00  0.00    -0.206 F 
ATOM     75  C   UNL A   1      42.286  25.890  27.272  1.00  0.00     0.060 A 
BRANCH  75  76
ATOM     76  S   UNL A   1      42.590  24.788  25.874  1.00  0.00     0.124 S 
ATOM     77  O   UNL A   1      41.597  23.744  26.103  1.00  0.00    -0.237 OA
ATOM     78  O   UNL A   1      42.340  25.660  24.730  1.00  0.00    -0.237 OA
ATOM     79  O   UNL A   1      43.980  24.381  26.056  1.00  0.00    -0.744 OA
ENDBRANCH  75  76
ENDBRANCH  54  68
BRANCH  55  80
ATOM     80  C   UNL A   1      40.021  33.734  37.127  1.00  0.00     0.058 A 
ATOM     81  C   UNL A   1      39.064  33.448  38.111  1.00  0.00     0.135 A 
ATOM     82  C   UNL A   1      40.706  34.956  37.219  1.00  0.00     0.135 A 
ATOM     83  F   UNL A   1      38.376  32.296  38.063  1.00  0.00    -0.206 F 
ATOM     84  C   UNL A   1      38.770  34.352  39.128  1.00  0.00     0.059 A 
ATOM     85  C   UNL A   1      40.450  35.864  38.240  1.00  0.00     0.059 A 
ATOM     86  F   UNL A   1      41.641  35.274  36.310  1.00  0.00    -0.206 F 
ATOM     87  C   UNL A   1      39.466  35.561  39.180  1.00  0.00     0.060 A 
BRANCH  87  88
ATOM     88  S   UNL A   1      39.090  36.727  40.507  1.00  0.00     0.124 S 
ATOM     89  O   UNL A   1      38.241  35.919  41.375  1.00  0.00    -0.237 OA
ATOM     90  O   UNL A   1      40.417  37.045  41.025  1.00  0.00    -0.237 OA
ATOM     91  O   UNL A   1      38.421  37.822  39.809  1.00  0.00    -0.744 OA
ENDBRANCH  87  88
ENDBRANCH  55  80
BRANCH  67  92
ATOM     92  C   UNL A   1      37.047  32.864  30.885  1.00  0.00     0.058 A 
ATOM     93  C   UNL A   1      35.719  32.544  31.206  1.00  0.00     0.135 A 
ATOM     94  C   UNL A   1      37.267  33.865  29.926  1.00  0.00     0.135 A 
ATOM     95  F   UNL A   1      35.454  31.593  32.116  1.00  0.00    -0.206 F 
ATOM     96  C   UNL A   1      34.648  33.166  30.573  1.00  0.00     0.059 A 
ATOM     97  C   UNL A   1      36.210  34.520  29.299  1.00  0.00     0.059 A 
ATOM     98  F   UNL A   1      38.518  34.221  29.592  1.00  0.00    -0.206 F 
ATOM     99  C   UNL A   1      34.904  34.150  29.616  1.00  0.00     0.060 A 
BRANCH  99 100
ATOM    100  S   UNL A   1      33.507  34.953  28.802  1.00  0.00     0.124 S 
ATOM    101  O   UNL A   1      33.156  33.970  27.783  1.00  0.00    -0.237 OA
ATOM    102  O   UNL A   1      32.550  35.104  29.895  1.00  0.00    -0.237 OA
ATOM    103  O   UNL A   1      34.078  36.200  28.302  1.00  0.00    -0.744 OA
ENDBRANCH  99 100
ENDBRANCH  67  92
ENDBRANCH  41  42
ENDBRANCH  34  36
ENDBRANCH  33  34
ENDBRANCH  32  33
ENDBRANCH   1  32
TORSDOF 20
ENDMDL
MODEL 3
REMARK VINA RESULT:      -8.6      4.949     10.599
REMARK SMILES O=C(CCCN1C(=O)C(=O)/C(=C(\[O-])c2ccccc2)[C@H]1c1ccc([N+](=O)[O-])cc1)OCCOC(=O)c1ccc(-c2c3nc(c(-c4c(F)cc(S(=O)(=O)[O-])cc4F)c4ccc([nH]4)c(-c4c(F)cc(S(=O)(=O)[O-])cc4F)c4nc(c(-c5c(F)cc(S(=O)(=O)[O-])cc5F)c5ccc2[nH]5)C=C4)C=C3)cc1
REMARK SMILES IDX 31 1 30 2 2 3 1 4 3 5 4 6 5 7 6 8 7 9 20 10 8 11 9 12 11 13
REMARK SMILES IDX 10 14 12 15 13 16 21 17 22 18 29 19 23 20 28 21 24 22 25 23
REMARK SMILES IDX 26 24 27 25 14 26 15 27 19 28 16 29 18 30 17 31 32 32 33 33
REMARK SMILES IDX 34 34 35 35 36 36 37 37 101 38 38 39 100 40 39 41 40 42
REMARK SMILES IDX 41 43 94 44 42 45 99 46 93 47 95 48 43 49 98 50 92 51 91 52
REMARK SMILES IDX 44 54 78 55 57 56 77 57 58 58 61 59 76 60 96 61 59 62 60 63
REMARK SMILES IDX 75 65 97 66 62 67 45 68 46 69 55 70 47 71 48 72 54 73 56 74
REMARK SMILES IDX 49 75 50 76 51 77 52 78 53 79 79 80 80 81 89 82 81 83 82 84
REMARK SMILES IDX 88 85 90 86 83 87 84 88 85 89 86 90 87 91 63 92 64 93 73 94
REMARK SMILES IDX 65 95 66 96 72 97 74 98 67 99 68 100 69 101 70 102 71 103
REMARK H PARENT 95 53 61 64
REMARK Flexibility Score: inf
ROOT
ATOM      1  C   UNL A   1      33.912  33.752  28.966  1.00  0.00     0.274 C 
ENDROOT
BRANCH   1   2
ATOM      2  O   UNL A   1      33.687  32.356  28.721  1.00  0.00    -0.462 OA
BRANCH   2   3
ATOM      3  C   UNL A   1      34.480  31.700  27.831  1.00  0.00     0.305 C 
ATOM      4  O   UNL A   1      34.012  30.838  27.096  1.00  0.00    -0.252 OA
BRANCH   3   5
ATOM      5  C   UNL A   1      35.965  31.998  27.875  1.00  0.00     0.124 C 
BRANCH   5   6
ATOM      6  C   UNL A   1      36.615  31.808  29.246  1.00  0.00     0.033 C 
BRANCH   6   7
ATOM      7  C   UNL A   1      38.054  31.261  29.244  1.00  0.00     0.121 C 
BRANCH   7   8
ATOM      8  N   UNL A   1      38.414  30.317  30.306  1.00  0.00    -0.325 N 
ATOM      9  C   UNL A   1      37.513  29.476  30.933  1.00  0.00     0.295 C 
ATOM     10  C   UNL A   1      39.793  30.127  30.771  1.00  0.00     0.150 C 
ATOM     11  O   UNL A   1      36.342  29.291  30.703  1.00  0.00    -0.265 OA
ATOM     12  C   UNL A   1      38.257  28.861  32.117  1.00  0.00     0.248 C 
ATOM     13  C   UNL A   1      39.649  29.350  32.056  1.00  0.00     0.025 C 
ATOM     14  O   UNL A   1      37.791  28.159  32.988  1.00  0.00    -0.283 OA
ATOM     15  C   UNL A   1      40.521  29.105  33.051  1.00  0.00    -0.092 C 
ATOM     16  O   UNL A   1      40.207  28.367  34.176  1.00  0.00    -0.872 OA
BRANCH  10  17
ATOM     17  C   UNL A   1      40.733  29.529  29.727  1.00  0.00    -0.020 A 
ATOM     18  C   UNL A   1      41.890  30.187  29.269  1.00  0.00     0.013 A 
ATOM     19  C   UNL A   1      40.376  28.315  29.105  1.00  0.00     0.013 A 
ATOM     20  C   UNL A   1      42.613  29.699  28.175  1.00  0.00     0.086 A 
ATOM     21  C   UNL A   1      41.113  27.799  28.036  1.00  0.00     0.086 A 
ATOM     22  C   UNL A   1      42.213  28.512  27.555  1.00  0.00     0.269 A 
BRANCH  22  23
ATOM     23  N   UNL A   1      42.926  28.030  26.367  1.00  0.00     0.062 N 
ATOM     24  O   UNL A   1      42.720  28.616  25.294  1.00  0.00    -0.258 OA
ATOM     25  O   UNL A   1      43.678  27.054  26.503  1.00  0.00    -0.258 OA
ENDBRANCH  22  23
ENDBRANCH  10  17
BRANCH  15  26
ATOM     26  C   UNL A   1      41.931  29.521  33.003  1.00  0.00    -0.033 A 
ATOM     27  C   UNL A   1      42.259  30.843  33.334  1.00  0.00     0.007 A 
ATOM     28  C   UNL A   1      42.959  28.640  32.647  1.00  0.00     0.007 A 
ATOM     29  C   UNL A   1      43.588  31.265  33.345  1.00  0.00     0.001 A 
ATOM     30  C   UNL A   1      44.291  29.066  32.651  1.00  0.00     0.001 A 
ATOM     31  C   UNL A   1      44.605  30.374  33.008  1.00  0.00     0.000 A 
ENDBRANCH  15  26
ENDBRANCH   7   8
ENDBRANCH   6   7
ENDBRANCH   5   6
ENDBRANCH   3   5
ENDBRANCH   2   3
ENDBRANCH   1   2
BRANCH   1  32
ATOM     32  C   UNL A   1      34.104  34.089  30.445  1.00  0.00     0.275 C 
BRANCH  32  33
ATOM     33  O   UNL A   1      34.113  32.893  31.232  1.00  0.00    -0.458 OA
BRANCH  33  34
ATOM     34  C   UNL A   1      34.051  33.140  32.565  1.00  0.00     0.338 C 
ATOM     35  O   UNL A   1      33.039  33.128  33.249  1.00  0.00    -0.246 OA
BRANCH  34  36
ATOM     36  C   UNL A   1      35.405  33.237  33.143  1.00  0.00     0.060 A 
ATOM     37  C   UNL A   1      35.790  34.501  33.601  1.00  0.00     0.016 A 
ATOM     38  C   UNL A   1      36.290  32.156  33.221  1.00  0.00     0.016 A 
ATOM     39  C   UNL A   1      37.083  34.709  34.063  1.00  0.00     0.010 A 
ATOM     40  C   UNL A   1      37.592  32.367  33.695  1.00  0.00     0.010 A 
ATOM     41  C   UNL A   1      38.006  33.655  34.074  1.00  0.00    -0.014 A 
BRANCH  41  42
ATOM     42  C   UNL A   1      39.425  33.982  34.357  1.00  0.00     0.031 A 
ATOM     43  C   UNL A   1      40.409  34.018  33.219  1.00  0.00     0.074 A 
ATOM     44  C   UNL A   1      39.796  34.376  35.590  1.00  0.00     0.049 A 
ATOM     45  N   UNL A   1      41.644  34.451  33.207  1.00  0.00    -0.248 NA
ATOM     46  C   UNL A   1      39.938  33.514  31.919  1.00  0.00     0.031 C 
ATOM     47  C   UNL A   1      38.927  34.397  36.767  1.00  0.00     0.029 A 
ATOM     48  N   UNL A   1      40.996  34.855  36.049  1.00  0.00    -0.354 N 
ATOM     49  C   UNL A   1      42.087  34.297  31.899  1.00  0.00     0.074 A 
ATOM     50  C   UNL A   1      41.009  33.684  31.155  1.00  0.00     0.031 C 
ATOM     51  C   UNL A   1      39.622  34.877  37.813  1.00  0.00     0.029 A 
ATOM     52  C   UNL A   1      40.983  35.188  37.382  1.00  0.00     0.049 A 
ATOM     53  H   UNL A   1      41.793  34.951  35.477  1.00  0.00     0.167 HD
ATOM     54  C   UNL A   1      43.275  34.658  31.360  1.00  0.00     0.037 A 
ATOM     55  C   UNL A   1      41.958  35.693  38.164  1.00  0.00     0.037 A 
ATOM     56  C   UNL A   1      44.353  35.257  32.104  1.00  0.00     0.049 A 
ATOM     57  C   UNL A   1      43.292  36.033  37.550  1.00  0.00     0.074 A 
ATOM     58  C   UNL A   1      45.596  35.659  31.648  1.00  0.00     0.029 A 
ATOM     59  N   UNL A   1      44.318  35.534  33.462  1.00  0.00    -0.354 N 
ATOM     60  N   UNL A   1      43.679  35.926  36.300  1.00  0.00    -0.248 NA
ATOM     61  C   UNL A   1      44.318  36.578  38.450  1.00  0.00     0.031 C 
ATOM     62  C   UNL A   1      46.329  36.140  32.738  1.00  0.00     0.029 A 
ATOM     63  C   UNL A   1      45.525  36.082  33.865  1.00  0.00     0.049 A 
ATOM     64  H   UNL A   1      43.549  35.367  34.054  1.00  0.00     0.167 HD
ATOM     65  C   UNL A   1      44.983  36.410  36.262  1.00  0.00     0.074 A 
ATOM     66  C   UNL A   1      45.311  36.831  37.607  1.00  0.00     0.031 C 
ATOM     67  C   UNL A   1      45.836  36.495  35.210  1.00  0.00     0.037 A 
BRANCH  54  68
ATOM     68  C   UNL A   1      43.478  34.416  29.890  1.00  0.00     0.058 A 
ATOM     69  C   UNL A   1      43.100  35.371  28.933  1.00  0.00     0.135 A 
ATOM     70  C   UNL A   1      44.105  33.245  29.436  1.00  0.00     0.135 A 
ATOM     71  F   UNL A   1      42.479  36.499  29.312  1.00  0.00    -0.206 F 
ATOM     72  C   UNL A   1      43.329  35.171  27.576  1.00  0.00     0.059 A 
ATOM     73  C   UNL A   1      44.363  33.032  28.085  1.00  0.00     0.059 A 
ATOM     74  F   UNL A   1      44.479  32.297  30.309  1.00  0.00    -0.206 F 
ATOM     75  C   UNL A   1      43.965  33.999  27.162  1.00  0.00     0.060 A 
BRANCH  75  76
ATOM     76  S   UNL A   1      44.281  33.766  25.399  1.00  0.00     0.124 S 
ATOM     77  O   UNL A   1      45.631  34.306  25.271  1.00  0.00    -0.237 OA
ATOM     78  O   UNL A   1      44.161  32.319  25.249  1.00  0.00    -0.237 OA
ATOM     79  O   UNL A   1      43.230  34.550  24.758  1.00  0.00    -0.744 OA
ENDBRANCH  75  76
ENDBRANCH  54  68
BRANCH  55  80
ATOM     80  C   UNL A   1      41.719  35.905  39.616  1.00  0.00     0.058 A 
ATOM     81  C   UNL A   1      41.959  34.893  40.556  1.00  0.00     0.135 A 
ATOM     82  C   UNL A   1      41.205  37.124  40.087  1.00  0.00     0.135 A 
ATOM     83  F   UNL A   1      42.443  33.707  40.156  1.00  0.00    -0.206 F 
ATOM     84  C   UNL A   1      41.670  35.067  41.906  1.00  0.00     0.059 A 
ATOM     85  C   UNL A   1      40.932  37.332  41.434  1.00  0.00     0.059 A 
ATOM     86  F   UNL A   1      40.968  38.130  39.231  1.00  0.00    -0.206 F 
ATOM     87  C   UNL A   1      41.151  36.290  42.335  1.00  0.00     0.060 A 
BRANCH  87  88
ATOM     88  S   UNL A   1      40.786  36.517  44.089  1.00  0.00     0.124 S 
ATOM     89  O   UNL A   1      39.556  37.298  44.034  1.00  0.00    -0.237 OA
ATOM     90  O   UNL A   1      40.649  35.141  44.557  1.00  0.00    -0.237 OA
ATOM     91  O   UNL A   1      41.963  37.224  44.587  1.00  0.00    -0.744 OA
ENDBRANCH  87  88
ENDBRANCH  55  80
BRANCH  67  92
ATOM     92  C   UNL A   1      47.196  37.081  35.472  1.00  0.00     0.058 A 
ATOM     93  C   UNL A   1      48.286  36.277  35.839  1.00  0.00     0.135 A 
ATOM     94  C   UNL A   1      47.419  38.461  35.332  1.00  0.00     0.135 A 
ATOM     95  F   UNL A   1      48.127  34.952  35.989  1.00  0.00    -0.206 F 
ATOM     96  C   UNL A   1      49.540  36.822  36.096  1.00  0.00     0.059 A 
ATOM     97  C   UNL A   1      48.671  39.025  35.557  1.00  0.00     0.059 A 
ATOM     98  F   UNL A   1      46.415  39.275  34.969  1.00  0.00    -0.206 F 
ATOM     99  C   UNL A   1      49.722  38.200  35.957  1.00  0.00     0.060 A 
BRANCH  99 100
ATOM    100  S   UNL A   1      51.353  38.897  36.288  1.00  0.00     0.124 S 
ATOM    101  O   UNL A   1      51.586  38.461  37.660  1.00  0.00    -0.237 OA
ATOM    102  O   UNL A   1      52.181  38.258  35.269  1.00  0.00    -0.237 OA
ATOM    103  O   UNL A   1      51.150  40.332  36.111  1.00  0.00    -0.744 OA
ENDBRANCH  99 100
ENDBRANCH  67  92
ENDBRANCH  41  42
ENDBRANCH  34  36
ENDBRANCH  33  34
ENDBRANCH  32  33
ENDBRANCH   1  32
TORSDOF 20
ENDMDL
