MODEL 1
REMARK VINA RESULT:     -12.5      0.000      0.000
REMARK SMILES Cc1ccc(Sc2ccc(=O)n(-c3ccc(C(=O)OCCOC(=O)c4ccc(-c5c6nc(c(-c7c(F)cc(S(=O)(=O)[O-])cc7F)c7ccc([nH]7)c(-c7c(F)cc(S(=O)(=O)[O-])cc7F)c7nc(c(-c8c(F)cc(S(=O)(=O)[O-])cc8F)c8ccc5[nH]8)C=C7)C=C6)cc4)cc3)n2)cc1
REMARK SMILES IDX 20 1 19 2 17 3 18 4 16 5 13 6 14 7 92 8 15 9 91 10 12 11
REMARK SMILES IDX 7 12 8 13 93 14 9 15 10 16 11 17 6 18 5 19 1 20 2 21 3 22
REMARK SMILES IDX 95 23 4 24 94 25 21 26 22 27 23 28 24 29 25 30 26 31 90 32
REMARK SMILES IDX 27 33 89 34 28 35 29 36 30 37 83 38 31 39 88 40 82 41 84 42
REMARK SMILES IDX 32 43 87 44 81 45 80 46 33 48 67 49 46 50 66 51 47 52 50 53
REMARK SMILES IDX 65 54 85 55 48 56 49 57 64 59 86 60 51 61 34 62 35 63 44 64
REMARK SMILES IDX 36 65 37 66 43 67 45 68 38 69 39 70 40 71 41 72 42 73 68 74
REMARK SMILES IDX 69 75 78 76 70 77 71 78 77 79 79 80 72 81 73 82 74 83 75 84
REMARK SMILES IDX 76 85 52 86 53 87 62 88 54 89 55 90 61 91 63 92 56 93 57 94
REMARK SMILES IDX 58 95 59 96 60 97
REMARK H PARENT 84 47 50 58
REMARK Flexibility Score: inf
ROOT
ATOM      1  C   UNL A   1      33.616  31.603  27.749  1.00  0.00     0.275 C 
ENDROOT
BRANCH   1   2
ATOM      2  O   UNL A   1      33.195  30.305  27.317  1.00  0.00    -0.458 OA
BRANCH   2   3
ATOM      3  C   UNL A   1      32.298  30.328  26.302  1.00  0.00     0.338 C 
ATOM      4  O   UNL A   1      31.470  31.177  26.096  1.00  0.00    -0.246 OA
BRANCH   3   5
ATOM      5  C   UNL A   1      32.400  29.058  25.552  1.00  0.00     0.060 A 
ATOM      6  C   UNL A   1      32.791  26.518  24.401  1.00  0.00     0.069 A 
ATOM      7  C   UNL A   1      31.496  26.976  24.728  1.00  0.00     0.029 A 
ATOM      8  C   UNL A   1      33.850  27.421  24.530  1.00  0.00     0.029 A 
ATOM      9  C   UNL A   1      31.297  28.246  25.295  1.00  0.00     0.018 A 
ATOM     10  C   UNL A   1      33.667  28.656  25.146  1.00  0.00     0.018 A 
BRANCH   6  11
ATOM     11  N   UNL A   1      33.026  25.145  24.055  1.00  0.00    -0.196 N 
ATOM     12  C   UNL A   1      33.278  23.031  24.892  1.00  0.00     0.122 A 
ATOM     13  C   UNL A   1      33.775  22.486  23.625  1.00  0.00     0.043 A 
ATOM     14  N   UNL A   1      32.968  24.262  25.122  1.00  0.00    -0.158 NA
ATOM     15  C   UNL A   1      33.803  23.337  22.603  1.00  0.00     0.076 A 
ATOM     16  C   UNL A   1      33.384  24.748  22.756  1.00  0.00     0.271 A 
ATOM     17  O   UNL A   1      33.466  25.436  21.739  1.00  0.00    -0.267 OA
BRANCH  12  18
ATOM     18  S   UNL A   1      33.157  21.844  26.164  1.00  0.00    -0.068 SA
BRANCH  18  19
ATOM     19  C   UNL A   1      33.527  20.299  25.340  1.00  0.00     0.014 A 
ATOM     20  C   UNL A   1      34.121  16.607  23.161  1.00  0.00     0.044 C 
ATOM     21  C   UNL A   1      33.921  17.869  23.948  1.00  0.00    -0.051 A 
ATOM     22  C   UNL A   1      32.634  18.374  24.145  1.00  0.00     0.004 A 
ATOM     23  C   UNL A   1      35.009  18.581  24.460  1.00  0.00     0.004 A 
ATOM     24  C   UNL A   1      32.440  19.574  24.836  1.00  0.00     0.016 A 
ATOM     25  C   UNL A   1      34.815  19.786  25.150  1.00  0.00     0.016 A 
ENDBRANCH  18  19
ENDBRANCH  12  18
ENDBRANCH   6  11
ENDBRANCH   3   5
ENDBRANCH   2   3
ENDBRANCH   1   2
BRANCH   1  26
ATOM     26  C   UNL A   1      34.799  31.632  28.758  1.00  0.00     0.275 C 
BRANCH  26  27
ATOM     27  O   UNL A   1      35.448  30.374  29.146  1.00  0.00    -0.458 OA
BRANCH  27  28
ATOM     28  C   UNL A   1      36.380  29.560  28.577  1.00  0.00     0.338 C 
ATOM     29  O   UNL A   1      36.141  28.907  27.567  1.00  0.00    -0.246 OA
BRANCH  28  30
ATOM     30  C   UNL A   1      37.780  29.659  29.001  1.00  0.00     0.060 A 
ATOM     31  C   UNL A   1      38.340  30.886  29.411  1.00  0.00     0.016 A 
ATOM     32  C   UNL A   1      38.506  28.500  29.121  1.00  0.00     0.016 A 
ATOM     33  C   UNL A   1      39.611  30.887  29.967  1.00  0.00     0.010 A 
ATOM     34  C   UNL A   1      39.501  28.448  30.038  1.00  0.00     0.010 A 
ATOM     35  C   UNL A   1      40.160  29.643  30.271  1.00  0.00    -0.014 A 
BRANCH  35  36
ATOM     36  C   UNL A   1      41.576  29.373  30.434  1.00  0.00     0.031 A 
ATOM     37  C   UNL A   1      42.145  28.508  29.411  1.00  0.00     0.074 A 
ATOM     38  C   UNL A   1      42.118  30.097  31.446  1.00  0.00     0.049 A 
ATOM     39  N   UNL A   1      42.501  27.277  29.550  1.00  0.00    -0.248 NA
ATOM     40  C   UNL A   1      42.132  28.953  28.009  1.00  0.00     0.031 C 
ATOM     41  C   UNL A   1      43.456  30.254  31.967  1.00  0.00     0.029 A 
ATOM     42  N   UNL A   1      41.345  30.831  32.365  1.00  0.00    -0.354 N 
ATOM     43  C   UNL A   1      43.261  27.042  28.419  1.00  0.00     0.074 A 
ATOM     44  C   UNL A   1      42.704  27.908  27.405  1.00  0.00     0.031 C 
ATOM     45  C   UNL A   1      43.355  30.643  33.261  1.00  0.00     0.029 A 
ATOM     46  C   UNL A   1      41.943  30.799  33.611  1.00  0.00     0.049 A 
ATOM     47  H   UNL A   1      40.505  31.298  32.153  1.00  0.00     0.167 HD
ATOM     48  C   UNL A   1      44.585  26.714  28.562  1.00  0.00     0.037 A 
ATOM     49  C   UNL A   1      41.226  30.129  34.560  1.00  0.00     0.037 A 
ATOM     50  C   UNL A   1      44.979  26.876  29.972  1.00  0.00     0.049 A 
ATOM     51  C   UNL A   1      41.774  28.722  34.650  1.00  0.00     0.074 A 
ATOM     52  C   UNL A   1      45.708  27.864  30.617  1.00  0.00     0.029 A 
ATOM     53  N   UNL A   1      44.296  26.193  30.977  1.00  0.00    -0.354 N 
ATOM     54  N   UNL A   1      42.377  28.099  33.665  1.00  0.00    -0.248 NA
ATOM     55  C   UNL A   1      41.884  28.002  35.913  1.00  0.00     0.031 C 
ATOM     56  C   UNL A   1      45.422  27.791  32.008  1.00  0.00     0.029 A 
ATOM     57  C   UNL A   1      44.473  26.802  32.208  1.00  0.00     0.049 A 
ATOM     58  H   UNL A   1      43.757  25.381  30.831  1.00  0.00     0.167 HD
ATOM     59  C   UNL A   1      43.037  27.000  34.151  1.00  0.00     0.074 A 
ATOM     60  C   UNL A   1      42.676  26.975  35.562  1.00  0.00     0.031 C 
ATOM     61  C   UNL A   1      43.893  26.223  33.415  1.00  0.00     0.037 A 
BRANCH  48  62
ATOM     62  C   UNL A   1      45.560  26.670  27.396  1.00  0.00     0.058 A 
ATOM     63  C   UNL A   1      46.251  27.820  26.961  1.00  0.00     0.135 A 
ATOM     64  C   UNL A   1      45.902  25.484  26.703  1.00  0.00     0.135 A 
ATOM     65  F   UNL A   1      46.103  29.002  27.576  1.00  0.00    -0.206 F 
ATOM     66  C   UNL A   1      47.152  27.811  25.892  1.00  0.00     0.059 A 
ATOM     67  C   UNL A   1      46.765  25.458  25.600  1.00  0.00     0.059 A 
ATOM     68  F   UNL A   1      45.448  24.288  27.106  1.00  0.00    -0.206 F 
ATOM     69  C   UNL A   1      47.396  26.629  25.209  1.00  0.00     0.060 A 
BRANCH  69  70
ATOM     70  S   UNL A   1      48.598  26.633  23.864  1.00  0.00     0.124 S 
ATOM     71  O   UNL A   1      49.856  26.421  24.574  1.00  0.00    -0.237 OA
ATOM     72  O   UNL A   1      48.135  25.519  23.043  1.00  0.00    -0.237 OA
ATOM     73  O   UNL A   1      48.439  27.956  23.267  1.00  0.00    -0.744 OA
ENDBRANCH  69  70
ENDBRANCH  48  62
BRANCH  49  74
ATOM     74  C   UNL A   1      39.823  30.682  34.721  1.00  0.00     0.058 A 
ATOM     75  C   UNL A   1      39.716  31.824  35.554  1.00  0.00     0.135 A 
ATOM     76  C   UNL A   1      38.672  30.388  33.966  1.00  0.00     0.135 A 
ATOM     77  F   UNL A   1      40.748  32.173  36.341  1.00  0.00    -0.206 F 
ATOM     78  C   UNL A   1      38.617  32.681  35.554  1.00  0.00     0.059 A 
ATOM     79  C   UNL A   1      37.529  31.238  33.965  1.00  0.00     0.059 A 
ATOM     80  F   UNL A   1      38.648  29.309  33.170  1.00  0.00    -0.206 F 
ATOM     81  C   UNL A   1      37.530  32.402  34.738  1.00  0.00     0.060 A 
BRANCH  81  82
ATOM     82  S   UNL A   1      36.223  33.668  34.691  1.00  0.00     0.124 S 
ATOM     83  O   UNL A   1      35.925  33.843  36.109  1.00  0.00    -0.237 OA
ATOM     84  O   UNL A   1      36.919  34.784  34.050  1.00  0.00    -0.237 OA
ATOM     85  O   UNL A   1      35.160  33.063  33.908  1.00  0.00    -0.744 OA
ENDBRANCH  81  82
ENDBRANCH  49  74
BRANCH  61  86
ATOM     86  C   UNL A   1      44.381  24.849  33.819  1.00  0.00     0.058 A 
ATOM     87  C   UNL A   1      45.735  24.482  33.838  1.00  0.00     0.135 A 
ATOM     88  C   UNL A   1      43.484  23.899  34.379  1.00  0.00     0.135 A 
ATOM     89  F   UNL A   1      46.700  25.333  33.461  1.00  0.00    -0.206 F 
ATOM     90  C   UNL A   1      46.162  23.238  34.293  1.00  0.00     0.059 A 
ATOM     91  C   UNL A   1      43.901  22.691  34.920  1.00  0.00     0.059 A 
ATOM     92  F   UNL A   1      42.162  24.115  34.442  1.00  0.00    -0.206 F 
ATOM     93  C   UNL A   1      45.238  22.351  34.835  1.00  0.00     0.060 A 
BRANCH  93  94
ATOM     94  S   UNL A   1      45.800  20.764  35.461  1.00  0.00     0.124 S 
ATOM     95  O   UNL A   1      45.809  21.013  36.899  1.00  0.00    -0.237 OA
ATOM     96  O   UNL A   1      44.768  19.849  34.983  1.00  0.00    -0.237 OA
ATOM     97  O   UNL A   1      47.110  20.601  34.838  1.00  0.00    -0.744 OA
ENDBRANCH  93  94
ENDBRANCH  61  86
ENDBRANCH  35  36
ENDBRANCH  28  30
ENDBRANCH  27  28
ENDBRANCH  26  27
ENDBRANCH   1  26
TORSDOF 17
ENDMDL
MODEL 2
REMARK VINA RESULT:     -11.9      4.180     10.605
REMARK SMILES Cc1ccc(Sc2ccc(=O)n(-c3ccc(C(=O)OCCOC(=O)c4ccc(-c5c6nc(c(-c7c(F)cc(S(=O)(=O)[O-])cc7F)c7ccc([nH]7)c(-c7c(F)cc(S(=O)(=O)[O-])cc7F)c7nc(c(-c8c(F)cc(S(=O)(=O)[O-])cc8F)c8ccc5[nH]8)C=C7)C=C6)cc4)cc3)n2)cc1
REMARK SMILES IDX 20 1 19 2 17 3 18 4 16 5 13 6 14 7 92 8 15 9 91 10 12 11
REMARK SMILES IDX 7 12 8 13 93 14 9 15 10 16 11 17 6 18 5 19 1 20 2 21 3 22
REMARK SMILES IDX 95 23 4 24 94 25 21 26 22 27 23 28 24 29 25 30 26 31 90 32
REMARK SMILES IDX 27 33 89 34 28 35 29 36 30 37 83 38 31 39 88 40 82 41 84 42
REMARK SMILES IDX 32 43 87 44 81 45 80 46 33 48 67 49 46 50 66 51 47 52 50 53
REMARK SMILES IDX 65 54 85 55 48 56 49 57 64 59 86 60 51 61 34 62 35 63 44 64
REMARK SMILES IDX 36 65 37 66 43 67 45 68 38 69 39 70 40 71 41 72 42 73 68 74
REMARK SMILES IDX 69 75 78 76 70 77 71 78 77 79 79 80 72 81 73 82 74 83 75 84
REMARK SMILES IDX 76 85 52 86 53 87 62 88 54 89 55 90 61 91 63 92 56 93 57 94
REMARK SMILES IDX 58 95 59 96 60 97
REMARK H PARENT 84 47 50 58
REMARK Flexibility Score: inf
ROOT
ATOM      1  C   UNL A   1      42.638  22.846  28.048  1.00  0.00     0.275 C 
ENDROOT
BRANCH   1   2
ATOM      2  O   UNL A   1      41.358  22.234  27.863  1.00  0.00    -0.458 OA
BRANCH   2   3
ATOM      3  C   UNL A   1      41.106  21.864  26.584  1.00  0.00     0.338 C 
ATOM      4  O   UNL A   1      41.913  21.488  25.774  1.00  0.00    -0.246 OA
BRANCH   3   5
ATOM      5  C   UNL A   1      39.682  22.129  26.287  1.00  0.00     0.060 A 
ATOM      6  C   UNL A   1      37.089  22.868  25.474  1.00  0.00     0.069 A 
ATOM      7  C   UNL A   1      37.544  21.540  25.332  1.00  0.00     0.029 A 
ATOM      8  C   UNL A   1      37.910  23.764  26.165  1.00  0.00     0.029 A 
ATOM      9  C   UNL A   1      38.834  21.166  25.744  1.00  0.00     0.018 A 
ATOM     10  C   UNL A   1      39.209  23.416  26.521  1.00  0.00     0.018 A 
BRANCH   6  11
ATOM     11  N   UNL A   1      35.880  23.309  24.839  1.00  0.00    -0.196 N 
ATOM     12  C   UNL A   1      33.711  23.944  25.201  1.00  0.00     0.122 A 
ATOM     13  C   UNL A   1      33.355  23.877  23.781  1.00  0.00     0.043 A 
ATOM     14  N   UNL A   1      34.857  23.646  25.714  1.00  0.00    -0.158 NA
ATOM     15  C   UNL A   1      34.350  23.575  22.950  1.00  0.00     0.076 A 
ATOM     16  C   UNL A   1      35.718  23.301  23.444  1.00  0.00     0.271 A 
ATOM     17  O   UNL A   1      36.546  23.025  22.577  1.00  0.00    -0.267 OA
BRANCH  12  18
ATOM     18  S   UNL A   1      32.398  24.453  26.228  1.00  0.00    -0.068 SA
BRANCH  18  19
ATOM     19  C   UNL A   1      32.589  26.230  26.315  1.00  0.00     0.014 A 
ATOM     20  C   UNL A   1      32.772  30.532  26.749  1.00  0.00     0.044 C 
ATOM     21  C   UNL A   1      32.710  29.045  26.562  1.00  0.00    -0.051 A 
ATOM     22  C   UNL A   1      31.501  28.368  26.739  1.00  0.00     0.004 A 
ATOM     23  C   UNL A   1      33.856  28.307  26.251  1.00  0.00     0.004 A 
ATOM     24  C   UNL A   1      31.442  26.976  26.613  1.00  0.00     0.016 A 
ATOM     25  C   UNL A   1      33.797  26.912  26.129  1.00  0.00     0.016 A 
ENDBRANCH  18  19
ENDBRANCH  12  18
ENDBRANCH   6  11
ENDBRANCH   3   5
ENDBRANCH   2   3
ENDBRANCH   1   2
BRANCH   1  26
ATOM     26  C   UNL A   1      42.636  24.397  28.178  1.00  0.00     0.275 C 
BRANCH  26  27
ATOM     27  O   UNL A   1      41.375  25.097  28.448  1.00  0.00    -0.458 OA
BRANCH  27  28
ATOM     28  C   UNL A   1      40.886  26.335  28.164  1.00  0.00     0.338 C 
ATOM     29  O   UNL A   1      40.610  26.678  27.020  1.00  0.00    -0.246 OA
BRANCH  28  30
ATOM     30  C   UNL A   1      40.417  27.194  29.257  1.00  0.00     0.060 A 
ATOM     31  C   UNL A   1      39.419  26.764  30.154  1.00  0.00     0.016 A 
ATOM     32  C   UNL A   1      41.068  28.383  29.473  1.00  0.00     0.016 A 
ATOM     33  C   UNL A   1      39.142  27.543  31.268  1.00  0.00     0.010 A 
ATOM     34  C   UNL A   1      41.117  28.876  30.733  1.00  0.00     0.010 A 
ATOM     35  C   UNL A   1      40.020  28.594  31.528  1.00  0.00    -0.014 A 
BRANCH  35  36
ATOM     36  C   UNL A   1      39.709  29.761  32.331  1.00  0.00     0.031 A 
ATOM     37  C   UNL A   1      38.792  30.699  31.699  1.00  0.00     0.074 A 
ATOM     38  C   UNL A   1      40.240  29.678  33.577  1.00  0.00     0.049 A 
ATOM     39  N   UNL A   1      39.085  31.853  31.204  1.00  0.00    -0.248 NA
ATOM     40  C   UNL A   1      37.431  30.253  31.362  1.00  0.00     0.031 C 
ATOM     41  C   UNL A   1      40.175  30.509  34.757  1.00  0.00     0.029 A 
ATOM     42  N   UNL A   1      41.171  28.691  33.951  1.00  0.00    -0.354 N 
ATOM     43  C   UNL A   1      37.848  32.449  31.046  1.00  0.00     0.074 A 
ATOM     44  C   UNL A   1      36.933  31.357  30.800  1.00  0.00     0.031 C 
ATOM     45  C   UNL A   1      41.277  30.259  35.503  1.00  0.00     0.029 A 
ATOM     46  C   UNL A   1      42.076  29.218  34.854  1.00  0.00     0.049 A 
ATOM     47  H   UNL A   1      41.177  27.764  33.619  1.00  0.00     0.167 HD
ATOM     48  C   UNL A   1      37.567  33.594  31.745  1.00  0.00     0.037 A 
ATOM     49  C   UNL A   1      43.354  29.299  34.384  1.00  0.00     0.037 A 
ATOM     50  C   UNL A   1      38.646  33.855  32.713  1.00  0.00     0.049 A 
ATOM     51  C   UNL A   1      43.576  30.708  33.878  1.00  0.00     0.074 A 
ATOM     52  C   UNL A   1      38.714  33.674  34.086  1.00  0.00     0.029 A 
ATOM     53  N   UNL A   1      39.966  33.974  32.280  1.00  0.00    -0.354 N 
ATOM     54  N   UNL A   1      42.621  31.493  33.438  1.00  0.00    -0.248 NA
ATOM     55  C   UNL A   1      44.843  31.409  34.041  1.00  0.00     0.031 C 
ATOM     56  C   UNL A   1      40.085  33.645  34.463  1.00  0.00     0.029 A 
ATOM     57  C   UNL A   1      40.856  33.745  33.317  1.00  0.00     0.049 A 
ATOM     58  H   UNL A   1      40.232  34.193  31.357  1.00  0.00     0.167 HD
ATOM     59  C   UNL A   1      43.081  32.783  33.372  1.00  0.00     0.074 A 
ATOM     60  C   UNL A   1      44.485  32.670  33.740  1.00  0.00     0.031 C 
ATOM     61  C   UNL A   1      42.293  33.873  33.104  1.00  0.00     0.037 A 
BRANCH  48  62
ATOM     62  C   UNL A   1      36.171  34.194  31.830  1.00  0.00     0.058 A 
ATOM     63  C   UNL A   1      35.628  34.638  33.054  1.00  0.00     0.135 A 
ATOM     64  C   UNL A   1      35.341  34.415  30.706  1.00  0.00     0.135 A 
ATOM     65  F   UNL A   1      36.328  34.580  34.195  1.00  0.00    -0.206 F 
ATOM     66  C   UNL A   1      34.349  35.191  33.165  1.00  0.00     0.059 A 
ATOM     67  C   UNL A   1      34.040  34.924  30.798  1.00  0.00     0.059 A 
ATOM     68  F   UNL A   1      35.784  34.191  29.460  1.00  0.00    -0.206 F 
ATOM     69  C   UNL A   1      33.556  35.321  32.035  1.00  0.00     0.060 A 
BRANCH  69  70
ATOM     70  S   UNL A   1      31.928  36.082  32.197  1.00  0.00     0.124 S 
ATOM     71  O   UNL A   1      32.195  37.189  33.110  1.00  0.00    -0.237 OA
ATOM     72  O   UNL A   1      31.631  36.453  30.817  1.00  0.00    -0.237 OA
ATOM     73  O   UNL A   1      31.103  35.011  32.747  1.00  0.00    -0.744 OA
ENDBRANCH  69  70
ENDBRANCH  48  62
BRANCH  49  74
ATOM     74  C   UNL A   1      43.882  27.959  33.911  1.00  0.00     0.058 A 
ATOM     75  C   UNL A   1      44.023  26.973  34.921  1.00  0.00     0.135 A 
ATOM     76  C   UNL A   1      44.002  27.478  32.593  1.00  0.00     0.135 A 
ATOM     77  F   UNL A   1      43.958  27.334  36.214  1.00  0.00    -0.206 F 
ATOM     78  C   UNL A   1      44.145  25.610  34.661  1.00  0.00     0.059 A 
ATOM     79  C   UNL A   1      44.147  26.091  32.303  1.00  0.00     0.059 A 
ATOM     80  F   UNL A   1      43.922  28.327  31.558  1.00  0.00    -0.206 F 
ATOM     81  C   UNL A   1      44.181  25.163  33.348  1.00  0.00     0.060 A 
BRANCH  81  82
ATOM     82  S   UNL A   1      44.175  23.358  33.119  1.00  0.00     0.124 S 
ATOM     83  O   UNL A   1      43.018  22.959  33.914  1.00  0.00    -0.237 OA
ATOM     84  O   UNL A   1      44.012  23.248  31.669  1.00  0.00    -0.237 OA
ATOM     85  O   UNL A   1      45.460  22.922  33.637  1.00  0.00    -0.744 OA
ENDBRANCH  81  82
ENDBRANCH  49  74
BRANCH  61  86
ATOM     86  C   UNL A   1      42.810  35.241  32.718  1.00  0.00     0.058 A 
ATOM     87  C   UNL A   1      42.976  36.293  33.631  1.00  0.00     0.135 A 
ATOM     88  C   UNL A   1      43.331  35.477  31.416  1.00  0.00     0.135 A 
ATOM     89  F   UNL A   1      42.650  36.159  34.924  1.00  0.00    -0.206 F 
ATOM     90  C   UNL A   1      43.531  37.515  33.264  1.00  0.00     0.059 A 
ATOM     91  C   UNL A   1      43.968  36.656  31.056  1.00  0.00     0.059 A 
ATOM     92  F   UNL A   1      43.257  34.560  30.440  1.00  0.00    -0.206 F 
ATOM     93  C   UNL A   1      44.028  37.686  31.977  1.00  0.00     0.060 A 
BRANCH  93  94
ATOM     94  S   UNL A   1      44.783  39.251  31.522  1.00  0.00     0.124 S 
ATOM     95  O   UNL A   1      46.078  38.806  31.019  1.00  0.00    -0.237 OA
ATOM     96  O   UNL A   1      43.858  39.770  30.519  1.00  0.00    -0.237 OA
ATOM     97  O   UNL A   1      44.810  39.990  32.780  1.00  0.00    -0.744 OA
ENDBRANCH  93  94
ENDBRANCH  61  86
ENDBRANCH  35  36
ENDBRANCH  28  30
ENDBRANCH  27  28
ENDBRANCH  26  27
ENDBRANCH   1  26
TORSDOF 17
ENDMDL
MODEL 3
REMARK VINA RESULT:     -11.8      1.829      2.362
REMARK SMILES Cc1ccc(Sc2ccc(=O)n(-c3ccc(C(=O)OCCOC(=O)c4ccc(-c5c6nc(c(-c7c(F)cc(S(=O)(=O)[O-])cc7F)c7ccc([nH]7)c(-c7c(F)cc(S(=O)(=O)[O-])cc7F)c7nc(c(-c8c(F)cc(S(=O)(=O)[O-])cc8F)c8ccc5[nH]8)C=C7)C=C6)cc4)cc3)n2)cc1
REMARK SMILES IDX 20 1 19 2 17 3 18 4 16 5 13 6 14 7 92 8 15 9 91 10 12 11
REMARK SMILES IDX 7 12 8 13 93 14 9 15 10 16 11 17 6 18 5 19 1 20 2 21 3 22
REMARK SMILES IDX 95 23 4 24 94 25 21 26 22 27 23 28 24 29 25 30 26 31 90 32
REMARK SMILES IDX 27 33 89 34 28 35 29 36 30 37 83 38 31 39 88 40 82 41 84 42
REMARK SMILES IDX 32 43 87 44 81 45 80 46 33 48 67 49 46 50 66 51 47 52 50 53
REMARK SMILES IDX 65 54 85 55 48 56 49 57 64 59 86 60 51 61 34 62 35 63 44 64
REMARK SMILES IDX 36 65 37 66 43 67 45 68 38 69 39 70 40 71 41 72 42 73 68 74
REMARK SMILES IDX 69 75 78 76 70 77 71 78 77 79 79 80 72 81 73 82 74 83 75 84
REMARK SMILES IDX 76 85 52 86 53 87 62 88 54 89 55 90 61 91 63 92 56 93 57 94
REMARK SMILES IDX 58 95 59 96 60 97
REMARK H PARENT 84 47 50 58
REMARK Flexibility Score: inf
ROOT
ATOM      1  C   UNL A   1      33.342  30.808  27.634  1.00  0.00     0.275 C 
ENDROOT
BRANCH   1   2
ATOM      2  O   UNL A   1      33.710  30.007  26.506  1.00  0.00    -0.458 OA
BRANCH   2   3
ATOM      3  C   UNL A   1      32.666  29.662  25.714  1.00  0.00     0.338 C 
ATOM      4  O   UNL A   1      31.748  30.370  25.388  1.00  0.00    -0.246 OA
BRANCH   3   5
ATOM      5  C   UNL A   1      32.754  28.216  25.419  1.00  0.00     0.060 A 
ATOM      6  C   UNL A   1      33.274  25.517  24.808  1.00  0.00     0.069 A 
ATOM      7  C   UNL A   1      32.769  25.891  26.072  1.00  0.00     0.029 A 
ATOM      8  C   UNL A   1      33.366  26.508  23.827  1.00  0.00     0.029 A 
ATOM      9  C   UNL A   1      32.501  27.236  26.377  1.00  0.00     0.018 A 
ATOM     10  C   UNL A   1      33.159  27.848  24.141  1.00  0.00     0.018 A 
BRANCH   6  11
ATOM     11  N   UNL A   1      33.777  24.194  24.574  1.00  0.00    -0.196 N 
ATOM     12  C   UNL A   1      33.248  22.114  23.779  1.00  0.00     0.122 A 
ATOM     13  C   UNL A   1      34.460  21.494  24.323  1.00  0.00     0.043 A 
ATOM     14  N   UNL A   1      32.895  23.347  23.920  1.00  0.00    -0.158 NA
ATOM     15  C   UNL A   1      35.309  22.320  24.928  1.00  0.00     0.076 A 
ATOM     16  C   UNL A   1      35.024  23.767  25.060  1.00  0.00     0.271 A 
ATOM     17  O   UNL A   1      35.883  24.422  25.648  1.00  0.00    -0.267 OA
BRANCH  12  18
ATOM     18  S   UNL A   1      32.229  21.005  22.901  1.00  0.00    -0.068 SA
BRANCH  18  19
ATOM     19  C   UNL A   1      32.511  19.435  23.712  1.00  0.00     0.014 A 
ATOM     20  C   UNL A   1      33.417  15.557  25.404  1.00  0.00     0.044 C 
ATOM     21  C   UNL A   1      33.068  16.894  24.822  1.00  0.00    -0.051 A 
ATOM     22  C   UNL A   1      33.169  17.105  23.445  1.00  0.00     0.004 A 
ATOM     23  C   UNL A   1      32.677  17.959  25.639  1.00  0.00     0.004 A 
ATOM     24  C   UNL A   1      32.891  18.361  22.897  1.00  0.00     0.016 A 
ATOM     25  C   UNL A   1      32.401  19.218  25.090  1.00  0.00     0.016 A 
ENDBRANCH  18  19
ENDBRANCH  12  18
ENDBRANCH   6  11
ENDBRANCH   3   5
ENDBRANCH   2   3
ENDBRANCH   1   2
BRANCH   1  26
ATOM     26  C   UNL A   1      33.903  32.259  27.648  1.00  0.00     0.275 C 
BRANCH  26  27
ATOM     27  O   UNL A   1      34.898  32.638  28.658  1.00  0.00    -0.458 OA
BRANCH  27  28
ATOM     28  C   UNL A   1      35.240  32.171  29.890  1.00  0.00     0.338 C 
ATOM     29  O   UNL A   1      34.403  31.959  30.760  1.00  0.00    -0.246 OA
BRANCH  28  30
ATOM     30  C   UNL A   1      36.592  31.648  30.113  1.00  0.00     0.060 A 
ATOM     31  C   UNL A   1      36.810  30.444  30.813  1.00  0.00     0.016 A 
ATOM     32  C   UNL A   1      37.645  32.289  29.508  1.00  0.00     0.016 A 
ATOM     33  C   UNL A   1      38.089  29.910  30.841  1.00  0.00     0.010 A 
ATOM     34  C   UNL A   1      38.736  31.564  29.165  1.00  0.00     0.010 A 
ATOM     35  C   UNL A   1      39.029  30.497  29.997  1.00  0.00    -0.014 A 
BRANCH  35  36
ATOM     36  C   UNL A   1      40.468  30.414  30.164  1.00  0.00     0.031 A 
ATOM     37  C   UNL A   1      41.106  29.375  29.371  1.00  0.00     0.074 A 
ATOM     38  C   UNL A   1      40.949  31.420  30.938  1.00  0.00     0.049 A 
ATOM     39  N   UNL A   1      41.588  28.259  29.801  1.00  0.00    -0.248 NA
ATOM     40  C   UNL A   1      41.026  29.443  27.903  1.00  0.00     0.031 C 
ATOM     41  C   UNL A   1      42.272  31.831  31.347  1.00  0.00     0.029 A 
ATOM     42  N   UNL A   1      40.119  32.288  31.673  1.00  0.00    -0.354 N 
ATOM     43  C   UNL A   1      42.350  27.816  28.737  1.00  0.00     0.074 A 
ATOM     44  C   UNL A   1      41.692  28.338  27.560  1.00  0.00     0.031 C 
ATOM     45  C   UNL A   1      42.152  32.526  32.503  1.00  0.00     0.029 A 
ATOM     46  C   UNL A   1      40.736  32.632  32.861  1.00  0.00     0.049 A 
ATOM     47  H   UNL A   1      39.232  32.603  31.384  1.00  0.00     0.167 HD
ATOM     48  C   UNL A   1      43.702  27.663  28.903  1.00  0.00     0.037 A 
ATOM     49  C   UNL A   1      40.106  32.162  33.977  1.00  0.00     0.037 A 
ATOM     50  C   UNL A   1      44.100  28.216  30.209  1.00  0.00     0.049 A 
ATOM     51  C   UNL A   1      40.797  30.883  34.397  1.00  0.00     0.074 A 
ATOM     52  C   UNL A   1      44.734  29.401  30.553  1.00  0.00     0.029 A 
ATOM     53  N   UNL A   1      43.506  27.750  31.381  1.00  0.00    -0.354 N 
ATOM     54  N   UNL A   1      41.445  30.089  33.577  1.00  0.00    -0.248 NA
ATOM     55  C   UNL A   1      40.999  30.523  35.795  1.00  0.00     0.031 C 
ATOM     56  C   UNL A   1      44.479  29.658  31.928  1.00  0.00     0.029 A 
ATOM     57  C   UNL A   1      43.639  28.668  32.410  1.00  0.00     0.049 A 
ATOM     58  H   UNL A   1      43.051  26.881  31.467  1.00  0.00     0.167 HD
ATOM     59  C   UNL A   1      42.221  29.218  34.297  1.00  0.00     0.074 A 
ATOM     60  C   UNL A   1      41.886  29.520  35.682  1.00  0.00     0.031 C 
ATOM     61  C   UNL A   1      43.140  28.363  33.747  1.00  0.00     0.037 A 
BRANCH  48  62
ATOM     62  C   UNL A   1      44.659  27.415  27.747  1.00  0.00     0.058 A 
ATOM     63  C   UNL A   1      45.367  28.467  27.129  1.00  0.00     0.135 A 
ATOM     64  C   UNL A   1      44.967  26.128  27.244  1.00  0.00     0.135 A 
ATOM     65  F   UNL A   1      45.252  29.733  27.553  1.00  0.00    -0.206 F 
ATOM     66  C   UNL A   1      46.251  28.271  26.064  1.00  0.00     0.059 A 
ATOM     67  C   UNL A   1      45.812  25.911  26.149  1.00  0.00     0.059 A 
ATOM     68  F   UNL A   1      44.494  25.020  27.835  1.00  0.00    -0.206 F 
ATOM     69  C   UNL A   1      46.461  26.991  25.572  1.00  0.00     0.060 A 
BRANCH  69  70
ATOM     70  S   UNL A   1      47.642  26.758  24.229  1.00  0.00     0.124 S 
ATOM     71  O   UNL A   1      48.888  27.225  24.830  1.00  0.00    -0.237 OA
ATOM     72  O   UNL A   1      47.550  25.321  23.993  1.00  0.00    -0.237 OA
ATOM     73  O   UNL A   1      47.116  27.602  23.160  1.00  0.00    -0.744 OA
ENDBRANCH  69  70
ENDBRANCH  48  62
BRANCH  49  74
ATOM     74  C   UNL A   1      38.657  32.602  34.050  1.00  0.00     0.058 A 
ATOM     75  C   UNL A   1      38.450  34.005  34.047  1.00  0.00     0.135 A 
ATOM     76  C   UNL A   1      37.495  31.831  33.859  1.00  0.00     0.135 A 
ATOM     77  F   UNL A   1      39.491  34.830  34.254  1.00  0.00    -0.206 F 
ATOM     78  C   UNL A   1      37.228  34.606  33.756  1.00  0.00     0.059 A 
ATOM     79  C   UNL A   1      36.230  32.423  33.579  1.00  0.00     0.059 A 
ATOM     80  F   UNL A   1      37.566  30.492  33.880  1.00  0.00    -0.206 F 
ATOM     81  C   UNL A   1      36.119  33.814  33.495  1.00  0.00     0.060 A 
BRANCH  81  82
ATOM     82  S   UNL A   1      34.616  34.694  32.965  1.00  0.00     0.124 S 
ATOM     83  O   UNL A   1      34.912  34.973  31.564  1.00  0.00    -0.237 OA
ATOM     84  O   UNL A   1      33.586  33.682  33.203  1.00  0.00    -0.237 OA
ATOM     85  O   UNL A   1      34.556  35.861  33.827  1.00  0.00    -0.744 OA
ENDBRANCH  81  82
ENDBRANCH  49  74
BRANCH  61  86
ATOM     86  C   UNL A   1      43.772  27.191  34.464  1.00  0.00     0.058 A 
ATOM     87  C   UNL A   1      45.127  27.140  34.821  1.00  0.00     0.135 A 
ATOM     88  C   UNL A   1      42.966  26.139  34.979  1.00  0.00     0.135 A 
ATOM     89  F   UNL A   1      45.973  28.134  34.514  1.00  0.00    -0.206 F 
ATOM     90  C   UNL A   1      45.664  26.085  35.553  1.00  0.00     0.059 A 
ATOM     91  C   UNL A   1      43.466  25.127  35.786  1.00  0.00     0.059 A 
ATOM     92  F   UNL A   1      41.651  26.061  34.732  1.00  0.00    -0.206 F 
ATOM     93  C   UNL A   1      44.826  25.086  36.035  1.00  0.00     0.060 A 
BRANCH  93  94
ATOM     94  S   UNL A   1      45.517  23.750  37.017  1.00  0.00     0.124 S 
ATOM     95  O   UNL A   1      46.945  24.030  36.911  1.00  0.00    -0.237 OA
ATOM     96  O   UNL A   1      44.922  23.979  38.329  1.00  0.00    -0.237 OA
ATOM     97  O   UNL A   1      45.052  22.551  36.327  1.00  0.00    -0.744 OA
ENDBRANCH  93  94
ENDBRANCH  61  86
ENDBRANCH  35  36
ENDBRANCH  28  30
ENDBRANCH  27  28
ENDBRANCH  26  27
ENDBRANCH   1  26
TORSDOF 17
ENDMDL
