MODEL 1
REMARK VINA RESULT:     -12.5      0.000      0.000
REMARK SMILES Nc1c(C(=O)OCC2c3ccccc3-c3ccccc32)ccc(F)c1C(=O)OCCOC(=O)c1ccc(-c2c3nc(c(-c4c(F)cc(S(=O)(=O)[O-])cc4F)c4ccc([nH]4)c(-c4c(F)cc(S(=O)(=O)[O-])cc4F)c4nc(c(-c5c(F)cc(S(=O)(=O)[O-])cc5F)c5ccc2[nH]5)C=C4)C=C3)cc1
REMARK SMILES IDX 29 1 28 2 26 3 27 4 25 5 2 6 3 7 21 8 23 9 22 10 24 11 1 12
REMARK SMILES IDX 4 15 5 16 6 17 7 18 8 19 9 20 20 21 10 22 14 23 15 24 19 25
REMARK SMILES IDX 11 26 13 27 16 28 18 29 12 30 17 31 30 32 31 33 32 34 33 35
REMARK SMILES IDX 34 36 35 37 99 38 36 39 98 40 37 41 38 42 39 43 92 44 40 45
REMARK SMILES IDX 97 46 91 47 93 48 41 49 96 50 90 51 89 52 42 54 76 55 55 56
REMARK SMILES IDX 75 57 56 58 59 59 74 60 94 61 57 62 58 63 73 65 95 66 60 67
REMARK SMILES IDX 43 68 44 69 53 70 45 71 46 72 52 73 54 74 47 75 48 76 49 77
REMARK SMILES IDX 50 78 51 79 77 80 78 81 87 82 79 83 80 84 86 85 88 86 81 87
REMARK SMILES IDX 82 88 83 89 84 90 85 91 61 92 62 93 71 94 63 95 64 96 70 97
REMARK SMILES IDX 72 98 65 99 66 100 67 101 68 102 69 103
REMARK H PARENT 1 13 1 14 93 53 59 64
REMARK Flexibility Score: inf
ROOT
ATOM      1  C   UNL A   1      33.620  31.793  27.671  1.00  0.00     0.275 C 
ENDROOT
BRANCH   1   2
ATOM      2  O   UNL A   1      33.397  30.560  26.958  1.00  0.00    -0.458 OA
BRANCH   2   3
ATOM      3  C   UNL A   1      32.205  30.416  26.316  1.00  0.00     0.343 C 
ATOM      4  O   UNL A   1      31.419  31.311  26.058  1.00  0.00    -0.246 OA
BRANCH   3   5
ATOM      5  C   UNL A   1      32.029  29.001  25.908  1.00  0.00     0.119 A 
ATOM      6  C   UNL A   1      32.490  28.512  24.667  1.00  0.00     0.064 A 
ATOM      7  C   UNL A   1      32.287  27.139  24.390  1.00  0.00     0.084 A 
ATOM      8  C   UNL A   1      31.566  26.315  25.274  1.00  0.00     0.021 A 
ATOM      9  C   UNL A   1      31.401  28.136  26.817  1.00  0.00     0.139 A 
ATOM     10  C   UNL A   1      31.133  26.813  26.494  1.00  0.00     0.041 A 
ATOM     11  F   UNL A   1      31.038  28.553  28.038  1.00  0.00    -0.206 F 
BRANCH   6  12
ATOM     12  N   UNL A   1      33.244  29.325  23.811  1.00  0.00    -0.397 N 
ATOM     13  H   UNL A   1      34.209  29.441  23.967  1.00  0.00     0.156 HD
ATOM     14  H   UNL A   1      32.809  29.781  23.055  1.00  0.00     0.156 HD
ENDBRANCH   6  12
BRANCH   7  15
ATOM     15  C   UNL A   1      32.866  26.453  23.210  1.00  0.00     0.340 C 
ATOM     16  O   UNL A   1      33.473  27.027  22.321  1.00  0.00    -0.246 OA
BRANCH  15  17
ATOM     17  O   UNL A   1      32.461  25.156  23.214  1.00  0.00    -0.461 OA
BRANCH  17  18
ATOM     18  C   UNL A   1      33.278  24.248  22.466  1.00  0.00     0.246 C 
BRANCH  18  19
ATOM     19  C   UNL A   1      33.672  23.021  23.312  1.00  0.00     0.088 C 
ATOM     20  C   UNL A   1      35.026  23.146  24.004  1.00  0.00    -0.029 A 
ATOM     21  C   UNL A   1      32.731  22.938  24.509  1.00  0.00    -0.029 A 
ATOM     22  C   UNL A   1      36.293  23.085  23.440  1.00  0.00     0.005 A 
ATOM     23  C   UNL A   1      34.852  23.316  25.392  1.00  0.00    -0.014 A 
ATOM     24  C   UNL A   1      33.445  23.181  25.704  1.00  0.00    -0.014 A 
ATOM     25  C   UNL A   1      31.361  22.730  24.509  1.00  0.00     0.005 A 
ATOM     26  C   UNL A   1      37.397  23.291  24.269  1.00  0.00     0.000 A 
ATOM     27  C   UNL A   1      35.947  23.526  26.215  1.00  0.00     0.009 A 
ATOM     28  C   UNL A   1      32.779  23.234  26.915  1.00  0.00     0.009 A 
ATOM     29  C   UNL A   1      30.693  22.782  25.731  1.00  0.00     0.000 A 
ATOM     30  C   UNL A   1      37.224  23.529  25.641  1.00  0.00     0.001 A 
ATOM     31  C   UNL A   1      31.394  23.037  26.922  1.00  0.00     0.001 A 
ENDBRANCH  18  19
ENDBRANCH  17  18
ENDBRANCH  15  17
ENDBRANCH   7  15
ENDBRANCH   3   5
ENDBRANCH   2   3
ENDBRANCH   1   2
BRANCH   1  32
ATOM     32  C   UNL A   1      35.088  31.897  28.076  1.00  0.00     0.275 C 
BRANCH  32  33
ATOM     33  O   UNL A   1      35.519  30.647  28.641  1.00  0.00    -0.458 OA
BRANCH  33  34
ATOM     34  C   UNL A   1      36.354  30.744  29.701  1.00  0.00     0.338 C 
ATOM     35  O   UNL A   1      36.110  31.199  30.804  1.00  0.00    -0.246 OA
BRANCH  34  36
ATOM     36  C   UNL A   1      37.623  30.087  29.363  1.00  0.00     0.060 A 
ATOM     37  C   UNL A   1      38.479  29.761  30.409  1.00  0.00     0.016 A 
ATOM     38  C   UNL A   1      38.026  29.907  28.044  1.00  0.00     0.016 A 
ATOM     39  C   UNL A   1      39.779  29.339  30.150  1.00  0.00     0.010 A 
ATOM     40  C   UNL A   1      39.304  29.392  27.784  1.00  0.00     0.010 A 
ATOM     41  C   UNL A   1      40.211  29.135  28.832  1.00  0.00    -0.014 A 
BRANCH  41  42
ATOM     42  C   UNL A   1      41.613  28.706  28.553  1.00  0.00     0.031 A 
ATOM     43  C   UNL A   1      42.737  29.710  28.626  1.00  0.00     0.074 A 
ATOM     44  C   UNL A   1      41.895  27.420  28.256  1.00  0.00     0.049 A 
ATOM     45  N   UNL A   1      43.979  29.593  28.235  1.00  0.00    -0.248 NA
ATOM     46  C   UNL A   1      42.414  31.026  29.203  1.00  0.00     0.031 C 
ATOM     47  C   UNL A   1      40.923  26.326  28.201  1.00  0.00     0.029 A 
ATOM     48  N   UNL A   1      43.089  26.812  27.946  1.00  0.00    -0.354 N 
ATOM     49  C   UNL A   1      44.570  30.832  28.462  1.00  0.00     0.074 A 
ATOM     50  C   UNL A   1      43.549  31.688  29.025  1.00  0.00     0.031 C 
ATOM     51  C   UNL A   1      41.560  25.182  27.911  1.00  0.00     0.029 A 
ATOM     52  C   UNL A   1      42.969  25.469  27.669  1.00  0.00     0.049 A 
ATOM     53  H   UNL A   1      43.949  27.292  27.925  1.00  0.00     0.167 HD
ATOM     54  C   UNL A   1      45.847  31.218  28.223  1.00  0.00     0.037 A 
ATOM     55  C   UNL A   1      43.874  24.576  27.222  1.00  0.00     0.037 A 
ATOM     56  C   UNL A   1      46.877  30.343  27.722  1.00  0.00     0.049 A 
ATOM     57  C   UNL A   1      45.280  25.032  26.943  1.00  0.00     0.074 A 
ATOM     58  C   UNL A   1      48.202  30.640  27.450  1.00  0.00     0.029 A 
ATOM     59  N   UNL A   1      46.704  28.997  27.440  1.00  0.00    -0.354 N 
ATOM     60  N   UNL A   1      45.802  26.226  27.093  1.00  0.00    -0.248 NA
ATOM     61  C   UNL A   1      46.213  24.028  26.416  1.00  0.00     0.031 C 
ATOM     62  C   UNL A   1      48.823  29.479  26.977  1.00  0.00     0.029 A 
ATOM     63  C   UNL A   1      47.897  28.450  26.992  1.00  0.00     0.049 A 
ATOM     64  H   UNL A   1      45.860  28.501  27.543  1.00  0.00     0.167 HD
ATOM     65  C   UNL A   1      47.127  26.113  26.686  1.00  0.00     0.074 A 
ATOM     66  C   UNL A   1      47.332  24.730  26.306  1.00  0.00     0.031 C 
ATOM     67  C   UNL A   1      48.086  27.070  26.625  1.00  0.00     0.037 A 
BRANCH  54  68
ATOM     68  C   UNL A   1      46.204  32.659  28.472  1.00  0.00     0.058 A 
ATOM     69  C   UNL A   1      46.707  33.101  29.704  1.00  0.00     0.135 A 
ATOM     70  C   UNL A   1      46.087  33.602  27.437  1.00  0.00     0.135 A 
ATOM     71  F   UNL A   1      46.823  32.246  30.733  1.00  0.00    -0.206 F 
ATOM     72  C   UNL A   1      47.062  34.431  29.910  1.00  0.00     0.059 A 
ATOM     73  C   UNL A   1      46.460  34.932  27.612  1.00  0.00     0.059 A 
ATOM     74  F   UNL A   1      45.612  33.234  26.236  1.00  0.00    -0.206 F 
ATOM     75  C   UNL A   1      46.936  35.339  28.857  1.00  0.00     0.060 A 
BRANCH  75  76
ATOM     76  S   UNL A   1      47.416  37.058  29.133  1.00  0.00     0.124 S 
ATOM     77  O   UNL A   1      47.960  36.995  30.486  1.00  0.00    -0.237 OA
ATOM     78  O   UNL A   1      48.389  37.286  28.070  1.00  0.00    -0.237 OA
ATOM     79  O   UNL A   1      46.160  37.790  28.995  1.00  0.00    -0.744 OA
ENDBRANCH  75  76
ENDBRANCH  54  68
BRANCH  55  80
ATOM     80  C   UNL A   1      43.463  23.171  26.956  1.00  0.00     0.058 A 
ATOM     81  C   UNL A   1      43.337  22.686  25.646  1.00  0.00     0.135 A 
ATOM     82  C   UNL A   1      43.191  22.282  28.009  1.00  0.00     0.135 A 
ATOM     83  F   UNL A   1      43.571  23.498  24.604  1.00  0.00    -0.206 F 
ATOM     84  C   UNL A   1      42.947  21.374  25.389  1.00  0.00     0.059 A 
ATOM     85  C   UNL A   1      42.830  20.960  27.779  1.00  0.00     0.059 A 
ATOM     86  F   UNL A   1      43.304  22.694  29.282  1.00  0.00    -0.206 F 
ATOM     87  C   UNL A   1      42.699  20.518  26.463  1.00  0.00     0.060 A 
BRANCH  87  88
ATOM     88  S   UNL A   1      42.240  18.803  26.126  1.00  0.00     0.124 S 
ATOM     89  O   UNL A   1      42.486  18.175  27.419  1.00  0.00    -0.237 OA
ATOM     90  O   UNL A   1      40.840  18.929  25.732  1.00  0.00    -0.237 OA
ATOM     91  O   UNL A   1      43.152  18.420  25.052  1.00  0.00    -0.744 OA
ENDBRANCH  87  88
ENDBRANCH  55  80
BRANCH  67  92
ATOM     92  C   UNL A   1      49.450  26.648  26.160  1.00  0.00     0.058 A 
ATOM     93  C   UNL A   1      49.853  26.804  24.825  1.00  0.00     0.135 A 
ATOM     94  C   UNL A   1      50.380  26.120  27.070  1.00  0.00     0.135 A 
ATOM     95  F   UNL A   1      48.999  27.298  23.915  1.00  0.00    -0.206 F 
ATOM     96  C   UNL A   1      51.124  26.429  24.402  1.00  0.00     0.059 A 
ATOM     97  C   UNL A   1      51.664  25.760  26.675  1.00  0.00     0.059 A 
ATOM     98  F   UNL A   1      50.046  25.958  28.360  1.00  0.00    -0.206 F 
ATOM     99  C   UNL A   1      52.023  25.907  25.335  1.00  0.00     0.060 A 
BRANCH  99 100
ATOM    100  S   UNL A   1      53.680  25.449  24.782  1.00  0.00     0.124 S 
ATOM    101  O   UNL A   1      53.742  26.097  23.476  1.00  0.00    -0.237 OA
ATOM    102  O   UNL A   1      54.528  26.028  25.818  1.00  0.00    -0.237 OA
ATOM    103  O   UNL A   1      53.638  23.990  24.758  1.00  0.00    -0.744 OA
ENDBRANCH  99 100
ENDBRANCH  67  92
ENDBRANCH  41  42
ENDBRANCH  34  36
ENDBRANCH  33  34
ENDBRANCH  32  33
ENDBRANCH   1  32
TORSDOF 19
ENDMDL
MODEL 2
REMARK VINA RESULT:     -12.5      6.420     12.020
REMARK SMILES Nc1c(C(=O)OCC2c3ccccc3-c3ccccc32)ccc(F)c1C(=O)OCCOC(=O)c1ccc(-c2c3nc(c(-c4c(F)cc(S(=O)(=O)[O-])cc4F)c4ccc([nH]4)c(-c4c(F)cc(S(=O)(=O)[O-])cc4F)c4nc(c(-c5c(F)cc(S(=O)(=O)[O-])cc5F)c5ccc2[nH]5)C=C4)C=C3)cc1
REMARK SMILES IDX 29 1 28 2 26 3 27 4 25 5 2 6 3 7 21 8 23 9 22 10 24 11 1 12
REMARK SMILES IDX 4 15 5 16 6 17 7 18 8 19 9 20 20 21 10 22 14 23 15 24 19 25
REMARK SMILES IDX 11 26 13 27 16 28 18 29 12 30 17 31 30 32 31 33 32 34 33 35
REMARK SMILES IDX 34 36 35 37 99 38 36 39 98 40 37 41 38 42 39 43 92 44 40 45
REMARK SMILES IDX 97 46 91 47 93 48 41 49 96 50 90 51 89 52 42 54 76 55 55 56
REMARK SMILES IDX 75 57 56 58 59 59 74 60 94 61 57 62 58 63 73 65 95 66 60 67
REMARK SMILES IDX 43 68 44 69 53 70 45 71 46 72 52 73 54 74 47 75 48 76 49 77
REMARK SMILES IDX 50 78 51 79 77 80 78 81 87 82 79 83 80 84 86 85 88 86 81 87
REMARK SMILES IDX 82 88 83 89 84 90 85 91 61 92 62 93 71 94 63 95 64 96 70 97
REMARK SMILES IDX 72 98 65 99 66 100 67 101 68 102 69 103
REMARK H PARENT 1 13 1 14 93 53 59 64
REMARK Flexibility Score: inf
ROOT
ATOM      1  C   UNL A   1      38.444  21.651  25.532  1.00  0.00     0.275 C 
ENDROOT
BRANCH   1   2
ATOM      2  O   UNL A   1      37.192  22.300  25.831  1.00  0.00    -0.458 OA
BRANCH   2   3
ATOM      3  C   UNL A   1      36.391  22.626  24.780  1.00  0.00     0.343 C 
ATOM      4  O   UNL A   1      36.768  22.975  23.675  1.00  0.00    -0.246 OA
BRANCH   3   5
ATOM      5  C   UNL A   1      34.971  22.429  25.158  1.00  0.00     0.119 A 
ATOM      6  C   UNL A   1      34.145  23.498  25.567  1.00  0.00     0.064 A 
ATOM      7  C   UNL A   1      32.799  23.199  25.884  1.00  0.00     0.084 A 
ATOM      8  C   UNL A   1      32.327  21.874  25.888  1.00  0.00     0.021 A 
ATOM      9  C   UNL A   1      34.450  21.129  25.073  1.00  0.00     0.139 A 
ATOM     10  C   UNL A   1      33.152  20.840  25.471  1.00  0.00     0.041 A 
ATOM     11  F   UNL A   1      35.185  20.114  24.600  1.00  0.00    -0.206 F 
BRANCH   6  12
ATOM     12  N   UNL A   1      34.607  24.820  25.520  1.00  0.00    -0.397 N 
ATOM     13  H   UNL A   1      35.414  25.040  24.999  1.00  0.00     0.156 HD
ATOM     14  H   UNL A   1      34.126  25.527  26.006  1.00  0.00     0.156 HD
ENDBRANCH   6  12
BRANCH   7  15
ATOM     15  C   UNL A   1      31.778  24.238  26.160  1.00  0.00     0.340 C 
ATOM     16  O   UNL A   1      31.053  24.234  27.141  1.00  0.00    -0.246 OA
BRANCH  15  17
ATOM     17  O   UNL A   1      31.682  25.058  25.080  1.00  0.00    -0.461 OA
BRANCH  17  18
ATOM     18  C   UNL A   1      31.028  26.311  25.308  1.00  0.00     0.246 C 
BRANCH  18  19
ATOM     19  C   UNL A   1      31.704  27.449  24.518  1.00  0.00     0.088 C 
ATOM     20  C   UNL A   1      30.728  28.406  23.840  1.00  0.00    -0.029 A 
ATOM     21  C   UNL A   1      32.396  28.378  25.509  1.00  0.00    -0.029 A 
ATOM     22  C   UNL A   1      29.938  28.184  22.721  1.00  0.00     0.005 A 
ATOM     23  C   UNL A   1      30.728  29.652  24.499  1.00  0.00    -0.014 A 
ATOM     24  C   UNL A   1      31.756  29.639  25.518  1.00  0.00    -0.014 A 
ATOM     25  C   UNL A   1      33.452  28.092  26.359  1.00  0.00     0.005 A 
ATOM     26  C   UNL A   1      29.066  29.195  22.315  1.00  0.00     0.000 A 
ATOM     27  C   UNL A   1      29.859  30.654  24.100  1.00  0.00     0.009 A 
ATOM     28  C   UNL A   1      32.165  30.622  26.401  1.00  0.00     0.009 A 
ATOM     29  C   UNL A   1      33.863  29.086  27.247  1.00  0.00     0.000 A 
ATOM     30  C   UNL A   1      29.014  30.413  23.010  1.00  0.00     0.001 A 
ATOM     31  C   UNL A   1      33.222  30.336  27.272  1.00  0.00     0.001 A 
ENDBRANCH  18  19
ENDBRANCH  17  18
ENDBRANCH  15  17
ENDBRANCH   7  15
ENDBRANCH   3   5
ENDBRANCH   2   3
ENDBRANCH   1   2
BRANCH   1  32
ATOM     32  C   UNL A   1      39.534  22.177  26.463  1.00  0.00     0.275 C 
BRANCH  32  33
ATOM     33  O   UNL A   1      39.442  23.610  26.546  1.00  0.00    -0.458 OA
BRANCH  33  34
ATOM     34  C   UNL A   1      40.615  24.259  26.726  1.00  0.00     0.338 C 
ATOM     35  O   UNL A   1      41.682  24.035  26.183  1.00  0.00    -0.246 OA
BRANCH  34  36
ATOM     36  C   UNL A   1      40.389  25.403  27.618  1.00  0.00     0.060 A 
ATOM     37  C   UNL A   1      41.274  26.473  27.532  1.00  0.00     0.016 A 
ATOM     38  C   UNL A   1      39.412  25.379  28.607  1.00  0.00     0.016 A 
ATOM     39  C   UNL A   1      41.251  27.484  28.487  1.00  0.00     0.010 A 
ATOM     40  C   UNL A   1      39.328  26.446  29.512  1.00  0.00     0.010 A 
ATOM     41  C   UNL A   1      40.269  27.495  29.488  1.00  0.00    -0.014 A 
BRANCH  41  42
ATOM     42  C   UNL A   1      40.260  28.566  30.527  1.00  0.00     0.031 A 
ATOM     43  C   UNL A   1      41.240  28.513  31.673  1.00  0.00     0.074 A 
ATOM     44  C   UNL A   1      39.397  29.601  30.445  1.00  0.00     0.049 A 
ATOM     45  N   UNL A   1      41.271  29.224  32.771  1.00  0.00    -0.248 NA
ATOM     46  C   UNL A   1      42.320  27.517  31.576  1.00  0.00     0.031 C 
ATOM     47  C   UNL A   1      38.428  29.817  29.367  1.00  0.00     0.029 A 
ATOM     48  N   UNL A   1      39.197  30.672  31.283  1.00  0.00    -0.354 N 
ATOM     49  C   UNL A   1      42.331  28.725  33.519  1.00  0.00     0.074 A 
ATOM     50  C   UNL A   1      42.919  27.648  32.752  1.00  0.00     0.031 C 
ATOM     51  C   UNL A   1      37.763  30.960  29.592  1.00  0.00     0.029 A 
ATOM     52  C   UNL A   1      38.189  31.514  30.872  1.00  0.00     0.049 A 
ATOM     53  H   UNL A   1      39.725  30.822  32.100  1.00  0.00     0.167 HD
ATOM     54  C   UNL A   1      42.773  29.127  34.736  1.00  0.00     0.037 A 
ATOM     55  C   UNL A   1      37.632  32.584  31.475  1.00  0.00     0.037 A 
ATOM     56  C   UNL A   1      42.225  30.241  35.468  1.00  0.00     0.049 A 
ATOM     57  C   UNL A   1      38.124  32.999  32.834  1.00  0.00     0.074 A 
ATOM     58  C   UNL A   1      42.606  30.729  36.706  1.00  0.00     0.029 A 
ATOM     59  N   UNL A   1      41.194  31.053  35.020  1.00  0.00    -0.354 N 
ATOM     60  N   UNL A   1      39.078  32.469  33.561  1.00  0.00    -0.248 NA
ATOM     61  C   UNL A   1      37.451  34.143  33.463  1.00  0.00     0.031 C 
ATOM     62  C   UNL A   1      41.787  31.820  37.019  1.00  0.00     0.029 A 
ATOM     63  C   UNL A   1      40.924  32.036  35.959  1.00  0.00     0.049 A 
ATOM     64  H   UNL A   1      40.724  30.948  34.161  1.00  0.00     0.167 HD
ATOM     65  C   UNL A   1      39.125  33.221  34.730  1.00  0.00     0.074 A 
ATOM     66  C   UNL A   1      38.120  34.256  34.603  1.00  0.00     0.031 C 
ATOM     67  C   UNL A   1      39.924  33.064  35.814  1.00  0.00     0.037 A 
BRANCH  54  68
ATOM     68  C   UNL A   1      43.890  28.345  35.373  1.00  0.00     0.058 A 
ATOM     69  C   UNL A   1      45.240  28.635  35.127  1.00  0.00     0.135 A 
ATOM     70  C   UNL A   1      43.598  27.318  36.287  1.00  0.00     0.135 A 
ATOM     71  F   UNL A   1      45.576  29.595  34.249  1.00  0.00    -0.206 F 
ATOM     72  C   UNL A   1      46.262  27.923  35.747  1.00  0.00     0.059 A 
ATOM     73  C   UNL A   1      44.604  26.610  36.939  1.00  0.00     0.059 A 
ATOM     74  F   UNL A   1      42.324  26.998  36.561  1.00  0.00    -0.206 F 
ATOM     75  C   UNL A   1      45.934  26.912  36.652  1.00  0.00     0.060 A 
BRANCH  75  76
ATOM     76  S   UNL A   1      47.271  26.008  37.463  1.00  0.00     0.124 S 
ATOM     77  O   UNL A   1      47.347  24.804  36.640  1.00  0.00    -0.237 OA
ATOM     78  O   UNL A   1      48.394  26.930  37.340  1.00  0.00    -0.237 OA
ATOM     79  O   UNL A   1      46.773  25.808  38.821  1.00  0.00    -0.744 OA
ENDBRANCH  75  76
ENDBRANCH  54  68
BRANCH  55  80
ATOM     80  C   UNL A   1      36.505  33.302  30.821  1.00  0.00     0.058 A 
ATOM     81  C   UNL A   1      35.187  33.161  31.282  1.00  0.00     0.135 A 
ATOM     82  C   UNL A   1      36.724  34.148  29.721  1.00  0.00     0.135 A 
ATOM     83  F   UNL A   1      34.922  32.354  32.320  1.00  0.00    -0.206 F 
ATOM     84  C   UNL A   1      34.127  33.826  30.671  1.00  0.00     0.059 A 
ATOM     85  C   UNL A   1      35.686  34.845  29.114  1.00  0.00     0.059 A 
ATOM     86  F   UNL A   1      37.967  34.323  29.245  1.00  0.00    -0.206 F 
ATOM     87  C   UNL A   1      34.388  34.668  29.589  1.00  0.00     0.060 A 
BRANCH  87  88
ATOM     88  S   UNL A   1      33.015  35.566  28.831  1.00  0.00     0.124 S 
ATOM     89  O   UNL A   1      33.720  36.598  28.079  1.00  0.00    -0.237 OA
ATOM     90  O   UNL A   1      32.367  34.527  28.036  1.00  0.00    -0.237 OA
ATOM     91  O   UNL A   1      32.247  36.033  29.980  1.00  0.00    -0.744 OA
ENDBRANCH  87  88
ENDBRANCH  55  80
BRANCH  67  92
ATOM     92  C   UNL A   1      39.766  34.051  36.935  1.00  0.00     0.058 A 
ATOM     93  C   UNL A   1      38.963  33.774  38.052  1.00  0.00     0.135 A 
ATOM     94  C   UNL A   1      40.457  35.273  36.910  1.00  0.00     0.135 A 
ATOM     95  F   UNL A   1      38.275  32.623  38.120  1.00  0.00    -0.206 F 
ATOM     96  C   UNL A   1      38.832  34.683  39.096  1.00  0.00     0.059 A 
ATOM     97  C   UNL A   1      40.361  36.187  37.953  1.00  0.00     0.059 A 
ATOM     98  F   UNL A   1      41.245  35.582  35.867  1.00  0.00    -0.206 F 
ATOM     99  C   UNL A   1      39.536  35.888  39.037  1.00  0.00     0.060 A 
BRANCH  99 100
ATOM    100  S   UNL A   1      39.382  37.051  40.411  1.00  0.00     0.124 S 
ATOM    101  O   UNL A   1      38.620  36.265  41.376  1.00  0.00    -0.237 OA
ATOM    102  O   UNL A   1      40.774  37.308  40.762  1.00  0.00    -0.237 OA
ATOM    103  O   UNL A   1      38.672  38.181  39.820  1.00  0.00    -0.744 OA
ENDBRANCH  99 100
ENDBRANCH  67  92
ENDBRANCH  41  42
ENDBRANCH  34  36
ENDBRANCH  33  34
ENDBRANCH  32  33
ENDBRANCH   1  32
TORSDOF 19
ENDMDL
MODEL 3
REMARK VINA RESULT:     -12.3      1.225      2.631
REMARK SMILES Nc1c(C(=O)OCC2c3ccccc3-c3ccccc32)ccc(F)c1C(=O)OCCOC(=O)c1ccc(-c2c3nc(c(-c4c(F)cc(S(=O)(=O)[O-])cc4F)c4ccc([nH]4)c(-c4c(F)cc(S(=O)(=O)[O-])cc4F)c4nc(c(-c5c(F)cc(S(=O)(=O)[O-])cc5F)c5ccc2[nH]5)C=C4)C=C3)cc1
REMARK SMILES IDX 29 1 28 2 26 3 27 4 25 5 2 6 3 7 21 8 23 9 22 10 24 11 1 12
REMARK SMILES IDX 4 15 5 16 6 17 7 18 8 19 9 20 20 21 10 22 14 23 15 24 19 25
REMARK SMILES IDX 11 26 13 27 16 28 18 29 12 30 17 31 30 32 31 33 32 34 33 35
REMARK SMILES IDX 34 36 35 37 99 38 36 39 98 40 37 41 38 42 39 43 92 44 40 45
REMARK SMILES IDX 97 46 91 47 93 48 41 49 96 50 90 51 89 52 42 54 76 55 55 56
REMARK SMILES IDX 75 57 56 58 59 59 74 60 94 61 57 62 58 63 73 65 95 66 60 67
REMARK SMILES IDX 43 68 44 69 53 70 45 71 46 72 52 73 54 74 47 75 48 76 49 77
REMARK SMILES IDX 50 78 51 79 77 80 78 81 87 82 79 83 80 84 86 85 88 86 81 87
REMARK SMILES IDX 82 88 83 89 84 90 85 91 61 92 62 93 71 94 63 95 64 96 70 97
REMARK SMILES IDX 72 98 65 99 66 100 67 101 68 102 69 103
REMARK H PARENT 1 13 1 14 93 53 59 64
REMARK Flexibility Score: inf
ROOT
ATOM      1  C   UNL A   1      33.795  29.543  27.189  1.00  0.00     0.275 C 
ENDROOT
BRANCH   1   2
ATOM      2  O   UNL A   1      32.964  29.574  26.011  1.00  0.00    -0.458 OA
BRANCH   2   3
ATOM      3  C   UNL A   1      33.194  28.630  25.059  1.00  0.00     0.343 C 
ATOM      4  O   UNL A   1      34.173  28.566  24.336  1.00  0.00    -0.246 OA
BRANCH   3   5
ATOM      5  C   UNL A   1      32.095  27.634  25.072  1.00  0.00     0.119 A 
ATOM      6  C   UNL A   1      32.250  26.349  25.635  1.00  0.00     0.064 A 
ATOM      7  C   UNL A   1      31.128  25.486  25.612  1.00  0.00     0.084 A 
ATOM      8  C   UNL A   1      29.935  25.857  24.965  1.00  0.00     0.021 A 
ATOM      9  C   UNL A   1      30.863  28.018  24.522  1.00  0.00     0.139 A 
ATOM     10  C   UNL A   1      29.800  27.130  24.430  1.00  0.00     0.041 A 
ATOM     11  F   UNL A   1      30.661  29.262  24.065  1.00  0.00    -0.206 F 
BRANCH   6  12
ATOM     12  N   UNL A   1      33.424  26.001  26.315  1.00  0.00    -0.397 N 
ATOM     13  H   UNL A   1      34.029  26.705  26.643  1.00  0.00     0.156 HD
ATOM     14  H   UNL A   1      33.644  25.053  26.464  1.00  0.00     0.156 HD
ENDBRANCH   6  12
BRANCH   7  15
ATOM     15  C   UNL A   1      31.091  24.181  26.314  1.00  0.00     0.340 C 
ATOM     16  O   UNL A   1      30.325  23.923  27.227  1.00  0.00    -0.246 OA
BRANCH  15  17
ATOM     17  O   UNL A   1      32.139  23.425  25.892  1.00  0.00    -0.461 OA
BRANCH  17  18
ATOM     18  C   UNL A   1      31.803  22.303  25.069  1.00  0.00     0.246 C 
BRANCH  18  19
ATOM     19  C   UNL A   1      32.621  22.299  23.762  1.00  0.00     0.088 C 
ATOM     20  C   UNL A   1      32.658  23.644  23.043  1.00  0.00    -0.029 A 
ATOM     21  C   UNL A   1      34.092  22.108  24.116  1.00  0.00    -0.029 A 
ATOM     22  C   UNL A   1      31.644  24.271  22.332  1.00  0.00     0.005 A 
ATOM     23  C   UNL A   1      33.937  24.224  23.156  1.00  0.00    -0.014 A 
ATOM     24  C   UNL A   1      34.820  23.280  23.808  1.00  0.00    -0.014 A 
ATOM     25  C   UNL A   1      34.695  21.013  24.714  1.00  0.00     0.005 A 
ATOM     26  C   UNL A   1      31.891  25.540  21.807  1.00  0.00     0.000 A 
ATOM     27  C   UNL A   1      34.181  25.487  22.640  1.00  0.00     0.009 A 
ATOM     28  C   UNL A   1      36.165  23.366  24.117  1.00  0.00     0.009 A 
ATOM     29  C   UNL A   1      36.051  21.102  25.022  1.00  0.00     0.000 A 
ATOM     30  C   UNL A   1      33.142  26.151  21.977  1.00  0.00     0.001 A 
ATOM     31  C   UNL A   1      36.778  22.270  24.732  1.00  0.00     0.001 A 
ENDBRANCH  18  19
ENDBRANCH  17  18
ENDBRANCH  15  17
ENDBRANCH   7  15
ENDBRANCH   3   5
ENDBRANCH   2   3
ENDBRANCH   1   2
BRANCH   1  32
ATOM     32  C   UNL A   1      34.140  30.967  27.616  1.00  0.00     0.275 C 
BRANCH  32  33
ATOM     33  O   UNL A   1      35.568  31.104  27.715  1.00  0.00    -0.458 OA
BRANCH  33  34
ATOM     34  C   UNL A   1      36.092  30.871  28.941  1.00  0.00     0.338 C 
ATOM     35  O   UNL A   1      35.574  31.075  30.024  1.00  0.00    -0.246 OA
BRANCH  34  36
ATOM     36  C   UNL A   1      37.385  30.194  28.781  1.00  0.00     0.060 A 
ATOM     37  C   UNL A   1      38.177  30.040  29.913  1.00  0.00     0.016 A 
ATOM     38  C   UNL A   1      37.870  29.831  27.529  1.00  0.00     0.016 A 
ATOM     39  C   UNL A   1      39.494  29.607  29.797  1.00  0.00     0.010 A 
ATOM     40  C   UNL A   1      39.166  29.306  27.426  1.00  0.00     0.010 A 
ATOM     41  C   UNL A   1      40.009  29.222  28.552  1.00  0.00    -0.014 A 
BRANCH  41  42
ATOM     42  C   UNL A   1      41.429  28.781  28.425  1.00  0.00     0.031 A 
ATOM     43  C   UNL A   1      42.546  29.780  28.601  1.00  0.00     0.074 A 
ATOM     44  C   UNL A   1      41.732  27.490  28.174  1.00  0.00     0.049 A 
ATOM     45  N   UNL A   1      43.822  29.652  28.342  1.00  0.00    -0.248 NA
ATOM     46  C   UNL A   1      42.175  31.105  29.126  1.00  0.00     0.031 C 
ATOM     47  C   UNL A   1      40.763  26.401  28.033  1.00  0.00     0.029 A 
ATOM     48  N   UNL A   1      42.948  26.871  27.996  1.00  0.00    -0.354 N 
ATOM     49  C   UNL A   1      44.394  30.889  28.613  1.00  0.00     0.074 A 
ATOM     50  C   UNL A   1      43.326  31.759  29.057  1.00  0.00     0.031 C 
ATOM     51  C   UNL A   1      41.419  25.249  27.824  1.00  0.00     0.029 A 
ATOM     52  C   UNL A   1      42.847  25.526  27.725  1.00  0.00     0.049 A 
ATOM     53  H   UNL A   1      43.808  27.346  28.058  1.00  0.00     0.167 HD
ATOM     54  C   UNL A   1      45.692  31.266  28.503  1.00  0.00     0.037 A 
ATOM     55  C   UNL A   1      43.788  24.622  27.385  1.00  0.00     0.037 A 
ATOM     56  C   UNL A   1      46.761  30.379  28.121  1.00  0.00     0.049 A 
ATOM     57  C   UNL A   1      45.218  25.067  27.247  1.00  0.00     0.074 A 
ATOM     58  C   UNL A   1      48.109  30.665  27.983  1.00  0.00     0.029 A 
ATOM     59  N   UNL A   1      46.610  29.030  27.839  1.00  0.00    -0.354 N 
ATOM     60  N   UNL A   1      45.730  26.260  27.435  1.00  0.00    -0.248 NA
ATOM     61  C   UNL A   1      46.194  24.051  26.831  1.00  0.00     0.031 C 
ATOM     62  C   UNL A   1      48.768  29.495  27.591  1.00  0.00     0.029 A 
ATOM     63  C   UNL A   1      47.839  28.471  27.523  1.00  0.00     0.049 A 
ATOM     64  H   UNL A   1      45.756  28.541  27.860  1.00  0.00     0.167 HD
ATOM     65  C   UNL A   1      47.089  26.134  27.168  1.00  0.00     0.074 A 
ATOM     66  C   UNL A   1      47.323  24.746  26.828  1.00  0.00     0.031 C 
ATOM     67  C   UNL A   1      48.055  27.085  27.195  1.00  0.00     0.037 A 
BRANCH  54  68
ATOM     68  C   UNL A   1      46.030  32.708  28.769  1.00  0.00     0.058 A 
ATOM     69  C   UNL A   1      45.991  33.682  27.760  1.00  0.00     0.135 A 
ATOM     70  C   UNL A   1      46.350  33.128  30.071  1.00  0.00     0.135 A 
ATOM     71  F   UNL A   1      45.708  33.334  26.494  1.00  0.00    -0.206 F 
ATOM     72  C   UNL A   1      46.277  35.018  28.027  1.00  0.00     0.059 A 
ATOM     73  C   UNL A   1      46.614  34.462  30.367  1.00  0.00     0.059 A 
ATOM     74  F   UNL A   1      46.401  32.238  31.076  1.00  0.00    -0.206 F 
ATOM     75  C   UNL A   1      46.586  35.399  29.334  1.00  0.00     0.060 A 
BRANCH  75  76
ATOM     76  S   UNL A   1      46.938  37.138  29.671  1.00  0.00     0.124 S 
ATOM     77  O   UNL A   1      45.769  37.524  30.455  1.00  0.00    -0.237 OA
ATOM     78  O   UNL A   1      48.197  37.067  30.405  1.00  0.00    -0.237 OA
ATOM     79  O   UNL A   1      47.024  37.732  28.340  1.00  0.00    -0.744 OA
ENDBRANCH  75  76
ENDBRANCH  54  68
BRANCH  55  80
ATOM     80  C   UNL A   1      43.397  23.216  27.095  1.00  0.00     0.058 A 
ATOM     81  C   UNL A   1      43.004  22.344  28.121  1.00  0.00     0.135 A 
ATOM     82  C   UNL A   1      43.405  22.717  25.781  1.00  0.00     0.135 A 
ATOM     83  F   UNL A   1      42.993  22.767  29.394  1.00  0.00    -0.206 F 
ATOM     84  C   UNL A   1      42.642  21.026  27.857  1.00  0.00     0.059 A 
ATOM     85  C   UNL A   1      43.018  21.414  25.490  1.00  0.00     0.059 A 
ATOM     86  F   UNL A   1      43.765  23.513  24.762  1.00  0.00    -0.206 F 
ATOM     87  C   UNL A   1      42.649  20.571  26.537  1.00  0.00     0.060 A 
BRANCH  87  88
ATOM     88  S   UNL A   1      42.132  18.874  26.195  1.00  0.00     0.124 S 
ATOM     89  O   UNL A   1      42.374  18.229  27.481  1.00  0.00    -0.237 OA
ATOM     90  O   UNL A   1      40.731  19.047  25.821  1.00  0.00    -0.237 OA
ATOM     91  O   UNL A   1      43.016  18.469  25.107  1.00  0.00    -0.744 OA
ENDBRANCH  87  88
ENDBRANCH  55  80
BRANCH  67  92
ATOM     92  C   UNL A   1      49.458  26.651  26.878  1.00  0.00     0.058 A 
ATOM     93  C   UNL A   1      50.334  26.207  27.880  1.00  0.00     0.135 A 
ATOM     94  C   UNL A   1      49.916  26.640  25.551  1.00  0.00     0.135 A 
ATOM     95  F   UNL A   1      49.946  26.205  29.165  1.00  0.00    -0.206 F 
ATOM     96  C   UNL A   1      51.627  25.788  27.580  1.00  0.00     0.059 A 
ATOM     97  C   UNL A   1      51.196  26.203  25.225  1.00  0.00     0.059 A 
ATOM     98  F   UNL A   1      49.113  27.047  24.555  1.00  0.00    -0.206 F 
ATOM     99  C   UNL A   1      52.049  25.790  26.249  1.00  0.00     0.060 A 
BRANCH  99 100
ATOM    100  S   UNL A   1      53.719  25.218  25.867  1.00  0.00     0.124 S 
ATOM    101  O   UNL A   1      54.344  25.242  27.185  1.00  0.00    -0.237 OA
ATOM    102  O   UNL A   1      53.476  23.894  25.304  1.00  0.00    -0.237 OA
ATOM    103  O   UNL A   1      54.209  26.215  24.920  1.00  0.00    -0.744 OA
ENDBRANCH  99 100
ENDBRANCH  67  92
ENDBRANCH  41  42
ENDBRANCH  34  36
ENDBRANCH  33  34
ENDBRANCH  32  33
ENDBRANCH   1  32
TORSDOF 19
ENDMDL
