MODEL 1
REMARK VINA RESULT:     -12.5      0.000      0.000
REMARK SMILES CC1(C)S[C@@H]2[C@H]([NH2+]Cn3nnc4ccccc43)C(=O)N2[C@@H]1C(=O)OCCOC(=O)c1ccc(-c2c3nc(c(-c4c(F)cc(S(=O)(=O)[O-])cc4F)c4ccc([nH]4)c(-c4c(F)cc(S(=O)(=O)[O-])cc4F)c4nc(c(-c5c(F)cc(S(=O)(=O)[O-])cc5F)c5ccc2[nH]5)C=C4)C=C3)cc1
REMARK SMILES IDX 25 1 24 2 22 3 23 4 21 5 1 6 2 7 3 8 4 9 5 10 20 11 6 12
REMARK SMILES IDX 18 13 19 14 7 15 8 18 9 19 10 20 17 21 11 22 12 23 16 24
REMARK SMILES IDX 13 25 15 26 14 27 26 28 27 29 28 30 29 31 30 32 31 33 95 34
REMARK SMILES IDX 32 35 94 36 33 37 34 38 35 39 88 40 36 41 93 42 87 43 89 44
REMARK SMILES IDX 37 45 92 46 86 47 85 48 38 50 72 51 51 52 71 53 52 54 55 55
REMARK SMILES IDX 70 56 90 57 53 58 54 59 69 61 91 62 56 63 39 64 40 65 49 66
REMARK SMILES IDX 41 67 42 68 48 69 50 70 43 71 44 72 45 73 46 74 47 75 73 76
REMARK SMILES IDX 74 77 83 78 75 79 76 80 82 81 84 82 77 83 78 84 79 85 80 86
REMARK SMILES IDX 81 87 57 88 58 89 67 90 59 91 60 92 66 93 68 94 61 95 62 96
REMARK SMILES IDX 63 97 64 98 65 99
REMARK H PARENT 7 16 7 17 89 49 55 60
REMARK Flexibility Score: inf
ROOT
ATOM      1  C   UNL A   1      37.123  21.992  24.310  1.00  0.00     0.274 C 
ENDROOT
BRANCH   1   2
ATOM      2  O   UNL A   1      36.609  23.271  24.750  1.00  0.00    -0.460 OA
BRANCH   2   3
ATOM      3  C   UNL A   1      35.287  23.520  24.528  1.00  0.00     0.330 C 
ATOM      4  O   UNL A   1      34.824  23.774  23.424  1.00  0.00    -0.250 OA
BRANCH   3   5
ATOM      5  C   UNL A   1      34.424  23.382  25.805  1.00  0.00     0.212 C 
ATOM      6  C   UNL A   1      34.019  20.964  24.897  1.00  0.00     0.026 C 
ATOM      7  C   UNL A   1      33.738  21.996  25.994  1.00  0.00     0.044 C 
ATOM      8  C   UNL A   1      34.018  21.462  27.403  1.00  0.00     0.026 C 
ATOM      9  S   UNL A   1      31.876  22.276  26.007  1.00  0.00    -0.121 SA
ATOM     10  C   UNL A   1      32.068  24.003  26.485  1.00  0.00     0.213 C 
ATOM     11  N   UNL A   1      33.352  24.331  25.900  1.00  0.00    -0.304 N 
ATOM     12  C   UNL A   1      31.558  25.303  25.777  1.00  0.00     0.307 C 
ATOM     13  C   UNL A   1      33.135  25.652  25.835  1.00  0.00     0.285 C 
ATOM     14  O   UNL A   1      33.870  26.590  25.695  1.00  0.00    -0.268 OA
BRANCH  12  15
ATOM     15  N   UNL A   1      31.036  25.304  24.372  1.00  0.00    -0.315 N 
ATOM     16  H   UNL A   1      30.721  24.361  24.144  1.00  0.00     0.348 HD
ATOM     17  H   UNL A   1      31.799  25.616  23.771  1.00  0.00     0.348 HD
BRANCH  15  18
ATOM     18  C   UNL A   1      29.928  26.222  24.161  1.00  0.00     0.415 C 
BRANCH  18  19
ATOM     19  N   UNL A   1      30.256  27.418  23.389  1.00  0.00    -0.194 N 
ATOM     20  N   UNL A   1      31.491  27.774  22.998  1.00  0.00    -0.061 NA
ATOM     21  C   UNL A   1      29.307  28.339  23.019  1.00  0.00     0.095 A 
ATOM     22  N   UNL A   1      31.384  28.969  22.421  1.00  0.00    -0.130 NA
ATOM     23  C   UNL A   1      30.059  29.339  22.431  1.00  0.00     0.113 A 
ATOM     24  C   UNL A   1      27.915  28.394  23.169  1.00  0.00     0.030 A 
ATOM     25  C   UNL A   1      29.407  30.494  21.975  1.00  0.00     0.032 A 
ATOM     26  C   UNL A   1      27.279  29.542  22.696  1.00  0.00     0.002 A 
ATOM     27  C   UNL A   1      28.011  30.580  22.117  1.00  0.00     0.002 A 
ENDBRANCH  18  19
ENDBRANCH  15  18
ENDBRANCH  12  15
ENDBRANCH   3   5
ENDBRANCH   2   3
ENDBRANCH   1   2
BRANCH   1  28
ATOM     28  C   UNL A   1      38.144  21.435  25.311  1.00  0.00     0.275 C 
BRANCH  28  29
ATOM     29  O   UNL A   1      38.420  22.450  26.287  1.00  0.00    -0.458 OA
BRANCH  29  30
ATOM     30  C   UNL A   1      39.688  22.514  26.759  1.00  0.00     0.338 C 
ATOM     31  O   UNL A   1      40.628  21.801  26.459  1.00  0.00    -0.246 OA
BRANCH  30  32
ATOM     32  C   UNL A   1      39.795  23.824  27.434  1.00  0.00     0.060 A 
ATOM     33  C   UNL A   1      38.824  24.818  27.265  1.00  0.00     0.016 A 
ATOM     34  C   UNL A   1      41.012  24.120  28.051  1.00  0.00     0.016 A 
ATOM     35  C   UNL A   1      39.119  26.138  27.609  1.00  0.00     0.010 A 
ATOM     36  C   UNL A   1      41.307  25.444  28.373  1.00  0.00     0.010 A 
ATOM     37  C   UNL A   1      40.385  26.467  28.106  1.00  0.00    -0.014 A 
BRANCH  37  38
ATOM     38  C   UNL A   1      40.627  27.802  28.667  1.00  0.00     0.031 A 
ATOM     39  C   UNL A   1      41.786  28.437  28.024  1.00  0.00     0.074 A 
ATOM     40  C   UNL A   1      39.980  28.493  29.632  1.00  0.00     0.049 A 
ATOM     41  N   UNL A   1      42.971  28.440  28.531  1.00  0.00    -0.248 NA
ATOM     42  C   UNL A   1      41.699  28.953  26.656  1.00  0.00     0.031 C 
ATOM     43  C   UNL A   1      38.820  28.080  30.406  1.00  0.00     0.029 A 
ATOM     44  N   UNL A   1      40.200  29.767  30.098  1.00  0.00    -0.354 N 
ATOM     45  C   UNL A   1      43.725  29.206  27.668  1.00  0.00     0.074 A 
ATOM     46  C   UNL A   1      42.970  29.302  26.443  1.00  0.00     0.031 C 
ATOM     47  C   UNL A   1      38.274  29.140  31.049  1.00  0.00     0.029 A 
ATOM     48  C   UNL A   1      39.174  30.274  30.891  1.00  0.00     0.049 A 
ATOM     49  H   UNL A   1      41.015  30.278  29.890  1.00  0.00     0.167 HD
ATOM     50  C   UNL A   1      44.747  29.957  28.153  1.00  0.00     0.037 A 
ATOM     51  C   UNL A   1      39.152  31.390  31.661  1.00  0.00     0.037 A 
ATOM     52  C   UNL A   1      45.063  29.624  29.521  1.00  0.00     0.049 A 
ATOM     53  C   UNL A   1      40.535  31.630  32.120  1.00  0.00     0.074 A 
ATOM     54  C   UNL A   1      45.775  28.647  30.185  1.00  0.00     0.029 A 
ATOM     55  N   UNL A   1      44.265  30.237  30.450  1.00  0.00    -0.354 N 
ATOM     56  N   UNL A   1      41.151  30.852  32.966  1.00  0.00    -0.248 NA
ATOM     57  C   UNL A   1      41.375  32.602  31.428  1.00  0.00     0.031 C 
ATOM     58  C   UNL A   1      45.303  28.634  31.532  1.00  0.00     0.029 A 
ATOM     59  C   UNL A   1      44.317  29.605  31.667  1.00  0.00     0.049 A 
ATOM     60  H   UNL A   1      43.720  31.036  30.267  1.00  0.00     0.167 HD
ATOM     61  C   UNL A   1      42.472  30.939  32.591  1.00  0.00     0.074 A 
ATOM     62  C   UNL A   1      42.577  32.143  31.781  1.00  0.00     0.031 C 
ATOM     63  C   UNL A   1      43.293  29.856  32.658  1.00  0.00     0.037 A 
BRANCH  50  64
ATOM     64  C   UNL A   1      45.147  31.276  27.562  1.00  0.00     0.058 A 
ATOM     65  C   UNL A   1      46.389  31.393  26.917  1.00  0.00     0.135 A 
ATOM     66  C   UNL A   1      44.470  32.486  27.833  1.00  0.00     0.135 A 
ATOM     67  F   UNL A   1      47.126  30.302  26.654  1.00  0.00    -0.206 F 
ATOM     68  C   UNL A   1      46.932  32.630  26.579  1.00  0.00     0.059 A 
ATOM     69  C   UNL A   1      44.962  33.725  27.450  1.00  0.00     0.059 A 
ATOM     70  F   UNL A   1      43.352  32.525  28.571  1.00  0.00    -0.206 F 
ATOM     71  C   UNL A   1      46.209  33.790  26.851  1.00  0.00     0.060 A 
BRANCH  71  72
ATOM     72  S   UNL A   1      46.933  35.392  26.468  1.00  0.00     0.124 S 
ATOM     73  O   UNL A   1      47.759  35.069  25.310  1.00  0.00    -0.237 OA
ATOM     74  O   UNL A   1      45.749  36.203  26.204  1.00  0.00    -0.237 OA
ATOM     75  O   UNL A   1      47.659  35.732  27.689  1.00  0.00    -0.744 OA
ENDBRANCH  71  72
ENDBRANCH  50  64
BRANCH  51  76
ATOM     76  C   UNL A   1      38.111  32.451  31.719  1.00  0.00     0.058 A 
ATOM     77  C   UNL A   1      37.546  32.953  30.529  1.00  0.00     0.135 A 
ATOM     78  C   UNL A   1      37.449  32.787  32.914  1.00  0.00     0.135 A 
ATOM     79  F   UNL A   1      38.124  32.693  29.346  1.00  0.00    -0.206 F 
ATOM     80  C   UNL A   1      36.343  33.658  30.512  1.00  0.00     0.059 A 
ATOM     81  C   UNL A   1      36.245  33.497  32.922  1.00  0.00     0.059 A 
ATOM     82  F   UNL A   1      37.915  32.357  34.097  1.00  0.00    -0.206 F 
ATOM     83  C   UNL A   1      35.680  33.896  31.714  1.00  0.00     0.060 A 
BRANCH  83  84
ATOM     84  S   UNL A   1      34.021  34.618  31.663  1.00  0.00     0.124 S 
ATOM     85  O   UNL A   1      33.618  34.350  30.286  1.00  0.00    -0.237 OA
ATOM     86  O   UNL A   1      33.323  33.853  32.691  1.00  0.00    -0.237 OA
ATOM     87  O   UNL A   1      34.254  36.023  31.984  1.00  0.00    -0.744 OA
ENDBRANCH  83  84
ENDBRANCH  51  76
BRANCH  63  88
ATOM     88  C   UNL A   1      43.016  28.839  33.722  1.00  0.00     0.058 A 
ATOM     89  C   UNL A   1      43.549  28.857  35.021  1.00  0.00     0.135 A 
ATOM     90  C   UNL A   1      42.123  27.803  33.406  1.00  0.00     0.135 A 
ATOM     91  F   UNL A   1      44.367  29.842  35.418  1.00  0.00    -0.206 F 
ATOM     92  C   UNL A   1      43.220  27.873  35.958  1.00  0.00     0.059 A 
ATOM     93  C   UNL A   1      41.763  26.827  34.331  1.00  0.00     0.059 A 
ATOM     94  F   UNL A   1      41.565  27.745  32.186  1.00  0.00    -0.206 F 
ATOM     95  C   UNL A   1      42.322  26.865  35.605  1.00  0.00     0.060 A 
BRANCH  95  96
ATOM     96  S   UNL A   1      41.838  25.640  36.841  1.00  0.00     0.124 S 
ATOM     97  O   UNL A   1      41.699  24.430  36.038  1.00  0.00    -0.237 OA
ATOM     98  O   UNL A   1      42.971  25.661  37.763  1.00  0.00    -0.237 OA
ATOM     99  O   UNL A   1      40.593  26.174  37.385  1.00  0.00    -0.744 OA
ENDBRANCH  95  96
ENDBRANCH  63  88
ENDBRANCH  37  38
ENDBRANCH  30  32
ENDBRANCH  29  30
ENDBRANCH  28  29
ENDBRANCH   1  28
TORSDOF 17
ENDMDL
MODEL 2
REMARK VINA RESULT:     -12.5      3.102      9.792
REMARK SMILES CC1(C)S[C@@H]2[C@H]([NH2+]Cn3nnc4ccccc43)C(=O)N2[C@@H]1C(=O)OCCOC(=O)c1ccc(-c2c3nc(c(-c4c(F)cc(S(=O)(=O)[O-])cc4F)c4ccc([nH]4)c(-c4c(F)cc(S(=O)(=O)[O-])cc4F)c4nc(c(-c5c(F)cc(S(=O)(=O)[O-])cc5F)c5ccc2[nH]5)C=C4)C=C3)cc1
REMARK SMILES IDX 25 1 24 2 22 3 23 4 21 5 1 6 2 7 3 8 4 9 5 10 20 11 6 12
REMARK SMILES IDX 18 13 19 14 7 15 8 18 9 19 10 20 17 21 11 22 12 23 16 24
REMARK SMILES IDX 13 25 15 26 14 27 26 28 27 29 28 30 29 31 30 32 31 33 95 34
REMARK SMILES IDX 32 35 94 36 33 37 34 38 35 39 88 40 36 41 93 42 87 43 89 44
REMARK SMILES IDX 37 45 92 46 86 47 85 48 38 50 72 51 51 52 71 53 52 54 55 55
REMARK SMILES IDX 70 56 90 57 53 58 54 59 69 61 91 62 56 63 39 64 40 65 49 66
REMARK SMILES IDX 41 67 42 68 48 69 50 70 43 71 44 72 45 73 46 74 47 75 73 76
REMARK SMILES IDX 74 77 83 78 75 79 76 80 82 81 84 82 77 83 78 84 79 85 80 86
REMARK SMILES IDX 81 87 57 88 58 89 67 90 59 91 60 92 66 93 68 94 61 95 62 96
REMARK SMILES IDX 63 97 64 98 65 99
REMARK H PARENT 7 16 7 17 89 49 55 60
REMARK Flexibility Score: inf
ROOT
ATOM      1  C   UNL A   1      32.702  29.746  27.220  1.00  0.00     0.274 C 
ENDROOT
BRANCH   1   2
ATOM      2  O   UNL A   1      33.619  28.904  26.485  1.00  0.00    -0.460 OA
BRANCH   2   3
ATOM      3  C   UNL A   1      33.116  27.757  25.946  1.00  0.00     0.330 C 
ATOM      4  O   UNL A   1      32.286  27.055  26.507  1.00  0.00    -0.250 OA
BRANCH   3   5
ATOM      5  C   UNL A   1      33.653  27.473  24.522  1.00  0.00     0.212 C 
ATOM      6  C   UNL A   1      31.570  28.875  23.791  1.00  0.00     0.026 C 
ATOM      7  C   UNL A   1      32.807  28.078  23.362  1.00  0.00     0.044 C 
ATOM      8  C   UNL A   1      33.715  28.857  22.404  1.00  0.00     0.026 C 
ATOM      9  S   UNL A   1      32.189  26.652  22.300  1.00  0.00    -0.121 SA
ATOM     10  C   UNL A   1      33.508  25.564  22.870  1.00  0.00     0.213 C 
ATOM     11  N   UNL A   1      33.764  26.079  24.199  1.00  0.00    -0.304 N 
ATOM     12  C   UNL A   1      33.424  24.165  23.569  1.00  0.00     0.307 C 
ATOM     13  C   UNL A   1      34.297  24.948  24.681  1.00  0.00     0.285 C 
ATOM     14  O   UNL A   1      34.972  24.715  25.644  1.00  0.00    -0.268 OA
BRANCH  12  15
ATOM     15  N   UNL A   1      32.147  23.625  24.140  1.00  0.00    -0.315 N 
ATOM     16  H   UNL A   1      31.385  24.250  23.874  1.00  0.00     0.348 HD
ATOM     17  H   UNL A   1      32.272  23.570  25.150  1.00  0.00     0.348 HD
BRANCH  15  18
ATOM     18  C   UNL A   1      31.822  22.284  23.680  1.00  0.00     0.415 C 
BRANCH  18  19
ATOM     19  N   UNL A   1      32.490  21.205  24.403  1.00  0.00    -0.194 N 
ATOM     20  N   UNL A   1      33.076  21.324  25.606  1.00  0.00    -0.061 NA
ATOM     21  C   UNL A   1      32.622  19.941  23.883  1.00  0.00     0.095 A 
ATOM     22  N   UNL A   1      33.661  20.158  25.869  1.00  0.00    -0.130 NA
ATOM     23  C   UNL A   1      33.404  19.299  24.825  1.00  0.00     0.113 A 
ATOM     24  C   UNL A   1      32.166  19.338  22.704  1.00  0.00     0.030 A 
ATOM     25  C   UNL A   1      33.794  17.973  24.587  1.00  0.00     0.032 A 
ATOM     26  C   UNL A   1      32.548  18.013  22.489  1.00  0.00     0.002 A 
ATOM     27  C   UNL A   1      33.357  17.343  23.409  1.00  0.00     0.002 A 
ENDBRANCH  18  19
ENDBRANCH  15  18
ENDBRANCH  12  15
ENDBRANCH   3   5
ENDBRANCH   2   3
ENDBRANCH   1   2
BRANCH   1  28
ATOM     28  C   UNL A   1      33.195  31.199  27.256  1.00  0.00     0.275 C 
BRANCH  28  29
ATOM     29  O   UNL A   1      34.082  31.347  28.375  1.00  0.00    -0.458 OA
BRANCH  29  30
ATOM     30  C   UNL A   1      35.154  32.156  28.201  1.00  0.00     0.338 C 
ATOM     31  O   UNL A   1      35.159  33.368  28.090  1.00  0.00    -0.246 OA
BRANCH  30  32
ATOM     32  C   UNL A   1      36.334  31.326  28.522  1.00  0.00     0.060 A 
ATOM     33  C   UNL A   1      37.431  31.849  29.217  1.00  0.00     0.016 A 
ATOM     34  C   UNL A   1      36.418  30.078  27.902  1.00  0.00     0.016 A 
ATOM     35  C   UNL A   1      38.652  31.173  29.190  1.00  0.00     0.010 A 
ATOM     36  C   UNL A   1      37.645  29.419  27.862  1.00  0.00     0.010 A 
ATOM     37  C   UNL A   1      38.780  29.985  28.460  1.00  0.00    -0.014 A 
BRANCH  37  38
ATOM     38  C   UNL A   1      39.989  29.164  28.605  1.00  0.00     0.031 A 
ATOM     39  C   UNL A   1      40.253  28.868  30.020  1.00  0.00     0.074 A 
ATOM     40  C   UNL A   1      40.846  28.670  27.684  1.00  0.00     0.049 A 
ATOM     41  N   UNL A   1      41.089  29.530  30.745  1.00  0.00    -0.248 NA
ATOM     42  C   UNL A   1      39.428  27.906  30.755  1.00  0.00     0.031 C 
ATOM     43  C   UNL A   1      40.797  28.827  26.239  1.00  0.00     0.029 A 
ATOM     44  N   UNL A   1      41.942  27.858  27.850  1.00  0.00    -0.354 N 
ATOM     45  C   UNL A   1      41.099  28.880  31.960  1.00  0.00     0.074 A 
ATOM     46  C   UNL A   1      39.919  28.052  31.988  1.00  0.00     0.031 C 
ATOM     47  C   UNL A   1      41.633  27.947  25.636  1.00  0.00     0.029 A 
ATOM     48  C   UNL A   1      42.429  27.303  26.670  1.00  0.00     0.049 A 
ATOM     49  H   UNL A   1      42.349  27.684  28.730  1.00  0.00     0.167 HD
ATOM     50  C   UNL A   1      42.241  28.839  32.692  1.00  0.00     0.037 A 
ATOM     51  C   UNL A   1      43.589  26.635  26.448  1.00  0.00     0.037 A 
ATOM     52  C   UNL A   1      43.245  29.741  32.181  1.00  0.00     0.049 A 
ATOM     53  C   UNL A   1      44.584  27.159  27.404  1.00  0.00     0.074 A 
ATOM     54  C   UNL A   1      43.523  31.089  32.255  1.00  0.00     0.029 A 
ATOM     55  N   UNL A   1      43.978  29.238  31.139  1.00  0.00    -0.354 N 
ATOM     56  N   UNL A   1      45.070  28.368  27.337  1.00  0.00    -0.248 NA
ATOM     57  C   UNL A   1      44.864  26.433  28.639  1.00  0.00     0.031 C 
ATOM     58  C   UNL A   1      44.380  31.396  31.154  1.00  0.00     0.029 A 
ATOM     59  C   UNL A   1      44.614  30.230  30.434  1.00  0.00     0.049 A 
ATOM     60  H   UNL A   1      44.042  28.280  30.923  1.00  0.00     0.167 HD
ATOM     61  C   UNL A   1      45.319  28.695  28.650  1.00  0.00     0.074 A 
ATOM     62  C   UNL A   1      45.351  27.434  29.375  1.00  0.00     0.031 C 
ATOM     63  C   UNL A   1      45.124  29.962  29.107  1.00  0.00     0.037 A 
BRANCH  50  64
ATOM     64  C   UNL A   1      42.611  27.680  33.569  1.00  0.00     0.058 A 
ATOM     65  C   UNL A   1      42.542  27.823  34.965  1.00  0.00     0.135 A 
ATOM     66  C   UNL A   1      43.277  26.528  33.094  1.00  0.00     0.135 A 
ATOM     67  F   UNL A   1      41.966  28.906  35.511  1.00  0.00    -0.206 F 
ATOM     68  C   UNL A   1      43.109  26.892  35.832  1.00  0.00     0.059 A 
ATOM     69  C   UNL A   1      43.794  25.556  33.938  1.00  0.00     0.059 A 
ATOM     70  F   UNL A   1      43.541  26.346  31.793  1.00  0.00    -0.206 F 
ATOM     71  C   UNL A   1      43.734  25.762  35.306  1.00  0.00     0.060 A 
BRANCH  71  72
ATOM     72  S   UNL A   1      44.518  24.588  36.422  1.00  0.00     0.124 S 
ATOM     73  O   UNL A   1      45.921  24.969  36.306  1.00  0.00    -0.237 OA
ATOM     74  O   UNL A   1      43.871  24.901  37.692  1.00  0.00    -0.237 OA
ATOM     75  O   UNL A   1      44.163  23.293  35.847  1.00  0.00    -0.744 OA
ENDBRANCH  71  72
ENDBRANCH  50  64
BRANCH  51  76
ATOM     76  C   UNL A   1      43.787  25.343  25.738  1.00  0.00     0.058 A 
ATOM     77  C   UNL A   1      45.064  24.989  25.257  1.00  0.00     0.135 A 
ATOM     78  C   UNL A   1      42.826  24.317  25.767  1.00  0.00     0.135 A 
ATOM     79  F   UNL A   1      46.036  25.912  25.181  1.00  0.00    -0.206 F 
ATOM     80  C   UNL A   1      45.400  23.678  24.921  1.00  0.00     0.059 A 
ATOM     81  C   UNL A   1      43.137  22.997  25.430  1.00  0.00     0.059 A 
ATOM     82  F   UNL A   1      41.581  24.560  26.206  1.00  0.00    -0.206 F 
ATOM     83  C   UNL A   1      44.437  22.679  25.044  1.00  0.00     0.060 A 
BRANCH  83  84
ATOM     84  S   UNL A   1      44.939  20.955  24.815  1.00  0.00     0.124 S 
ATOM     85  O   UNL A   1      46.333  20.987  25.247  1.00  0.00    -0.237 OA
ATOM     86  O   UNL A   1      44.015  20.248  25.697  1.00  0.00    -0.237 OA
ATOM     87  O   UNL A   1      44.731  20.730  23.387  1.00  0.00    -0.744 OA
ENDBRANCH  83  84
ENDBRANCH  51  76
BRANCH  63  88
ATOM     88  C   UNL A   1      45.320  31.087  28.140  1.00  0.00     0.058 A 
ATOM     89  C   UNL A   1      44.395  31.486  27.161  1.00  0.00     0.135 A 
ATOM     90  C   UNL A   1      46.509  31.826  28.242  1.00  0.00     0.135 A 
ATOM     91  F   UNL A   1      43.214  30.866  27.034  1.00  0.00    -0.206 F 
ATOM     92  C   UNL A   1      44.654  32.564  26.308  1.00  0.00     0.059 A 
ATOM     93  C   UNL A   1      46.776  32.918  27.421  1.00  0.00     0.059 A 
ATOM     94  F   UNL A   1      47.421  31.505  29.173  1.00  0.00    -0.206 F 
ATOM     95  C   UNL A   1      45.845  33.277  26.450  1.00  0.00     0.060 A 
BRANCH  95  96
ATOM     96  S   UNL A   1      46.144  34.716  25.401  1.00  0.00     0.124 S 
ATOM     97  O   UNL A   1      45.245  34.472  24.277  1.00  0.00    -0.237 OA
ATOM     98  O   UNL A   1      45.774  35.825  26.277  1.00  0.00    -0.237 OA
ATOM     99  O   UNL A   1      47.568  34.626  25.091  1.00  0.00    -0.744 OA
ENDBRANCH  95  96
ENDBRANCH  63  88
ENDBRANCH  37  38
ENDBRANCH  30  32
ENDBRANCH  29  30
ENDBRANCH  28  29
ENDBRANCH   1  28
TORSDOF 17
ENDMDL
MODEL 3
REMARK VINA RESULT:     -12.4      1.798      2.717
REMARK SMILES CC1(C)S[C@@H]2[C@H]([NH2+]Cn3nnc4ccccc43)C(=O)N2[C@@H]1C(=O)OCCOC(=O)c1ccc(-c2c3nc(c(-c4c(F)cc(S(=O)(=O)[O-])cc4F)c4ccc([nH]4)c(-c4c(F)cc(S(=O)(=O)[O-])cc4F)c4nc(c(-c5c(F)cc(S(=O)(=O)[O-])cc5F)c5ccc2[nH]5)C=C4)C=C3)cc1
REMARK SMILES IDX 25 1 24 2 22 3 23 4 21 5 1 6 2 7 3 8 4 9 5 10 20 11 6 12
REMARK SMILES IDX 18 13 19 14 7 15 8 18 9 19 10 20 17 21 11 22 12 23 16 24
REMARK SMILES IDX 13 25 15 26 14 27 26 28 27 29 28 30 29 31 30 32 31 33 95 34
REMARK SMILES IDX 32 35 94 36 33 37 34 38 35 39 88 40 36 41 93 42 87 43 89 44
REMARK SMILES IDX 37 45 92 46 86 47 85 48 38 50 72 51 51 52 71 53 52 54 55 55
REMARK SMILES IDX 70 56 90 57 53 58 54 59 69 61 91 62 56 63 39 64 40 65 49 66
REMARK SMILES IDX 41 67 42 68 48 69 50 70 43 71 44 72 45 73 46 74 47 75 73 76
REMARK SMILES IDX 74 77 83 78 75 79 76 80 82 81 84 82 77 83 78 84 79 85 80 86
REMARK SMILES IDX 81 87 57 88 58 89 67 90 59 91 60 92 66 93 68 94 61 95 62 96
REMARK SMILES IDX 63 97 64 98 65 99
REMARK H PARENT 7 16 7 17 89 49 55 60
REMARK Flexibility Score: inf
ROOT
ATOM      1  C   UNL A   1      36.567  21.283  26.108  1.00  0.00     0.274 C 
ENDROOT
BRANCH   1   2
ATOM      2  O   UNL A   1      35.318  21.560  25.433  1.00  0.00    -0.460 OA
BRANCH   2   3
ATOM      3  C   UNL A   1      34.671  22.712  25.768  1.00  0.00     0.330 C 
ATOM      4  O   UNL A   1      35.051  23.468  26.651  1.00  0.00    -0.250 OA
BRANCH   3   5
ATOM      5  C   UNL A   1      33.443  22.997  24.869  1.00  0.00     0.212 C 
ATOM      6  C   UNL A   1      35.268  23.607  23.099  1.00  0.00     0.026 C 
ATOM      7  C   UNL A   1      33.776  23.486  23.428  1.00  0.00     0.044 C 
ATOM      8  C   UNL A   1      33.005  22.649  22.401  1.00  0.00     0.026 C 
ATOM      9  S   UNL A   1      33.036  25.205  23.221  1.00  0.00    -0.121 SA
ATOM     10  C   UNL A   1      31.839  24.925  24.539  1.00  0.00     0.213 C 
ATOM     11  N   UNL A   1      32.548  23.991  25.390  1.00  0.00    -0.304 N 
ATOM     12  C   UNL A   1      31.588  25.734  25.855  1.00  0.00     0.307 C 
ATOM     13  C   UNL A   1      31.863  24.280  26.505  1.00  0.00     0.285 C 
ATOM     14  O   UNL A   1      31.733  23.706  27.549  1.00  0.00    -0.268 OA
BRANCH  12  15
ATOM     15  N   UNL A   1      32.551  26.765  26.364  1.00  0.00    -0.315 N 
ATOM     16  H   UNL A   1      33.483  26.352  26.385  1.00  0.00     0.348 HD
ATOM     17  H   UNL A   1      32.227  27.044  27.290  1.00  0.00     0.348 HD
BRANCH  15  18
ATOM     18  C   UNL A   1      32.601  27.970  25.551  1.00  0.00     0.415 C 
BRANCH  18  19
ATOM     19  N   UNL A   1      32.747  29.214  26.302  1.00  0.00    -0.194 N 
ATOM     20  N   UNL A   1      31.788  30.143  26.458  1.00  0.00    -0.061 NA
ATOM     21  C   UNL A   1      33.929  29.580  26.899  1.00  0.00     0.095 A 
ATOM     22  N   UNL A   1      32.344  31.166  27.104  1.00  0.00    -0.130 NA
ATOM     23  C   UNL A   1      33.654  30.849  27.376  1.00  0.00     0.113 A 
ATOM     24  C   UNL A   1      35.171  28.948  27.030  1.00  0.00     0.030 A 
ATOM     25  C   UNL A   1      34.679  31.567  28.010  1.00  0.00     0.032 A 
ATOM     26  C   UNL A   1      36.176  29.668  27.678  1.00  0.00     0.002 A 
ATOM     27  C   UNL A   1      35.939  30.960  28.151  1.00  0.00     0.002 A 
ENDBRANCH  18  19
ENDBRANCH  15  18
ENDBRANCH  12  15
ENDBRANCH   3   5
ENDBRANCH   2   3
ENDBRANCH   1   2
BRANCH   1  28
ATOM     28  C   UNL A   1      37.766  21.655  25.226  1.00  0.00     0.275 C 
BRANCH  28  29
ATOM     29  O   UNL A   1      38.369  22.841  25.761  1.00  0.00    -0.458 OA
BRANCH  29  30
ATOM     30  C   UNL A   1      39.322  22.667  26.708  1.00  0.00     0.338 C 
ATOM     31  O   UNL A   1      40.120  21.752  26.799  1.00  0.00    -0.246 OA
BRANCH  30  32
ATOM     32  C   UNL A   1      39.437  23.968  27.401  1.00  0.00     0.060 A 
ATOM     33  C   UNL A   1      38.434  24.939  27.307  1.00  0.00     0.016 A 
ATOM     34  C   UNL A   1      40.680  24.284  27.952  1.00  0.00     0.016 A 
ATOM     35  C   UNL A   1      38.718  26.261  27.656  1.00  0.00     0.010 A 
ATOM     36  C   UNL A   1      40.962  25.609  28.280  1.00  0.00     0.010 A 
ATOM     37  C   UNL A   1      40.002  26.613  28.086  1.00  0.00    -0.014 A 
BRANCH  37  38
ATOM     38  C   UNL A   1      40.244  27.943  28.657  1.00  0.00     0.031 A 
ATOM     39  C   UNL A   1      41.425  28.568  28.045  1.00  0.00     0.074 A 
ATOM     40  C   UNL A   1      39.580  28.639  29.608  1.00  0.00     0.049 A 
ATOM     41  N   UNL A   1      42.598  28.557  28.581  1.00  0.00    -0.248 NA
ATOM     42  C   UNL A   1      41.377  29.088  26.676  1.00  0.00     0.031 C 
ATOM     43  C   UNL A   1      38.397  28.236  30.351  1.00  0.00     0.029 A 
ATOM     44  N   UNL A   1      39.802  29.910  30.083  1.00  0.00    -0.354 N 
ATOM     45  C   UNL A   1      43.381  29.317  27.739  1.00  0.00     0.074 A 
ATOM     46  C   UNL A   1      42.658  29.424  26.496  1.00  0.00     0.031 C 
ATOM     47  C   UNL A   1      37.847  29.301  30.984  1.00  0.00     0.029 A 
ATOM     48  C   UNL A   1      38.762  30.425  30.851  1.00  0.00     0.049 A 
ATOM     49  H   UNL A   1      40.628  30.412  29.896  1.00  0.00     0.167 HD
ATOM     50  C   UNL A   1      44.398  30.055  28.251  1.00  0.00     0.037 A 
ATOM     51  C   UNL A   1      38.733  31.539  31.624  1.00  0.00     0.037 A 
ATOM     52  C   UNL A   1      44.676  29.715  29.625  1.00  0.00     0.049 A 
ATOM     53  C   UNL A   1      40.107  31.763  32.117  1.00  0.00     0.074 A 
ATOM     54  C   UNL A   1      45.361  28.729  30.304  1.00  0.00     0.029 A 
ATOM     55  N   UNL A   1      43.862  30.335  30.536  1.00  0.00    -0.354 N 
ATOM     56  N   UNL A   1      40.693  30.977  32.977  1.00  0.00    -0.248 NA
ATOM     57  C   UNL A   1      40.974  32.728  31.449  1.00  0.00     0.031 C 
ATOM     58  C   UNL A   1      44.856  28.717  31.639  1.00  0.00     0.029 A 
ATOM     59  C   UNL A   1      43.878  29.699  31.753  1.00  0.00     0.049 A 
ATOM     60  H   UNL A   1      43.330  31.140  30.342  1.00  0.00     0.167 HD
ATOM     61  C   UNL A   1      42.024  31.050  32.634  1.00  0.00     0.074 A 
ATOM     62  C   UNL A   1      42.162  32.255  31.831  1.00  0.00     0.031 C 
ATOM     63  C   UNL A   1      42.832  29.958  32.719  1.00  0.00     0.037 A 
BRANCH  50  64
ATOM     64  C   UNL A   1      44.827  31.372  27.674  1.00  0.00     0.058 A 
ATOM     65  C   UNL A   1      46.091  31.480  27.072  1.00  0.00     0.135 A 
ATOM     66  C   UNL A   1      44.149  32.586  27.923  1.00  0.00     0.135 A 
ATOM     67  F   UNL A   1      46.829  30.384  26.834  1.00  0.00    -0.206 F 
ATOM     68  C   UNL A   1      46.653  32.714  26.752  1.00  0.00     0.059 A 
ATOM     69  C   UNL A   1      44.662  33.822  27.556  1.00  0.00     0.059 A 
ATOM     70  F   UNL A   1      43.007  32.633  28.622  1.00  0.00    -0.206 F 
ATOM     71  C   UNL A   1      45.929  33.879  27.000  1.00  0.00     0.060 A 
BRANCH  71  72
ATOM     72  S   UNL A   1      46.677  35.476  26.641  1.00  0.00     0.124 S 
ATOM     73  O   UNL A   1      46.610  35.508  25.184  1.00  0.00    -0.237 OA
ATOM     74  O   UNL A   1      45.784  36.391  27.344  1.00  0.00    -0.237 OA
ATOM     75  O   UNL A   1      48.015  35.354  27.212  1.00  0.00    -0.744 OA
ENDBRANCH  71  72
ENDBRANCH  50  64
BRANCH  51  76
ATOM     76  C   UNL A   1      37.703  32.611  31.659  1.00  0.00     0.058 A 
ATOM     77  C   UNL A   1      37.402  33.342  30.491  1.00  0.00     0.135 A 
ATOM     78  C   UNL A   1      36.802  32.750  32.731  1.00  0.00     0.135 A 
ATOM     79  F   UNL A   1      38.218  33.279  29.427  1.00  0.00    -0.206 F 
ATOM     80  C   UNL A   1      36.229  34.084  30.355  1.00  0.00     0.059 A 
ATOM     81  C   UNL A   1      35.623  33.492  32.620  1.00  0.00     0.059 A 
ATOM     82  F   UNL A   1      37.008  32.096  33.884  1.00  0.00    -0.206 F 
ATOM     83  C   UNL A   1      35.326  34.125  31.415  1.00  0.00     0.060 A 
BRANCH  83  84
ATOM     84  S   UNL A   1      33.715  34.907  31.154  1.00  0.00     0.124 S 
ATOM     85  O   UNL A   1      33.287  34.302  29.897  1.00  0.00    -0.237 OA
ATOM     86  O   UNL A   1      32.978  34.493  32.344  1.00  0.00    -0.237 OA
ATOM     87  O   UNL A   1      34.038  36.330  31.085  1.00  0.00    -0.744 OA
ENDBRANCH  83  84
ENDBRANCH  51  76
BRANCH  63  88
ATOM     88  C   UNL A   1      42.518  28.941  33.772  1.00  0.00     0.058 A 
ATOM     89  C   UNL A   1      41.632  27.863  33.620  1.00  0.00     0.135 A 
ATOM     90  C   UNL A   1      43.190  29.056  34.999  1.00  0.00     0.135 A 
ATOM     91  F   UNL A   1      40.992  27.653  32.462  1.00  0.00    -0.206 F 
ATOM     92  C   UNL A   1      41.411  26.948  34.655  1.00  0.00     0.059 A 
ATOM     93  C   UNL A   1      43.004  28.143  36.034  1.00  0.00     0.059 A 
ATOM     94  F   UNL A   1      44.065  30.055  35.196  1.00  0.00    -0.206 F 
ATOM     95  C   UNL A   1      42.106  27.094  35.856  1.00  0.00     0.060 A 
BRANCH  95  96
ATOM     96  S   UNL A   1      41.880  25.868  37.163  1.00  0.00     0.124 S 
ATOM     97  O   UNL A   1      42.078  24.612  36.446  1.00  0.00    -0.237 OA
ATOM     98  O   UNL A   1      42.928  26.227  38.114  1.00  0.00    -0.237 OA
ATOM     99  O   UNL A   1      40.517  26.111  37.629  1.00  0.00    -0.744 OA
ENDBRANCH  95  96
ENDBRANCH  63  88
ENDBRANCH  37  38
ENDBRANCH  30  32
ENDBRANCH  29  30
ENDBRANCH  28  29
ENDBRANCH   1  28
TORSDOF 17
ENDMDL
