MODEL 1
REMARK VINA RESULT:     -11.5      0.000      0.000
REMARK SMILES COc1ccc([C@@H]2C(C#N)=C(N)N3C(=O)[C@H](CC(=O)OCCOC(=O)c4ccc(-c5c6nc(c(-c7c(F)cc(S(=O)(=O)[O-])cc7F)c7ccc([nH]7)c(-c7c(F)cc(S(=O)(=O)[O-])cc7F)c7nc(c(-c8c(F)cc(S(=O)(=O)[O-])cc8F)c8ccc5[nH]8)C=C7)C=C6)cc4)SC3=C2C#N)cc1
REMARK SMILES IDX 21 1 20 2 18 3 19 4 17 5 16 6 7 7 8 8 94 9 11 10 93 11 13 12
REMARK SMILES IDX 92 13 14 14 15 15 6 16 3 17 4 18 98 19 5 20 97 21 2 22 1 23
REMARK SMILES IDX 9 24 10 25 95 26 96 27 12 28 22 31 23 32 24 33 25 34 26 35
REMARK SMILES IDX 27 36 91 37 28 38 90 39 29 40 30 41 31 42 84 43 32 44 89 45
REMARK SMILES IDX 83 46 85 47 33 48 88 49 82 50 81 51 34 53 68 54 47 55 67 56
REMARK SMILES IDX 48 57 51 58 66 59 86 60 49 61 50 62 65 64 87 65 52 66 35 67
REMARK SMILES IDX 36 68 45 69 37 70 38 71 44 72 46 73 39 74 40 75 41 76 42 77
REMARK SMILES IDX 43 78 69 79 70 80 79 81 71 82 72 83 78 84 80 85 73 86 74 87
REMARK SMILES IDX 75 88 76 89 77 90 53 91 54 92 63 93 55 94 56 95 62 96 64 97
REMARK SMILES IDX 57 98 58 99 59 100 60 101 61 102
REMARK H PARENT 12 29 12 30 85 52 51 63
REMARK Flexibility Score: inf
ROOT
ATOM      1  C   UNL A   1      33.835  31.543  27.617  1.00  0.00     0.274 C 
ENDROOT
BRANCH   1   2
ATOM      2  O   UNL A   1      33.419  30.168  27.557  1.00  0.00    -0.462 OA
BRANCH   2   3
ATOM      3  C   UNL A   1      33.337  29.572  26.346  1.00  0.00     0.307 C 
ATOM      4  O   UNL A   1      34.163  28.793  25.892  1.00  0.00    -0.252 OA
BRANCH   3   5
ATOM      5  C   UNL A   1      32.112  30.013  25.572  1.00  0.00     0.147 C 
BRANCH   5   6
ATOM      6  C   UNL A   1      31.291  28.838  25.067  1.00  0.00     0.154 C 
ATOM      7  C   UNL A   1      31.742  24.060  23.792  1.00  0.00     0.107 C 
ATOM      8  C   UNL A   1      32.239  24.870  22.613  1.00  0.00     0.083 C 
ATOM      9  C   UNL A   1      31.506  24.932  25.008  1.00  0.00     0.073 C 
ATOM     10  C   UNL A   1      32.264  26.218  22.585  1.00  0.00     0.126 C 
ATOM     11  C   UNL A   1      31.571  26.269  24.888  1.00  0.00     0.099 C 
ATOM     12  N   UNL A   1      31.862  26.930  23.711  1.00  0.00    -0.258 N 
ATOM     13  S   UNL A   1      31.353  27.395  26.190  1.00  0.00    -0.093 SA
ATOM     14  C   UNL A   1      31.829  28.326  23.745  1.00  0.00     0.247 C 
ATOM     15  O   UNL A   1      32.169  29.056  22.815  1.00  0.00    -0.273 OA
BRANCH   7  16
ATOM     16  C   UNL A   1      32.630  22.850  24.099  1.00  0.00    -0.034 A 
ATOM     17  C   UNL A   1      34.324  20.660  24.623  1.00  0.00     0.118 A 
ATOM     18  C   UNL A   1      34.780  21.963  24.817  1.00  0.00     0.047 A 
ATOM     19  C   UNL A   1      33.013  20.447  24.200  1.00  0.00     0.047 A 
ATOM     20  C   UNL A   1      33.947  23.052  24.549  1.00  0.00     0.008 A 
ATOM     21  C   UNL A   1      32.171  21.534  23.935  1.00  0.00     0.008 A 
BRANCH  17  22
ATOM     22  O   UNL A   1      35.217  19.669  24.925  1.00  0.00    -0.497 OA
ATOM     23  C   UNL A   1      34.797  18.358  24.561  1.00  0.00     0.278 C 
ENDBRANCH  17  22
ENDBRANCH   7  16
BRANCH   8  24
ATOM     24  C   UNL A   1      32.848  24.120  21.439  1.00  0.00     0.100 C 
ATOM     25  N   UNL A   1      33.353  23.499  20.466  1.00  0.00    -0.193 NA
ENDBRANCH   8  24
BRANCH   9  26
ATOM     26  C   UNL A   1      31.205  24.290  26.251  1.00  0.00     0.098 C 
ATOM     27  N   UNL A   1      30.942  23.735  27.231  1.00  0.00    -0.193 NA
ENDBRANCH   9  26
BRANCH  10  28
ATOM     28  N   UNL A   1      32.697  26.898  21.475  1.00  0.00    -0.384 N 
ATOM     29  H   UNL A   1      33.292  27.676  21.575  1.00  0.00     0.158 HD
ATOM     30  H   UNL A   1      32.412  26.609  20.578  1.00  0.00     0.158 HD
ENDBRANCH  10  28
ENDBRANCH   5   6
ENDBRANCH   3   5
ENDBRANCH   2   3
ENDBRANCH   1   2
BRANCH   1  31
ATOM     31  C   UNL A   1      34.722  31.767  28.838  1.00  0.00     0.275 C 
BRANCH  31  32
ATOM     32  O   UNL A   1      35.637  30.668  29.000  1.00  0.00    -0.458 OA
BRANCH  32  33
ATOM     33  C   UNL A   1      36.357  30.677  30.145  1.00  0.00     0.338 C 
ATOM     34  O   UNL A   1      35.939  30.806  31.283  1.00  0.00    -0.246 OA
BRANCH  33  35
ATOM     35  C   UNL A   1      37.761  30.378  29.838  1.00  0.00     0.060 A 
ATOM     36  C   UNL A   1      38.135  30.181  28.506  1.00  0.00     0.016 A 
ATOM     37  C   UNL A   1      38.681  30.210  30.870  1.00  0.00     0.016 A 
ATOM     38  C   UNL A   1      39.436  29.794  28.200  1.00  0.00     0.010 A 
ATOM     39  C   UNL A   1      39.991  29.842  30.559  1.00  0.00     0.010 A 
ATOM     40  C   UNL A   1      40.375  29.616  29.224  1.00  0.00    -0.014 A 
BRANCH  40  41
ATOM     41  C   UNL A   1      41.749  29.157  28.910  1.00  0.00     0.031 A 
ATOM     42  C   UNL A   1      42.888  30.138  28.931  1.00  0.00     0.074 A 
ATOM     43  C   UNL A   1      41.968  27.866  28.595  1.00  0.00     0.049 A 
ATOM     44  N   UNL A   1      44.135  29.965  28.579  1.00  0.00    -0.248 NA
ATOM     45  C   UNL A   1      42.579  31.496  29.403  1.00  0.00     0.031 C 
ATOM     46  C   UNL A   1      40.947  26.817  28.573  1.00  0.00     0.029 A 
ATOM     47  N   UNL A   1      43.118  27.218  28.220  1.00  0.00    -0.354 N 
ATOM     48  C   UNL A   1      44.755  31.196  28.764  1.00  0.00     0.074 A 
ATOM     49  C   UNL A   1      43.740  32.113  29.235  1.00  0.00     0.031 C 
ATOM     50  C   UNL A   1      41.516  25.659  28.202  1.00  0.00     0.029 A 
ATOM     51  C   UNL A   1      42.926  25.894  27.906  1.00  0.00     0.049 A 
ATOM     52  H   UNL A   1      43.997  27.661  28.179  1.00  0.00     0.167 HD
ATOM     53  C   UNL A   1      46.055  31.524  28.564  1.00  0.00     0.037 A 
ATOM     54  C   UNL A   1      43.781  24.982  27.405  1.00  0.00     0.037 A 
ATOM     55  C   UNL A   1      47.057  30.596  28.105  1.00  0.00     0.049 A 
ATOM     56  C   UNL A   1      45.206  25.387  27.134  1.00  0.00     0.074 A 
ATOM     57  C   UNL A   1      48.406  30.822  27.891  1.00  0.00     0.029 A 
ATOM     58  N   UNL A   1      46.821  29.267  27.783  1.00  0.00    -0.354 N 
ATOM     59  N   UNL A   1      45.783  26.550  27.324  1.00  0.00    -0.248 NA
ATOM     60  C   UNL A   1      46.094  24.358  26.578  1.00  0.00     0.031 C 
ATOM     61  C   UNL A   1      48.972  29.647  27.387  1.00  0.00     0.029 A 
ATOM     62  C   UNL A   1      47.992  28.669  27.345  1.00  0.00     0.049 A 
ATOM     63  H   UNL A   1      45.949  28.815  27.853  1.00  0.00     0.167 HD
ATOM     64  C   UNL A   1      47.108  26.385  26.937  1.00  0.00     0.074 A 
ATOM     65  C   UNL A   1      47.249  25.006  26.515  1.00  0.00     0.031 C 
ATOM     66  C   UNL A   1      48.118  27.291  26.934  1.00  0.00     0.037 A 
BRANCH  53  67
ATOM     67  C   UNL A   1      46.463  32.952  28.812  1.00  0.00     0.058 A 
ATOM     68  C   UNL A   1      46.866  33.402  30.079  1.00  0.00     0.135 A 
ATOM     69  C   UNL A   1      46.488  33.877  27.754  1.00  0.00     0.135 A 
ATOM     70  F   UNL A   1      46.847  32.568  31.131  1.00  0.00    -0.206 F 
ATOM     71  C   UNL A   1      47.250  34.723  30.296  1.00  0.00     0.059 A 
ATOM     72  C   UNL A   1      46.897  35.194  27.941  1.00  0.00     0.059 A 
ATOM     73  F   UNL A   1      46.113  33.503  26.520  1.00  0.00    -0.206 F 
ATOM     74  C   UNL A   1      47.263  35.610  29.219  1.00  0.00     0.060 A 
BRANCH  74  75
ATOM     75  S   UNL A   1      47.764  37.320  29.517  1.00  0.00     0.124 S 
ATOM     76  O   UNL A   1      48.009  37.306  30.955  1.00  0.00    -0.237 OA
ATOM     77  O   UNL A   1      48.949  37.447  28.674  1.00  0.00    -0.237 OA
ATOM     78  O   UNL A   1      46.606  38.095  29.086  1.00  0.00    -0.744 OA
ENDBRANCH  74  75
ENDBRANCH  53  67
BRANCH  54  79
ATOM     79  C   UNL A   1      43.308  23.601  27.112  1.00  0.00     0.058 A 
ATOM     80  C   UNL A   1      43.057  23.185  25.797  1.00  0.00     0.135 A 
ATOM     81  C   UNL A   1      43.107  22.667  28.141  1.00  0.00     0.135 A 
ATOM     82  F   UNL A   1      43.226  24.043  24.779  1.00  0.00    -0.206 F 
ATOM     83  C   UNL A   1      42.608  21.900  25.512  1.00  0.00     0.059 A 
ATOM     84  C   UNL A   1      42.687  21.367  27.879  1.00  0.00     0.059 A 
ATOM     85  F   UNL A   1      43.343  23.009  29.418  1.00  0.00    -0.206 F 
ATOM     86  C   UNL A   1      42.430  20.996  26.560  1.00  0.00     0.060 A 
BRANCH  86  87
ATOM     87  S   UNL A   1      41.891  19.317  26.173  1.00  0.00     0.124 S 
ATOM     88  O   UNL A   1      40.461  19.509  25.959  1.00  0.00    -0.237 OA
ATOM     89  O   UNL A   1      42.679  19.010  24.984  1.00  0.00    -0.237 OA
ATOM     90  O   UNL A   1      42.254  18.562  27.369  1.00  0.00    -0.744 OA
ENDBRANCH  86  87
ENDBRANCH  54  79
BRANCH  66  91
ATOM     91  C   UNL A   1      49.477  26.814  26.495  1.00  0.00     0.058 A 
ATOM     92  C   UNL A   1      50.364  26.185  27.381  1.00  0.00     0.135 A 
ATOM     93  C   UNL A   1      49.873  26.943  25.153  1.00  0.00     0.135 A 
ATOM     94  F   UNL A   1      50.040  26.042  28.676  1.00  0.00    -0.206 F 
ATOM     95  C   UNL A   1      51.607  25.722  26.958  1.00  0.00     0.059 A 
ATOM     96  C   UNL A   1      51.096  26.459  24.701  1.00  0.00     0.059 A 
ATOM     97  F   UNL A   1      49.058  27.529  24.260  1.00  0.00    -0.206 F 
ATOM     98  C   UNL A   1      51.962  25.861  25.614  1.00  0.00     0.060 A 
BRANCH  98  99
ATOM     99  S   UNL A   1      53.561  25.222  25.073  1.00  0.00     0.124 S 
ATOM    100  O   UNL A   1      54.475  25.907  25.982  1.00  0.00    -0.237 OA
ATOM    101  O   UNL A   1      53.412  23.786  25.288  1.00  0.00    -0.237 OA
ATOM    102  O   UNL A   1      53.639  25.637  23.676  1.00  0.00    -0.744 OA
ENDBRANCH  98  99
ENDBRANCH  66  91
ENDBRANCH  40  41
ENDBRANCH  33  35
ENDBRANCH  32  33
ENDBRANCH  31  32
ENDBRANCH   1  31
TORSDOF 20
ENDMDL
MODEL 2
REMARK VINA RESULT:     -11.4      0.748      7.967
REMARK SMILES COc1ccc([C@@H]2C(C#N)=C(N)N3C(=O)[C@H](CC(=O)OCCOC(=O)c4ccc(-c5c6nc(c(-c7c(F)cc(S(=O)(=O)[O-])cc7F)c7ccc([nH]7)c(-c7c(F)cc(S(=O)(=O)[O-])cc7F)c7nc(c(-c8c(F)cc(S(=O)(=O)[O-])cc8F)c8ccc5[nH]8)C=C7)C=C6)cc4)SC3=C2C#N)cc1
REMARK SMILES IDX 21 1 20 2 18 3 19 4 17 5 16 6 7 7 8 8 94 9 11 10 93 11 13 12
REMARK SMILES IDX 92 13 14 14 15 15 6 16 3 17 4 18 98 19 5 20 97 21 2 22 1 23
REMARK SMILES IDX 9 24 10 25 95 26 96 27 12 28 22 31 23 32 24 33 25 34 26 35
REMARK SMILES IDX 27 36 91 37 28 38 90 39 29 40 30 41 31 42 84 43 32 44 89 45
REMARK SMILES IDX 83 46 85 47 33 48 88 49 82 50 81 51 34 53 68 54 47 55 67 56
REMARK SMILES IDX 48 57 51 58 66 59 86 60 49 61 50 62 65 64 87 65 52 66 35 67
REMARK SMILES IDX 36 68 45 69 37 70 38 71 44 72 46 73 39 74 40 75 41 76 42 77
REMARK SMILES IDX 43 78 69 79 70 80 79 81 71 82 72 83 78 84 80 85 73 86 74 87
REMARK SMILES IDX 75 88 76 89 77 90 53 91 54 92 63 93 55 94 56 95 62 96 64 97
REMARK SMILES IDX 57 98 58 99 59 100 60 101 61 102
REMARK H PARENT 12 29 12 30 85 52 51 63
REMARK Flexibility Score: inf
ROOT
ATOM      1  C   UNL A   1      34.309  31.436  27.785  1.00  0.00     0.274 C 
ENDROOT
BRANCH   1   2
ATOM      2  O   UNL A   1      33.521  30.243  27.637  1.00  0.00    -0.462 OA
BRANCH   2   3
ATOM      3  C   UNL A   1      33.413  29.691  26.408  1.00  0.00     0.307 C 
ATOM      4  O   UNL A   1      34.282  29.032  25.857  1.00  0.00    -0.252 OA
BRANCH   3   5
ATOM      5  C   UNL A   1      32.089  30.017  25.748  1.00  0.00     0.147 C 
BRANCH   5   6
ATOM      6  C   UNL A   1      31.324  28.770  25.334  1.00  0.00     0.154 C 
ATOM      7  C   UNL A   1      32.049  24.030  24.046  1.00  0.00     0.107 C 
ATOM      8  C   UNL A   1      32.356  24.863  22.819  1.00  0.00     0.083 C 
ATOM      9  C   UNL A   1      31.863  24.895  25.275  1.00  0.00     0.073 C 
ATOM     10  C   UNL A   1      32.264  26.208  22.781  1.00  0.00     0.126 C 
ATOM     11  C   UNL A   1      31.802  26.231  25.142  1.00  0.00     0.099 C 
ATOM     12  N   UNL A   1      31.917  26.899  23.938  1.00  0.00    -0.258 N 
ATOM     13  S   UNL A   1      31.620  27.353  26.452  1.00  0.00    -0.093 SA
ATOM     14  C   UNL A   1      31.769  28.287  23.967  1.00  0.00     0.247 C 
ATOM     15  O   UNL A   1      31.952  29.031  23.004  1.00  0.00    -0.273 OA
BRANCH   7  16
ATOM     16  C   UNL A   1      33.063  22.903  24.269  1.00  0.00    -0.034 A 
ATOM     17  C   UNL A   1      34.878  20.798  24.731  1.00  0.00     0.118 A 
ATOM     18  C   UNL A   1      33.531  20.526  24.498  1.00  0.00     0.047 A 
ATOM     19  C   UNL A   1      35.328  22.117  24.702  1.00  0.00     0.047 A 
ATOM     20  C   UNL A   1      32.627  21.567  24.278  1.00  0.00     0.008 A 
ATOM     21  C   UNL A   1      34.427  23.165  24.476  1.00  0.00     0.008 A 
BRANCH  17  22
ATOM     22  O   UNL A   1      35.678  19.706  24.924  1.00  0.00    -0.497 OA
ATOM     23  C   UNL A   1      37.075  19.983  24.925  1.00  0.00     0.278 C 
ENDBRANCH  17  22
ENDBRANCH   7  16
BRANCH   8  24
ATOM     24  C   UNL A   1      32.907  24.150  21.593  1.00  0.00     0.100 C 
ATOM     25  N   UNL A   1      33.364  23.561  20.578  1.00  0.00    -0.193 NA
ENDBRANCH   8  24
BRANCH   9  26
ATOM     26  C   UNL A   1      31.742  24.248  26.545  1.00  0.00     0.098 C 
ATOM     27  N   UNL A   1      31.632  23.685  27.549  1.00  0.00    -0.193 NA
ENDBRANCH   9  26
BRANCH  10  28
ATOM     28  N   UNL A   1      32.525  26.906  21.629  1.00  0.00    -0.384 N 
ATOM     29  H   UNL A   1      32.139  26.607  20.774  1.00  0.00     0.158 HD
ATOM     30  H   UNL A   1      33.098  27.706  21.657  1.00  0.00     0.158 HD
ENDBRANCH  10  28
ENDBRANCH   5   6
ENDBRANCH   3   5
ENDBRANCH   2   3
ENDBRANCH   1   2
BRANCH   1  31
ATOM     31  C   UNL A   1      35.233  31.305  28.993  1.00  0.00     0.275 C 
BRANCH  31  32
ATOM     32  O   UNL A   1      35.857  30.009  29.007  1.00  0.00    -0.458 OA
BRANCH  32  33
ATOM     33  C   UNL A   1      36.647  29.758  30.076  1.00  0.00     0.338 C 
ATOM     34  O   UNL A   1      36.299  29.570  31.228  1.00  0.00    -0.246 OA
BRANCH  33  35
ATOM     35  C   UNL A   1      38.038  29.618  29.628  1.00  0.00     0.060 A 
ATOM     36  C   UNL A   1      38.314  29.645  28.258  1.00  0.00     0.016 A 
ATOM     37  C   UNL A   1      39.049  29.375  30.554  1.00  0.00     0.016 A 
ATOM     38  C   UNL A   1      39.609  29.409  27.805  1.00  0.00     0.010 A 
ATOM     39  C   UNL A   1      40.351  29.159  30.099  1.00  0.00     0.010 A 
ATOM     40  C   UNL A   1      40.638  29.159  28.721  1.00  0.00    -0.014 A 
BRANCH  40  41
ATOM     41  C   UNL A   1      42.010  28.858  28.245  1.00  0.00     0.031 A 
ATOM     42  C   UNL A   1      42.372  27.453  27.849  1.00  0.00     0.074 A 
ATOM     43  C   UNL A   1      42.928  29.841  28.182  1.00  0.00     0.049 A 
ATOM     44  N   UNL A   1      43.536  26.961  27.519  1.00  0.00    -0.248 NA
ATOM     45  C   UNL A   1      41.277  26.471  27.834  1.00  0.00     0.031 C 
ATOM     46  C   UNL A   1      42.683  31.247  28.510  1.00  0.00     0.029 A 
ATOM     47  N   UNL A   1      44.255  29.806  27.834  1.00  0.00    -0.354 N 
ATOM     48  C   UNL A   1      43.322  25.609  27.276  1.00  0.00     0.074 A 
ATOM     49  C   UNL A   1      41.920  25.353  27.524  1.00  0.00     0.031 C 
ATOM     50  C   UNL A   1      43.823  31.938  28.349  1.00  0.00     0.029 A 
ATOM     51  C   UNL A   1      44.888  31.019  27.963  1.00  0.00     0.049 A 
ATOM     52  H   UNL A   1      44.709  28.990  27.523  1.00  0.00     0.167 HD
ATOM     53  C   UNL A   1      44.216  24.672  26.877  1.00  0.00     0.037 A 
ATOM     54  C   UNL A   1      46.188  31.346  27.819  1.00  0.00     0.037 A 
ATOM     55  C   UNL A   1      45.608  24.944  26.623  1.00  0.00     0.049 A 
ATOM     56  C   UNL A   1      47.172  30.273  27.434  1.00  0.00     0.074 A 
ATOM     57  C   UNL A   1      46.592  24.070  26.195  1.00  0.00     0.029 A 
ATOM     58  N   UNL A   1      46.217  26.182  26.780  1.00  0.00    -0.354 N 
ATOM     59  N   UNL A   1      46.956  29.001  27.197  1.00  0.00    -0.248 NA
ATOM     60  C   UNL A   1      48.577  30.679  27.301  1.00  0.00     0.031 C 
ATOM     61  C   UNL A   1      47.804  24.765  26.147  1.00  0.00     0.029 A 
ATOM     62  C   UNL A   1      47.567  26.088  26.484  1.00  0.00     0.049 A 
ATOM     63  H   UNL A   1      45.757  27.006  27.062  1.00  0.00     0.167 HD
ATOM     64  C   UNL A   1      48.192  28.461  26.859  1.00  0.00     0.074 A 
ATOM     65  C   UNL A   1      49.148  29.548  26.910  1.00  0.00     0.031 C 
ATOM     66  C   UNL A   1      48.506  27.182  26.534  1.00  0.00     0.037 A 
BRANCH  53  67
ATOM     67  C   UNL A   1      43.724  23.257  26.719  1.00  0.00     0.058 A 
ATOM     68  C   UNL A   1      43.398  22.454  27.824  1.00  0.00     0.135 A 
ATOM     69  C   UNL A   1      43.540  22.709  25.438  1.00  0.00     0.135 A 
ATOM     70  F   UNL A   1      43.570  22.919  29.072  1.00  0.00    -0.206 F 
ATOM     71  C   UNL A   1      42.937  21.150  27.666  1.00  0.00     0.059 A 
ATOM     72  C   UNL A   1      43.051  21.418  25.257  1.00  0.00     0.059 A 
ATOM     73  F   UNL A   1      43.835  23.430  24.345  1.00  0.00    -0.206 F 
ATOM     74  C   UNL A   1      42.766  20.642  26.378  1.00  0.00     0.060 A 
BRANCH  74  75
ATOM     75  S   UNL A   1      42.166  18.949  26.191  1.00  0.00     0.124 S 
ATOM     76  O   UNL A   1      43.098  18.417  25.202  1.00  0.00    -0.237 OA
ATOM     77  O   UNL A   1      42.307  18.418  27.543  1.00  0.00    -0.237 OA
ATOM     78  O   UNL A   1      40.794  19.123  25.728  1.00  0.00    -0.744 OA
ENDBRANCH  74  75
ENDBRANCH  53  67
BRANCH  54  79
ATOM     79  C   UNL A   1      46.633  32.746  28.056  1.00  0.00     0.058 A 
ATOM     80  C   UNL A   1      46.555  33.713  27.044  1.00  0.00     0.135 A 
ATOM     81  C   UNL A   1      47.137  33.147  29.304  1.00  0.00     0.135 A 
ATOM     82  F   UNL A   1      46.089  33.377  25.831  1.00  0.00    -0.206 F 
ATOM     83  C   UNL A   1      46.975  35.022  27.252  1.00  0.00     0.059 A 
ATOM     84  C   UNL A   1      47.535  34.458  29.546  1.00  0.00     0.059 A 
ATOM     85  F   UNL A   1      47.223  32.265  30.312  1.00  0.00    -0.206 F 
ATOM     86  C   UNL A   1      47.459  35.386  28.509  1.00  0.00     0.060 A 
BRANCH  86  87
ATOM     87  S   UNL A   1      47.959  37.100  28.781  1.00  0.00     0.124 S 
ATOM     88  O   UNL A   1      47.223  37.792  27.729  1.00  0.00    -0.237 OA
ATOM     89  O   UNL A   1      47.499  37.339  30.145  1.00  0.00    -0.237 OA
ATOM     90  O   UNL A   1      49.409  37.059  28.615  1.00  0.00    -0.744 OA
ENDBRANCH  86  87
ENDBRANCH  54  79
BRANCH  66  91
ATOM     91  C   UNL A   1      49.938  26.891  26.170  1.00  0.00     0.058 A 
ATOM     92  C   UNL A   1      50.848  26.367  27.099  1.00  0.00     0.135 A 
ATOM     93  C   UNL A   1      50.389  27.093  24.854  1.00  0.00     0.135 A 
ATOM     94  F   UNL A   1      50.473  26.162  28.372  1.00  0.00    -0.206 F 
ATOM     95  C   UNL A   1      52.163  26.075  26.746  1.00  0.00     0.059 A 
ATOM     96  C   UNL A   1      51.688  26.778  24.469  1.00  0.00     0.059 A 
ATOM     97  F   UNL A   1      49.557  27.583  23.921  1.00  0.00    -0.206 F 
ATOM     98  C   UNL A   1      52.572  26.281  25.426  1.00  0.00     0.060 A 
BRANCH  98  99
ATOM     99  S   UNL A   1      54.268  25.863  24.972  1.00  0.00     0.124 S 
ATOM    100  O   UNL A   1      55.032  26.612  25.965  1.00  0.00    -0.237 OA
ATOM    101  O   UNL A   1      54.282  24.411  25.125  1.00  0.00    -0.237 OA
ATOM    102  O   UNL A   1      54.382  26.344  23.599  1.00  0.00    -0.744 OA
ENDBRANCH  98  99
ENDBRANCH  66  91
ENDBRANCH  40  41
ENDBRANCH  33  35
ENDBRANCH  32  33
ENDBRANCH  31  32
ENDBRANCH   1  31
TORSDOF 20
ENDMDL
MODEL 3
REMARK VINA RESULT:     -11.0      6.266     11.663
REMARK SMILES COc1ccc([C@@H]2C(C#N)=C(N)N3C(=O)[C@H](CC(=O)OCCOC(=O)c4ccc(-c5c6nc(c(-c7c(F)cc(S(=O)(=O)[O-])cc7F)c7ccc([nH]7)c(-c7c(F)cc(S(=O)(=O)[O-])cc7F)c7nc(c(-c8c(F)cc(S(=O)(=O)[O-])cc8F)c8ccc5[nH]8)C=C7)C=C6)cc4)SC3=C2C#N)cc1
REMARK SMILES IDX 21 1 20 2 18 3 19 4 17 5 16 6 7 7 8 8 94 9 11 10 93 11 13 12
REMARK SMILES IDX 92 13 14 14 15 15 6 16 3 17 4 18 98 19 5 20 97 21 2 22 1 23
REMARK SMILES IDX 9 24 10 25 95 26 96 27 12 28 22 31 23 32 24 33 25 34 26 35
REMARK SMILES IDX 27 36 91 37 28 38 90 39 29 40 30 41 31 42 84 43 32 44 89 45
REMARK SMILES IDX 83 46 85 47 33 48 88 49 82 50 81 51 34 53 68 54 47 55 67 56
REMARK SMILES IDX 48 57 51 58 66 59 86 60 49 61 50 62 65 64 87 65 52 66 35 67
REMARK SMILES IDX 36 68 45 69 37 70 38 71 44 72 46 73 39 74 40 75 41 76 42 77
REMARK SMILES IDX 43 78 69 79 70 80 79 81 71 82 72 83 78 84 80 85 73 86 74 87
REMARK SMILES IDX 75 88 76 89 77 90 53 91 54 92 63 93 55 94 56 95 62 96 64 97
REMARK SMILES IDX 57 98 58 99 59 100 60 101 61 102
REMARK H PARENT 12 29 12 30 85 52 51 63
REMARK Flexibility Score: inf
ROOT
ATOM      1  C   UNL A   1      43.672  22.422  25.984  1.00  0.00     0.274 C 
ENDROOT
BRANCH   1   2
ATOM      2  O   UNL A   1      42.668  21.829  26.825  1.00  0.00    -0.462 OA
BRANCH   2   3
ATOM      3  C   UNL A   1      41.828  20.920  26.283  1.00  0.00     0.307 C 
ATOM      4  O   UNL A   1      42.147  20.075  25.459  1.00  0.00    -0.252 OA
BRANCH   3   5
ATOM      5  C   UNL A   1      40.406  21.087  26.777  1.00  0.00     0.147 C 
BRANCH   5   6
ATOM      6  C   UNL A   1      39.437  21.419  25.654  1.00  0.00     0.154 C 
ATOM      7  C   UNL A   1      34.582  21.943  24.753  1.00  0.00     0.107 C 
ATOM      8  C   UNL A   1      34.863  20.455  24.753  1.00  0.00     0.083 C 
ATOM      9  C   UNL A   1      35.775  22.736  25.244  1.00  0.00     0.073 C 
ATOM     10  C   UNL A   1      36.084  19.921  24.958  1.00  0.00     0.126 C 
ATOM     11  C   UNL A   1      36.950  22.113  25.440  1.00  0.00     0.099 C 
ATOM     12  N   UNL A   1      37.156  20.762  25.239  1.00  0.00    -0.258 N 
ATOM     13  S   UNL A   1      38.395  22.876  26.023  1.00  0.00    -0.093 SA
ATOM     14  C   UNL A   1      38.456  20.285  25.429  1.00  0.00     0.247 C 
ATOM     15  O   UNL A   1      38.776  19.098  25.397  1.00  0.00    -0.273 OA
BRANCH   7  16
ATOM     16  C   UNL A   1      33.291  22.304  25.495  1.00  0.00    -0.034 A 
ATOM     17  C   UNL A   1      30.909  23.033  26.811  1.00  0.00     0.118 A 
ATOM     18  C   UNL A   1      30.969  23.028  25.419  1.00  0.00     0.047 A 
ATOM     19  C   UNL A   1      32.027  22.644  27.549  1.00  0.00     0.047 A 
ATOM     20  C   UNL A   1      32.151  22.677  24.763  1.00  0.00     0.008 A 
ATOM     21  C   UNL A   1      33.212  22.285  26.897  1.00  0.00     0.008 A 
BRANCH  17  22
ATOM     22  O   UNL A   1      29.702  23.383  27.351  1.00  0.00    -0.497 OA
ATOM     23  C   UNL A   1      28.753  22.323  27.424  1.00  0.00     0.278 C 
ENDBRANCH  17  22
ENDBRANCH   7  16
BRANCH   8  24
ATOM     24  C   UNL A   1      33.681  19.506  24.625  1.00  0.00     0.100 C 
ATOM     25  N   UNL A   1      32.702  18.721  24.518  1.00  0.00    -0.193 NA
ENDBRANCH   8  24
BRANCH   9  26
ATOM     26  C   UNL A   1      35.608  24.139  25.469  1.00  0.00     0.098 C 
ATOM     27  N   UNL A   1      35.520  25.276  25.659  1.00  0.00    -0.193 NA
ENDBRANCH   9  26
BRANCH  10  28
ATOM     28  N   UNL A   1      36.283  18.564  24.915  1.00  0.00    -0.384 N 
ATOM     29  H   UNL A   1      36.861  18.129  25.584  1.00  0.00     0.158 HD
ATOM     30  H   UNL A   1      35.849  18.025  24.215  1.00  0.00     0.158 HD
ENDBRANCH  10  28
ENDBRANCH   5   6
ENDBRANCH   3   5
ENDBRANCH   2   3
ENDBRANCH   1   2
BRANCH   1  31
ATOM     31  C   UNL A   1      43.080  23.601  25.216  1.00  0.00     0.275 C 
BRANCH  31  32
ATOM     32  O   UNL A   1      42.230  24.382  26.075  1.00  0.00    -0.458 OA
BRANCH  32  33
ATOM     33  C   UNL A   1      42.265  25.717  25.865  1.00  0.00     0.338 C 
ATOM     34  O   UNL A   1      42.314  26.300  24.796  1.00  0.00    -0.246 OA
BRANCH  33  35
ATOM     35  C   UNL A   1      42.111  26.414  27.148  1.00  0.00     0.060 A 
ATOM     36  C   UNL A   1      41.178  25.933  28.071  1.00  0.00     0.016 A 
ATOM     37  C   UNL A   1      42.824  27.584  27.398  1.00  0.00     0.016 A 
ATOM     38  C   UNL A   1      40.940  26.635  29.249  1.00  0.00     0.010 A 
ATOM     39  C   UNL A   1      42.598  28.276  28.589  1.00  0.00     0.010 A 
ATOM     40  C   UNL A   1      41.644  27.816  29.516  1.00  0.00    -0.014 A 
BRANCH  40  41
ATOM     41  C   UNL A   1      41.360  28.597  30.744  1.00  0.00     0.031 A 
ATOM     42  C   UNL A   1      40.226  29.584  30.757  1.00  0.00     0.074 A 
ATOM     43  C   UNL A   1      42.129  28.429  31.837  1.00  0.00     0.049 A 
ATOM     44  N   UNL A   1      39.886  30.441  31.683  1.00  0.00    -0.248 NA
ATOM     45  C   UNL A   1      39.367  29.615  29.563  1.00  0.00     0.031 C 
ATOM     46  C   UNL A   1      43.237  27.479  31.952  1.00  0.00     0.029 A 
ATOM     47  N   UNL A   1      42.104  29.061  33.055  1.00  0.00    -0.354 N 
ATOM     48  C   UNL A   1      38.788  31.130  31.178  1.00  0.00     0.074 A 
ATOM     49  C   UNL A   1      38.536  30.607  29.853  1.00  0.00     0.031 C 
ATOM     50  C   UNL A   1      43.786  27.593  33.172  1.00  0.00     0.029 A 
ATOM     51  C   UNL A   1      43.108  28.658  33.903  1.00  0.00     0.049 A 
ATOM     52  H   UNL A   1      41.432  29.738  33.297  1.00  0.00     0.167 HD
ATOM     53  C   UNL A   1      38.057  32.103  31.772  1.00  0.00     0.037 A 
ATOM     54  C   UNL A   1      43.463  29.120  35.118  1.00  0.00     0.037 A 
ATOM     55  C   UNL A   1      38.313  32.606  33.098  1.00  0.00     0.049 A 
ATOM     56  C   UNL A   1      42.672  30.245  35.732  1.00  0.00     0.074 A 
ATOM     57  C   UNL A   1      37.618  33.575  33.801  1.00  0.00     0.029 A 
ATOM     58  N   UNL A   1      39.350  32.185  33.921  1.00  0.00    -0.354 N 
ATOM     59  N   UNL A   1      41.629  30.879  35.250  1.00  0.00    -0.248 NA
ATOM     60  C   UNL A   1      43.106  30.718  37.053  1.00  0.00     0.031 C 
ATOM     61  C   UNL A   1      38.267  33.780  35.023  1.00  0.00     0.029 A 
ATOM     62  C   UNL A   1      39.329  32.894  35.111  1.00  0.00     0.049 A 
ATOM     63  H   UNL A   1      40.004  31.485  33.692  1.00  0.00     0.167 HD
ATOM     64  C   UNL A   1      41.266  31.807  36.220  1.00  0.00     0.074 A 
ATOM     65  C   UNL A   1      42.193  31.642  37.321  1.00  0.00     0.031 C 
ATOM     66  C   UNL A   1      40.256  32.713  36.202  1.00  0.00     0.037 A 
BRANCH  53  67
ATOM     67  C   UNL A   1      36.927  32.712  30.984  1.00  0.00     0.058 A 
ATOM     68  C   UNL A   1      35.587  32.356  31.208  1.00  0.00     0.135 A 
ATOM     69  C   UNL A   1      37.188  33.695  30.014  1.00  0.00     0.135 A 
ATOM     70  F   UNL A   1      35.280  31.411  32.110  1.00  0.00    -0.206 F 
ATOM     71  C   UNL A   1      34.550  32.931  30.479  1.00  0.00     0.059 A 
ATOM     72  C   UNL A   1      36.163  34.305  29.295  1.00  0.00     0.059 A 
ATOM     73  F   UNL A   1      38.449  34.075  29.757  1.00  0.00    -0.206 F 
ATOM     74  C   UNL A   1      34.848  33.905  29.526  1.00  0.00     0.060 A 
BRANCH  74  75
ATOM     75  S   UNL A   1      33.491  34.641  28.589  1.00  0.00     0.124 S 
ATOM     76  O   UNL A   1      32.545  34.965  29.653  1.00  0.00    -0.237 OA
ATOM     77  O   UNL A   1      34.138  35.782  27.949  1.00  0.00    -0.237 OA
ATOM     78  O   UNL A   1      33.077  33.571  27.689  1.00  0.00    -0.744 OA
ENDBRANCH  74  75
ENDBRANCH  53  67
BRANCH  54  79
ATOM     79  C   UNL A   1      44.632  28.531  35.825  1.00  0.00     0.058 A 
ATOM     80  C   UNL A   1      45.911  29.092  35.704  1.00  0.00     0.135 A 
ATOM     81  C   UNL A   1      44.492  27.399  36.644  1.00  0.00     0.135 A 
ATOM     82  F   UNL A   1      46.099  30.169  34.926  1.00  0.00    -0.206 F 
ATOM     83  C   UNL A   1      47.012  28.546  36.354  1.00  0.00     0.059 A 
ATOM     84  C   UNL A   1      45.572  26.852  37.329  1.00  0.00     0.059 A 
ATOM     85  F   UNL A   1      43.288  26.828  36.805  1.00  0.00    -0.206 F 
ATOM     86  C   UNL A   1      46.832  27.428  37.169  1.00  0.00     0.060 A 
BRANCH  86  87
ATOM     87  S   UNL A   1      48.260  26.754  38.044  1.00  0.00     0.124 S 
ATOM     88  O   UNL A   1      48.045  25.319  37.900  1.00  0.00    -0.237 OA
ATOM     89  O   UNL A   1      49.375  27.312  37.284  1.00  0.00    -0.237 OA
ATOM     90  O   UNL A   1      48.108  27.283  39.397  1.00  0.00    -0.744 OA
ENDBRANCH  86  87
ENDBRANCH  54  79
BRANCH  66  91
ATOM     91  C   UNL A   1      40.073  33.572  37.425  1.00  0.00     0.058 A 
ATOM     92  C   UNL A   1      40.809  34.750  37.620  1.00  0.00     0.135 A 
ATOM     93  C   UNL A   1      39.107  33.235  38.389  1.00  0.00     0.135 A 
ATOM     94  F   UNL A   1      41.750  35.115  36.735  1.00  0.00    -0.206 F 
ATOM     95  C   UNL A   1      40.613  35.553  38.741  1.00  0.00     0.059 A 
ATOM     96  C   UNL A   1      38.871  34.039  39.499  1.00  0.00     0.059 A 
ATOM     97  F   UNL A   1      38.368  32.124  38.247  1.00  0.00    -0.206 F 
ATOM     98  C   UNL A   1      39.638  35.190  39.673  1.00  0.00     0.060 A 
BRANCH  98  99
ATOM     99  S   UNL A   1      39.368  36.260  41.101  1.00  0.00     0.124 S 
ATOM    100  O   UNL A   1      38.573  37.336  40.517  1.00  0.00    -0.237 OA
ATOM    101  O   UNL A   1      38.660  35.377  42.023  1.00  0.00    -0.237 OA
ATOM    102  O   UNL A   1      40.719  36.630  41.510  1.00  0.00    -0.744 OA
ENDBRANCH  98  99
ENDBRANCH  66  91
ENDBRANCH  40  41
ENDBRANCH  33  35
ENDBRANCH  32  33
ENDBRANCH  31  32
ENDBRANCH   1  31
TORSDOF 20
ENDMDL
