MODEL 1
REMARK VINA RESULT:     -11.7      0.000      0.000
REMARK SMILES CC(C)(C)[C@](O)(c1ccc(C(=O)OCCOC(=O)c2ccc(-c3c4nc(c(-c5c(F)cc(S(=O)(=O)[O-])cc5F)c5ccc([nH]5)c(-c5c(F)cc(S(=O)(=O)[O-])cc5F)c5nc(c(-c6c(F)cc(S(=O)(=O)[O-])cc6F)c6ccc3[nH]6)C=C5)C=C4)cc2)cc1)c1ccc(C(F)(F)F)cc1
REMARK SMILES IDX 14 1 13 2 11 3 12 4 10 5 7 6 8 7 86 8 9 9 85 10 5 11 2 12
REMARK SMILES IDX 1 13 3 14 4 15 87 16 88 17 96 18 89 19 95 20 90 21 91 22
REMARK SMILES IDX 92 23 93 24 94 25 6 26 15 28 16 29 17 30 18 31 19 32 20 33
REMARK SMILES IDX 84 34 21 35 83 36 22 37 23 38 24 39 77 40 25 41 82 42 76 43
REMARK SMILES IDX 78 44 26 45 81 46 75 47 74 48 27 50 61 51 40 52 60 53 41 54
REMARK SMILES IDX 44 55 59 56 79 57 42 58 43 59 58 61 80 62 45 63 28 64 29 65
REMARK SMILES IDX 38 66 30 67 31 68 37 69 39 70 32 71 33 72 34 73 35 74 36 75
REMARK SMILES IDX 62 76 63 77 72 78 64 79 65 80 71 81 73 82 66 83 67 84 68 85
REMARK SMILES IDX 69 86 70 87 46 88 47 89 56 90 48 91 49 92 55 93 57 94 50 95
REMARK SMILES IDX 51 96 52 97 53 98 54 99
REMARK H PARENT 6 27 78 49 44 60
REMARK Flexibility Score: inf
ROOT
ATOM      1  C   UNL A   1      38.280  21.581  25.705  1.00  0.00     0.275 C 
ENDROOT
BRANCH   1   2
ATOM      2  O   UNL A   1      37.160  22.489  25.730  1.00  0.00    -0.458 OA
BRANCH   2   3
ATOM      3  C   UNL A   1      35.978  21.950  25.346  1.00  0.00     0.338 C 
ATOM      4  O   UNL A   1      35.718  20.765  25.230  1.00  0.00    -0.246 OA
BRANCH   3   5
ATOM      5  C   UNL A   1      34.987  23.009  25.085  1.00  0.00     0.060 A 
ATOM      6  C   UNL A   1      33.351  25.275  24.633  1.00  0.00    -0.011 A 
ATOM      7  C   UNL A   1      34.097  24.706  23.595  1.00  0.00     0.008 A 
ATOM      8  C   UNL A   1      33.447  24.663  25.906  1.00  0.00     0.008 A 
ATOM      9  C   UNL A   1      34.899  23.591  23.822  1.00  0.00     0.016 A 
ATOM     10  C   UNL A   1      34.244  23.535  26.132  1.00  0.00     0.016 A 
BRANCH   6  11
ATOM     11  C   UNL A   1      32.509  26.548  24.388  1.00  0.00     0.119 C 
BRANCH  11  12
ATOM     12  C   UNL A   1      30.921  26.268  24.361  1.00  0.00    -0.001 C 
ATOM     13  C   UNL A   1      30.624  24.914  23.647  1.00  0.00     0.014 C 
ATOM     14  C   UNL A   1      30.168  27.354  23.554  1.00  0.00     0.014 C 
ATOM     15  C   UNL A   1      30.240  26.167  25.743  1.00  0.00     0.014 C 
ENDBRANCH  11  12
BRANCH  11  16
ATOM     16  C   UNL A   1      33.038  27.692  25.294  1.00  0.00    -0.011 A 
ATOM     17  C   UNL A   1      34.178  27.554  26.099  1.00  0.00     0.008 A 
ATOM     18  C   UNL A   1      32.414  28.961  25.285  1.00  0.00     0.008 A 
ATOM     19  C   UNL A   1      34.637  28.610  26.897  1.00  0.00     0.013 A 
ATOM     20  C   UNL A   1      32.854  30.010  26.097  1.00  0.00     0.013 A 
ATOM     21  C   UNL A   1      33.969  29.841  26.920  1.00  0.00     0.056 A 
BRANCH  21  22
ATOM     22  C   UNL A   1      34.449  30.947  27.824  1.00  0.00     0.416 C 
ATOM     23  F   UNL A   1      35.447  31.680  27.251  1.00  0.00    -0.166 F 
ATOM     24  F   UNL A   1      33.467  31.841  28.128  1.00  0.00    -0.166 F 
ATOM     25  F   UNL A   1      34.948  30.515  29.015  1.00  0.00    -0.166 F 
ENDBRANCH  21  22
ENDBRANCH  11  16
BRANCH  11  26
ATOM     26  O   UNL A   1      32.802  27.000  23.039  1.00  0.00    -0.380 OA
ATOM     27  H   UNL A   1      32.074  27.554  22.719  1.00  0.00     0.212 HD
ENDBRANCH  11  26
ENDBRANCH   6  11
ENDBRANCH   3   5
ENDBRANCH   2   3
ENDBRANCH   1   2
BRANCH   1  28
ATOM     28  C   UNL A   1      39.497  22.167  26.421  1.00  0.00     0.275 C 
BRANCH  28  29
ATOM     29  O   UNL A   1      39.410  23.602  26.512  1.00  0.00    -0.458 OA
BRANCH  29  30
ATOM     30  C   UNL A   1      40.562  24.217  26.856  1.00  0.00     0.338 C 
ATOM     31  O   UNL A   1      41.697  23.878  26.560  1.00  0.00    -0.246 OA
BRANCH  30  32
ATOM     32  C   UNL A   1      40.298  25.452  27.607  1.00  0.00     0.060 A 
ATOM     33  C   UNL A   1      41.243  26.467  27.548  1.00  0.00     0.016 A 
ATOM     34  C   UNL A   1      39.283  25.502  28.559  1.00  0.00     0.016 A 
ATOM     35  C   UNL A   1      41.305  27.415  28.560  1.00  0.00     0.010 A 
ATOM     36  C   UNL A   1      39.240  26.575  29.460  1.00  0.00     0.010 A 
ATOM     37  C   UNL A   1      40.283  27.518  29.510  1.00  0.00    -0.014 A 
BRANCH  37  38
ATOM     38  C   UNL A   1      40.318  28.606  30.536  1.00  0.00     0.031 A 
ATOM     39  C   UNL A   1      41.312  28.563  31.672  1.00  0.00     0.074 A 
ATOM     40  C   UNL A   1      39.457  29.643  30.448  1.00  0.00     0.049 A 
ATOM     41  N   UNL A   1      41.360  29.295  32.758  1.00  0.00    -0.248 NA
ATOM     42  C   UNL A   1      42.383  27.556  31.589  1.00  0.00     0.031 C 
ATOM     43  C   UNL A   1      38.469  29.842  29.382  1.00  0.00     0.029 A 
ATOM     44  N   UNL A   1      39.273  30.734  31.263  1.00  0.00    -0.354 N 
ATOM     45  C   UNL A   1      42.417  28.795  33.513  1.00  0.00     0.074 A 
ATOM     46  C   UNL A   1      42.981  27.693  32.765  1.00  0.00     0.031 C 
ATOM     47  C   UNL A   1      37.830  31.002  29.575  1.00  0.00     0.029 A 
ATOM     48  C   UNL A   1      38.261  31.567  30.844  1.00  0.00     0.049 A 
ATOM     49  H   UNL A   1      39.814  30.904  32.068  1.00  0.00     0.167 HD
ATOM     50  C   UNL A   1      42.870  29.219  34.718  1.00  0.00     0.037 A 
ATOM     51  C   UNL A   1      37.686  32.632  31.436  1.00  0.00     0.037 A 
ATOM     52  C   UNL A   1      42.332  30.356  35.426  1.00  0.00     0.049 A 
ATOM     53  C   UNL A   1      38.171  33.052  32.792  1.00  0.00     0.074 A 
ATOM     54  C   UNL A   1      42.733  30.882  36.640  1.00  0.00     0.029 A 
ATOM     55  N   UNL A   1      41.284  31.148  34.976  1.00  0.00    -0.354 N 
ATOM     56  N   UNL A   1      39.137  32.537  33.515  1.00  0.00    -0.248 NA
ATOM     57  C   UNL A   1      37.479  34.182  33.421  1.00  0.00     0.031 C 
ATOM     58  C   UNL A   1      41.895  31.959  36.950  1.00  0.00     0.029 A 
ATOM     59  C   UNL A   1      41.010  32.143  35.900  1.00  0.00     0.049 A 
ATOM     60  H   UNL A   1      40.805  31.020  34.125  1.00  0.00     0.167 HD
ATOM     61  C   UNL A   1      39.179  33.292  34.681  1.00  0.00     0.074 A 
ATOM     62  C   UNL A   1      38.155  34.311  34.554  1.00  0.00     0.031 C 
ATOM     63  C   UNL A   1      39.989  33.153  35.758  1.00  0.00     0.037 A 
BRANCH  50  64
ATOM     64  C   UNL A   1      43.977  28.433  35.376  1.00  0.00     0.058 A 
ATOM     65  C   UNL A   1      43.725  27.345  36.226  1.00  0.00     0.135 A 
ATOM     66  C   UNL A   1      45.321  28.756  35.117  1.00  0.00     0.135 A 
ATOM     67  F   UNL A   1      42.463  26.996  36.521  1.00  0.00    -0.206 F 
ATOM     68  C   UNL A   1      44.761  26.628  36.821  1.00  0.00     0.059 A 
ATOM     69  C   UNL A   1      46.373  28.034  35.675  1.00  0.00     0.059 A 
ATOM     70  F   UNL A   1      45.625  29.783  34.308  1.00  0.00    -0.206 F 
ATOM     71  C   UNL A   1      46.082  26.981  36.540  1.00  0.00     0.060 A 
BRANCH  71  72
ATOM     72  S   UNL A   1      47.414  26.043  37.320  1.00  0.00     0.124 S 
ATOM     73  O   UNL A   1      47.777  26.920  38.428  1.00  0.00    -0.237 OA
ATOM     74  O   UNL A   1      46.745  24.800  37.689  1.00  0.00    -0.237 OA
ATOM     75  O   UNL A   1      48.413  25.923  36.262  1.00  0.00    -0.744 OA
ENDBRANCH  71  72
ENDBRANCH  50  64
BRANCH  51  76
ATOM     76  C   UNL A   1      36.552  33.328  30.769  1.00  0.00     0.058 A 
ATOM     77  C   UNL A   1      35.235  33.160  31.217  1.00  0.00     0.135 A 
ATOM     78  C   UNL A   1      36.768  34.203  29.689  1.00  0.00     0.135 A 
ATOM     79  F   UNL A   1      34.976  32.329  32.237  1.00  0.00    -0.206 F 
ATOM     80  C   UNL A   1      34.171  33.826  30.617  1.00  0.00     0.059 A 
ATOM     81  C   UNL A   1      35.725  34.906  29.096  1.00  0.00     0.059 A 
ATOM     82  F   UNL A   1      38.011  34.411  29.229  1.00  0.00    -0.206 F 
ATOM     83  C   UNL A   1      34.427  34.702  29.561  1.00  0.00     0.060 A 
BRANCH  83  84
ATOM     84  S   UNL A   1      33.045  35.602  28.826  1.00  0.00     0.124 S 
ATOM     85  O   UNL A   1      33.737  36.665  28.107  1.00  0.00    -0.237 OA
ATOM     86  O   UNL A   1      32.417  34.576  28.000  1.00  0.00    -0.237 OA
ATOM     87  O   UNL A   1      32.266  36.027  29.985  1.00  0.00    -0.744 OA
ENDBRANCH  83  84
ENDBRANCH  51  76
BRANCH  63  88
ATOM     88  C   UNL A   1      39.827  34.150  36.871  1.00  0.00     0.058 A 
ATOM     89  C   UNL A   1      40.397  35.430  36.806  1.00  0.00     0.135 A 
ATOM     90  C   UNL A   1      39.059  33.829  38.003  1.00  0.00     0.135 A 
ATOM     91  F   UNL A   1      41.150  35.783  35.752  1.00  0.00    -0.206 F 
ATOM     92  C   UNL A   1      40.233  36.351  37.836  1.00  0.00     0.059 A 
ATOM     93  C   UNL A   1      38.856  34.744  39.030  1.00  0.00     0.059 A 
ATOM     94  F   UNL A   1      38.487  32.620  38.111  1.00  0.00    -0.206 F 
ATOM     95  C   UNL A   1      39.458  35.999  38.942  1.00  0.00     0.060 A 
BRANCH  95  96
ATOM     96  S   UNL A   1      39.225  37.214  40.257  1.00  0.00     0.124 S 
ATOM     97  O   UNL A   1      38.527  36.426  41.266  1.00  0.00    -0.237 OA
ATOM     98  O   UNL A   1      40.599  37.589  40.581  1.00  0.00    -0.237 OA
ATOM     99  O   UNL A   1      38.432  38.259  39.617  1.00  0.00    -0.744 OA
ENDBRANCH  95  96
ENDBRANCH  63  88
ENDBRANCH  37  38
ENDBRANCH  30  32
ENDBRANCH  29  30
ENDBRANCH  28  29
ENDBRANCH   1  28
TORSDOF 19
ENDMDL
MODEL 2
REMARK VINA RESULT:     -11.6      6.555     11.919
REMARK SMILES CC(C)(C)[C@](O)(c1ccc(C(=O)OCCOC(=O)c2ccc(-c3c4nc(c(-c5c(F)cc(S(=O)(=O)[O-])cc5F)c5ccc([nH]5)c(-c5c(F)cc(S(=O)(=O)[O-])cc5F)c5nc(c(-c6c(F)cc(S(=O)(=O)[O-])cc6F)c6ccc3[nH]6)C=C5)C=C4)cc2)cc1)c1ccc(C(F)(F)F)cc1
REMARK SMILES IDX 14 1 13 2 11 3 12 4 10 5 7 6 8 7 86 8 9 9 85 10 5 11 2 12
REMARK SMILES IDX 1 13 3 14 4 15 87 16 88 17 96 18 89 19 95 20 90 21 91 22
REMARK SMILES IDX 92 23 93 24 94 25 6 26 15 28 16 29 17 30 18 31 19 32 20 33
REMARK SMILES IDX 84 34 21 35 83 36 22 37 23 38 24 39 77 40 25 41 82 42 76 43
REMARK SMILES IDX 78 44 26 45 81 46 75 47 74 48 27 50 61 51 40 52 60 53 41 54
REMARK SMILES IDX 44 55 59 56 79 57 42 58 43 59 58 61 80 62 45 63 28 64 29 65
REMARK SMILES IDX 38 66 30 67 31 68 37 69 39 70 32 71 33 72 34 73 35 74 36 75
REMARK SMILES IDX 62 76 63 77 72 78 64 79 65 80 71 81 73 82 66 83 67 84 68 85
REMARK SMILES IDX 69 86 70 87 46 88 47 89 56 90 48 91 49 92 55 93 57 94 50 95
REMARK SMILES IDX 51 96 52 97 53 98 54 99
REMARK H PARENT 6 27 78 49 44 60
REMARK Flexibility Score: inf
ROOT
ATOM      1  C   UNL A   1      33.911  32.689  28.043  1.00  0.00     0.275 C 
ENDROOT
BRANCH   1   2
ATOM      2  O   UNL A   1      33.479  31.441  27.463  1.00  0.00    -0.458 OA
BRANCH   2   3
ATOM      3  C   UNL A   1      32.225  31.452  26.951  1.00  0.00     0.338 C 
ATOM      4  O   UNL A   1      31.495  32.420  26.825  1.00  0.00    -0.246 OA
BRANCH   3   5
ATOM      5  C   UNL A   1      31.827  30.098  26.527  1.00  0.00     0.060 A 
ATOM      6  C   UNL A   1      31.414  27.423  25.695  1.00  0.00    -0.011 A 
ATOM      7  C   UNL A   1      31.596  27.738  27.046  1.00  0.00     0.008 A 
ATOM      8  C   UNL A   1      31.437  28.498  24.775  1.00  0.00     0.008 A 
ATOM      9  C   UNL A   1      31.798  29.055  27.451  1.00  0.00     0.016 A 
ATOM     10  C   UNL A   1      31.628  29.824  25.182  1.00  0.00     0.016 A 
BRANCH   6  11
ATOM     11  C   UNL A   1      31.248  25.953  25.247  1.00  0.00     0.119 C 
BRANCH  11  12
ATOM     12  C   UNL A   1      30.428  25.794  23.868  1.00  0.00    -0.001 C 
ATOM     13  C   UNL A   1      28.962  26.292  24.052  1.00  0.00     0.014 C 
ATOM     14  C   UNL A   1      30.327  24.310  23.437  1.00  0.00     0.014 C 
ATOM     15  C   UNL A   1      30.988  26.585  22.666  1.00  0.00     0.014 C 
ENDBRANCH  11  12
BRANCH  11  16
ATOM     16  C   UNL A   1      32.612  25.224  25.380  1.00  0.00    -0.011 A 
ATOM     17  C   UNL A   1      33.763  25.642  24.698  1.00  0.00     0.008 A 
ATOM     18  C   UNL A   1      32.757  24.130  26.264  1.00  0.00     0.008 A 
ATOM     19  C   UNL A   1      34.983  24.970  24.849  1.00  0.00     0.013 A 
ATOM     20  C   UNL A   1      33.966  23.441  26.399  1.00  0.00     0.013 A 
ATOM     21  C   UNL A   1      35.092  23.850  25.683  1.00  0.00     0.056 A 
BRANCH  21  22
ATOM     22  C   UNL A   1      36.400  23.109  25.792  1.00  0.00     0.416 C 
ATOM     23  F   UNL A   1      37.256  23.709  26.667  1.00  0.00    -0.166 F 
ATOM     24  F   UNL A   1      36.245  21.835  26.245  1.00  0.00    -0.166 F 
ATOM     25  F   UNL A   1      37.082  23.012  24.617  1.00  0.00    -0.166 F 
ENDBRANCH  21  22
ENDBRANCH  11  16
BRANCH  11  26
ATOM     26  O   UNL A   1      30.400  25.301  26.230  1.00  0.00    -0.380 OA
ATOM     27  H   UNL A   1      29.479  25.569  26.090  1.00  0.00     0.212 HD
ENDBRANCH  11  26
ENDBRANCH   6  11
ENDBRANCH   3   5
ENDBRANCH   2   3
ENDBRANCH   1   2
BRANCH   1  28
ATOM     28  C   UNL A   1      34.887  32.465  29.198  1.00  0.00     0.275 C 
BRANCH  28  29
ATOM     29  O   UNL A   1      35.508  31.168  29.115  1.00  0.00    -0.458 OA
BRANCH  29  30
ATOM     30  C   UNL A   1      36.294  30.851  30.166  1.00  0.00     0.338 C 
ATOM     31  O   UNL A   1      36.073  31.070  31.347  1.00  0.00    -0.246 OA
BRANCH  30  32
ATOM     32  C   UNL A   1      37.483  30.105  29.730  1.00  0.00     0.060 A 
ATOM     33  C   UNL A   1      38.311  29.566  30.706  1.00  0.00     0.016 A 
ATOM     34  C   UNL A   1      37.917  30.169  28.409  1.00  0.00     0.016 A 
ATOM     35  C   UNL A   1      39.638  29.287  30.411  1.00  0.00     0.010 A 
ATOM     36  C   UNL A   1      39.198  29.700  28.083  1.00  0.00     0.010 A 
ATOM     37  C   UNL A   1      40.098  29.304  29.089  1.00  0.00    -0.014 A 
BRANCH  37  38
ATOM     38  C   UNL A   1      41.506  28.908  28.780  1.00  0.00     0.031 A 
ATOM     39  C   UNL A   1      42.625  29.921  28.841  1.00  0.00     0.074 A 
ATOM     40  C   UNL A   1      41.790  27.629  28.446  1.00  0.00     0.049 A 
ATOM     41  N   UNL A   1      43.859  29.819  28.414  1.00  0.00    -0.248 NA
ATOM     42  C   UNL A   1      42.313  31.228  29.444  1.00  0.00     0.031 C 
ATOM     43  C   UNL A   1      40.820  26.531  28.387  1.00  0.00     0.029 A 
ATOM     44  N   UNL A   1      42.976  27.030  28.097  1.00  0.00    -0.354 N 
ATOM     45  C   UNL A   1      44.447  31.061  28.634  1.00  0.00     0.074 A 
ATOM     46  C   UNL A   1      43.433  31.904  29.227  1.00  0.00     0.031 C 
ATOM     47  C   UNL A   1      41.453  25.390  28.084  1.00  0.00     0.029 A 
ATOM     48  C   UNL A   1      42.846  25.694  27.795  1.00  0.00     0.049 A 
ATOM     49  H   UNL A   1      43.835  27.509  28.068  1.00  0.00     0.167 HD
ATOM     50  C   UNL A   1      45.716  31.456  28.363  1.00  0.00     0.037 A 
ATOM     51  C   UNL A   1      43.723  24.812  27.277  1.00  0.00     0.037 A 
ATOM     52  C   UNL A   1      46.731  30.585  27.822  1.00  0.00     0.049 A 
ATOM     53  C   UNL A   1      45.106  25.285  26.940  1.00  0.00     0.074 A 
ATOM     54  C   UNL A   1      48.052  30.879  27.533  1.00  0.00     0.029 A 
ATOM     55  N   UNL A   1      46.542  29.248  27.501  1.00  0.00    -0.354 N 
ATOM     56  N   UNL A   1      45.631  26.475  27.106  1.00  0.00    -0.248 NA
ATOM     57  C   UNL A   1      46.009  24.304  26.327  1.00  0.00     0.031 C 
ATOM     58  C   UNL A   1      48.646  29.736  26.988  1.00  0.00     0.029 A 
ATOM     59  C   UNL A   1      47.715  28.711  26.994  1.00  0.00     0.049 A 
ATOM     60  H   UNL A   1      45.699  28.754  27.615  1.00  0.00     0.167 HD
ATOM     61  C   UNL A   1      46.934  26.383  26.632  1.00  0.00     0.074 A 
ATOM     62  C   UNL A   1      47.121  25.014  26.193  1.00  0.00     0.031 C 
ATOM     63  C   UNL A   1      47.886  27.344  26.565  1.00  0.00     0.037 A 
BRANCH  50  64
ATOM     64  C   UNL A   1      46.074  32.901  28.606  1.00  0.00     0.058 A 
ATOM     65  C   UNL A   1      45.905  33.893  27.629  1.00  0.00     0.135 A 
ATOM     66  C   UNL A   1      46.566  33.303  29.861  1.00  0.00     0.135 A 
ATOM     67  F   UNL A   1      45.452  33.569  26.408  1.00  0.00    -0.206 F 
ATOM     68  C   UNL A   1      46.239  35.224  27.874  1.00  0.00     0.059 A 
ATOM     69  C   UNL A   1      46.876  34.632  30.139  1.00  0.00     0.059 A 
ATOM     70  F   UNL A   1      46.746  32.400  30.838  1.00  0.00    -0.206 F 
ATOM     71  C   UNL A   1      46.725  35.583  29.132  1.00  0.00     0.060 A 
BRANCH  71  72
ATOM     72  S   UNL A   1      47.154  37.312  29.433  1.00  0.00     0.124 S 
ATOM     73  O   UNL A   1      45.870  37.862  29.853  1.00  0.00    -0.237 OA
ATOM     74  O   UNL A   1      48.170  37.203  30.476  1.00  0.00    -0.237 OA
ATOM     75  O   UNL A   1      47.640  37.774  28.136  1.00  0.00    -0.744 OA
ENDBRANCH  71  72
ENDBRANCH  50  64
BRANCH  51  76
ATOM     76  C   UNL A   1      43.292  23.415  26.996  1.00  0.00     0.058 A 
ATOM     77  C   UNL A   1      43.030  22.988  25.687  1.00  0.00     0.135 A 
ATOM     78  C   UNL A   1      43.166  22.470  28.029  1.00  0.00     0.135 A 
ATOM     79  F   UNL A   1      43.127  23.854  24.668  1.00  0.00    -0.206 F 
ATOM     80  C   UNL A   1      42.652  21.677  25.411  1.00  0.00     0.059 A 
ATOM     81  C   UNL A   1      42.822  21.147  27.775  1.00  0.00     0.059 A 
ATOM     82  F   UNL A   1      43.418  22.822  29.300  1.00  0.00    -0.206 F 
ATOM     83  C   UNL A   1      42.557  20.763  26.461  1.00  0.00     0.060 A 
BRANCH  83  84
ATOM     84  S   UNL A   1      42.117  19.052  26.084  1.00  0.00     0.124 S 
ATOM     85  O   UNL A   1      42.922  18.799  24.895  1.00  0.00    -0.237 OA
ATOM     86  O   UNL A   1      42.532  18.355  27.296  1.00  0.00    -0.237 OA
ATOM     87  O   UNL A   1      40.674  19.116  25.868  1.00  0.00    -0.744 OA
ENDBRANCH  83  84
ENDBRANCH  51  76
BRANCH  63  88
ATOM     88  C   UNL A   1      49.232  26.939  26.030  1.00  0.00     0.058 A 
ATOM     89  C   UNL A   1      49.573  27.110  24.680  1.00  0.00     0.135 A 
ATOM     90  C   UNL A   1      50.204  26.403  26.891  1.00  0.00     0.135 A 
ATOM     91  F   UNL A   1      48.676  27.605  23.813  1.00  0.00    -0.206 F 
ATOM     92  C   UNL A   1      50.824  26.741  24.196  1.00  0.00     0.059 A 
ATOM     93  C   UNL A   1      51.471  26.057  26.435  1.00  0.00     0.059 A 
ATOM     94  F   UNL A   1      49.930  26.225  28.193  1.00  0.00    -0.206 F 
ATOM     95  C   UNL A   1      51.767  26.218  25.082  1.00  0.00     0.060 A 
BRANCH  95  96
ATOM     96  S   UNL A   1      53.398  25.776  24.448  1.00  0.00     0.124 S 
ATOM     97  O   UNL A   1      53.267  26.118  23.036  1.00  0.00    -0.237 OA
ATOM     98  O   UNL A   1      54.281  26.635  25.231  1.00  0.00    -0.237 OA
ATOM     99  O   UNL A   1      53.501  24.349  24.740  1.00  0.00    -0.744 OA
ENDBRANCH  95  96
ENDBRANCH  63  88
ENDBRANCH  37  38
ENDBRANCH  30  32
ENDBRANCH  29  30
ENDBRANCH  28  29
ENDBRANCH   1  28
TORSDOF 19
ENDMDL
MODEL 3
REMARK VINA RESULT:     -11.5      6.657     11.924
REMARK SMILES CC(C)(C)[C@](O)(c1ccc(C(=O)OCCOC(=O)c2ccc(-c3c4nc(c(-c5c(F)cc(S(=O)(=O)[O-])cc5F)c5ccc([nH]5)c(-c5c(F)cc(S(=O)(=O)[O-])cc5F)c5nc(c(-c6c(F)cc(S(=O)(=O)[O-])cc6F)c6ccc3[nH]6)C=C5)C=C4)cc2)cc1)c1ccc(C(F)(F)F)cc1
REMARK SMILES IDX 14 1 13 2 11 3 12 4 10 5 7 6 8 7 86 8 9 9 85 10 5 11 2 12
REMARK SMILES IDX 1 13 3 14 4 15 87 16 88 17 96 18 89 19 95 20 90 21 91 22
REMARK SMILES IDX 92 23 93 24 94 25 6 26 15 28 16 29 17 30 18 31 19 32 20 33
REMARK SMILES IDX 84 34 21 35 83 36 22 37 23 38 24 39 77 40 25 41 82 42 76 43
REMARK SMILES IDX 78 44 26 45 81 46 75 47 74 48 27 50 61 51 40 52 60 53 41 54
REMARK SMILES IDX 44 55 59 56 79 57 42 58 43 59 58 61 80 62 45 63 28 64 29 65
REMARK SMILES IDX 38 66 30 67 31 68 37 69 39 70 32 71 33 72 34 73 35 74 36 75
REMARK SMILES IDX 62 76 63 77 72 78 64 79 65 80 71 81 73 82 66 83 67 84 68 85
REMARK SMILES IDX 69 86 70 87 46 88 47 89 56 90 48 91 49 92 55 93 57 94 50 95
REMARK SMILES IDX 51 96 52 97 53 98 54 99
REMARK H PARENT 6 27 78 49 44 60
REMARK Flexibility Score: inf
ROOT
ATOM      1  C   UNL A   1      35.055  32.247  28.005  1.00  0.00     0.275 C 
ENDROOT
BRANCH   1   2
ATOM      2  O   UNL A   1      34.690  30.951  27.486  1.00  0.00    -0.458 OA
BRANCH   2   3
ATOM      3  C   UNL A   1      33.367  30.781  27.253  1.00  0.00     0.338 C 
ATOM      4  O   UNL A   1      32.509  31.647  27.240  1.00  0.00    -0.246 OA
BRANCH   3   5
ATOM      5  C   UNL A   1      33.067  29.363  26.988  1.00  0.00     0.060 A 
ATOM      6  C   UNL A   1      32.372  26.746  26.160  1.00  0.00    -0.011 A 
ATOM      7  C   UNL A   1      33.614  27.300  25.832  1.00  0.00     0.008 A 
ATOM      8  C   UNL A   1      31.493  27.547  26.926  1.00  0.00     0.008 A 
ATOM      9  C   UNL A   1      33.953  28.588  26.242  1.00  0.00     0.016 A 
ATOM     10  C   UNL A   1      31.836  28.837  27.350  1.00  0.00     0.016 A 
BRANCH   6  11
ATOM     11  C   UNL A   1      31.981  25.340  25.651  1.00  0.00     0.119 C 
BRANCH  11  12
ATOM     12  C   UNL A   1      30.958  25.372  24.406  1.00  0.00    -0.001 C 
ATOM     13  C   UNL A   1      31.466  26.363  23.315  1.00  0.00     0.014 C 
ATOM     14  C   UNL A   1      29.560  25.885  24.834  1.00  0.00     0.014 C 
ATOM     15  C   UNL A   1      30.751  24.026  23.680  1.00  0.00     0.014 C 
ENDBRANCH  11  12
BRANCH  11  16
ATOM     16  C   UNL A   1      33.260  24.468  25.529  1.00  0.00    -0.011 A 
ATOM     17  C   UNL A   1      34.084  24.488  24.395  1.00  0.00     0.008 A 
ATOM     18  C   UNL A   1      33.682  23.659  26.609  1.00  0.00     0.008 A 
ATOM     19  C   UNL A   1      35.238  23.699  24.320  1.00  0.00     0.013 A 
ATOM     20  C   UNL A   1      34.820  22.851  26.531  1.00  0.00     0.013 A 
ATOM     21  C   UNL A   1      35.607  22.857  25.377  1.00  0.00     0.056 A 
BRANCH  21  22
ATOM     22  C   UNL A   1      36.825  21.977  25.257  1.00  0.00     0.416 C 
ATOM     23  F   UNL A   1      37.452  22.132  24.056  1.00  0.00    -0.166 F 
ATOM     24  F   UNL A   1      37.767  22.252  26.200  1.00  0.00    -0.166 F 
ATOM     25  F   UNL A   1      36.560  20.645  25.365  1.00  0.00    -0.166 F 
ENDBRANCH  21  22
ENDBRANCH  11  16
BRANCH  11  26
ATOM     26  O   UNL A   1      31.217  24.702  26.709  1.00  0.00    -0.380 OA
ATOM     27  H   UNL A   1      31.316  25.208  27.530  1.00  0.00     0.212 HD
ENDBRANCH  11  26
ENDBRANCH   6  11
ENDBRANCH   3   5
ENDBRANCH   2   3
ENDBRANCH   1   2
BRANCH   1  28
ATOM     28  C   UNL A   1      35.058  32.262  29.534  1.00  0.00     0.275 C 
BRANCH  28  29
ATOM     29  O   UNL A   1      36.384  32.052  30.056  1.00  0.00    -0.458 OA
BRANCH  29  30
ATOM     30  C   UNL A   1      36.556  30.879  30.703  1.00  0.00     0.338 C 
ATOM     31  O   UNL A   1      35.837  30.398  31.566  1.00  0.00    -0.246 OA
BRANCH  30  32
ATOM     32  C   UNL A   1      37.726  30.156  30.184  1.00  0.00     0.060 A 
ATOM     33  C   UNL A   1      38.561  29.526  31.097  1.00  0.00     0.016 A 
ATOM     34  C   UNL A   1      38.139  30.325  28.866  1.00  0.00     0.016 A 
ATOM     35  C   UNL A   1      39.879  29.254  30.756  1.00  0.00     0.010 A 
ATOM     36  C   UNL A   1      39.406  29.867  28.479  1.00  0.00     0.010 A 
ATOM     37  C   UNL A   1      40.318  29.376  29.432  1.00  0.00    -0.014 A 
BRANCH  37  38
ATOM     38  C   UNL A   1      41.714  28.988  29.066  1.00  0.00     0.031 A 
ATOM     39  C   UNL A   1      42.837  29.997  29.123  1.00  0.00     0.074 A 
ATOM     40  C   UNL A   1      41.983  27.720  28.682  1.00  0.00     0.049 A 
ATOM     41  N   UNL A   1      44.056  29.907  28.654  1.00  0.00    -0.248 NA
ATOM     42  C   UNL A   1      42.547  31.284  29.778  1.00  0.00     0.031 C 
ATOM     43  C   UNL A   1      41.010  26.625  28.619  1.00  0.00     0.029 A 
ATOM     44  N   UNL A   1      43.156  27.131  28.276  1.00  0.00    -0.354 N 
ATOM     45  C   UNL A   1      44.654  31.140  28.894  1.00  0.00     0.074 A 
ATOM     46  C   UNL A   1      43.661  31.966  29.547  1.00  0.00     0.031 C 
ATOM     47  C   UNL A   1      41.630  25.495  28.260  1.00  0.00     0.029 A 
ATOM     48  C   UNL A   1      43.014  25.805  27.936  1.00  0.00     0.049 A 
ATOM     49  H   UNL A   1      44.015  27.609  28.235  1.00  0.00     0.167 HD
ATOM     50  C   UNL A   1      45.914  31.542  28.596  1.00  0.00     0.037 A 
ATOM     51  C   UNL A   1      43.872  24.939  27.362  1.00  0.00     0.037 A 
ATOM     52  C   UNL A   1      46.910  30.687  27.996  1.00  0.00     0.049 A 
ATOM     53  C   UNL A   1      45.244  25.421  26.996  1.00  0.00     0.074 A 
ATOM     54  C   UNL A   1      48.221  30.989  27.674  1.00  0.00     0.029 A 
ATOM     55  N   UNL A   1      46.708  29.362  27.638  1.00  0.00    -0.354 N 
ATOM     56  N   UNL A   1      45.778  26.605  27.183  1.00  0.00    -0.248 NA
ATOM     57  C   UNL A   1      46.125  24.458  26.324  1.00  0.00     0.031 C 
ATOM     58  C   UNL A   1      48.795  29.863  27.074  1.00  0.00     0.029 A 
ATOM     59  C   UNL A   1      47.862  28.840  27.077  1.00  0.00     0.049 A 
ATOM     60  H   UNL A   1      45.867  28.866  27.763  1.00  0.00     0.167 HD
ATOM     61  C   UNL A   1      47.064  26.525  26.666  1.00  0.00     0.074 A 
ATOM     62  C   UNL A   1      47.234  25.171  26.177  1.00  0.00     0.031 C 
ATOM     63  C   UNL A   1      48.016  27.487  26.599  1.00  0.00     0.037 A 
BRANCH  50  64
ATOM     64  C   UNL A   1      46.284  32.977  28.874  1.00  0.00     0.058 A 
ATOM     65  C   UNL A   1      46.874  33.383  30.081  1.00  0.00     0.135 A 
ATOM     66  C   UNL A   1      46.075  33.962  27.891  1.00  0.00     0.135 A 
ATOM     67  F   UNL A   1      47.087  32.492  31.062  1.00  0.00    -0.206 F 
ATOM     68  C   UNL A   1      47.212  34.714  30.317  1.00  0.00     0.059 A 
ATOM     69  C   UNL A   1      46.434  35.292  28.093  1.00  0.00     0.059 A 
ATOM     70  F   UNL A   1      45.518  33.635  26.714  1.00  0.00    -0.206 F 
ATOM     71  C   UNL A   1      46.987  35.661  29.317  1.00  0.00     0.060 A 
BRANCH  71  72
ATOM     72  S   UNL A   1      47.430  37.383  29.639  1.00  0.00     0.124 S 
ATOM     73  O   UNL A   1      48.524  37.584  28.695  1.00  0.00    -0.237 OA
ATOM     74  O   UNL A   1      46.190  38.087  29.331  1.00  0.00    -0.237 OA
ATOM     75  O   UNL A   1      47.811  37.379  31.049  1.00  0.00    -0.744 OA
ENDBRANCH  71  72
ENDBRANCH  50  64
BRANCH  51  76
ATOM     76  C   UNL A   1      43.428  23.553  27.051  1.00  0.00     0.058 A 
ATOM     77  C   UNL A   1      43.150  23.160  25.734  1.00  0.00     0.135 A 
ATOM     78  C   UNL A   1      43.306  22.582  28.061  1.00  0.00     0.135 A 
ATOM     79  F   UNL A   1      43.243  24.051  24.736  1.00  0.00    -0.206 F 
ATOM     80  C   UNL A   1      42.761  21.859  25.429  1.00  0.00     0.059 A 
ATOM     81  C   UNL A   1      42.951  21.268  27.776  1.00  0.00     0.059 A 
ATOM     82  F   UNL A   1      43.573  22.901  29.337  1.00  0.00    -0.206 F 
ATOM     83  C   UNL A   1      42.670  20.919  26.456  1.00  0.00     0.060 A 
BRANCH  83  84
ATOM     84  S   UNL A   1      42.215  19.222  26.041  1.00  0.00     0.124 S 
ATOM     85  O   UNL A   1      42.584  18.513  27.260  1.00  0.00    -0.237 OA
ATOM     86  O   UNL A   1      40.785  19.343  25.780  1.00  0.00    -0.237 OA
ATOM     87  O   UNL A   1      43.037  18.931  24.869  1.00  0.00    -0.744 OA
ENDBRANCH  83  84
ENDBRANCH  51  76
BRANCH  63  88
ATOM     88  C   UNL A   1      49.343  27.097  26.008  1.00  0.00     0.058 A 
ATOM     89  C   UNL A   1      50.381  26.581  26.798  1.00  0.00     0.135 A 
ATOM     90  C   UNL A   1      49.563  27.210  24.625  1.00  0.00     0.135 A 
ATOM     91  F   UNL A   1      50.227  26.464  28.126  1.00  0.00    -0.206 F 
ATOM     92  C   UNL A   1      51.602  26.214  26.241  1.00  0.00     0.059 A 
ATOM     93  C   UNL A   1      50.764  26.820  24.043  1.00  0.00     0.059 A 
ATOM     94  F   UNL A   1      48.600  27.693  23.824  1.00  0.00    -0.206 F 
ATOM     95  C   UNL A   1      51.782  26.334  24.863  1.00  0.00     0.060 A 
BRANCH  95  96
ATOM     96  S   UNL A   1      53.359  25.822  24.149  1.00  0.00     0.124 S 
ATOM     97  O   UNL A   1      53.506  24.477  24.695  1.00  0.00    -0.237 OA
ATOM     98  O   UNL A   1      53.092  25.899  22.716  1.00  0.00    -0.237 OA
ATOM     99  O   UNL A   1      54.301  26.812  24.660  1.00  0.00    -0.744 OA
ENDBRANCH  95  96
ENDBRANCH  63  88
ENDBRANCH  37  38
ENDBRANCH  30  32
ENDBRANCH  29  30
ENDBRANCH  28  29
ENDBRANCH   1  28
TORSDOF 19
ENDMDL
