MODEL 1
REMARK VINA RESULT:      -9.2      0.000      0.000
REMARK SMILES COC[C@H](C)[C@H](CC(C)C)C(=O)OCCOC(=O)c1ccc(-c2c3nc(c(-c4c(F)cc(S(=O)(=O)[O-])cc4F)c4ccc([nH]4)c(-c4c(F)cc(S(=O)(=O)[O-])cc4F)c4nc(c(-c5c(F)cc(S(=O)(=O)[O-])cc5F)c5ccc2[nH]5)C=C4)C=C3)cc1
REMARK SMILES IDX 14 1 13 2 11 3 12 4 6 5 4 6 5 7 3 8 2 9 1 10 7 11 8 12 9 13
REMARK SMILES IDX 10 14 15 15 16 16 17 17 18 18 19 19 20 20 84 21 21 22 83 23
REMARK SMILES IDX 22 24 23 25 24 26 77 27 25 28 82 29 76 30 78 31 26 32 81 33
REMARK SMILES IDX 75 34 74 35 27 37 61 38 40 39 60 40 41 41 44 42 59 43 79 44
REMARK SMILES IDX 42 45 43 46 58 48 80 49 45 50 28 51 29 52 38 53 30 54 31 55
REMARK SMILES IDX 37 56 39 57 32 58 33 59 34 60 35 61 36 62 62 63 63 64 72 65
REMARK SMILES IDX 64 66 65 67 71 68 73 69 66 70 67 71 68 72 69 73 70 74 46 75
REMARK SMILES IDX 47 76 56 77 48 78 49 79 55 80 57 81 50 82 51 83 52 84 53 85
REMARK SMILES IDX 54 86
REMARK H PARENT 78 36 44 47
REMARK Flexibility Score: inf
ROOT
ATOM      1  C   UNL A   1      32.248  29.735  25.624  1.00  0.00     0.274 C 
ENDROOT
BRANCH   1   2
ATOM      2  O   UNL A   1      31.796  28.405  25.282  1.00  0.00    -0.462 OA
BRANCH   2   3
ATOM      3  C   UNL A   1      32.611  27.720  24.442  1.00  0.00     0.309 C 
ATOM      4  O   UNL A   1      33.215  28.243  23.514  1.00  0.00    -0.252 OA
BRANCH   3   5
ATOM      5  C   UNL A   1      32.690  26.225  24.729  1.00  0.00     0.104 C 
BRANCH   5   6
ATOM      6  C   UNL A   1      33.983  25.565  24.152  1.00  0.00     0.026 C 
ATOM      7  C   UNL A   1      34.791  24.775  25.190  1.00  0.00     0.011 C 
BRANCH   6   8
ATOM      8  C   UNL A   1      33.802  24.787  22.829  1.00  0.00     0.163 C 
BRANCH   8   9
ATOM      9  O   UNL A   1      33.872  25.549  21.640  1.00  0.00    -0.384 OA
ATOM     10  C   UNL A   1      32.672  25.664  20.901  1.00  0.00     0.194 C 
ENDBRANCH   8   9
ENDBRANCH   6   8
ENDBRANCH   5   6
BRANCH   5  11
ATOM     11  C   UNL A   1      31.444  25.378  24.353  1.00  0.00     0.018 C 
BRANCH  11  12
ATOM     12  C   UNL A   1      30.856  24.441  25.434  1.00  0.00    -0.017 C 
ATOM     13  C   UNL A   1      31.069  22.967  25.080  1.00  0.00     0.007 C 
ATOM     14  C   UNL A   1      31.546  24.689  26.784  1.00  0.00     0.007 C 
ENDBRANCH  11  12
ENDBRANCH   5  11
ENDBRANCH   3   5
ENDBRANCH   2   3
ENDBRANCH   1   2
BRANCH   1  15
ATOM     15  C   UNL A   1      32.516  29.930  27.124  1.00  0.00     0.275 C 
BRANCH  15  16
ATOM     16  O   UNL A   1      33.878  29.616  27.460  1.00  0.00    -0.458 OA
BRANCH  16  17
ATOM     17  C   UNL A   1      34.570  30.555  28.147  1.00  0.00     0.338 C 
ATOM     18  O   UNL A   1      34.160  31.627  28.553  1.00  0.00    -0.246 OA
BRANCH  17  19
ATOM     19  C   UNL A   1      35.948  30.085  28.363  1.00  0.00     0.060 A 
ATOM     20  C   UNL A   1      36.369  29.735  29.650  1.00  0.00     0.016 A 
ATOM     21  C   UNL A   1      36.850  30.072  27.300  1.00  0.00     0.016 A 
ATOM     22  C   UNL A   1      37.689  29.349  29.879  1.00  0.00     0.010 A 
ATOM     23  C   UNL A   1      38.173  29.687  27.528  1.00  0.00     0.010 A 
ATOM     24  C   UNL A   1      38.600  29.328  28.819  1.00  0.00    -0.014 A 
BRANCH  24  25
ATOM     25  C   UNL A   1      40.022  28.992  29.057  1.00  0.00     0.031 A 
ATOM     26  C   UNL A   1      40.959  30.059  29.541  1.00  0.00     0.074 A 
ATOM     27  C   UNL A   1      40.470  27.747  28.813  1.00  0.00     0.049 A 
ATOM     28  N   UNL A   1      42.262  30.039  29.634  1.00  0.00    -0.248 NA
ATOM     29  C   UNL A   1      40.341  31.324  29.973  1.00  0.00     0.031 C 
ATOM     30  C   UNL A   1      39.639  26.617  28.396  1.00  0.00     0.029 A 
ATOM     31  N   UNL A   1      41.741  27.231  28.859  1.00  0.00    -0.354 N 
ATOM     32  C   UNL A   1      42.626  31.293  30.108  1.00  0.00     0.074 A 
ATOM     33  C   UNL A   1      41.406  32.051  30.281  1.00  0.00     0.031 C 
ATOM     34  C   UNL A   1      40.425  25.546  28.199  1.00  0.00     0.029 A 
ATOM     35  C   UNL A   1      41.817  25.928  28.428  1.00  0.00     0.049 A 
ATOM     36  H   UNL A   1      42.522  27.744  29.171  1.00  0.00     0.167 HD
ATOM     37  C   UNL A   1      43.869  31.765  30.367  1.00  0.00     0.037 A 
ATOM     38  C   UNL A   1      42.891  25.147  28.200  1.00  0.00     0.037 A 
ATOM     39  C   UNL A   1      45.073  30.997  30.189  1.00  0.00     0.049 A 
ATOM     40  C   UNL A   1      44.265  25.708  28.446  1.00  0.00     0.074 A 
ATOM     41  C   UNL A   1      46.384  31.380  30.405  1.00  0.00     0.029 A 
ATOM     42  N   UNL A   1      45.110  29.678  29.753  1.00  0.00    -0.354 N 
ATOM     43  N   UNL A   1      44.604  26.907  28.858  1.00  0.00    -0.248 NA
ATOM     44  C   UNL A   1      45.403  24.816  28.189  1.00  0.00     0.031 C 
ATOM     45  C   UNL A   1      47.216  30.305  30.073  1.00  0.00     0.029 A 
ATOM     46  C   UNL A   1      46.420  29.238  29.684  1.00  0.00     0.049 A 
ATOM     47  H   UNL A   1      44.320  29.137  29.525  1.00  0.00     0.167 HD
ATOM     48  C   UNL A   1      45.992  26.911  28.923  1.00  0.00     0.074 A 
ATOM     49  C   UNL A   1      46.430  25.590  28.518  1.00  0.00     0.031 C 
ATOM     50  C   UNL A   1      46.830  27.915  29.281  1.00  0.00     0.037 A 
BRANCH  37  51
ATOM     51  C   UNL A   1      43.982  33.190  30.828  1.00  0.00     0.058 A 
ATOM     52  C   UNL A   1      44.177  34.247  29.924  1.00  0.00     0.135 A 
ATOM     53  C   UNL A   1      43.891  33.505  32.194  1.00  0.00     0.135 A 
ATOM     54  F   UNL A   1      44.292  33.999  28.610  1.00  0.00    -0.206 F 
ATOM     55  C   UNL A   1      44.306  35.562  30.361  1.00  0.00     0.059 A 
ATOM     56  C   UNL A   1      43.994  34.816  32.650  1.00  0.00     0.059 A 
ATOM     57  F   UNL A   1      43.708  32.533  33.101  1.00  0.00    -0.206 F 
ATOM     58  C   UNL A   1      44.219  35.836  31.726  1.00  0.00     0.060 A 
BRANCH  58  59
ATOM     59  S   UNL A   1      44.399  37.545  32.283  1.00  0.00     0.124 S 
ATOM     60  O   UNL A   1      45.851  37.667  32.379  1.00  0.00    -0.237 OA
ATOM     61  O   UNL A   1      43.771  38.297  31.201  1.00  0.00    -0.237 OA
ATOM     62  O   UNL A   1      43.682  37.566  33.554  1.00  0.00    -0.744 OA
ENDBRANCH  58  59
ENDBRANCH  37  51
BRANCH  38  63
ATOM     63  C   UNL A   1      42.704  23.769  27.679  1.00  0.00     0.058 A 
ATOM     64  C   UNL A   1      42.616  22.672  28.547  1.00  0.00     0.135 A 
ATOM     65  C   UNL A   1      42.576  23.526  26.301  1.00  0.00     0.135 A 
ATOM     66  F   UNL A   1      42.745  22.852  29.870  1.00  0.00    -0.206 F 
ATOM     67  C   UNL A   1      42.409  21.381  28.070  1.00  0.00     0.059 A 
ATOM     68  C   UNL A   1      42.347  22.248  25.803  1.00  0.00     0.059 A 
ATOM     69  F   UNL A   1      42.644  24.544  25.431  1.00  0.00    -0.206 F 
ATOM     70  C   UNL A   1      42.270  21.180  26.695  1.00  0.00     0.060 A 
BRANCH  70  71
ATOM     71  S   UNL A   1      41.930  19.512  26.088  1.00  0.00     0.124 S 
ATOM     72  O   UNL A   1      42.766  19.458  24.894  1.00  0.00    -0.237 OA
ATOM     73  O   UNL A   1      42.364  18.681  27.207  1.00  0.00    -0.237 OA
ATOM     74  O   UNL A   1      40.490  19.529  25.853  1.00  0.00    -0.744 OA
ENDBRANCH  70  71
ENDBRANCH  38  63
BRANCH  50  75
ATOM     75  C   UNL A   1      48.301  27.614  29.278  1.00  0.00     0.058 A 
ATOM     76  C   UNL A   1      49.106  27.901  28.165  1.00  0.00     0.135 A 
ATOM     77  C   UNL A   1      48.918  27.074  30.417  1.00  0.00     0.135 A 
ATOM     78  F   UNL A   1      48.560  28.412  27.050  1.00  0.00    -0.206 F 
ATOM     79  C   UNL A   1      50.473  27.647  28.175  1.00  0.00     0.059 A 
ATOM     80  C   UNL A   1      50.287  26.830  30.456  1.00  0.00     0.059 A 
ATOM     81  F   UNL A   1      48.191  26.790  31.508  1.00  0.00    -0.206 F 
ATOM     82  C   UNL A   1      51.055  27.109  29.325  1.00  0.00     0.060 A 
BRANCH  82  83
ATOM     83  S   UNL A   1      52.835  26.811  29.342  1.00  0.00     0.124 S 
ATOM     84  O   UNL A   1      53.024  26.088  28.089  1.00  0.00    -0.237 OA
ATOM     85  O   UNL A   1      53.382  28.164  29.383  1.00  0.00    -0.237 OA
ATOM     86  O   UNL A   1      53.035  26.025  30.557  1.00  0.00    -0.744 OA
ENDBRANCH  82  83
ENDBRANCH  50  75
ENDBRANCH  24  25
ENDBRANCH  17  19
ENDBRANCH  16  17
ENDBRANCH  15  16
ENDBRANCH   1  15
TORSDOF 19
ENDMDL
MODEL 2
REMARK VINA RESULT:      -8.9      2.372      3.256
REMARK SMILES COC[C@H](C)[C@H](CC(C)C)C(=O)OCCOC(=O)c1ccc(-c2c3nc(c(-c4c(F)cc(S(=O)(=O)[O-])cc4F)c4ccc([nH]4)c(-c4c(F)cc(S(=O)(=O)[O-])cc4F)c4nc(c(-c5c(F)cc(S(=O)(=O)[O-])cc5F)c5ccc2[nH]5)C=C4)C=C3)cc1
REMARK SMILES IDX 14 1 13 2 11 3 12 4 6 5 4 6 5 7 3 8 2 9 1 10 7 11 8 12 9 13
REMARK SMILES IDX 10 14 15 15 16 16 17 17 18 18 19 19 20 20 84 21 21 22 83 23
REMARK SMILES IDX 22 24 23 25 24 26 77 27 25 28 82 29 76 30 78 31 26 32 81 33
REMARK SMILES IDX 75 34 74 35 27 37 61 38 40 39 60 40 41 41 44 42 59 43 79 44
REMARK SMILES IDX 42 45 43 46 58 48 80 49 45 50 28 51 29 52 38 53 30 54 31 55
REMARK SMILES IDX 37 56 39 57 32 58 33 59 34 60 35 61 36 62 62 63 63 64 72 65
REMARK SMILES IDX 64 66 65 67 71 68 73 69 66 70 67 71 68 72 69 73 70 74 46 75
REMARK SMILES IDX 47 76 56 77 48 78 49 79 55 80 57 81 50 82 51 83 52 84 53 85
REMARK SMILES IDX 54 86
REMARK H PARENT 78 36 44 47
REMARK Flexibility Score: inf
ROOT
ATOM      1  C   UNL A   1      33.309  29.977  26.964  1.00  0.00     0.274 C 
ENDROOT
BRANCH   1   2
ATOM      2  O   UNL A   1      33.441  28.549  27.148  1.00  0.00    -0.462 OA
BRANCH   2   3
ATOM      3  C   UNL A   1      32.288  27.846  27.029  1.00  0.00     0.309 C 
ATOM      4  O   UNL A   1      31.295  28.057  27.716  1.00  0.00    -0.252 OA
BRANCH   3   5
ATOM      5  C   UNL A   1      32.337  26.739  25.983  1.00  0.00     0.104 C 
BRANCH   5   6
ATOM      6  C   UNL A   1      31.508  27.079  24.703  1.00  0.00     0.026 C 
ATOM      7  C   UNL A   1      30.149  26.369  24.639  1.00  0.00     0.011 C 
BRANCH   6   8
ATOM      8  C   UNL A   1      31.406  28.580  24.352  1.00  0.00     0.163 C 
BRANCH   8   9
ATOM      9  O   UNL A   1      30.164  29.019  23.840  1.00  0.00    -0.384 OA
ATOM     10  C   UNL A   1      30.121  29.288  22.452  1.00  0.00     0.194 C 
ENDBRANCH   8   9
ENDBRANCH   6   8
ENDBRANCH   5   6
BRANCH   5  11
ATOM     11  C   UNL A   1      32.000  25.304  26.472  1.00  0.00     0.018 C 
BRANCH  11  12
ATOM     12  C   UNL A   1      32.916  24.150  26.003  1.00  0.00    -0.017 C 
ATOM     13  C   UNL A   1      34.330  24.645  25.687  1.00  0.00     0.007 C 
ATOM     14  C   UNL A   1      33.041  23.089  27.107  1.00  0.00     0.007 C 
ENDBRANCH  11  12
ENDBRANCH   5  11
ENDBRANCH   3   5
ENDBRANCH   2   3
ENDBRANCH   1   2
BRANCH   1  15
ATOM     15  C   UNL A   1      34.412  30.795  27.652  1.00  0.00     0.275 C 
BRANCH  15  16
ATOM     16  O   UNL A   1      35.557  29.980  27.958  1.00  0.00    -0.458 OA
BRANCH  16  17
ATOM     17  C   UNL A   1      36.226  30.271  29.097  1.00  0.00     0.338 C 
ATOM     18  O   UNL A   1      35.765  30.707  30.137  1.00  0.00    -0.246 OA
BRANCH  17  19
ATOM     19  C   UNL A   1      37.655  29.965  28.916  1.00  0.00     0.060 A 
ATOM     20  C   UNL A   1      38.151  29.696  27.636  1.00  0.00     0.016 A 
ATOM     21  C   UNL A   1      38.488  29.862  30.029  1.00  0.00     0.016 A 
ATOM     22  C   UNL A   1      39.487  29.343  27.458  1.00  0.00     0.010 A 
ATOM     23  C   UNL A   1      39.827  29.507  29.852  1.00  0.00     0.010 A 
ATOM     24  C   UNL A   1      40.332  29.241  28.567  1.00  0.00    -0.014 A 
BRANCH  24  25
ATOM     25  C   UNL A   1      41.735  28.795  28.405  1.00  0.00     0.031 A 
ATOM     26  C   UNL A   1      42.837  29.813  28.431  1.00  0.00     0.074 A 
ATOM     27  C   UNL A   1      42.009  27.493  28.207  1.00  0.00     0.049 A 
ATOM     28  N   UNL A   1      44.100  29.676  28.126  1.00  0.00    -0.248 NA
ATOM     29  C   UNL A   1      42.460  31.172  28.856  1.00  0.00     0.031 C 
ATOM     30  C   UNL A   1      41.025  26.411  28.219  1.00  0.00     0.029 A 
ATOM     31  N   UNL A   1      43.198  26.864  27.934  1.00  0.00    -0.354 N 
ATOM     32  C   UNL A   1      44.667  30.932  28.293  1.00  0.00     0.074 A 
ATOM     33  C   UNL A   1      43.609  31.821  28.724  1.00  0.00     0.031 C 
ATOM     34  C   UNL A   1      41.645  25.253  27.939  1.00  0.00     0.029 A 
ATOM     35  C   UNL A   1      43.059  25.520  27.681  1.00  0.00     0.049 A 
ATOM     36  H   UNL A   1      44.066  27.329  27.921  1.00  0.00     0.167 HD
ATOM     37  C   UNL A   1      45.953  31.307  28.095  1.00  0.00     0.037 A 
ATOM     38  C   UNL A   1      43.959  24.618  27.246  1.00  0.00     0.037 A 
ATOM     39  C   UNL A   1      46.994  30.410  27.666  1.00  0.00     0.049 A 
ATOM     40  C   UNL A   1      45.372  25.065  26.984  1.00  0.00     0.074 A 
ATOM     41  C   UNL A   1      48.327  30.685  27.420  1.00  0.00     0.029 A 
ATOM     42  N   UNL A   1      46.814  29.054  27.422  1.00  0.00    -0.354 N 
ATOM     43  N   UNL A   1      45.892  26.263  27.107  1.00  0.00    -0.248 NA
ATOM     44  C   UNL A   1      46.317  24.043  26.516  1.00  0.00     0.031 C 
ATOM     45  C   UNL A   1      48.948  29.503  26.999  1.00  0.00     0.029 A 
ATOM     46  C   UNL A   1      48.009  28.482  27.019  1.00  0.00     0.049 A 
ATOM     47  H   UNL A   1      45.963  28.570  27.520  1.00  0.00     0.167 HD
ATOM     48  C   UNL A   1      47.228  26.138  26.746  1.00  0.00     0.074 A 
ATOM     49  C   UNL A   1      47.439  24.745  26.410  1.00  0.00     0.031 C 
ATOM     50  C   UNL A   1      48.194  27.090  26.693  1.00  0.00     0.037 A 
BRANCH  37  51
ATOM     51  C   UNL A   1      46.289  32.756  28.303  1.00  0.00     0.058 A 
ATOM     52  C   UNL A   1      46.740  33.241  29.541  1.00  0.00     0.135 A 
ATOM     53  C   UNL A   1      46.165  33.674  27.247  1.00  0.00     0.135 A 
ATOM     54  F   UNL A   1      46.858  32.411  30.589  1.00  0.00    -0.206 F 
ATOM     55  C   UNL A   1      47.026  34.589  29.733  1.00  0.00     0.059 A 
ATOM     56  C   UNL A   1      46.467  35.023  27.411  1.00  0.00     0.059 A 
ATOM     57  F   UNL A   1      45.736  33.264  26.043  1.00  0.00    -0.206 F 
ATOM     58  C   UNL A   1      46.881  35.473  28.663  1.00  0.00     0.060 A 
BRANCH  58  59
ATOM     59  S   UNL A   1      47.244  37.223  28.927  1.00  0.00     0.124 S 
ATOM     60  O   UNL A   1      46.441  37.511  30.112  1.00  0.00    -0.237 OA
ATOM     61  O   UNL A   1      48.690  37.219  29.129  1.00  0.00    -0.237 OA
ATOM     62  O   UNL A   1      46.790  37.854  27.692  1.00  0.00    -0.744 OA
ENDBRANCH  58  59
ENDBRANCH  37  51
BRANCH  38  63
ATOM     63  C   UNL A   1      43.538  23.215  26.998  1.00  0.00     0.058 A 
ATOM     64  C   UNL A   1      43.251  22.346  28.059  1.00  0.00     0.135 A 
ATOM     65  C   UNL A   1      43.381  22.726  25.690  1.00  0.00     0.135 A 
ATOM     66  F   UNL A   1      43.398  22.764  29.325  1.00  0.00    -0.206 F 
ATOM     67  C   UNL A   1      42.825  21.040  27.837  1.00  0.00     0.059 A 
ATOM     68  C   UNL A   1      42.935  21.431  25.443  1.00  0.00     0.059 A 
ATOM     69  F   UNL A   1      43.635  23.521  24.640  1.00  0.00    -0.206 F 
ATOM     70  C   UNL A   1      42.664  20.593  26.523  1.00  0.00     0.060 A 
BRANCH  70  71
ATOM     71  S   UNL A   1      42.043  18.920  26.241  1.00  0.00     0.124 S 
ATOM     72  O   UNL A   1      42.206  18.320  27.561  1.00  0.00    -0.237 OA
ATOM     73  O   UNL A   1      40.667  19.168  25.820  1.00  0.00    -0.237 OA
ATOM     74  O   UNL A   1      42.925  18.407  25.199  1.00  0.00    -0.744 OA
ENDBRANCH  70  71
ENDBRANCH  38  63
BRANCH  50  75
ATOM     75  C   UNL A   1      49.569  26.647  26.284  1.00  0.00     0.058 A 
ATOM     76  C   UNL A   1      49.987  26.697  24.946  1.00  0.00     0.135 A 
ATOM     77  C   UNL A   1      50.492  26.213  27.248  1.00  0.00     0.135 A 
ATOM     78  F   UNL A   1      49.137  27.098  23.987  1.00  0.00    -0.206 F 
ATOM     79  C   UNL A   1      51.270  26.313  24.574  1.00  0.00     0.059 A 
ATOM     80  C   UNL A   1      51.787  25.844  26.901  1.00  0.00     0.059 A 
ATOM     81  F   UNL A   1      50.141  26.157  28.542  1.00  0.00    -0.206 F 
ATOM     82  C   UNL A   1      52.164  25.886  25.558  1.00  0.00     0.060 A 
BRANCH  82  83
ATOM     83  S   UNL A   1      53.839  25.419  25.071  1.00  0.00     0.124 S 
ATOM     84  O   UNL A   1      53.661  24.014  24.721  1.00  0.00    -0.237 OA
ATOM     85  O   UNL A   1      54.107  26.323  23.957  1.00  0.00    -0.237 OA
ATOM     86  O   UNL A   1      54.624  25.672  26.277  1.00  0.00    -0.744 OA
ENDBRANCH  82  83
ENDBRANCH  50  75
ENDBRANCH  24  25
ENDBRANCH  17  19
ENDBRANCH  16  17
ENDBRANCH  15  16
ENDBRANCH   1  15
TORSDOF 19
ENDMDL
MODEL 3
REMARK VINA RESULT:      -8.9      2.129      3.277
REMARK SMILES COC[C@H](C)[C@H](CC(C)C)C(=O)OCCOC(=O)c1ccc(-c2c3nc(c(-c4c(F)cc(S(=O)(=O)[O-])cc4F)c4ccc([nH]4)c(-c4c(F)cc(S(=O)(=O)[O-])cc4F)c4nc(c(-c5c(F)cc(S(=O)(=O)[O-])cc5F)c5ccc2[nH]5)C=C4)C=C3)cc1
REMARK SMILES IDX 14 1 13 2 11 3 12 4 6 5 4 6 5 7 3 8 2 9 1 10 7 11 8 12 9 13
REMARK SMILES IDX 10 14 15 15 16 16 17 17 18 18 19 19 20 20 84 21 21 22 83 23
REMARK SMILES IDX 22 24 23 25 24 26 77 27 25 28 82 29 76 30 78 31 26 32 81 33
REMARK SMILES IDX 75 34 74 35 27 37 61 38 40 39 60 40 41 41 44 42 59 43 79 44
REMARK SMILES IDX 42 45 43 46 58 48 80 49 45 50 28 51 29 52 38 53 30 54 31 55
REMARK SMILES IDX 37 56 39 57 32 58 33 59 34 60 35 61 36 62 62 63 63 64 72 65
REMARK SMILES IDX 64 66 65 67 71 68 73 69 66 70 67 71 68 72 69 73 70 74 46 75
REMARK SMILES IDX 47 76 56 77 48 78 49 79 55 80 57 81 50 82 51 83 52 84 53 85
REMARK SMILES IDX 54 86
REMARK H PARENT 78 36 44 47
REMARK Flexibility Score: inf
ROOT
ATOM      1  C   UNL A   1      33.571  30.742  26.825  1.00  0.00     0.274 C 
ENDROOT
BRANCH   1   2
ATOM      2  O   UNL A   1      33.945  29.419  26.380  1.00  0.00    -0.462 OA
BRANCH   2   3
ATOM      3  C   UNL A   1      32.951  28.497  26.421  1.00  0.00     0.309 C 
ATOM      4  O   UNL A   1      32.004  28.560  27.195  1.00  0.00    -0.252 OA
BRANCH   3   5
ATOM      5  C   UNL A   1      33.126  27.347  25.437  1.00  0.00     0.104 C 
BRANCH   5   6
ATOM      6  C   UNL A   1      32.683  27.719  23.986  1.00  0.00     0.026 C 
ATOM      7  C   UNL A   1      31.659  28.860  23.924  1.00  0.00     0.011 C 
BRANCH   6   8
ATOM      8  C   UNL A   1      33.828  27.899  22.963  1.00  0.00     0.163 C 
BRANCH   8   9
ATOM      9  O   UNL A   1      33.690  27.201  21.742  1.00  0.00    -0.384 OA
ATOM     10  C   UNL A   1      32.983  25.978  21.798  1.00  0.00     0.194 C 
ENDBRANCH   8   9
ENDBRANCH   6   8
ENDBRANCH   5   6
BRANCH   5  11
ATOM     11  C   UNL A   1      32.514  25.980  25.848  1.00  0.00     0.018 C 
BRANCH  11  12
ATOM     12  C   UNL A   1      33.487  24.815  26.144  1.00  0.00    -0.017 C 
ATOM     13  C   UNL A   1      32.750  23.476  26.242  1.00  0.00     0.007 C 
ATOM     14  C   UNL A   1      34.520  24.684  25.015  1.00  0.00     0.007 C 
ENDBRANCH  11  12
ENDBRANCH   5  11
ENDBRANCH   3   5
ENDBRANCH   2   3
ENDBRANCH   1   2
BRANCH   1  15
ATOM     15  C   UNL A   1      34.336  31.217  28.069  1.00  0.00     0.275 C 
BRANCH  15  16
ATOM     16  O   UNL A   1      35.641  30.616  28.144  1.00  0.00    -0.458 OA
BRANCH  16  17
ATOM     17  C   UNL A   1      36.294  30.720  29.325  1.00  0.00     0.338 C 
ATOM     18  O   UNL A   1      35.827  31.042  30.403  1.00  0.00    -0.246 OA
BRANCH  17  19
ATOM     19  C   UNL A   1      37.709  30.364  29.133  1.00  0.00     0.060 A 
ATOM     20  C   UNL A   1      38.152  29.923  27.881  1.00  0.00     0.016 A 
ATOM     21  C   UNL A   1      38.581  30.385  30.220  1.00  0.00     0.016 A 
ATOM     22  C   UNL A   1      39.474  29.523  27.702  1.00  0.00     0.010 A 
ATOM     23  C   UNL A   1      39.908  29.982  30.043  1.00  0.00     0.010 A 
ATOM     24  C   UNL A   1      40.359  29.544  28.785  1.00  0.00    -0.014 A 
BRANCH  24  25
ATOM     25  C   UNL A   1      41.747  29.053  28.631  1.00  0.00     0.031 A 
ATOM     26  C   UNL A   1      42.885  30.027  28.711  1.00  0.00     0.074 A 
ATOM     27  C   UNL A   1      41.977  27.749  28.393  1.00  0.00     0.049 A 
ATOM     28  N   UNL A   1      44.147  29.853  28.422  1.00  0.00    -0.248 NA
ATOM     29  C   UNL A   1      42.551  31.384  29.175  1.00  0.00     0.031 C 
ATOM     30  C   UNL A   1      40.954  26.704  28.352  1.00  0.00     0.029 A 
ATOM     31  N   UNL A   1      43.146  27.085  28.120  1.00  0.00    -0.354 N 
ATOM     32  C   UNL A   1      44.757  31.081  28.641  1.00  0.00     0.074 A 
ATOM     33  C   UNL A   1      43.725  31.994  29.085  1.00  0.00     0.031 C 
ATOM     34  C   UNL A   1      41.536  25.533  28.043  1.00  0.00     0.029 A 
ATOM     35  C   UNL A   1      42.962  25.756  27.818  1.00  0.00     0.049 A 
ATOM     36  H   UNL A   1      44.031  27.517  28.137  1.00  0.00     0.167 HD
ATOM     37  C   UNL A   1      46.060  31.414  28.478  1.00  0.00     0.037 A 
ATOM     38  C   UNL A   1      43.837  24.836  27.367  1.00  0.00     0.037 A 
ATOM     39  C   UNL A   1      47.074  30.493  28.036  1.00  0.00     0.049 A 
ATOM     40  C   UNL A   1      45.269  25.239  27.145  1.00  0.00     0.074 A 
ATOM     41  C   UNL A   1      48.420  30.727  27.821  1.00  0.00     0.029 A 
ATOM     42  N   UNL A   1      46.849  29.154  27.743  1.00  0.00    -0.354 N 
ATOM     43  N   UNL A   1      45.831  26.412  27.318  1.00  0.00    -0.248 NA
ATOM     44  C   UNL A   1      46.185  24.199  26.658  1.00  0.00     0.031 C 
ATOM     45  C   UNL A   1      49.005  29.537  27.371  1.00  0.00     0.029 A 
ATOM     46  C   UNL A   1      48.030  28.552  27.340  1.00  0.00     0.049 A 
ATOM     47  H   UNL A   1      45.979  28.700  27.810  1.00  0.00     0.167 HD
ATOM     48  C   UNL A   1      47.168  26.249  26.975  1.00  0.00     0.074 A 
ATOM     49  C   UNL A   1      47.333  24.861  26.595  1.00  0.00     0.031 C 
ATOM     50  C   UNL A   1      48.168  27.165  26.971  1.00  0.00     0.037 A 
BRANCH  37  51
ATOM     51  C   UNL A   1      46.445  32.842  28.740  1.00  0.00     0.058 A 
ATOM     52  C   UNL A   1      46.871  33.272  30.007  1.00  0.00     0.135 A 
ATOM     53  C   UNL A   1      46.393  33.794  27.709  1.00  0.00     0.135 A 
ATOM     54  F   UNL A   1      46.920  32.408  31.033  1.00  0.00    -0.206 F 
ATOM     55  C   UNL A   1      47.203  34.602  30.250  1.00  0.00     0.059 A 
ATOM     56  C   UNL A   1      46.743  35.124  27.924  1.00  0.00     0.059 A 
ATOM     57  F   UNL A   1      45.991  33.437  26.480  1.00  0.00    -0.206 F 
ATOM     58  C   UNL A   1      47.130  35.521  29.203  1.00  0.00     0.060 A 
BRANCH  58  59
ATOM     59  S   UNL A   1      47.552  37.247  29.531  1.00  0.00     0.124 S 
ATOM     60  O   UNL A   1      46.251  37.895  29.395  1.00  0.00    -0.237 OA
ATOM     61  O   UNL A   1      48.090  37.188  30.887  1.00  0.00    -0.237 OA
ATOM     62  O   UNL A   1      48.524  37.563  28.489  1.00  0.00    -0.744 OA
ENDBRANCH  58  59
ENDBRANCH  37  51
BRANCH  38  63
ATOM     63  C   UNL A   1      43.368  23.459  27.065  1.00  0.00     0.058 A 
ATOM     64  C   UNL A   1      43.215  23.020  25.743  1.00  0.00     0.135 A 
ATOM     65  C   UNL A   1      43.096  22.544  28.095  1.00  0.00     0.135 A 
ATOM     66  F   UNL A   1      43.451  23.862  24.725  1.00  0.00    -0.206 F 
ATOM     67  C   UNL A   1      42.807  21.722  25.449  1.00  0.00     0.059 A 
ATOM     68  C   UNL A   1      42.708  21.235  27.825  1.00  0.00     0.059 A 
ATOM     69  F   UNL A   1      43.235  22.913  29.377  1.00  0.00    -0.206 F 
ATOM     70  C   UNL A   1      42.561  20.835  26.499  1.00  0.00     0.060 A 
BRANCH  70  71
ATOM     71  S   UNL A   1      42.100  19.131  26.109  1.00  0.00     0.124 S 
ATOM     72  O   UNL A   1      40.687  19.277  25.779  1.00  0.00    -0.237 OA
ATOM     73  O   UNL A   1      42.987  18.818  24.993  1.00  0.00    -0.237 OA
ATOM     74  O   UNL A   1      42.390  18.416  27.347  1.00  0.00    -0.744 OA
ENDBRANCH  70  71
ENDBRANCH  38  63
BRANCH  50  75
ATOM     75  C   UNL A   1      49.534  26.686  26.569  1.00  0.00     0.058 A 
ATOM     76  C   UNL A   1      50.398  26.078  27.491  1.00  0.00     0.135 A 
ATOM     77  C   UNL A   1      49.961  26.797  25.237  1.00  0.00     0.135 A 
ATOM     78  F   UNL A   1      50.036  25.956  28.778  1.00  0.00    -0.206 F 
ATOM     79  C   UNL A   1      51.651  25.610  27.110  1.00  0.00     0.059 A 
ATOM     80  C   UNL A   1      51.202  26.318  24.829  1.00  0.00     0.059 A 
ATOM     81  F   UNL A   1      49.166  27.364  24.317  1.00  0.00    -0.206 F 
ATOM     82  C   UNL A   1      52.045  25.736  25.776  1.00  0.00     0.060 A 
BRANCH  82  83
ATOM     83  S   UNL A   1      53.660  25.098  25.282  1.00  0.00     0.124 S 
ATOM     84  O   UNL A   1      53.391  23.668  25.177  1.00  0.00    -0.237 OA
ATOM     85  O   UNL A   1      53.901  25.793  24.021  1.00  0.00    -0.237 OA
ATOM     86  O   UNL A   1      54.532  25.495  26.384  1.00  0.00    -0.744 OA
ENDBRANCH  82  83
ENDBRANCH  50  75
ENDBRANCH  24  25
ENDBRANCH  17  19
ENDBRANCH  16  17
ENDBRANCH  15  16
ENDBRANCH   1  15
TORSDOF 19
ENDMDL
