MODEL 1
REMARK VINA RESULT:      -7.2      0.000      0.000
REMARK SMILES CC(C)C[C@H](NC(=O)[C@H](Cc1ccccc1)NC(=O)CNC(=O)CNC(=O)OCc1ccccc1)C(=O)OCCOC(=O)c1ccc(-c2c3nc(c(-c4c(F)cc(S(=O)(=O)[O-])cc4F)c4ccc([nH]4)c(-c4c(F)cc(S(=O)(=O)[O-])cc4F)c4nc(c(-c5c(F)cc(S(=O)(=O)[O-])cc5F)c5ccc2[nH]5)C=C4)C=C3)cc1
REMARK SMILES IDX 5 1 4 2 2 3 1 4 3 5 36 6 37 7 38 8 39 9 40 10 41 11 42 12
REMARK SMILES IDX 43 13 44 14 45 15 109 16 46 17 108 18 47 19 48 20 49 21
REMARK SMILES IDX 102 22 50 23 107 24 101 25 103 26 51 27 106 28 100 29 99 30
REMARK SMILES IDX 52 32 86 33 65 34 85 35 66 36 69 37 84 38 104 39 67 40 68 41
REMARK SMILES IDX 83 43 105 44 70 45 53 46 54 47 63 48 55 49 56 50 62 51 64 52
REMARK SMILES IDX 57 53 58 54 59 55 60 56 61 57 87 58 88 59 97 60 89 61 90 62
REMARK SMILES IDX 96 63 98 64 91 65 92 66 93 67 94 68 95 69 71 70 72 71 81 72
REMARK SMILES IDX 73 73 74 74 80 75 82 76 75 77 76 78 77 79 78 80 79 81 6 82
REMARK SMILES IDX 7 83 8 85 9 86 17 87 18 88 19 90 20 91 21 92 22 93 23 95
REMARK SMILES IDX 24 96 25 97 26 98 27 100 28 101 29 102 30 103 31 104 35 105
REMARK SMILES IDX 32 106 34 107 33 108 10 109 11 110 12 111 16 112 13 113
REMARK SMILES IDX 15 114 14 115
REMARK H PARENT 103 31 69 42 6 84 17 89 21 94 25 99
REMARK Flexibility Score: inf
ROOT
ATOM      1  C   UNL A   1      46.429  42.789  30.538  1.00  0.00     0.192 C 
ENDROOT
BRANCH   1   2
ATOM      2  C   UNL A   1      47.293  42.702  31.826  1.00  0.00     0.040 C 
BRANCH   2   3
ATOM      3  C   UNL A   1      47.224  41.400  32.664  1.00  0.00    -0.015 C 
ATOM      4  C   UNL A   1      47.999  40.222  32.076  1.00  0.00     0.007 C 
ATOM      5  C   UNL A   1      47.743  41.681  34.080  1.00  0.00     0.007 C 
ENDBRANCH   2   3
ENDBRANCH   1   2
BRANCH   1   6
ATOM      6  C   UNL A   1      45.154  43.587  30.868  1.00  0.00     0.328 C 
ATOM      7  O   UNL A   1      44.225  43.684  30.070  1.00  0.00    -0.250 OA
BRANCH   6   8
ATOM      8  O   UNL A   1      45.129  44.098  32.127  1.00  0.00    -0.461 OA
BRANCH   8   9
ATOM      9  C   UNL A   1      44.098  45.077  32.376  1.00  0.00     0.274 C 
BRANCH   9  10
ATOM     10  C   UNL A   1      43.202  44.681  33.552  1.00  0.00     0.275 C 
BRANCH  10  11
ATOM     11  O   UNL A   1      43.841  43.736  34.431  1.00  0.00    -0.458 OA
BRANCH  11  12
ATOM     12  C   UNL A   1      43.138  42.595  34.602  1.00  0.00     0.338 C 
ATOM     13  O   UNL A   1      42.076  42.477  35.196  1.00  0.00    -0.246 OA
BRANCH  12  14
ATOM     14  C   UNL A   1      43.783  41.451  33.938  1.00  0.00     0.060 A 
ATOM     15  C   UNL A   1      43.352  41.134  32.651  1.00  0.00     0.016 A 
ATOM     16  C   UNL A   1      44.458  40.503  34.715  1.00  0.00     0.016 A 
ATOM     17  C   UNL A   1      43.429  39.808  32.222  1.00  0.00     0.010 A 
ATOM     18  C   UNL A   1      44.605  39.189  34.239  1.00  0.00     0.010 A 
ATOM     19  C   UNL A   1      44.009  38.800  33.030  1.00  0.00    -0.014 A 
BRANCH  19  20
ATOM     20  C   UNL A   1      43.906  37.362  32.616  1.00  0.00     0.031 A 
ATOM     21  C   UNL A   1      43.005  36.355  33.318  1.00  0.00     0.074 A 
ATOM     22  C   UNL A   1      44.580  36.960  31.521  1.00  0.00     0.049 A 
ATOM     23  N   UNL A   1      42.752  35.105  32.998  1.00  0.00    -0.248 NA
ATOM     24  C   UNL A   1      42.270  36.802  34.507  1.00  0.00     0.031 C 
ATOM     25  C   UNL A   1      45.443  37.815  30.707  1.00  0.00     0.029 A 
ATOM     26  N   UNL A   1      44.641  35.738  30.901  1.00  0.00    -0.354 N 
ATOM     27  C   UNL A   1      41.807  34.642  33.915  1.00  0.00     0.074 A 
ATOM     28  C   UNL A   1      41.534  35.740  34.814  1.00  0.00     0.031 C 
ATOM     29  C   UNL A   1      45.924  37.105  29.681  1.00  0.00     0.029 A 
ATOM     30  C   UNL A   1      45.492  35.720  29.825  1.00  0.00     0.049 A 
ATOM     31  H   UNL A   1      44.126  34.953  31.199  1.00  0.00     0.167 HD
ATOM     32  C   UNL A   1      41.234  33.415  34.018  1.00  0.00     0.037 A 
ATOM     33  C   UNL A   1      45.941  34.701  29.069  1.00  0.00     0.037 A 
ATOM     34  C   UNL A   1      41.589  32.277  33.206  1.00  0.00     0.049 A 
ATOM     35  C   UNL A   1      45.464  33.310  29.342  1.00  0.00     0.074 A 
ATOM     36  C   UNL A   1      41.092  30.984  33.263  1.00  0.00     0.029 A 
ATOM     37  N   UNL A   1      42.570  32.279  32.226  1.00  0.00    -0.354 N 
ATOM     38  N   UNL A   1      44.562  32.904  30.201  1.00  0.00    -0.248 NA
ATOM     39  C   UNL A   1      46.082  32.236  28.556  1.00  0.00     0.031 C 
ATOM     40  C   UNL A   1      41.827  30.189  32.374  1.00  0.00     0.029 A 
ATOM     41  C   UNL A   1      42.739  31.000  31.717  1.00  0.00     0.049 A 
ATOM     42  H   UNL A   1      43.074  33.073  31.935  1.00  0.00     0.167 HD
ATOM     43  C   UNL A   1      44.492  31.525  30.051  1.00  0.00     0.074 A 
ATOM     44  C   UNL A   1      45.439  31.170  29.013  1.00  0.00     0.031 C 
ATOM     45  C   UNL A   1      43.703  30.640  30.708  1.00  0.00     0.037 A 
BRANCH  32  46
ATOM     46  C   UNL A   1      40.205  33.203  35.101  1.00  0.00     0.058 A 
ATOM     47  C   UNL A   1      40.571  32.890  36.420  1.00  0.00     0.135 A 
ATOM     48  C   UNL A   1      38.837  33.374  34.829  1.00  0.00     0.135 A 
ATOM     49  F   UNL A   1      41.863  32.703  36.736  1.00  0.00    -0.206 F 
ATOM     50  C   UNL A   1      39.618  32.738  37.426  1.00  0.00     0.059 A 
ATOM     51  C   UNL A   1      37.868  33.241  35.820  1.00  0.00     0.059 A 
ATOM     52  F   UNL A   1      38.430  33.675  33.586  1.00  0.00    -0.206 F 
ATOM     53  C   UNL A   1      38.267  32.910  37.115  1.00  0.00     0.060 A 
BRANCH  53  54
ATOM     54  S   UNL A   1      37.039  32.674  38.419  1.00  0.00     0.124 S 
ATOM     55  O   UNL A   1      37.014  31.218  38.531  1.00  0.00    -0.237 OA
ATOM     56  O   UNL A   1      37.636  33.386  39.543  1.00  0.00    -0.237 OA
ATOM     57  O   UNL A   1      35.832  33.279  37.866  1.00  0.00    -0.744 OA
ENDBRANCH  53  54
ENDBRANCH  32  46
BRANCH  33  58
ATOM     58  C   UNL A   1      46.964  34.988  28.034  1.00  0.00     0.058 A 
ATOM     59  C   UNL A   1      46.618  35.585  26.817  1.00  0.00     0.135 A 
ATOM     60  C   UNL A   1      48.327  34.763  28.298  1.00  0.00     0.135 A 
ATOM     61  F   UNL A   1      45.329  35.807  26.521  1.00  0.00    -0.206 F 
ATOM     62  C   UNL A   1      47.590  35.975  25.903  1.00  0.00     0.059 A 
ATOM     63  C   UNL A   1      49.316  35.172  27.415  1.00  0.00     0.059 A 
ATOM     64  F   UNL A   1      48.704  34.207  29.461  1.00  0.00    -0.206 F 
ATOM     65  C   UNL A   1      48.937  35.779  26.220  1.00  0.00     0.060 A 
BRANCH  65  66
ATOM     66  S   UNL A   1      50.198  36.403  25.090  1.00  0.00     0.124 S 
ATOM     67  O   UNL A   1      50.834  35.166  24.650  1.00  0.00    -0.237 OA
ATOM     68  O   UNL A   1      49.399  37.101  24.088  1.00  0.00    -0.237 OA
ATOM     69  O   UNL A   1      51.012  37.266  25.940  1.00  0.00    -0.744 OA
ENDBRANCH  65  66
ENDBRANCH  33  58
BRANCH  45  70
ATOM     70  C   UNL A   1      43.824  29.197  30.310  1.00  0.00     0.058 A 
ATOM     71  C   UNL A   1      43.079  28.659  29.249  1.00  0.00     0.135 A 
ATOM     72  C   UNL A   1      44.689  28.338  31.007  1.00  0.00     0.135 A 
ATOM     73  F   UNL A   1      42.230  29.437  28.558  1.00  0.00    -0.206 F 
ATOM     74  C   UNL A   1      43.160  27.311  28.914  1.00  0.00     0.059 A 
ATOM     75  C   UNL A   1      44.804  26.991  30.674  1.00  0.00     0.059 A 
ATOM     76  F   UNL A   1      45.430  28.802  32.025  1.00  0.00    -0.206 F 
ATOM     77  C   UNL A   1      44.020  26.483  29.639  1.00  0.00     0.060 A 
BRANCH  77  78
ATOM     78  S   UNL A   1      44.112  24.733  29.207  1.00  0.00     0.124 S 
ATOM     79  O   UNL A   1      45.147  24.739  28.180  1.00  0.00    -0.237 OA
ATOM     80  O   UNL A   1      44.483  24.113  30.476  1.00  0.00    -0.237 OA
ATOM     81  O   UNL A   1      42.763  24.428  28.739  1.00  0.00    -0.744 OA
ENDBRANCH  77  78
ENDBRANCH  45  70
ENDBRANCH  19  20
ENDBRANCH  12  14
ENDBRANCH  11  12
ENDBRANCH  10  11
ENDBRANCH   9  10
ENDBRANCH   8   9
ENDBRANCH   6   8
ENDBRANCH   1   6
BRANCH   1  82
ATOM     82  N   UNL A   1      47.252  43.173  29.388  1.00  0.00    -0.341 N 
ATOM     83  C   UNL A   1      47.404  42.562  28.172  1.00  0.00     0.243 C 
ATOM     84  H   UNL A   1      47.776  43.997  29.507  1.00  0.00     0.164 HD
ATOM     85  O   UNL A   1      48.557  42.542  27.717  1.00  0.00    -0.273 OA
BRANCH  83  86
ATOM     86  C   UNL A   1      46.211  42.010  27.321  1.00  0.00     0.175 C 
BRANCH  86  87
ATOM     87  N   UNL A   1      46.653  41.867  25.907  1.00  0.00    -0.342 N 
ATOM     88  C   UNL A   1      46.530  42.602  24.770  1.00  0.00     0.240 C 
ATOM     89  H   UNL A   1      47.157  41.035  25.759  1.00  0.00     0.164 HD
ATOM     90  O   UNL A   1      47.046  42.118  23.754  1.00  0.00    -0.273 OA
BRANCH  88  91
ATOM     91  C   UNL A   1      45.980  44.039  24.706  1.00  0.00     0.216 C 
BRANCH  91  92
ATOM     92  N   UNL A   1      46.951  45.079  24.902  1.00  0.00    -0.346 N 
ATOM     93  C   UNL A   1      47.903  45.496  24.046  1.00  0.00     0.239 C 
ATOM     94  H   UNL A   1      46.916  45.544  25.769  1.00  0.00     0.164 HD
ATOM     95  O   UNL A   1      48.939  45.888  24.573  1.00  0.00    -0.273 OA
BRANCH  93  96
ATOM     96  C   UNL A   1      47.819  45.357  22.537  1.00  0.00     0.219 C 
BRANCH  96  97
ATOM     97  N   UNL A   1      46.484  45.761  22.173  1.00  0.00    -0.312 N 
ATOM     98  C   UNL A   1      45.834  45.270  21.090  1.00  0.00     0.407 C 
ATOM     99  H   UNL A   1      46.023  46.423  22.737  1.00  0.00     0.167 HD
ATOM    100  O   UNL A   1      44.987  45.931  20.503  1.00  0.00    -0.225 OA
BRANCH  98 101
ATOM    101  O   UNL A   1      46.265  44.026  20.780  1.00  0.00    -0.445 OA
BRANCH 101 102
ATOM    102  C   UNL A   1      45.321  43.068  20.275  1.00  0.00     0.270 C 
BRANCH 102 103
ATOM    103  C   UNL A   1      43.997  43.110  20.986  1.00  0.00    -0.011 A 
ATOM    104  C   UNL A   1      43.947  42.852  22.361  1.00  0.00     0.007 A 
ATOM    105  C   UNL A   1      42.804  43.277  20.269  1.00  0.00     0.007 A 
ATOM    106  C   UNL A   1      42.720  42.704  23.001  1.00  0.00     0.000 A 
ATOM    107  C   UNL A   1      41.577  43.121  20.911  1.00  0.00     0.000 A 
ATOM    108  C   UNL A   1      41.537  42.823  22.274  1.00  0.00     0.000 A 
ENDBRANCH 102 103
ENDBRANCH 101 102
ENDBRANCH  98 101
ENDBRANCH  96  97
ENDBRANCH  93  96
ENDBRANCH  91  92
ENDBRANCH  88  91
ENDBRANCH  86  87
BRANCH  86 109
ATOM    109  C   UNL A   1      45.537  40.705  27.776  1.00  0.00     0.070 C 
BRANCH 109 110
ATOM    110  C   UNL A   1      44.132  40.370  27.312  1.00  0.00    -0.045 A 
ATOM    111  C   UNL A   1      43.571  39.154  27.741  1.00  0.00     0.004 A 
ATOM    112  C   UNL A   1      43.349  41.206  26.507  1.00  0.00     0.004 A 
ATOM    113  C   UNL A   1      42.283  38.776  27.351  1.00  0.00     0.000 A 
ATOM    114  C   UNL A   1      42.066  40.822  26.106  1.00  0.00     0.000 A 
ATOM    115  C   UNL A   1      41.534  39.607  26.525  1.00  0.00     0.000 A 
ENDBRANCH 109 110
ENDBRANCH  86 109
ENDBRANCH  83  86
ENDBRANCH   1  82
TORSDOF 28
ENDMDL
MODEL 2
REMARK VINA RESULT:      -7.2      8.842     15.392
REMARK SMILES CC(C)C[C@H](NC(=O)[C@H](Cc1ccccc1)NC(=O)CNC(=O)CNC(=O)OCc1ccccc1)C(=O)OCCOC(=O)c1ccc(-c2c3nc(c(-c4c(F)cc(S(=O)(=O)[O-])cc4F)c4ccc([nH]4)c(-c4c(F)cc(S(=O)(=O)[O-])cc4F)c4nc(c(-c5c(F)cc(S(=O)(=O)[O-])cc5F)c5ccc2[nH]5)C=C4)C=C3)cc1
REMARK SMILES IDX 5 1 4 2 2 3 1 4 3 5 36 6 37 7 38 8 39 9 40 10 41 11 42 12
REMARK SMILES IDX 43 13 44 14 45 15 109 16 46 17 108 18 47 19 48 20 49 21
REMARK SMILES IDX 102 22 50 23 107 24 101 25 103 26 51 27 106 28 100 29 99 30
REMARK SMILES IDX 52 32 86 33 65 34 85 35 66 36 69 37 84 38 104 39 67 40 68 41
REMARK SMILES IDX 83 43 105 44 70 45 53 46 54 47 63 48 55 49 56 50 62 51 64 52
REMARK SMILES IDX 57 53 58 54 59 55 60 56 61 57 87 58 88 59 97 60 89 61 90 62
REMARK SMILES IDX 96 63 98 64 91 65 92 66 93 67 94 68 95 69 71 70 72 71 81 72
REMARK SMILES IDX 73 73 74 74 80 75 82 76 75 77 76 78 77 79 78 80 79 81 6 82
REMARK SMILES IDX 7 83 8 85 9 86 17 87 18 88 19 90 20 91 21 92 22 93 23 95
REMARK SMILES IDX 24 96 25 97 26 98 27 100 28 101 29 102 30 103 31 104 35 105
REMARK SMILES IDX 32 106 34 107 33 108 10 109 11 110 12 111 16 112 13 113
REMARK SMILES IDX 15 114 14 115
REMARK H PARENT 103 31 69 42 6 84 17 89 21 94 25 99
REMARK Flexibility Score: inf
ROOT
ATOM      1  C   UNL A   1      40.475  28.921  33.486  1.00  0.00     0.192 C 
ENDROOT
BRANCH   1   2
ATOM      2  C   UNL A   1      41.822  28.200  33.757  1.00  0.00     0.040 C 
BRANCH   2   3
ATOM      3  C   UNL A   1      41.857  27.109  34.859  1.00  0.00    -0.015 C 
ATOM      4  C   UNL A   1      42.832  25.964  34.591  1.00  0.00     0.007 C 
ATOM      5  C   UNL A   1      42.207  27.758  36.203  1.00  0.00     0.007 C 
ENDBRANCH   2   3
ENDBRANCH   1   2
BRANCH   1   6
ATOM      6  C   UNL A   1      39.654  28.056  32.510  1.00  0.00     0.328 C 
ATOM      7  O   UNL A   1      38.653  27.443  32.873  1.00  0.00    -0.250 OA
BRANCH   6   8
ATOM      8  O   UNL A   1      40.095  28.098  31.227  1.00  0.00    -0.461 OA
BRANCH   8   9
ATOM      9  C   UNL A   1      39.194  27.542  30.245  1.00  0.00     0.274 C 
BRANCH   9  10
ATOM     10  C   UNL A   1      39.859  27.389  28.876  1.00  0.00     0.275 C 
BRANCH  10  11
ATOM     11  O   UNL A   1      40.877  26.370  28.875  1.00  0.00    -0.458 OA
BRANCH  11  12
ATOM     12  C   UNL A   1      41.240  25.970  27.636  1.00  0.00     0.338 C 
ATOM     13  O   UNL A   1      40.492  25.619  26.735  1.00  0.00    -0.246 OA
BRANCH  12  14
ATOM     14  C   UNL A   1      42.699  26.035  27.447  1.00  0.00     0.060 A 
ATOM     15  C   UNL A   1      43.402  24.834  27.498  1.00  0.00     0.016 A 
ATOM     16  C   UNL A   1      43.359  27.254  27.643  1.00  0.00     0.016 A 
ATOM     17  C   UNL A   1      44.729  24.847  27.935  1.00  0.00     0.010 A 
ATOM     18  C   UNL A   1      44.717  27.261  28.001  1.00  0.00     0.010 A 
ATOM     19  C   UNL A   1      45.394  26.056  28.246  1.00  0.00    -0.014 A 
BRANCH  19  20
ATOM     20  C   UNL A   1      46.750  26.018  28.887  1.00  0.00     0.031 A 
ATOM     21  C   UNL A   1      48.047  26.164  28.103  1.00  0.00     0.074 A 
ATOM     22  C   UNL A   1      46.822  25.932  30.229  1.00  0.00     0.049 A 
ATOM     23  N   UNL A   1      49.281  26.245  28.549  1.00  0.00    -0.248 NA
ATOM     24  C   UNL A   1      47.959  26.263  26.641  1.00  0.00     0.031 C 
ATOM     25  C   UNL A   1      45.671  25.839  31.126  1.00  0.00     0.029 A 
ATOM     26  N   UNL A   1      47.905  25.914  31.072  1.00  0.00    -0.354 N 
ATOM     27  C   UNL A   1      50.097  26.444  27.435  1.00  0.00     0.074 A 
ATOM     28  C   UNL A   1      49.223  26.463  26.284  1.00  0.00     0.031 C 
ATOM     29  C   UNL A   1      46.103  25.805  32.392  1.00  0.00     0.029 A 
ATOM     30  C   UNL A   1      47.559  25.763  32.391  1.00  0.00     0.049 A 
ATOM     31  H   UNL A   1      48.835  26.002  30.761  1.00  0.00     0.167 HD
ATOM     32  C   UNL A   1      51.447  26.576  27.366  1.00  0.00     0.037 A 
ATOM     33  C   UNL A   1      48.314  25.543  33.483  1.00  0.00     0.037 A 
ATOM     34  C   UNL A   1      52.340  26.436  28.490  1.00  0.00     0.049 A 
ATOM     35  C   UNL A   1      49.803  25.471  33.353  1.00  0.00     0.074 A 
ATOM     36  C   UNL A   1      53.723  26.514  28.511  1.00  0.00     0.029 A 
ATOM     37  N   UNL A   1      51.942  26.131  29.783  1.00  0.00    -0.354 N 
ATOM     38  N   UNL A   1      50.546  25.677  32.294  1.00  0.00    -0.248 NA
ATOM     39  C   UNL A   1      50.553  25.114  34.563  1.00  0.00     0.031 C 
ATOM     40  C   UNL A   1      54.164  26.179  29.799  1.00  0.00     0.029 A 
ATOM     41  C   UNL A   1      53.053  25.955  30.594  1.00  0.00     0.049 A 
ATOM     42  H   UNL A   1      51.007  26.052  30.082  1.00  0.00     0.167 HD
ATOM     43  C   UNL A   1      51.857  25.490  32.712  1.00  0.00     0.074 A 
ATOM     44  C   UNL A   1      51.803  25.160  34.122  1.00  0.00     0.031 C 
ATOM     45  C   UNL A   1      53.000  25.595  31.989  1.00  0.00     0.037 A 
BRANCH  32  46
ATOM     46  C   UNL A   1      52.066  26.818  26.011  1.00  0.00     0.058 A 
ATOM     47  C   UNL A   1      52.256  28.114  25.504  1.00  0.00     0.135 A 
ATOM     48  C   UNL A   1      52.531  25.742  25.237  1.00  0.00     0.135 A 
ATOM     49  F   UNL A   1      51.821  29.180  26.195  1.00  0.00    -0.206 F 
ATOM     50  C   UNL A   1      52.868  28.333  24.271  1.00  0.00     0.059 A 
ATOM     51  C   UNL A   1      53.158  25.937  24.009  1.00  0.00     0.059 A 
ATOM     52  F   UNL A   1      52.378  24.482  25.673  1.00  0.00    -0.206 F 
ATOM     53  C   UNL A   1      53.311  27.236  23.527  1.00  0.00     0.060 A 
BRANCH  53  54
ATOM     54  S   UNL A   1      54.069  27.531  21.913  1.00  0.00     0.124 S 
ATOM     55  O   UNL A   1      53.673  26.330  21.185  1.00  0.00    -0.237 OA
ATOM     56  O   UNL A   1      53.428  28.771  21.489  1.00  0.00    -0.237 OA
ATOM     57  O   UNL A   1      55.492  27.637  22.219  1.00  0.00    -0.744 OA
ENDBRANCH  53  54
ENDBRANCH  32  46
BRANCH  33  58
ATOM     58  C   UNL A   1      47.630  25.299  34.777  1.00  0.00     0.058 A 
ATOM     59  C   UNL A   1      47.316  24.003  35.198  1.00  0.00     0.135 A 
ATOM     60  C   UNL A   1      47.378  26.363  35.661  1.00  0.00     0.135 A 
ATOM     61  F   UNL A   1      47.531  22.960  34.383  1.00  0.00    -0.206 F 
ATOM     62  C   UNL A   1      46.797  23.763  36.466  1.00  0.00     0.059 A 
ATOM     63  C   UNL A   1      46.890  26.145  36.941  1.00  0.00     0.059 A 
ATOM     64  F   UNL A   1      47.679  27.622  35.302  1.00  0.00    -0.206 F 
ATOM     65  C   UNL A   1      46.604  24.840  37.335  1.00  0.00     0.060 A 
BRANCH  65  66
ATOM     66  S   UNL A   1      46.052  24.510  39.022  1.00  0.00     0.124 S 
ATOM     67  O   UNL A   1      46.325  25.787  39.672  1.00  0.00    -0.237 OA
ATOM     68  O   UNL A   1      44.644  24.180  38.828  1.00  0.00    -0.237 OA
ATOM     69  O   UNL A   1      46.896  23.394  39.437  1.00  0.00    -0.744 OA
ENDBRANCH  65  66
ENDBRANCH  33  58
BRANCH  45  70
ATOM     70  C   UNL A   1      54.290  25.363  32.722  1.00  0.00     0.058 A 
ATOM     71  C   UNL A   1      54.859  24.084  32.827  1.00  0.00     0.135 A 
ATOM     72  C   UNL A   1      54.961  26.432  33.337  1.00  0.00     0.135 A 
ATOM     73  F   UNL A   1      54.251  23.026  32.266  1.00  0.00    -0.206 F 
ATOM     74  C   UNL A   1      56.030  23.866  33.547  1.00  0.00     0.059 A 
ATOM     75  C   UNL A   1      56.146  26.242  34.041  1.00  0.00     0.059 A 
ATOM     76  F   UNL A   1      54.465  27.677  33.260  1.00  0.00    -0.206 F 
ATOM     77  C   UNL A   1      56.662  24.952  34.157  1.00  0.00     0.060 A 
BRANCH  77  78
ATOM     78  S   UNL A   1      58.174  24.660  35.099  1.00  0.00     0.124 S 
ATOM     79  O   UNL A   1      59.066  25.670  34.540  1.00  0.00    -0.237 OA
ATOM     80  O   UNL A   1      57.740  24.890  36.474  1.00  0.00    -0.237 OA
ATOM     81  O   UNL A   1      58.512  23.277  34.778  1.00  0.00    -0.744 OA
ENDBRANCH  77  78
ENDBRANCH  45  70
ENDBRANCH  19  20
ENDBRANCH  12  14
ENDBRANCH  11  12
ENDBRANCH  10  11
ENDBRANCH   9  10
ENDBRANCH   8   9
ENDBRANCH   6   8
ENDBRANCH   1   6
BRANCH   1  82
ATOM     82  N   UNL A   1      39.870  29.379  34.740  1.00  0.00    -0.341 N 
ATOM     83  C   UNL A   1      39.645  30.649  35.196  1.00  0.00     0.243 C 
ATOM     84  H   UNL A   1      39.579  28.662  35.348  1.00  0.00     0.164 HD
ATOM     85  O   UNL A   1      39.866  30.838  36.401  1.00  0.00    -0.273 OA
BRANCH  83  86
ATOM     86  C   UNL A   1      39.041  31.796  34.317  1.00  0.00     0.175 C 
BRANCH  86  87
ATOM     87  N   UNL A   1      38.138  31.198  33.297  1.00  0.00    -0.342 N 
ATOM     88  C   UNL A   1      38.142  31.078  31.943  1.00  0.00     0.240 C 
ATOM     89  H   UNL A   1      37.340  30.787  33.703  1.00  0.00     0.164 HD
ATOM     90  O   UNL A   1      37.165  30.502  31.447  1.00  0.00    -0.273 OA
BRANCH  88  91
ATOM     91  C   UNL A   1      39.333  31.430  31.033  1.00  0.00     0.216 C 
BRANCH  91  92
ATOM     92  N   UNL A   1      39.902  32.732  31.240  1.00  0.00    -0.346 N 
ATOM     93  C   UNL A   1      39.375  33.928  30.915  1.00  0.00     0.239 C 
ATOM     94  H   UNL A   1      40.786  32.753  31.673  1.00  0.00     0.164 HD
ATOM     95  O   UNL A   1      40.193  34.786  30.598  1.00  0.00    -0.273 OA
BRANCH  93  96
ATOM     96  C   UNL A   1      37.889  34.200  30.771  1.00  0.00     0.219 C 
BRANCH  96  97
ATOM     97  N   UNL A   1      37.508  34.955  31.938  1.00  0.00    -0.312 N 
ATOM     98  C   UNL A   1      36.370  34.715  32.633  1.00  0.00     0.407 C 
ATOM     99  H   UNL A   1      38.101  35.679  32.243  1.00  0.00     0.167 HD
ATOM    100  O   UNL A   1      35.802  35.606  33.251  1.00  0.00    -0.225 OA
BRANCH  98 101
ATOM    101  O   UNL A   1      35.986  33.423  32.518  1.00  0.00    -0.445 OA
BRANCH 101 102
ATOM    102  C   UNL A   1      34.645  33.130  32.097  1.00  0.00     0.270 C 
BRANCH 102 103
ATOM    103  C   UNL A   1      34.403  33.423  30.642  1.00  0.00    -0.011 A 
ATOM    104  C   UNL A   1      33.707  34.583  30.281  1.00  0.00     0.007 A 
ATOM    105  C   UNL A   1      34.754  32.490  29.656  1.00  0.00     0.007 A 
ATOM    106  C   UNL A   1      33.313  34.779  28.960  1.00  0.00     0.000 A 
ATOM    107  C   UNL A   1      34.352  32.687  28.336  1.00  0.00     0.000 A 
ATOM    108  C   UNL A   1      33.622  33.826  27.992  1.00  0.00     0.000 A 
ENDBRANCH 102 103
ENDBRANCH 101 102
ENDBRANCH  98 101
ENDBRANCH  96  97
ENDBRANCH  93  96
ENDBRANCH  91  92
ENDBRANCH  88  91
ENDBRANCH  86  87
BRANCH  86 109
ATOM    109  C   UNL A   1      38.312  32.947  35.028  1.00  0.00     0.070 C 
BRANCH 109 110
ATOM    110  C   UNL A   1      39.083  34.170  35.490  1.00  0.00    -0.045 A 
ATOM    111  C   UNL A   1      38.972  34.545  36.841  1.00  0.00     0.004 A 
ATOM    112  C   UNL A   1      39.920  34.930  34.664  1.00  0.00     0.004 A 
ATOM    113  C   UNL A   1      39.650  35.661  37.338  1.00  0.00     0.000 A 
ATOM    114  C   UNL A   1      40.589  36.053  35.158  1.00  0.00     0.000 A 
ATOM    115  C   UNL A   1      40.452  36.421  36.493  1.00  0.00     0.000 A 
ENDBRANCH 109 110
ENDBRANCH  86 109
ENDBRANCH  83  86
ENDBRANCH   1  82
TORSDOF 28
ENDMDL
MODEL 3
REMARK VINA RESULT:      -7.0      4.957     13.498
REMARK SMILES CC(C)C[C@H](NC(=O)[C@H](Cc1ccccc1)NC(=O)CNC(=O)CNC(=O)OCc1ccccc1)C(=O)OCCOC(=O)c1ccc(-c2c3nc(c(-c4c(F)cc(S(=O)(=O)[O-])cc4F)c4ccc([nH]4)c(-c4c(F)cc(S(=O)(=O)[O-])cc4F)c4nc(c(-c5c(F)cc(S(=O)(=O)[O-])cc5F)c5ccc2[nH]5)C=C4)C=C3)cc1
REMARK SMILES IDX 5 1 4 2 2 3 1 4 3 5 36 6 37 7 38 8 39 9 40 10 41 11 42 12
REMARK SMILES IDX 43 13 44 14 45 15 109 16 46 17 108 18 47 19 48 20 49 21
REMARK SMILES IDX 102 22 50 23 107 24 101 25 103 26 51 27 106 28 100 29 99 30
REMARK SMILES IDX 52 32 86 33 65 34 85 35 66 36 69 37 84 38 104 39 67 40 68 41
REMARK SMILES IDX 83 43 105 44 70 45 53 46 54 47 63 48 55 49 56 50 62 51 64 52
REMARK SMILES IDX 57 53 58 54 59 55 60 56 61 57 87 58 88 59 97 60 89 61 90 62
REMARK SMILES IDX 96 63 98 64 91 65 92 66 93 67 94 68 95 69 71 70 72 71 81 72
REMARK SMILES IDX 73 73 74 74 80 75 82 76 75 77 76 78 77 79 78 80 79 81 6 82
REMARK SMILES IDX 7 83 8 85 9 86 17 87 18 88 19 90 20 91 21 92 22 93 23 95
REMARK SMILES IDX 24 96 25 97 26 98 27 100 28 101 29 102 30 103 31 104 35 105
REMARK SMILES IDX 32 106 34 107 33 108 10 109 11 110 12 111 16 112 13 113
REMARK SMILES IDX 15 114 14 115
REMARK H PARENT 103 31 69 42 6 84 17 89 21 94 25 99
REMARK Flexibility Score: inf
ROOT
ATOM      1  C   UNL A   1      45.487  30.695  26.736  1.00  0.00     0.192 C 
ENDROOT
BRANCH   1   2
ATOM      2  C   UNL A   1      44.904  32.070  26.311  1.00  0.00     0.040 C 
BRANCH   2   3
ATOM      3  C   UNL A   1      45.712  33.345  26.665  1.00  0.00    -0.015 C 
ATOM      4  C   UNL A   1      44.878  34.622  26.758  1.00  0.00     0.007 C 
ATOM      5  C   UNL A   1      46.442  33.129  27.997  1.00  0.00     0.007 C 
ENDBRANCH   2   3
ENDBRANCH   1   2
BRANCH   1   6
ATOM      6  C   UNL A   1      44.633  30.150  27.896  1.00  0.00     0.328 C 
ATOM      7  O   UNL A   1      45.139  29.779  28.953  1.00  0.00    -0.250 OA
BRANCH   6   8
ATOM      8  O   UNL A   1      43.295  30.190  27.668  1.00  0.00    -0.461 OA
BRANCH   8   9
ATOM      9  C   UNL A   1      42.537  29.106  28.246  1.00  0.00     0.274 C 
BRANCH   9  10
ATOM     10  C   UNL A   1      41.135  28.999  27.642  1.00  0.00     0.275 C 
BRANCH  10  11
ATOM     11  O   UNL A   1      40.152  29.711  28.418  1.00  0.00    -0.458 OA
BRANCH  11  12
ATOM     12  C   UNL A   1      39.850  29.110  29.590  1.00  0.00     0.338 C 
ATOM     13  O   UNL A   1      39.587  27.928  29.756  1.00  0.00    -0.246 OA
BRANCH  12  14
ATOM     14  C   UNL A   1      39.906  30.055  30.718  1.00  0.00     0.060 A 
ATOM     15  C   UNL A   1      39.409  31.338  30.500  1.00  0.00     0.016 A 
ATOM     16  C   UNL A   1      40.789  29.804  31.775  1.00  0.00     0.016 A 
ATOM     17  C   UNL A   1      39.950  32.403  31.225  1.00  0.00     0.010 A 
ATOM     18  C   UNL A   1      41.264  30.873  32.554  1.00  0.00     0.010 A 
ATOM     19  C   UNL A   1      40.926  32.195  32.228  1.00  0.00    -0.014 A 
BRANCH  19  20
ATOM     20  C   UNL A   1      41.616  33.373  32.851  1.00  0.00     0.031 A 
ATOM     21  C   UNL A   1      41.375  33.816  34.288  1.00  0.00     0.074 A 
ATOM     22  C   UNL A   1      42.554  34.021  32.133  1.00  0.00     0.049 A 
ATOM     23  N   UNL A   1      41.978  34.758  34.978  1.00  0.00    -0.248 NA
ATOM     24  C   UNL A   1      40.355  33.100  35.066  1.00  0.00     0.031 C 
ATOM     25  C   UNL A   1      42.939  33.687  30.763  1.00  0.00     0.029 A 
ATOM     26  N   UNL A   1      43.355  35.087  32.455  1.00  0.00    -0.354 N 
ATOM     27  C   UNL A   1      41.443  34.716  36.265  1.00  0.00     0.074 A 
ATOM     28  C   UNL A   1      40.455  33.660  36.266  1.00  0.00     0.031 C 
ATOM     29  C   UNL A   1      43.920  34.507  30.370  1.00  0.00     0.029 A 
ATOM     30  C   UNL A   1      44.157  35.492  31.418  1.00  0.00     0.049 A 
ATOM     31  H   UNL A   1      43.355  35.517  33.341  1.00  0.00     0.167 HD
ATOM     32  C   UNL A   1      41.725  35.492  37.344  1.00  0.00     0.037 A 
ATOM     33  C   UNL A   1      44.948  36.572  31.282  1.00  0.00     0.037 A 
ATOM     34  C   UNL A   1      42.616  36.626  37.322  1.00  0.00     0.049 A 
ATOM     35  C   UNL A   1      45.076  37.545  32.411  1.00  0.00     0.074 A 
ATOM     36  C   UNL A   1      42.935  37.496  38.353  1.00  0.00     0.029 A 
ATOM     37  N   UNL A   1      43.289  37.083  36.199  1.00  0.00    -0.354 N 
ATOM     38  N   UNL A   1      44.572  37.472  33.618  1.00  0.00    -0.248 NA
ATOM     39  C   UNL A   1      45.861  38.756  32.151  1.00  0.00     0.031 C 
ATOM     40  C   UNL A   1      43.736  38.521  37.834  1.00  0.00     0.029 A 
ATOM     41  C   UNL A   1      43.968  38.256  36.495  1.00  0.00     0.049 A 
ATOM     42  H   UNL A   1      43.285  36.640  35.320  1.00  0.00     0.167 HD
ATOM     43  C   UNL A   1      44.993  38.624  34.271  1.00  0.00     0.074 A 
ATOM     44  C   UNL A   1      45.796  39.371  33.324  1.00  0.00     0.031 C 
ATOM     45  C   UNL A   1      44.742  39.016  35.545  1.00  0.00     0.037 A 
BRANCH  32  46
ATOM     46  C   UNL A   1      41.007  35.196  38.637  1.00  0.00     0.058 A 
ATOM     47  C   UNL A   1      41.523  34.295  39.582  1.00  0.00     0.135 A 
ATOM     48  C   UNL A   1      39.816  35.868  38.962  1.00  0.00     0.135 A 
ATOM     49  F   UNL A   1      42.651  33.615  39.320  1.00  0.00    -0.206 F 
ATOM     50  C   UNL A   1      40.877  34.058  40.795  1.00  0.00     0.059 A 
ATOM     51  C   UNL A   1      39.160  35.657  40.172  1.00  0.00     0.059 A 
ATOM     52  F   UNL A   1      39.277  36.741  38.097  1.00  0.00    -0.206 F 
ATOM     53  C   UNL A   1      39.692  34.740  41.078  1.00  0.00     0.060 A 
BRANCH  53  54
ATOM     54  S   UNL A   1      38.844  34.396  42.637  1.00  0.00     0.124 S 
ATOM     55  O   UNL A   1      37.763  35.377  42.599  1.00  0.00    -0.237 OA
ATOM     56  O   UNL A   1      38.443  33.003  42.474  1.00  0.00    -0.237 OA
ATOM     57  O   UNL A   1      39.872  34.637  43.645  1.00  0.00    -0.744 OA
ENDBRANCH  53  54
ENDBRANCH  32  46
BRANCH  33  58
ATOM     58  C   UNL A   1      45.608  36.802  29.973  1.00  0.00     0.058 A 
ATOM     59  C   UNL A   1      45.018  37.607  28.994  1.00  0.00     0.135 A 
ATOM     60  C   UNL A   1      46.899  36.301  29.730  1.00  0.00     0.135 A 
ATOM     61  F   UNL A   1      43.783  38.097  29.181  1.00  0.00    -0.206 F 
ATOM     62  C   UNL A   1      45.694  37.931  27.823  1.00  0.00     0.059 A 
ATOM     63  C   UNL A   1      47.605  36.636  28.583  1.00  0.00     0.059 A 
ATOM     64  F   UNL A   1      47.509  35.537  30.650  1.00  0.00    -0.206 F 
ATOM     65  C   UNL A   1      46.994  37.455  27.636  1.00  0.00     0.060 A 
BRANCH  65  66
ATOM     66  S   UNL A   1      47.915  37.983  26.176  1.00  0.00     0.124 S 
ATOM     67  O   UNL A   1      46.874  38.647  25.400  1.00  0.00    -0.237 OA
ATOM     68  O   UNL A   1      48.936  38.852  26.751  1.00  0.00    -0.237 OA
ATOM     69  O   UNL A   1      48.413  36.727  25.624  1.00  0.00    -0.744 OA
ENDBRANCH  65  66
ENDBRANCH  33  58
BRANCH  45  70
ATOM     70  C   UNL A   1      45.359  40.310  35.991  1.00  0.00     0.058 A 
ATOM     71  C   UNL A   1      44.728  41.544  35.767  1.00  0.00     0.135 A 
ATOM     72  C   UNL A   1      46.602  40.318  36.642  1.00  0.00     0.135 A 
ATOM     73  F   UNL A   1      43.542  41.592  35.138  1.00  0.00    -0.206 F 
ATOM     74  C   UNL A   1      45.326  42.744  36.140  1.00  0.00     0.059 A 
ATOM     75  C   UNL A   1      47.208  41.503  37.047  1.00  0.00     0.059 A 
ATOM     76  F   UNL A   1      47.245  39.165  36.888  1.00  0.00    -0.206 F 
ATOM     77  C   UNL A   1      46.571  42.713  36.772  1.00  0.00     0.060 A 
BRANCH  77  78
ATOM     78  S   UNL A   1      47.345  44.274  37.244  1.00  0.00     0.124 S 
ATOM     79  O   UNL A   1      46.293  44.893  38.043  1.00  0.00    -0.237 OA
ATOM     80  O   UNL A   1      48.524  43.831  37.984  1.00  0.00    -0.237 OA
ATOM     81  O   UNL A   1      47.621  44.916  35.963  1.00  0.00    -0.744 OA
ENDBRANCH  77  78
ENDBRANCH  45  70
ENDBRANCH  19  20
ENDBRANCH  12  14
ENDBRANCH  11  12
ENDBRANCH  10  11
ENDBRANCH   9  10
ENDBRANCH   8   9
ENDBRANCH   6   8
ENDBRANCH   1   6
BRANCH   1  82
ATOM     82  N   UNL A   1      45.742  29.856  25.561  1.00  0.00    -0.341 N 
ATOM     83  C   UNL A   1      46.510  28.731  25.435  1.00  0.00     0.243 C 
ATOM     84  H   UNL A   1      45.289  30.145  24.736  1.00  0.00     0.164 HD
ATOM     85  O   UNL A   1      47.177  28.646  24.393  1.00  0.00    -0.273 OA
BRANCH  83  86
ATOM     86  C   UNL A   1      46.496  27.547  26.459  1.00  0.00     0.175 C 
BRANCH  86  87
ATOM     87  N   UNL A   1      46.366  26.265  25.714  1.00  0.00    -0.342 N 
ATOM     88  C   UNL A   1      45.337  25.503  25.260  1.00  0.00     0.240 C 
ATOM     89  H   UNL A   1      47.243  25.872  25.498  1.00  0.00     0.164 HD
ATOM     90  O   UNL A   1      45.653  24.459  24.674  1.00  0.00    -0.273 OA
BRANCH  88  91
ATOM     91  C   UNL A   1      43.859  25.934  25.256  1.00  0.00     0.216 C 
BRANCH  91  92
ATOM     92  N   UNL A   1      43.253  26.068  26.551  1.00  0.00    -0.346 N 
ATOM     93  C   UNL A   1      42.586  25.133  27.255  1.00  0.00     0.239 C 
ATOM     94  H   UNL A   1      43.337  26.951  26.977  1.00  0.00     0.164 HD
ATOM     95  O   UNL A   1      41.676  25.563  27.956  1.00  0.00    -0.273 OA
BRANCH  93  96
ATOM     96  C   UNL A   1      42.790  23.637  27.102  1.00  0.00     0.219 C 
BRANCH  96  97
ATOM     97  N   UNL A   1      41.596  23.017  27.618  1.00  0.00    -0.312 N 
ATOM     98  C   UNL A   1      41.281  21.719  27.389  1.00  0.00     0.407 C 
ATOM     99  H   UNL A   1      40.981  23.561  28.162  1.00  0.00     0.167 HD
ATOM    100  O   UNL A   1      40.116  21.342  27.364  1.00  0.00    -0.225 OA
BRANCH  98 101
ATOM    101  O   UNL A   1      42.389  20.971  27.188  1.00  0.00    -0.445 OA
BRANCH 101 102
ATOM    102  C   UNL A   1      42.471  20.149  26.013  1.00  0.00     0.270 C 
BRANCH 102 103
ATOM    103  C   UNL A   1      43.872  20.003  25.488  1.00  0.00    -0.011 A 
ATOM    104  C   UNL A   1      44.501  18.753  25.547  1.00  0.00     0.007 A 
ATOM    105  C   UNL A   1      44.598  21.123  25.060  1.00  0.00     0.007 A 
ATOM    106  C   UNL A   1      45.854  18.635  25.239  1.00  0.00     0.000 A 
ATOM    107  C   UNL A   1      45.953  21.004  24.760  1.00  0.00     0.000 A 
ATOM    108  C   UNL A   1      46.582  19.762  24.861  1.00  0.00     0.000 A 
ENDBRANCH 102 103
ENDBRANCH 101 102
ENDBRANCH  98 101
ENDBRANCH  96  97
ENDBRANCH  93  96
ENDBRANCH  91  92
ENDBRANCH  88  91
ENDBRANCH  86  87
BRANCH  86 109
ATOM    109  C   UNL A   1      47.660  27.438  27.458  1.00  0.00     0.070 C 
BRANCH 109 110
ATOM    110  C   UNL A   1      48.949  26.746  27.055  1.00  0.00    -0.045 A 
ATOM    111  C   UNL A   1      49.254  25.517  27.667  1.00  0.00     0.004 A 
ATOM    112  C   UNL A   1      49.839  27.239  26.093  1.00  0.00     0.004 A 
ATOM    113  C   UNL A   1      50.425  24.824  27.349  1.00  0.00     0.000 A 
ATOM    114  C   UNL A   1      51.016  26.553  25.784  1.00  0.00     0.000 A 
ATOM    115  C   UNL A   1      51.311  25.347  26.413  1.00  0.00     0.000 A 
ENDBRANCH 109 110
ENDBRANCH  86 109
ENDBRANCH  83  86
ENDBRANCH   1  82
TORSDOF 28
ENDMDL
