MODEL 1
REMARK VINA RESULT:     -11.2      0.000      0.000
REMARK SMILES CCCCc1cc(S(F)(F)(F)(F)F)cc2c1O[C@@H](C(F)(F)F)C(C(=O)OCCOC(=O)c1ccc(-c3c4nc(c(-c5c(F)cc(S(=O)(=O)[O-])cc5F)c5ccc([nH]5)c(-c5c(F)cc(S(=O)(=O)[O-])cc5F)c5nc(c(-c6c(F)cc(S(=O)(=O)[O-])cc6F)c6ccc3[nH]6)C=C5)C=C4)cc1)=C2
REMARK SMILES IDX 27 1 26 2 24 3 25 4 23 5 5 6 6 7 16 8 7 9 15 10 17 11 14 12
REMARK SMILES IDX 98 13 18 14 4 15 3 16 2 17 1 18 8 19 9 20 10 21 11 22 12 23
REMARK SMILES IDX 13 24 19 25 20 26 21 27 22 28 28 29 29 30 30 31 31 32 32 33
REMARK SMILES IDX 33 34 97 35 34 36 96 37 35 38 36 39 37 40 90 41 38 42 95 43
REMARK SMILES IDX 89 44 91 45 39 46 94 47 88 48 87 49 40 51 74 52 53 53 73 54
REMARK SMILES IDX 54 55 57 56 72 57 92 58 55 59 56 60 71 62 93 63 58 64 41 65
REMARK SMILES IDX 42 66 51 67 43 68 44 69 50 70 52 71 45 72 46 73 47 74 48 75
REMARK SMILES IDX 49 76 75 77 76 78 85 79 77 80 78 81 84 82 86 83 79 84 80 85
REMARK SMILES IDX 81 86 82 87 83 88 59 89 60 90 69 91 61 92 62 93 68 94 70 95
REMARK SMILES IDX 63 96 64 97 65 98 66 99 67 100
REMARK H PARENT 91 50 57 61
REMARK Flexibility Score: inf
ROOT
ATOM      1  C   UNL A   1      32.056  29.846  25.698  1.00  0.00     0.275 C 
ENDROOT
BRANCH   1   2
ATOM      2  O   UNL A   1      31.456  28.715  25.082  1.00  0.00    -0.459 OA
BRANCH   2   3
ATOM      3  C   UNL A   1      32.116  28.057  24.010  1.00  0.00     0.338 C 
ATOM      4  O   UNL A   1      32.288  28.659  22.904  1.00  0.00    -0.246 OA
BRANCH   3   5
ATOM      5  C   UNL A   1      32.617  26.634  24.187  1.00  0.00     0.087 C 
ATOM      6  C   UNL A   1      33.707  22.705  25.096  1.00  0.00    -0.004 A 
ATOM      7  C   UNL A   1      35.011  22.416  25.457  1.00  0.00     0.032 A 
ATOM      8  C   UNL A   1      33.363  24.013  24.854  1.00  0.00     0.131 A 
ATOM      9  C   UNL A   1      35.945  23.411  25.578  1.00  0.00     0.108 A 
ATOM     10  C   UNL A   1      34.284  25.041  24.948  1.00  0.00     0.019 A 
ATOM     11  O   UNL A   1      32.042  24.296  24.608  1.00  0.00    -0.475 OA
ATOM     12  C   UNL A   1      35.584  24.716  25.317  1.00  0.00     0.036 A 
ATOM     13  C   UNL A   1      33.813  26.395  24.711  1.00  0.00     0.027 C 
ATOM     14  C   UNL A   1      31.757  25.449  23.766  1.00  0.00     0.316 C 
BRANCH   6  15
ATOM     15  C   UNL A   1      32.675  21.596  24.970  1.00  0.00     0.039 C 
BRANCH  15  16
ATOM     16  C   UNL A   1      33.238  20.310  25.552  1.00  0.00     0.005 C 
BRANCH  16  17
ATOM     17  C   UNL A   1      33.505  19.321  24.430  1.00  0.00    -0.003 C 
ATOM     18  C   UNL A   1      32.430  19.461  23.364  1.00  0.00     0.004 C 
ENDBRANCH  16  17
ENDBRANCH  15  16
ENDBRANCH   6  15
BRANCH   9  19
ATOM     19  S   UNL A   1      37.639  23.014  26.074  1.00  0.00     0.310 S 
ATOM     20  F   UNL A   1      38.237  24.207  25.215  1.00  0.00    -0.094 F 
ATOM     21  F   UNL A   1      37.773  22.114  24.788  1.00  0.00    -0.094 F 
ATOM     22  F   UNL A   1      39.095  22.673  26.500  1.00  0.00    -0.094 F 
ATOM     23  F   UNL A   1      37.534  24.030  27.279  1.00  0.00    -0.094 F 
ATOM     24  F   UNL A   1      36.200  23.457  25.593  1.00  0.00    -0.094 F 
ENDBRANCH   9  19
BRANCH  14  25
ATOM     25  C   UNL A   1      30.291  25.822  23.916  1.00  0.00     0.430 C 
ATOM     26  F   UNL A   1      30.022  26.878  23.154  1.00  0.00    -0.167 F 
ATOM     27  F   UNL A   1      29.532  24.798  23.537  1.00  0.00    -0.167 F 
ATOM     28  F   UNL A   1      30.036  26.116  25.187  1.00  0.00    -0.167 F 
ENDBRANCH  14  25
ENDBRANCH   3   5
ENDBRANCH   2   3
ENDBRANCH   1   2
BRANCH   1  29
ATOM     29  C   UNL A   1      32.393  29.516  27.142  1.00  0.00     0.275 C 
BRANCH  29  30
ATOM     30  O   UNL A   1      33.783  29.248  27.255  1.00  0.00    -0.458 OA
BRANCH  30  31
ATOM     31  C   UNL A   1      34.634  30.178  27.911  1.00  0.00     0.338 C 
ATOM     32  O   UNL A   1      34.189  31.320  28.245  1.00  0.00    -0.246 OA
BRANCH  31  33
ATOM     33  C   UNL A   1      36.076  29.805  28.214  1.00  0.00     0.060 A 
ATOM     34  C   UNL A   1      36.417  29.402  29.494  1.00  0.00     0.016 A 
ATOM     35  C   UNL A   1      36.984  29.870  27.247  1.00  0.00     0.016 A 
ATOM     36  C   UNL A   1      37.812  29.363  29.730  1.00  0.00     0.010 A 
ATOM     37  C   UNL A   1      38.317  29.688  27.526  1.00  0.00     0.010 A 
ATOM     38  C   UNL A   1      38.732  29.346  28.782  1.00  0.00    -0.014 A 
BRANCH  38  39
ATOM     39  C   UNL A   1      40.174  28.965  29.073  1.00  0.00     0.031 A 
ATOM     40  C   UNL A   1      40.593  27.675  28.742  1.00  0.00     0.074 A 
ATOM     41  C   UNL A   1      40.993  29.920  29.652  1.00  0.00     0.049 A 
ATOM     42  N   UNL A   1      41.813  27.155  28.883  1.00  0.00    -0.248 NA
ATOM     43  C   UNL A   1      39.716  26.649  28.159  1.00  0.00     0.031 C 
ATOM     44  C   UNL A   1      40.580  31.226  29.980  1.00  0.00     0.029 A 
ATOM     45  N   UNL A   1      42.317  29.793  30.010  1.00  0.00    -0.354 N 
ATOM     46  C   UNL A   1      41.832  25.897  28.437  1.00  0.00     0.074 A 
ATOM     47  C   UNL A   1      40.482  25.551  27.972  1.00  0.00     0.031 C 
ATOM     48  C   UNL A   1      41.637  31.874  30.538  1.00  0.00     0.029 A 
ATOM     49  C   UNL A   1      42.728  30.984  30.568  1.00  0.00     0.049 A 
ATOM     50  H   UNL A   1      42.874  28.991  29.888  1.00  0.00     0.167 HD
ATOM     51  C   UNL A   1      42.921  25.025  28.400  1.00  0.00     0.037 A 
ATOM     52  C   UNL A   1      43.978  31.295  31.080  1.00  0.00     0.037 A 
ATOM     53  C   UNL A   1      44.183  25.351  28.873  1.00  0.00     0.049 A 
ATOM     54  C   UNL A   1      45.052  30.403  31.095  1.00  0.00     0.074 A 
ATOM     55  C   UNL A   1      45.293  24.487  28.835  1.00  0.00     0.029 A 
ATOM     56  N   UNL A   1      44.587  26.533  29.453  1.00  0.00    -0.354 N 
ATOM     57  N   UNL A   1      45.081  29.160  30.614  1.00  0.00    -0.248 NA
ATOM     58  C   UNL A   1      46.371  30.711  31.665  1.00  0.00     0.031 C 
ATOM     59  C   UNL A   1      46.350  25.135  29.393  1.00  0.00     0.029 A 
ATOM     60  C   UNL A   1      45.917  26.414  29.790  1.00  0.00     0.049 A 
ATOM     61  H   UNL A   1      44.022  27.326  29.602  1.00  0.00     0.167 HD
ATOM     62  C   UNL A   1      46.291  28.625  30.793  1.00  0.00     0.074 A 
ATOM     63  C   UNL A   1      47.136  29.612  31.479  1.00  0.00     0.031 C 
ATOM     64  C   UNL A   1      46.725  27.355  30.410  1.00  0.00     0.037 A 
BRANCH  51  65
ATOM     65  C   UNL A   1      42.713  23.642  27.807  1.00  0.00     0.058 A 
ATOM     66  C   UNL A   1      42.877  23.488  26.441  1.00  0.00     0.135 A 
ATOM     67  C   UNL A   1      42.465  22.599  28.592  1.00  0.00     0.135 A 
ATOM     68  F   UNL A   1      43.370  24.444  25.658  1.00  0.00    -0.206 F 
ATOM     69  C   UNL A   1      42.474  22.222  25.953  1.00  0.00     0.059 A 
ATOM     70  C   UNL A   1      42.214  21.361  28.052  1.00  0.00     0.059 A 
ATOM     71  F   UNL A   1      42.462  22.756  29.913  1.00  0.00    -0.206 F 
ATOM     72  C   UNL A   1      42.301  21.151  26.704  1.00  0.00     0.060 A 
BRANCH  72  73
ATOM     73  S   UNL A   1      42.185  19.493  25.988  1.00  0.00     0.124 S 
ATOM     74  O   UNL A   1      42.663  18.460  27.011  1.00  0.00    -0.237 OA
ATOM     75  O   UNL A   1      40.731  19.202  25.610  1.00  0.00    -0.237 OA
ATOM     76  O   UNL A   1      43.166  19.406  24.590  1.00  0.00    -0.744 OA
ENDBRANCH  72  73
ENDBRANCH  51  65
BRANCH  52  77
ATOM     77  C   UNL A   1      44.190  32.685  31.658  1.00  0.00     0.058 A 
ATOM     78  C   UNL A   1      44.009  32.893  33.015  1.00  0.00     0.135 A 
ATOM     79  C   UNL A   1      44.460  33.692  30.836  1.00  0.00     0.135 A 
ATOM     80  F   UNL A   1      43.989  31.904  33.904  1.00  0.00    -0.206 F 
ATOM     81  C   UNL A   1      43.846  34.254  33.370  1.00  0.00     0.059 A 
ATOM     82  C   UNL A   1      44.417  34.991  31.283  1.00  0.00     0.059 A 
ATOM     83  F   UNL A   1      44.777  33.443  29.569  1.00  0.00    -0.206 F 
ATOM     84  C   UNL A   1      44.184  35.273  32.601  1.00  0.00     0.060 A 
BRANCH  84  85
ATOM     85  S   UNL A   1      44.331  36.954  33.256  1.00  0.00     0.124 S 
ATOM     86  O   UNL A   1      45.392  36.981  34.359  1.00  0.00    -0.237 OA
ATOM     87  O   UNL A   1      44.739  37.906  32.131  1.00  0.00    -0.237 OA
ATOM     88  O   UNL A   1      42.826  37.447  33.903  1.00  0.00    -0.744 OA
ENDBRANCH  84  85
ENDBRANCH  52  77
BRANCH  64  89
ATOM     89  C   UNL A   1      48.172  26.982  30.687  1.00  0.00     0.058 A 
ATOM     90  C   UNL A   1      48.494  26.355  31.880  1.00  0.00     0.135 A 
ATOM     91  C   UNL A   1      49.103  27.260  29.782  1.00  0.00     0.135 A 
ATOM     92  F   UNL A   1      47.581  25.833  32.694  1.00  0.00    -0.206 F 
ATOM     93  C   UNL A   1      49.881  26.320  32.153  1.00  0.00     0.059 A 
ATOM     94  C   UNL A   1      50.433  27.074  30.068  1.00  0.00     0.059 A 
ATOM     95  F   UNL A   1      48.744  27.724  28.589  1.00  0.00    -0.206 F 
ATOM     96  C   UNL A   1      50.827  26.514  31.252  1.00  0.00     0.060 A 
BRANCH  96  97
ATOM     97  S   UNL A   1      52.552  26.063  31.567  1.00  0.00     0.124 S 
ATOM     98  O   UNL A   1      53.161  27.046  32.568  1.00  0.00    -0.237 OA
ATOM     99  O   UNL A   1      52.611  24.645  32.142  1.00  0.00    -0.237 OA
ATOM    100  O   UNL A   1      53.432  26.120  30.102  1.00  0.00    -0.744 OA
ENDBRANCH  96  97
ENDBRANCH  64  89
ENDBRANCH  38  39
ENDBRANCH  31  33
ENDBRANCH  30  31
ENDBRANCH  29  30
ENDBRANCH   1  29
TORSDOF 19
ENDMDL
MODEL 2
REMARK VINA RESULT:     -11.2      3.222      9.191
REMARK SMILES CCCCc1cc(S(F)(F)(F)(F)F)cc2c1O[C@@H](C(F)(F)F)C(C(=O)OCCOC(=O)c1ccc(-c3c4nc(c(-c5c(F)cc(S(=O)(=O)[O-])cc5F)c5ccc([nH]5)c(-c5c(F)cc(S(=O)(=O)[O-])cc5F)c5nc(c(-c6c(F)cc(S(=O)(=O)[O-])cc6F)c6ccc3[nH]6)C=C5)C=C4)cc1)=C2
REMARK SMILES IDX 27 1 26 2 24 3 25 4 23 5 5 6 6 7 16 8 7 9 15 10 17 11 14 12
REMARK SMILES IDX 98 13 18 14 4 15 3 16 2 17 1 18 8 19 9 20 10 21 11 22 12 23
REMARK SMILES IDX 13 24 19 25 20 26 21 27 22 28 28 29 29 30 30 31 31 32 32 33
REMARK SMILES IDX 33 34 97 35 34 36 96 37 35 38 36 39 37 40 90 41 38 42 95 43
REMARK SMILES IDX 89 44 91 45 39 46 94 47 88 48 87 49 40 51 74 52 53 53 73 54
REMARK SMILES IDX 54 55 57 56 72 57 92 58 55 59 56 60 71 62 93 63 58 64 41 65
REMARK SMILES IDX 42 66 51 67 43 68 44 69 50 70 52 71 45 72 46 73 47 74 48 75
REMARK SMILES IDX 49 76 75 77 76 78 85 79 77 80 78 81 84 82 86 83 79 84 80 85
REMARK SMILES IDX 81 86 82 87 83 88 59 89 60 90 69 91 61 92 62 93 68 94 70 95
REMARK SMILES IDX 63 96 64 97 65 98 66 99 67 100
REMARK H PARENT 91 50 57 61
REMARK Flexibility Score: inf
ROOT
ATOM      1  C   UNL A   1      36.140  21.405  25.362  1.00  0.00     0.275 C 
ENDROOT
BRANCH   1   2
ATOM      2  O   UNL A   1      35.075  21.561  24.435  1.00  0.00    -0.459 OA
BRANCH   2   3
ATOM      3  C   UNL A   1      34.946  22.769  23.698  1.00  0.00     0.338 C 
ATOM      4  O   UNL A   1      35.626  22.941  22.638  1.00  0.00    -0.246 OA
BRANCH   3   5
ATOM      5  C   UNL A   1      33.996  23.853  24.177  1.00  0.00     0.087 C 
ATOM      6  C   UNL A   1      31.317  26.950  25.001  1.00  0.00    -0.004 A 
ATOM      7  C   UNL A   1      31.757  28.090  25.649  1.00  0.00     0.032 A 
ATOM      8  C   UNL A   1      32.230  25.970  24.695  1.00  0.00     0.131 A 
ATOM      9  C   UNL A   1      33.078  28.247  25.978  1.00  0.00     0.108 A 
ATOM     10  C   UNL A   1      33.567  26.086  25.028  1.00  0.00     0.019 A 
ATOM     11  O   UNL A   1      31.799  24.897  23.953  1.00  0.00    -0.475 OA
ATOM     12  C   UNL A   1      33.977  27.246  25.674  1.00  0.00     0.036 A 
ATOM     13  C   UNL A   1      34.461  25.012  24.626  1.00  0.00     0.027 C 
ATOM     14  C   UNL A   1      32.489  23.632  24.153  1.00  0.00     0.316 C 
BRANCH   6  15
ATOM     15  C   UNL A   1      29.851  26.785  24.634  1.00  0.00     0.039 C 
BRANCH  15  16
ATOM     16  C   UNL A   1      29.632  27.243  23.202  1.00  0.00     0.005 C 
BRANCH  16  17
ATOM     17  C   UNL A   1      29.220  28.706  23.195  1.00  0.00    -0.003 C 
ATOM     18  C   UNL A   1      27.720  28.808  22.967  1.00  0.00     0.004 C 
ENDBRANCH  16  17
ENDBRANCH  15  16
ENDBRANCH   6  15
BRANCH   9  19
ATOM     19  S   UNL A   1      33.638  29.757  26.804  1.00  0.00     0.310 S 
ATOM     20  F   UNL A   1      32.322  29.837  27.686  1.00  0.00    -0.094 F 
ATOM     21  F   UNL A   1      32.875  30.601  25.714  1.00  0.00    -0.094 F 
ATOM     22  F   UNL A   1      34.119  31.054  27.513  1.00  0.00    -0.094 F 
ATOM     23  F   UNL A   1      34.277  28.896  27.964  1.00  0.00    -0.094 F 
ATOM     24  F   UNL A   1      33.062  28.434  26.158  1.00  0.00    -0.094 F 
ENDBRANCH   9  19
BRANCH  14  25
ATOM     25  C   UNL A   1      32.144  22.692  23.010  1.00  0.00     0.430 C 
ATOM     26  F   UNL A   1      32.451  21.444  23.354  1.00  0.00    -0.167 F 
ATOM     27  F   UNL A   1      30.842  22.771  22.749  1.00  0.00    -0.167 F 
ATOM     28  F   UNL A   1      32.835  23.037  21.928  1.00  0.00    -0.167 F 
ENDBRANCH  14  25
ENDBRANCH   3   5
ENDBRANCH   2   3
ENDBRANCH   1   2
BRANCH   1  29
ATOM     29  C   UNL A   1      37.429  21.921  24.744  1.00  0.00     0.275 C 
BRANCH  29  30
ATOM     30  O   UNL A   1      37.861  23.078  25.445  1.00  0.00    -0.458 OA
BRANCH  30  31
ATOM     31  C   UNL A   1      39.072  23.047  26.187  1.00  0.00     0.338 C 
ATOM     32  O   UNL A   1      39.781  21.993  26.203  1.00  0.00    -0.246 OA
BRANCH  31  33
ATOM     33  C   UNL A   1      39.520  24.277  26.961  1.00  0.00     0.060 A 
ATOM     34  C   UNL A   1      39.189  24.392  28.300  1.00  0.00     0.016 A 
ATOM     35  C   UNL A   1      40.222  25.219  26.341  1.00  0.00     0.016 A 
ATOM     36  C   UNL A   1      39.399  25.686  28.834  1.00  0.00     0.010 A 
ATOM     37  C   UNL A   1      40.507  26.406  26.970  1.00  0.00     0.010 A 
ATOM     38  C   UNL A   1      40.158  26.611  28.276  1.00  0.00    -0.014 A 
BRANCH  38  39
ATOM     39  C   UNL A   1      40.619  27.840  29.044  1.00  0.00     0.031 A 
ATOM     40  C   UNL A   1      39.742  28.922  29.140  1.00  0.00     0.074 A 
ATOM     41  C   UNL A   1      41.884  27.817  29.605  1.00  0.00     0.049 A 
ATOM     42  N   UNL A   1      39.936  30.070  29.789  1.00  0.00    -0.248 NA
ATOM     43  C   UNL A   1      38.411  28.960  28.516  1.00  0.00     0.031 C 
ATOM     44  C   UNL A   1      42.771  26.726  29.520  1.00  0.00     0.029 A 
ATOM     45  N   UNL A   1      42.507  28.812  30.326  1.00  0.00    -0.354 N 
ATOM     46  C   UNL A   1      38.862  30.854  29.669  1.00  0.00     0.074 A 
ATOM     47  C   UNL A   1      37.868  30.155  28.843  1.00  0.00     0.031 C 
ATOM     48  C   UNL A   1      43.916  27.062  30.171  1.00  0.00     0.029 A 
ATOM     49  C   UNL A   1      43.764  28.369  30.674  1.00  0.00     0.049 A 
ATOM     50  H   UNL A   1      42.121  29.687  30.554  1.00  0.00     0.167 HD
ATOM     51  C   UNL A   1      38.671  32.124  30.216  1.00  0.00     0.037 A 
ATOM     52  C   UNL A   1      44.737  29.050  31.388  1.00  0.00     0.037 A 
ATOM     53  C   UNL A   1      39.629  32.788  30.967  1.00  0.00     0.049 A 
ATOM     54  C   UNL A   1      44.568  30.344  31.887  1.00  0.00     0.074 A 
ATOM     55  C   UNL A   1      39.450  34.065  31.533  1.00  0.00     0.029 A 
ATOM     56  N   UNL A   1      40.894  32.355  31.294  1.00  0.00    -0.354 N 
ATOM     57  N   UNL A   1      43.481  31.110  31.800  1.00  0.00    -0.248 NA
ATOM     58  C   UNL A   1      45.604  31.088  32.615  1.00  0.00     0.031 C 
ATOM     59  C   UNL A   1      40.595  34.401  32.184  1.00  0.00     0.029 A 
ATOM     60  C   UNL A   1      41.509  33.340  32.035  1.00  0.00     0.049 A 
ATOM     61  H   UNL A   1      41.292  31.490  31.041  1.00  0.00     0.167 HD
ATOM     62  C   UNL A   1      43.690  32.277  32.414  1.00  0.00     0.074 A 
ATOM     63  C   UNL A   1      45.062  32.282  32.941  1.00  0.00     0.031 C 
ATOM     64  C   UNL A   1      42.792  33.335  32.559  1.00  0.00     0.037 A 
BRANCH  51  65
ATOM     65  C   UNL A   1      37.340  32.816  29.977  1.00  0.00     0.058 A 
ATOM     66  C   UNL A   1      36.305  32.559  30.862  1.00  0.00     0.135 A 
ATOM     67  C   UNL A   1      37.205  33.705  28.999  1.00  0.00     0.135 A 
ATOM     68  F   UNL A   1      36.470  31.879  31.992  1.00  0.00    -0.206 F 
ATOM     69  C   UNL A   1      35.057  33.087  30.453  1.00  0.00     0.059 A 
ATOM     70  C   UNL A   1      35.986  34.283  28.743  1.00  0.00     0.059 A 
ATOM     71  F   UNL A   1      38.261  34.038  28.263  1.00  0.00    -0.206 F 
ATOM     72  C   UNL A   1      34.905  34.029  29.541  1.00  0.00     0.060 A 
BRANCH  72  73
ATOM     73  S   UNL A   1      33.349  34.935  29.357  1.00  0.00     0.124 S 
ATOM     74  O   UNL A   1      33.642  36.360  28.882  1.00  0.00    -0.237 OA
ATOM     75  O   UNL A   1      32.466  34.226  28.328  1.00  0.00    -0.237 OA
ATOM     76  O   UNL A   1      32.540  34.990  30.862  1.00  0.00    -0.744 OA
ENDBRANCH  72  73
ENDBRANCH  51  65
BRANCH  52  77
ATOM     77  C   UNL A   1      46.063  28.350  31.641  1.00  0.00     0.058 A 
ATOM     78  C   UNL A   1      47.081  28.463  30.708  1.00  0.00     0.135 A 
ATOM     79  C   UNL A   1      46.190  27.574  32.710  1.00  0.00     0.135 A 
ATOM     80  F   UNL A   1      47.105  29.406  29.771  1.00  0.00    -0.206 F 
ATOM     81  C   UNL A   1      48.093  27.482  30.844  1.00  0.00     0.059 A 
ATOM     82  C   UNL A   1      47.273  26.739  32.844  1.00  0.00     0.059 A 
ATOM     83  F   UNL A   1      45.260  27.603  33.661  1.00  0.00    -0.206 F 
ATOM     84  C   UNL A   1      48.289  26.754  31.928  1.00  0.00     0.060 A 
BRANCH  84  85
ATOM     85  S   UNL A   1      49.821  25.825  32.188  1.00  0.00     0.124 S 
ATOM     86  O   UNL A   1      49.676  24.939  33.427  1.00  0.00    -0.237 OA
ATOM     87  O   UNL A   1      50.101  24.951  30.965  1.00  0.00    -0.237 OA
ATOM     88  O   UNL A   1      51.117  26.917  32.418  1.00  0.00    -0.744 OA
ENDBRANCH  84  85
ENDBRANCH  52  77
BRANCH  64  89
ATOM     89  C   UNL A   1      43.249  34.557  33.340  1.00  0.00     0.058 A 
ATOM     90  C   UNL A   1      43.036  34.606  34.708  1.00  0.00     0.135 A 
ATOM     91  C   UNL A   1      43.846  35.555  32.700  1.00  0.00     0.135 A 
ATOM     92  F   UNL A   1      42.680  33.544  35.424  1.00  0.00    -0.206 F 
ATOM     93  C   UNL A   1      43.232  35.888  35.273  1.00  0.00     0.059 A 
ATOM     94  C   UNL A   1      44.131  36.732  33.349  1.00  0.00     0.059 A 
ATOM     95  F   UNL A   1      44.170  35.415  31.417  1.00  0.00    -0.206 F 
ATOM     96  C   UNL A   1      43.892  36.872  34.688  1.00  0.00     0.060 A 
BRANCH  96  97
ATOM     97  S   UNL A   1      44.451  38.326  35.610  1.00  0.00     0.124 S 
ATOM     98  O   UNL A   1      43.886  39.590  34.959  1.00  0.00    -0.237 OA
ATOM     99  O   UNL A   1      43.959  38.233  37.057  1.00  0.00    -0.237 OA
ATOM    100  O   UNL A   1      46.159  38.389  35.592  1.00  0.00    -0.744 OA
ENDBRANCH  96  97
ENDBRANCH  64  89
ENDBRANCH  38  39
ENDBRANCH  31  33
ENDBRANCH  30  31
ENDBRANCH  29  30
ENDBRANCH   1  29
TORSDOF 19
ENDMDL
MODEL 3
REMARK VINA RESULT:     -11.1      4.902     10.251
REMARK SMILES CCCCc1cc(S(F)(F)(F)(F)F)cc2c1O[C@@H](C(F)(F)F)C(C(=O)OCCOC(=O)c1ccc(-c3c4nc(c(-c5c(F)cc(S(=O)(=O)[O-])cc5F)c5ccc([nH]5)c(-c5c(F)cc(S(=O)(=O)[O-])cc5F)c5nc(c(-c6c(F)cc(S(=O)(=O)[O-])cc6F)c6ccc3[nH]6)C=C5)C=C4)cc1)=C2
REMARK SMILES IDX 27 1 26 2 24 3 25 4 23 5 5 6 6 7 16 8 7 9 15 10 17 11 14 12
REMARK SMILES IDX 98 13 18 14 4 15 3 16 2 17 1 18 8 19 9 20 10 21 11 22 12 23
REMARK SMILES IDX 13 24 19 25 20 26 21 27 22 28 28 29 29 30 30 31 31 32 32 33
REMARK SMILES IDX 33 34 97 35 34 36 96 37 35 38 36 39 37 40 90 41 38 42 95 43
REMARK SMILES IDX 89 44 91 45 39 46 94 47 88 48 87 49 40 51 74 52 53 53 73 54
REMARK SMILES IDX 54 55 57 56 72 57 92 58 55 59 56 60 71 62 93 63 58 64 41 65
REMARK SMILES IDX 42 66 51 67 43 68 44 69 50 70 52 71 45 72 46 73 47 74 48 75
REMARK SMILES IDX 49 76 75 77 76 78 85 79 77 80 78 81 84 82 86 83 79 84 80 85
REMARK SMILES IDX 81 86 82 87 83 88 59 89 60 90 69 91 61 92 62 93 68 94 70 95
REMARK SMILES IDX 63 96 64 97 65 98 66 99 67 100
REMARK H PARENT 91 50 57 61
REMARK Flexibility Score: inf
ROOT
ATOM      1  C   UNL A   1      37.760  22.528  25.435  1.00  0.00     0.275 C 
ENDROOT
BRANCH   1   2
ATOM      2  O   UNL A   1      36.565  22.705  24.687  1.00  0.00    -0.459 OA
BRANCH   2   3
ATOM      3  C   UNL A   1      35.302  22.547  25.317  1.00  0.00     0.338 C 
ATOM      4  O   UNL A   1      35.059  21.501  25.998  1.00  0.00    -0.246 OA
BRANCH   3   5
ATOM      5  C   UNL A   1      34.244  23.628  25.179  1.00  0.00     0.087 C 
ATOM      6  C   UNL A   1      31.533  26.692  24.335  1.00  0.00    -0.004 A 
ATOM      7  C   UNL A   1      31.576  27.870  25.058  1.00  0.00     0.032 A 
ATOM      8  C   UNL A   1      32.470  25.722  24.597  1.00  0.00     0.131 A 
ATOM      9  C   UNL A   1      32.535  28.075  26.015  1.00  0.00     0.108 A 
ATOM     10  C   UNL A   1      33.441  25.885  25.568  1.00  0.00     0.019 A 
ATOM     11  O   UNL A   1      32.484  24.607  23.795  1.00  0.00    -0.475 OA
ATOM     12  C   UNL A   1      33.458  27.083  26.273  1.00  0.00     0.036 A 
ATOM     13  C   UNL A   1      34.411  24.818  25.743  1.00  0.00     0.027 C 
ATOM     14  C   UNL A   1      32.968  23.369  24.388  1.00  0.00     0.316 C 
BRANCH   6  15
ATOM     15  C   UNL A   1      30.469  26.475  23.271  1.00  0.00     0.039 C 
BRANCH  15  16
ATOM     16  C   UNL A   1      29.140  27.021  23.764  1.00  0.00     0.005 C 
BRANCH  16  17
ATOM     17  C   UNL A   1      28.804  28.296  23.007  1.00  0.00    -0.003 C 
ATOM     18  C   UNL A   1      27.314  28.576  23.124  1.00  0.00     0.004 C 
ENDBRANCH  16  17
ENDBRANCH  15  16
ENDBRANCH   6  15
BRANCH   9  19
ATOM     19  S   UNL A   1      32.588  29.633  26.933  1.00  0.00     0.310 S 
ATOM     20  F   UNL A   1      31.467  30.283  26.018  1.00  0.00    -0.094 F 
ATOM     21  F   UNL A   1      33.647  30.172  25.899  1.00  0.00    -0.094 F 
ATOM     22  F   UNL A   1      32.635  30.972  27.722  1.00  0.00    -0.094 F 
ATOM     23  F   UNL A   1      31.425  29.129  27.875  1.00  0.00    -0.094 F 
ATOM     24  F   UNL A   1      32.449  28.312  26.077  1.00  0.00    -0.094 F 
ENDBRANCH   9  19
BRANCH  14  25
ATOM     25  C   UNL A   1      33.263  22.371  23.282  1.00  0.00     0.430 C 
ATOM     26  F   UNL A   1      33.260  21.139  23.783  1.00  0.00    -0.167 F 
ATOM     27  F   UNL A   1      32.331  22.466  22.338  1.00  0.00    -0.167 F 
ATOM     28  F   UNL A   1      34.455  22.632  22.754  1.00  0.00    -0.167 F 
ENDBRANCH  14  25
ENDBRANCH   3   5
ENDBRANCH   2   3
ENDBRANCH   1   2
BRANCH   1  29
ATOM     29  C   UNL A   1      38.173  23.854  26.051  1.00  0.00     0.275 C 
BRANCH  29  30
ATOM     30  O   UNL A   1      39.437  23.711  26.681  1.00  0.00    -0.458 OA
BRANCH  30  31
ATOM     31  C   UNL A   1      40.363  24.788  26.667  1.00  0.00     0.338 C 
ATOM     32  O   UNL A   1      41.220  24.877  25.734  1.00  0.00    -0.246 OA
BRANCH  31  33
ATOM     33  C   UNL A   1      40.329  25.833  27.771  1.00  0.00     0.060 A 
ATOM     34  C   UNL A   1      41.302  26.818  27.802  1.00  0.00     0.016 A 
ATOM     35  C   UNL A   1      39.366  25.786  28.685  1.00  0.00     0.016 A 
ATOM     36  C   UNL A   1      41.342  27.546  29.014  1.00  0.00     0.010 A 
ATOM     37  C   UNL A   1      39.397  26.620  29.776  1.00  0.00     0.010 A 
ATOM     38  C   UNL A   1      40.364  27.578  29.901  1.00  0.00    -0.014 A 
BRANCH  38  39
ATOM     39  C   UNL A   1      40.315  28.625  31.003  1.00  0.00     0.031 A 
ATOM     40  C   UNL A   1      39.392  29.666  30.880  1.00  0.00     0.074 A 
ATOM     41  C   UNL A   1      41.190  28.488  32.066  1.00  0.00     0.049 A 
ATOM     42  N   UNL A   1      39.168  30.659  31.741  1.00  0.00    -0.248 NA
ATOM     43  C   UNL A   1      38.486  29.831  29.734  1.00  0.00     0.031 C 
ATOM     44  C   UNL A   1      42.118  27.436  32.202  1.00  0.00     0.029 A 
ATOM     45  N   UNL A   1      41.329  29.316  33.159  1.00  0.00    -0.354 N 
ATOM     46  C   UNL A   1      38.194  31.451  31.287  1.00  0.00     0.074 A 
ATOM     47  C   UNL A   1      37.746  30.935  29.986  1.00  0.00     0.031 C 
ATOM     48  C   UNL A   1      42.813  27.633  33.354  1.00  0.00     0.029 A 
ATOM     49  C   UNL A   1      42.331  28.810  33.958  1.00  0.00     0.049 A 
ATOM     50  H   UNL A   1      40.802  30.127  33.339  1.00  0.00     0.167 HD
ATOM     51  C   UNL A   1      37.662  32.584  31.905  1.00  0.00     0.037 A 
ATOM     52  C   UNL A   1      42.812  29.333  35.147  1.00  0.00     0.037 A 
ATOM     53  C   UNL A   1      38.115  33.081  33.117  1.00  0.00     0.049 A 
ATOM     54  C   UNL A   1      42.319  30.498  35.738  1.00  0.00     0.074 A 
ATOM     55  C   UNL A   1      37.585  34.217  33.758  1.00  0.00     0.029 A 
ATOM     56  N   UNL A   1      39.134  32.590  33.903  1.00  0.00    -0.354 N 
ATOM     57  N   UNL A   1      41.321  31.267  35.303  1.00  0.00    -0.248 NA
ATOM     58  C   UNL A   1      42.845  31.079  36.981  1.00  0.00     0.031 C 
ATOM     59  C   UNL A   1      38.280  34.413  34.910  1.00  0.00     0.029 A 
ATOM     60  C   UNL A   1      39.257  33.405  35.007  1.00  0.00     0.049 A 
ATOM     61  H   UNL A   1      39.680  31.794  33.709  1.00  0.00     0.167 HD
ATOM     62  C   UNL A   1      41.124  32.285  36.144  1.00  0.00     0.074 A 
ATOM     63  C   UNL A   1      42.107  32.183  37.232  1.00  0.00     0.031 C 
ATOM     64  C   UNL A   1      40.163  33.293  36.050  1.00  0.00     0.037 A 
BRANCH  51  65
ATOM     65  C   UNL A   1      36.522  33.311  31.212  1.00  0.00     0.058 A 
ATOM     66  C   UNL A   1      36.825  34.101  30.116  1.00  0.00     0.135 A 
ATOM     67  C   UNL A   1      35.265  33.121  31.598  1.00  0.00     0.135 A 
ATOM     68  F   UNL A   1      38.025  34.117  29.543  1.00  0.00    -0.206 F 
ATOM     69  C   UNL A   1      35.742  34.889  29.659  1.00  0.00     0.059 A 
ATOM     70  C   UNL A   1      34.240  33.827  31.014  1.00  0.00     0.059 A 
ATOM     71  F   UNL A   1      34.997  32.240  32.557  1.00  0.00    -0.206 F 
ATOM     72  C   UNL A   1      34.476  34.670  29.964  1.00  0.00     0.060 A 
BRANCH  72  73
ATOM     73  S   UNL A   1      33.126  35.446  29.043  1.00  0.00     0.124 S 
ATOM     74  O   UNL A   1      32.117  36.046  30.025  1.00  0.00    -0.237 OA
ATOM     75  O   UNL A   1      33.688  36.552  28.149  1.00  0.00    -0.237 OA
ATOM     76  O   UNL A   1      32.347  34.270  28.075  1.00  0.00    -0.744 OA
ENDBRANCH  72  73
ENDBRANCH  51  65
BRANCH  52  77
ATOM     77  C   UNL A   1      43.943  28.595  35.849  1.00  0.00     0.058 A 
ATOM     78  C   UNL A   1      43.641  27.614  36.779  1.00  0.00     0.135 A 
ATOM     79  C   UNL A   1      45.196  28.966  35.620  1.00  0.00     0.135 A 
ATOM     80  F   UNL A   1      42.446  27.036  36.863  1.00  0.00    -0.206 F 
ATOM     81  C   UNL A   1      44.721  27.284  37.633  1.00  0.00     0.059 A 
ATOM     82  C   UNL A   1      46.220  28.498  36.408  1.00  0.00     0.059 A 
ATOM     83  F   UNL A   1      45.465  29.798  34.618  1.00  0.00    -0.206 F 
ATOM     84  C   UNL A   1      45.986  27.571  37.386  1.00  0.00     0.060 A 
BRANCH  84  85
ATOM     85  S   UNL A   1      47.337  26.781  38.294  1.00  0.00     0.124 S 
ATOM     86  O   UNL A   1      48.154  27.849  39.026  1.00  0.00    -0.237 OA
ATOM     87  O   UNL A   1      46.760  25.794  39.311  1.00  0.00    -0.237 OA
ATOM     88  O   UNL A   1      48.348  25.944  37.197  1.00  0.00    -0.744 OA
ENDBRANCH  84  85
ENDBRANCH  52  77
BRANCH  64  89
ATOM     89  C   UNL A   1      40.106  34.330  37.159  1.00  0.00     0.058 A 
ATOM     90  C   UNL A   1      39.376  34.059  38.305  1.00  0.00     0.135 A 
ATOM     91  C   UNL A   1      40.757  35.478  37.014  1.00  0.00     0.135 A 
ATOM     92  F   UNL A   1      38.924  32.845  38.606  1.00  0.00    -0.206 F 
ATOM     93  C   UNL A   1      39.156  35.189  39.126  1.00  0.00     0.059 A 
ATOM     94  C   UNL A   1      40.601  36.492  37.927  1.00  0.00     0.059 A 
ATOM     95  F   UNL A   1      41.568  35.648  35.973  1.00  0.00    -0.206 F 
ATOM     96  C   UNL A   1      39.846  36.314  39.053  1.00  0.00     0.060 A 
BRANCH  96  97
ATOM     97  S   UNL A   1      39.795  37.551  40.373  1.00  0.00     0.124 S 
ATOM     98  O   UNL A   1      39.089  38.810  39.865  1.00  0.00    -0.237 OA
ATOM     99  O   UNL A   1      39.029  36.986  41.573  1.00  0.00    -0.237 OA
ATOM    100  O   UNL A   1      41.389  37.944  40.848  1.00  0.00    -0.744 OA
ENDBRANCH  96  97
ENDBRANCH  64  89
ENDBRANCH  38  39
ENDBRANCH  31  33
ENDBRANCH  30  31
ENDBRANCH  29  30
ENDBRANCH   1  29
TORSDOF 19
ENDMDL
