MODEL 1
REMARK VINA RESULT:     -14.0      0.000      0.000
REMARK SMILES Cc1ccccc1OC1(C(=O)OCCOC(=O)c2ccc(-c3c4nc(c(-c5c(F)cc(S(=O)(=O)[O-])cc5F)c5ccc([nH]5)c(-c5c(F)cc(S(=O)(=O)[O-])cc5F)c5nc(c(-c6c(F)cc(S(=O)(=O)[O-])cc6F)c6ccc3[nH]6)C=C5)C=C4)cc2)CCN(C(=O)[C@H]2CCCCO2)CC1
REMARK SMILES IDX 14 1 13 2 12 3 10 4 11 5 9 6 84 7 96 8 85 9 95 10 86 11
REMARK SMILES IDX 87 12 88 13 8 14 7 15 1 16 2 17 3 18 4 19 6 20 5 21 89 22
REMARK SMILES IDX 90 23 94 24 91 25 93 26 92 27 15 28 16 29 17 30 18 31 19 32
REMARK SMILES IDX 83 33 20 34 82 35 21 36 22 37 23 38 76 39 24 40 81 41 75 42
REMARK SMILES IDX 77 43 25 44 80 45 74 46 73 47 26 49 60 50 39 51 59 52 40 53
REMARK SMILES IDX 43 54 58 55 78 56 41 57 42 58 57 60 79 61 44 62 27 63 28 64
REMARK SMILES IDX 37 65 29 66 30 67 36 68 38 69 31 70 32 71 33 72 34 73 35 74
REMARK SMILES IDX 61 75 62 76 71 77 63 78 64 79 70 80 72 81 65 82 66 83 67 84
REMARK SMILES IDX 68 85 69 86 45 87 46 88 55 89 47 90 48 91 54 92 56 93 49 94
REMARK SMILES IDX 50 95 51 96 52 97 53 98
REMARK H PARENT 77 48 43 59
REMARK Flexibility Score: inf
ROOT
ATOM      1  C   UNL A   1      33.585  29.980  26.989  1.00  0.00     0.275 C 
ENDROOT
BRANCH   1   2
ATOM      2  C   UNL A   1      32.550  28.842  27.036  1.00  0.00     0.274 C 
BRANCH   2   3
ATOM      3  O   UNL A   1      32.346  28.243  25.735  1.00  0.00    -0.459 OA
BRANCH   3   4
ATOM      4  C   UNL A   1      31.480  27.183  25.741  1.00  0.00     0.350 C 
ATOM      5  O   UNL A   1      30.792  26.927  26.728  1.00  0.00    -0.247 OA
BRANCH   4   6
ATOM      6  C   UNL A   1      31.628  26.222  24.490  1.00  0.00     0.209 C 
ATOM      7  C   UNL A   1      33.147  26.049  24.408  1.00  0.00     0.082 C 
ATOM      8  C   UNL A   1      30.803  24.970  24.864  1.00  0.00     0.082 C 
ATOM      9  C   UNL A   1      33.658  24.768  25.029  1.00  0.00     0.124 C 
ATOM     10  C   UNL A   1      31.447  23.647  24.532  1.00  0.00     0.124 C 
ATOM     11  N   UNL A   1      32.882  23.556  24.791  1.00  0.00    -0.340 N 
ATOM     12  C   UNL A   1      33.586  22.349  24.878  1.00  0.00     0.251 C 
ATOM     13  O   UNL A   1      34.814  22.354  25.024  1.00  0.00    -0.272 OA
BRANCH   6  14
ATOM     14  O   UNL A   1      31.186  26.840  23.263  1.00  0.00    -0.475 OA
BRANCH  14  15
ATOM     15  C   UNL A   1      30.180  27.765  23.100  1.00  0.00     0.123 A 
ATOM     16  C   UNL A   1      27.955  26.602  23.889  1.00  0.00     0.048 C 
ATOM     17  C   UNL A   1      28.800  27.731  23.381  1.00  0.00    -0.009 A 
ATOM     18  C   UNL A   1      27.989  28.852  23.032  1.00  0.00     0.007 A 
ATOM     19  C   UNL A   1      28.487  29.956  22.356  1.00  0.00     0.001 A 
ATOM     20  C   UNL A   1      30.641  28.893  22.387  1.00  0.00     0.047 A 
ATOM     21  C   UNL A   1      29.822  29.966  22.014  1.00  0.00     0.004 A 
ENDBRANCH  14  15
ENDBRANCH   6  14
BRANCH  12  22
ATOM     22  C   UNL A   1      32.801  21.015  24.818  1.00  0.00     0.207 C 
ATOM     23  C   UNL A   1      32.711  20.482  23.384  1.00  0.00     0.042 C 
ATOM     24  O   UNL A   1      33.490  20.064  25.648  1.00  0.00    -0.368 OA
ATOM     25  C   UNL A   1      32.125  19.075  23.340  1.00  0.00     0.006 C 
ATOM     26  C   UNL A   1      32.848  18.798  25.705  1.00  0.00     0.161 C 
ATOM     27  C   UNL A   1      32.841  18.163  24.324  1.00  0.00     0.029 C 
ENDBRANCH  12  22
ENDBRANCH   4   6
ENDBRANCH   3   4
ENDBRANCH   2   3
ENDBRANCH   1   2
BRANCH   1  28
ATOM     28  O   UNL A   1      34.899  29.618  27.453  1.00  0.00    -0.458 OA
BRANCH  28  29
ATOM     29  C   UNL A   1      35.488  30.549  28.250  1.00  0.00     0.338 C 
ATOM     30  O   UNL A   1      34.856  31.385  28.896  1.00  0.00    -0.246 OA
BRANCH  29  31
ATOM     31  C   UNL A   1      36.880  30.083  28.505  1.00  0.00     0.060 A 
ATOM     32  C   UNL A   1      37.129  29.254  29.603  1.00  0.00     0.016 A 
ATOM     33  C   UNL A   1      37.830  30.185  27.482  1.00  0.00     0.016 A 
ATOM     34  C   UNL A   1      38.264  28.436  29.630  1.00  0.00     0.010 A 
ATOM     35  C   UNL A   1      38.911  29.326  27.467  1.00  0.00     0.010 A 
ATOM     36  C   UNL A   1      39.134  28.443  28.534  1.00  0.00    -0.014 A 
BRANCH  36  37
ATOM     37  C   UNL A   1      40.445  27.798  28.528  1.00  0.00     0.031 A 
ATOM     38  C   UNL A   1      40.712  26.402  28.096  1.00  0.00     0.074 A 
ATOM     39  C   UNL A   1      41.442  28.594  28.971  1.00  0.00     0.049 A 
ATOM     40  N   UNL A   1      41.656  25.664  28.588  1.00  0.00    -0.248 NA
ATOM     41  C   UNL A   1      39.946  25.713  27.060  1.00  0.00     0.031 C 
ATOM     42  C   UNL A   1      42.875  28.352  28.980  1.00  0.00     0.029 A 
ATOM     43  N   UNL A   1      41.336  29.797  29.662  1.00  0.00    -0.354 N 
ATOM     44  C   UNL A   1      41.788  24.541  27.793  1.00  0.00     0.074 A 
ATOM     45  C   UNL A   1      40.643  24.576  26.909  1.00  0.00     0.031 C 
ATOM     46  C   UNL A   1      43.427  29.157  29.909  1.00  0.00     0.029 A 
ATOM     47  C   UNL A   1      42.330  29.802  30.623  1.00  0.00     0.049 A 
ATOM     48  H   UNL A   1      40.676  30.509  29.498  1.00  0.00     0.167 HD
ATOM     49  C   UNL A   1      42.929  23.786  27.847  1.00  0.00     0.037 A 
ATOM     50  C   UNL A   1      42.083  29.677  31.962  1.00  0.00     0.037 A 
ATOM     51  C   UNL A   1      43.893  24.389  28.760  1.00  0.00     0.049 A 
ATOM     52  C   UNL A   1      42.844  28.511  32.547  1.00  0.00     0.074 A 
ATOM     53  C   UNL A   1      44.904  25.305  28.516  1.00  0.00     0.029 A 
ATOM     54  N   UNL A   1      43.703  24.354  30.135  1.00  0.00    -0.354 N 
ATOM     55  N   UNL A   1      43.095  27.407  31.896  1.00  0.00    -0.248 NA
ATOM     56  C   UNL A   1      43.432  28.533  33.882  1.00  0.00     0.031 C 
ATOM     57  C   UNL A   1      45.259  25.897  29.747  1.00  0.00     0.029 A 
ATOM     58  C   UNL A   1      44.500  25.307  30.743  1.00  0.00     0.049 A 
ATOM     59  H   UNL A   1      43.094  23.742  30.606  1.00  0.00     0.167 HD
ATOM     60  C   UNL A   1      43.942  26.635  32.648  1.00  0.00     0.074 A 
ATOM     61  C   UNL A   1      44.097  27.366  33.894  1.00  0.00     0.031 C 
ATOM     62  C   UNL A   1      44.515  25.488  32.182  1.00  0.00     0.037 A 
BRANCH  49  63
ATOM     63  C   UNL A   1      43.317  22.731  26.822  1.00  0.00     0.058 A 
ATOM     64  C   UNL A   1      42.792  21.418  26.890  1.00  0.00     0.135 A 
ATOM     65  C   UNL A   1      44.229  22.941  25.769  1.00  0.00     0.135 A 
ATOM     66  F   UNL A   1      41.833  21.089  27.765  1.00  0.00    -0.206 F 
ATOM     67  C   UNL A   1      43.236  20.372  26.079  1.00  0.00     0.059 A 
ATOM     68  C   UNL A   1      44.714  21.900  24.961  1.00  0.00     0.059 A 
ATOM     69  F   UNL A   1      44.663  24.176  25.474  1.00  0.00    -0.206 F 
ATOM     70  C   UNL A   1      44.230  20.610  25.144  1.00  0.00     0.060 A 
BRANCH  70  71
ATOM     71  S   UNL A   1      44.879  19.210  24.205  1.00  0.00     0.124 S 
ATOM     72  O   UNL A   1      44.166  18.085  24.802  1.00  0.00    -0.237 OA
ATOM     73  O   UNL A   1      44.496  19.550  22.840  1.00  0.00    -0.237 OA
ATOM     74  O   UNL A   1      46.312  19.251  24.482  1.00  0.00    -0.744 OA
ENDBRANCH  70  71
ENDBRANCH  49  63
BRANCH  50  75
ATOM     75  C   UNL A   1      40.749  30.143  32.449  1.00  0.00     0.058 A 
ATOM     76  C   UNL A   1      40.456  31.520  32.408  1.00  0.00     0.135 A 
ATOM     77  C   UNL A   1      39.680  29.276  32.724  1.00  0.00     0.135 A 
ATOM     78  F   UNL A   1      41.433  32.408  32.163  1.00  0.00    -0.206 F 
ATOM     79  C   UNL A   1      39.159  32.009  32.520  1.00  0.00     0.059 A 
ATOM     80  C   UNL A   1      38.367  29.746  32.855  1.00  0.00     0.059 A 
ATOM     81  F   UNL A   1      39.878  27.953  32.799  1.00  0.00    -0.206 F 
ATOM     82  C   UNL A   1      38.114  31.112  32.717  1.00  0.00     0.060 A 
BRANCH  82  83
ATOM     83  S   UNL A   1      36.425  31.755  32.642  1.00  0.00     0.124 S 
ATOM     84  O   UNL A   1      36.230  32.236  34.005  1.00  0.00    -0.237 OA
ATOM     85  O   UNL A   1      36.550  32.785  31.614  1.00  0.00    -0.237 OA
ATOM     86  O   UNL A   1      35.645  30.581  32.268  1.00  0.00    -0.744 OA
ENDBRANCH  82  83
ENDBRANCH  50  75
BRANCH  62  87
ATOM     87  C   UNL A   1      45.301  24.522  33.025  1.00  0.00     0.058 A 
ATOM     88  C   UNL A   1      46.586  24.810  33.514  1.00  0.00     0.135 A 
ATOM     89  C   UNL A   1      44.718  23.320  33.489  1.00  0.00     0.135 A 
ATOM     90  F   UNL A   1      47.192  25.973  33.229  1.00  0.00    -0.206 F 
ATOM     91  C   UNL A   1      47.280  23.933  34.344  1.00  0.00     0.059 A 
ATOM     92  C   UNL A   1      45.373  22.455  34.359  1.00  0.00     0.059 A 
ATOM     93  F   UNL A   1      43.485  22.947  33.117  1.00  0.00    -0.206 F 
ATOM     94  C   UNL A   1      46.665  22.757  34.762  1.00  0.00     0.060 A 
BRANCH  94  95
ATOM     95  S   UNL A   1      47.525  21.643  35.884  1.00  0.00     0.124 S 
ATOM     96  O   UNL A   1      48.197  22.587  36.772  1.00  0.00    -0.237 OA
ATOM     97  O   UNL A   1      46.437  20.878  36.485  1.00  0.00    -0.237 OA
ATOM     98  O   UNL A   1      48.393  20.884  34.989  1.00  0.00    -0.744 OA
ENDBRANCH  94  95
ENDBRANCH  62  87
ENDBRANCH  36  37
ENDBRANCH  29  31
ENDBRANCH  28  29
ENDBRANCH   1  28
TORSDOF 17
ENDMDL
MODEL 2
REMARK VINA RESULT:     -13.9      1.364      4.268
REMARK SMILES Cc1ccccc1OC1(C(=O)OCCOC(=O)c2ccc(-c3c4nc(c(-c5c(F)cc(S(=O)(=O)[O-])cc5F)c5ccc([nH]5)c(-c5c(F)cc(S(=O)(=O)[O-])cc5F)c5nc(c(-c6c(F)cc(S(=O)(=O)[O-])cc6F)c6ccc3[nH]6)C=C5)C=C4)cc2)CCN(C(=O)[C@H]2CCCCO2)CC1
REMARK SMILES IDX 14 1 13 2 12 3 10 4 11 5 9 6 84 7 96 8 85 9 95 10 86 11
REMARK SMILES IDX 87 12 88 13 8 14 7 15 1 16 2 17 3 18 4 19 6 20 5 21 89 22
REMARK SMILES IDX 90 23 94 24 91 25 93 26 92 27 15 28 16 29 17 30 18 31 19 32
REMARK SMILES IDX 83 33 20 34 82 35 21 36 22 37 23 38 76 39 24 40 81 41 75 42
REMARK SMILES IDX 77 43 25 44 80 45 74 46 73 47 26 49 60 50 39 51 59 52 40 53
REMARK SMILES IDX 43 54 58 55 78 56 41 57 42 58 57 60 79 61 44 62 27 63 28 64
REMARK SMILES IDX 37 65 29 66 30 67 36 68 38 69 31 70 32 71 33 72 34 73 35 74
REMARK SMILES IDX 61 75 62 76 71 77 63 78 64 79 70 80 72 81 65 82 66 83 67 84
REMARK SMILES IDX 68 85 69 86 45 87 46 88 55 89 47 90 48 91 54 92 56 93 49 94
REMARK SMILES IDX 50 95 51 96 52 97 53 98
REMARK H PARENT 77 48 43 59
REMARK Flexibility Score: inf
ROOT
ATOM      1  C   UNL A   1      33.615  29.859  27.246  1.00  0.00     0.275 C 
ENDROOT
BRANCH   1   2
ATOM      2  C   UNL A   1      32.931  28.500  27.482  1.00  0.00     0.274 C 
BRANCH   2   3
ATOM      3  O   UNL A   1      33.386  27.495  26.546  1.00  0.00    -0.459 OA
BRANCH   3   4
ATOM      4  C   UNL A   1      32.387  26.698  26.059  1.00  0.00     0.350 C 
ATOM      5  O   UNL A   1      31.842  25.853  26.767  1.00  0.00    -0.247 OA
BRANCH   4   6
ATOM      6  C   UNL A   1      32.182  26.808  24.491  1.00  0.00     0.209 C 
ATOM      7  C   UNL A   1      30.793  26.190  24.314  1.00  0.00     0.082 C 
ATOM      8  C   UNL A   1      32.317  28.318  24.189  1.00  0.00     0.082 C 
ATOM      9  C   UNL A   1      29.675  27.202  24.193  1.00  0.00     0.124 C 
ATOM     10  C   UNL A   1      31.301  28.879  23.224  1.00  0.00     0.124 C 
ATOM     11  N   UNL A   1      29.935  28.387  23.384  1.00  0.00    -0.340 N 
ATOM     12  C   UNL A   1      28.809  29.016  22.837  1.00  0.00     0.251 C 
ATOM     13  O   UNL A   1      27.691  28.499  22.951  1.00  0.00    -0.272 OA
BRANCH   6  14
ATOM     14  O   UNL A   1      33.123  26.002  23.752  1.00  0.00    -0.475 OA
BRANCH  14  15
ATOM     15  C   UNL A   1      33.608  24.756  24.082  1.00  0.00     0.123 A 
ATOM     16  C   UNL A   1      31.788  23.016  23.316  1.00  0.00     0.048 C 
ATOM     17  C   UNL A   1      33.102  23.456  23.890  1.00  0.00    -0.009 A 
ATOM     18  C   UNL A   1      33.823  22.341  24.414  1.00  0.00     0.007 A 
ATOM     19  C   UNL A   1      34.975  22.485  25.173  1.00  0.00     0.001 A 
ATOM     20  C   UNL A   1      34.765  24.861  24.883  1.00  0.00     0.047 A 
ATOM     21  C   UNL A   1      35.437  23.758  25.425  1.00  0.00     0.004 A 
ENDBRANCH  14  15
ENDBRANCH   6  14
BRANCH  12  22
ATOM     22  C   UNL A   1      28.983  30.378  22.120  1.00  0.00     0.207 C 
ATOM     23  C   UNL A   1      28.020  30.512  20.934  1.00  0.00     0.042 C 
ATOM     24  O   UNL A   1      28.720  31.415  23.078  1.00  0.00    -0.368 OA
ATOM     25  C   UNL A   1      28.037  31.920  20.349  1.00  0.00     0.006 C 
ATOM     26  C   UNL A   1      28.878  32.725  22.548  1.00  0.00     0.161 C 
ATOM     27  C   UNL A   1      27.859  32.958  21.446  1.00  0.00     0.029 C 
ENDBRANCH  12  22
ENDBRANCH   4   6
ENDBRANCH   3   4
ENDBRANCH   2   3
ENDBRANCH   1   2
BRANCH   1  28
ATOM     28  O   UNL A   1      35.052  29.831  27.318  1.00  0.00    -0.458 OA
BRANCH  28  29
ATOM     29  C   UNL A   1      35.579  30.623  28.290  1.00  0.00     0.338 C 
ATOM     30  O   UNL A   1      34.899  31.352  29.013  1.00  0.00    -0.246 OA
BRANCH  29  31
ATOM     31  C   UNL A   1      36.952  30.115  28.566  1.00  0.00     0.060 A 
ATOM     32  C   UNL A   1      37.152  29.246  29.644  1.00  0.00     0.016 A 
ATOM     33  C   UNL A   1      37.931  30.223  27.572  1.00  0.00     0.016 A 
ATOM     34  C   UNL A   1      38.266  28.400  29.675  1.00  0.00     0.010 A 
ATOM     35  C   UNL A   1      38.991  29.338  27.558  1.00  0.00     0.010 A 
ATOM     36  C   UNL A   1      39.164  28.418  28.602  1.00  0.00    -0.014 A 
BRANCH  36  37
ATOM     37  C   UNL A   1      40.458  27.741  28.609  1.00  0.00     0.031 A 
ATOM     38  C   UNL A   1      40.698  26.342  28.168  1.00  0.00     0.074 A 
ATOM     39  C   UNL A   1      41.468  28.507  29.074  1.00  0.00     0.049 A 
ATOM     40  N   UNL A   1      41.615  25.577  28.668  1.00  0.00    -0.248 NA
ATOM     41  C   UNL A   1      39.930  25.681  27.115  1.00  0.00     0.031 C 
ATOM     42  C   UNL A   1      42.894  28.230  29.103  1.00  0.00     0.029 A 
ATOM     43  N   UNL A   1      41.381  29.706  29.775  1.00  0.00    -0.354 N 
ATOM     44  C   UNL A   1      41.731  24.458  27.864  1.00  0.00     0.074 A 
ATOM     45  C   UNL A   1      40.601  24.529  26.965  1.00  0.00     0.031 C 
ATOM     46  C   UNL A   1      43.452  29.013  30.047  1.00  0.00     0.029 A 
ATOM     47  C   UNL A   1      42.361  29.679  30.750  1.00  0.00     0.049 A 
ATOM     48  H   UNL A   1      40.742  30.437  29.607  1.00  0.00     0.167 HD
ATOM     49  C   UNL A   1      42.852  23.674  27.928  1.00  0.00     0.037 A 
ATOM     50  C   UNL A   1      42.090  29.549  32.085  1.00  0.00     0.037 A 
ATOM     51  C   UNL A   1      43.817  24.245  28.861  1.00  0.00     0.049 A 
ATOM     52  C   UNL A   1      42.814  28.358  32.670  1.00  0.00     0.074 A 
ATOM     53  C   UNL A   1      44.854  25.138  28.641  1.00  0.00     0.029 A 
ATOM     54  N   UNL A   1      43.606  24.202  30.233  1.00  0.00    -0.354 N 
ATOM     55  N   UNL A   1      43.047  27.255  32.013  1.00  0.00    -0.248 NA
ATOM     56  C   UNL A   1      43.382  28.354  34.013  1.00  0.00     0.031 C 
ATOM     57  C   UNL A   1      45.205  25.710  29.882  1.00  0.00     0.029 A 
ATOM     58  C   UNL A   1      44.417  25.130  30.862  1.00  0.00     0.049 A 
ATOM     59  H   UNL A   1      42.974  23.602  30.690  1.00  0.00     0.167 HD
ATOM     60  C   UNL A   1      43.863  26.455  32.770  1.00  0.00     0.074 A 
ATOM     61  C   UNL A   1      44.017  27.171  34.025  1.00  0.00     0.031 C 
ATOM     62  C   UNL A   1      44.415  25.298  32.302  1.00  0.00     0.037 A 
BRANCH  49  63
ATOM     63  C   UNL A   1      43.230  22.619  26.900  1.00  0.00     0.058 A 
ATOM     64  C   UNL A   1      42.638  21.333  26.921  1.00  0.00     0.135 A 
ATOM     65  C   UNL A   1      44.193  22.801  25.888  1.00  0.00     0.135 A 
ATOM     66  F   UNL A   1      41.628  21.038  27.750  1.00  0.00    -0.206 F 
ATOM     67  C   UNL A   1      43.062  20.280  26.109  1.00  0.00     0.059 A 
ATOM     68  C   UNL A   1      44.660  21.751  25.082  1.00  0.00     0.059 A 
ATOM     69  F   UNL A   1      44.701  24.018  25.636  1.00  0.00    -0.206 F 
ATOM     70  C   UNL A   1      44.105  20.484  25.219  1.00  0.00     0.060 A 
BRANCH  70  71
ATOM     71  S   UNL A   1      44.722  19.070  24.281  1.00  0.00     0.124 S 
ATOM     72  O   UNL A   1      43.864  17.989  24.757  1.00  0.00    -0.237 OA
ATOM     73  O   UNL A   1      44.500  19.493  22.903  1.00  0.00    -0.237 OA
ATOM     74  O   UNL A   1      46.120  18.975  24.690  1.00  0.00    -0.744 OA
ENDBRANCH  70  71
ENDBRANCH  49  63
BRANCH  50  75
ATOM     75  C   UNL A   1      40.761  30.043  32.556  1.00  0.00     0.058 A 
ATOM     76  C   UNL A   1      40.508  31.429  32.536  1.00  0.00     0.135 A 
ATOM     77  C   UNL A   1      39.663  29.202  32.794  1.00  0.00     0.135 A 
ATOM     78  F   UNL A   1      41.515  32.292  32.326  1.00  0.00    -0.206 F 
ATOM     79  C   UNL A   1      39.223  31.952  32.634  1.00  0.00     0.059 A 
ATOM     80  C   UNL A   1      38.361  29.707  32.910  1.00  0.00     0.059 A 
ATOM     81  F   UNL A   1      39.822  27.872  32.848  1.00  0.00    -0.206 F 
ATOM     82  C   UNL A   1      38.150  31.081  32.794  1.00  0.00     0.060 A 
BRANCH  82  83
ATOM     83  S   UNL A   1      36.482  31.774  32.700  1.00  0.00     0.124 S 
ATOM     84  O   UNL A   1      36.290  32.269  34.059  1.00  0.00    -0.237 OA
ATOM     85  O   UNL A   1      36.646  32.793  31.668  1.00  0.00    -0.237 OA
ATOM     86  O   UNL A   1      35.670  30.622  32.327  1.00  0.00    -0.744 OA
ENDBRANCH  82  83
ENDBRANCH  50  75
BRANCH  62  87
ATOM     87  C   UNL A   1      45.164  24.306  33.148  1.00  0.00     0.058 A 
ATOM     88  C   UNL A   1      46.454  24.552  33.646  1.00  0.00     0.135 A 
ATOM     89  C   UNL A   1      44.540  23.122  33.604  1.00  0.00     0.135 A 
ATOM     90  F   UNL A   1      47.098  25.695  33.368  1.00  0.00    -0.206 F 
ATOM     91  C   UNL A   1      47.114  23.651  34.478  1.00  0.00     0.059 A 
ATOM     92  C   UNL A   1      45.160  22.234  34.477  1.00  0.00     0.059 A 
ATOM     93  F   UNL A   1      43.298  22.789  33.223  1.00  0.00    -0.206 F 
ATOM     94  C   UNL A   1      46.459  22.494  34.889  1.00  0.00     0.060 A 
BRANCH  94  95
ATOM     95  S   UNL A   1      47.275  21.350  36.014  1.00  0.00     0.124 S 
ATOM     96  O   UNL A   1      46.194  21.036  36.943  1.00  0.00    -0.237 OA
ATOM     97  O   UNL A   1      47.686  20.260  35.134  1.00  0.00    -0.237 OA
ATOM     98  O   UNL A   1      48.368  22.151  36.559  1.00  0.00    -0.744 OA
ENDBRANCH  94  95
ENDBRANCH  62  87
ENDBRANCH  36  37
ENDBRANCH  29  31
ENDBRANCH  28  29
ENDBRANCH   1  28
TORSDOF 17
ENDMDL
MODEL 3
REMARK VINA RESULT:     -13.8      4.158     11.073
REMARK SMILES Cc1ccccc1OC1(C(=O)OCCOC(=O)c2ccc(-c3c4nc(c(-c5c(F)cc(S(=O)(=O)[O-])cc5F)c5ccc([nH]5)c(-c5c(F)cc(S(=O)(=O)[O-])cc5F)c5nc(c(-c6c(F)cc(S(=O)(=O)[O-])cc6F)c6ccc3[nH]6)C=C5)C=C4)cc2)CCN(C(=O)[C@H]2CCCCO2)CC1
REMARK SMILES IDX 14 1 13 2 12 3 10 4 11 5 9 6 84 7 96 8 85 9 95 10 86 11
REMARK SMILES IDX 87 12 88 13 8 14 7 15 1 16 2 17 3 18 4 19 6 20 5 21 89 22
REMARK SMILES IDX 90 23 94 24 91 25 93 26 92 27 15 28 16 29 17 30 18 31 19 32
REMARK SMILES IDX 83 33 20 34 82 35 21 36 22 37 23 38 76 39 24 40 81 41 75 42
REMARK SMILES IDX 77 43 25 44 80 45 74 46 73 47 26 49 60 50 39 51 59 52 40 53
REMARK SMILES IDX 43 54 58 55 78 56 41 57 42 58 57 60 79 61 44 62 27 63 28 64
REMARK SMILES IDX 37 65 29 66 30 67 36 68 38 69 31 70 32 71 33 72 34 73 35 74
REMARK SMILES IDX 61 75 62 76 71 77 63 78 64 79 70 80 72 81 65 82 66 83 67 84
REMARK SMILES IDX 68 85 69 86 45 87 46 88 55 89 47 90 48 91 54 92 56 93 49 94
REMARK SMILES IDX 50 95 51 96 52 97 53 98
REMARK H PARENT 77 48 43 59
REMARK Flexibility Score: inf
ROOT
ATOM      1  C   UNL A   1      37.763  22.766  25.627  1.00  0.00     0.275 C 
ENDROOT
BRANCH   1   2
ATOM      2  C   UNL A   1      36.828  22.924  24.415  1.00  0.00     0.274 C 
BRANCH   2   3
ATOM      3  O   UNL A   1      35.435  22.820  24.790  1.00  0.00    -0.459 OA
BRANCH   3   4
ATOM      4  C   UNL A   1      34.564  23.038  23.757  1.00  0.00     0.350 C 
ATOM      5  O   UNL A   1      34.962  23.138  22.598  1.00  0.00    -0.247 OA
BRANCH   4   6
ATOM      6  C   UNL A   1      33.085  23.371  24.219  1.00  0.00     0.209 C 
ATOM      7  C   UNL A   1      33.332  24.361  25.360  1.00  0.00     0.082 C 
ATOM      8  C   UNL A   1      32.400  23.927  22.950  1.00  0.00     0.082 C 
ATOM      9  C   UNL A   1      33.178  25.813  24.965  1.00  0.00     0.124 C 
ATOM     10  C   UNL A   1      31.536  25.146  23.161  1.00  0.00     0.124 C 
ATOM     11  N   UNL A   1      32.067  26.149  24.081  1.00  0.00    -0.340 N 
ATOM     12  C   UNL A   1      31.605  27.468  24.150  1.00  0.00     0.251 C 
ATOM     13  O   UNL A   1      32.051  28.241  25.007  1.00  0.00    -0.272 OA
BRANCH   6  14
ATOM     14  O   UNL A   1      32.405  22.223  24.767  1.00  0.00    -0.475 OA
BRANCH  14  15
ATOM     15  C   UNL A   1      32.539  20.905  24.393  1.00  0.00     0.123 A 
ATOM     16  C   UNL A   1      31.795  20.762  21.872  1.00  0.00     0.048 C 
ATOM     17  C   UNL A   1      32.329  20.236  23.171  1.00  0.00    -0.009 A 
ATOM     18  C   UNL A   1      32.496  18.820  23.113  1.00  0.00     0.007 A 
ATOM     19  C   UNL A   1      32.788  18.054  24.232  1.00  0.00     0.001 A 
ATOM     20  C   UNL A   1      32.807  20.087  25.512  1.00  0.00     0.047 A 
ATOM     21  C   UNL A   1      32.925  18.693  25.445  1.00  0.00     0.004 A 
ENDBRANCH  14  15
ENDBRANCH   6  14
BRANCH  12  22
ATOM     22  C   UNL A   1      30.553  27.952  23.120  1.00  0.00     0.207 C 
ATOM     23  C   UNL A   1      29.127  27.782  23.655  1.00  0.00     0.042 C 
ATOM     24  O   UNL A   1      30.809  29.340  22.851  1.00  0.00    -0.368 OA
ATOM     25  C   UNL A   1      28.099  28.441  22.741  1.00  0.00     0.006 C 
ATOM     26  C   UNL A   1      29.925  29.900  21.889  1.00  0.00     0.161 C 
ATOM     27  C   UNL A   1      28.503  29.872  22.422  1.00  0.00     0.029 C 
ENDBRANCH  12  22
ENDBRANCH   4   6
ENDBRANCH   3   4
ENDBRANCH   2   3
ENDBRANCH   1   2
BRANCH   1  28
ATOM     28  O   UNL A   1      38.476  23.961  25.998  1.00  0.00    -0.458 OA
BRANCH  28  29
ATOM     29  C   UNL A   1      39.623  23.736  26.692  1.00  0.00     0.338 C 
ATOM     30  O   UNL A   1      40.399  22.815  26.438  1.00  0.00    -0.246 OA
BRANCH  29  31
ATOM     31  C   UNL A   1      39.932  24.990  27.436  1.00  0.00     0.060 A 
ATOM     32  C   UNL A   1      40.306  26.132  26.720  1.00  0.00     0.016 A 
ATOM     33  C   UNL A   1      39.519  25.110  28.768  1.00  0.00     0.016 A 
ATOM     34  C   UNL A   1      40.158  27.403  27.285  1.00  0.00     0.010 A 
ATOM     35  C   UNL A   1      39.298  26.364  29.303  1.00  0.00     0.010 A 
ATOM     36  C   UNL A   1      39.608  27.517  28.567  1.00  0.00    -0.014 A 
BRANCH  36  37
ATOM     37  C   UNL A   1      39.592  28.756  29.341  1.00  0.00     0.031 A 
ATOM     38  C   UNL A   1      38.518  29.782  29.295  1.00  0.00     0.074 A 
ATOM     39  C   UNL A   1      40.675  28.916  30.132  1.00  0.00     0.049 A 
ATOM     40  N   UNL A   1      38.723  31.047  29.484  1.00  0.00    -0.248 NA
ATOM     41  C   UNL A   1      37.112  29.474  29.042  1.00  0.00     0.031 C 
ATOM     42  C   UNL A   1      40.941  29.938  31.129  1.00  0.00     0.029 A 
ATOM     43  N   UNL A   1      41.877  28.216  30.090  1.00  0.00    -0.354 N 
ATOM     44  C   UNL A   1      37.496  31.668  29.629  1.00  0.00     0.074 A 
ATOM     45  C   UNL A   1      36.525  30.662  29.258  1.00  0.00     0.031 C 
ATOM     46  C   UNL A   1      42.274  29.998  31.319  1.00  0.00     0.029 A 
ATOM     47  C   UNL A   1      42.888  29.130  30.319  1.00  0.00     0.049 A 
ATOM     48  H   UNL A   1      41.986  27.250  29.929  1.00  0.00     0.167 HD
ATOM     49  C   UNL A   1      37.413  32.909  30.202  1.00  0.00     0.037 A 
ATOM     50  C   UNL A   1      43.762  29.543  29.351  1.00  0.00     0.037 A 
ATOM     51  C   UNL A   1      38.730  33.353  30.642  1.00  0.00     0.049 A 
ATOM     52  C   UNL A   1      43.733  31.046  29.201  1.00  0.00     0.074 A 
ATOM     53  C   UNL A   1      39.367  33.193  31.863  1.00  0.00     0.029 A 
ATOM     54  N   UNL A   1      39.701  33.746  29.730  1.00  0.00    -0.354 N 
ATOM     55  N   UNL A   1      42.661  31.772  29.364  1.00  0.00    -0.248 NA
ATOM     56  C   UNL A   1      44.925  31.840  28.921  1.00  0.00     0.031 C 
ATOM     57  C   UNL A   1      40.748  33.399  31.662  1.00  0.00     0.029 A 
ATOM     58  C   UNL A   1      40.946  33.730  30.332  1.00  0.00     0.049 A 
ATOM     59  H   UNL A   1      39.528  33.999  28.795  1.00  0.00     0.167 HD
ATOM     60  C   UNL A   1      43.015  33.096  29.325  1.00  0.00     0.074 A 
ATOM     61  C   UNL A   1      44.434  33.088  29.012  1.00  0.00     0.031 C 
ATOM     62  C   UNL A   1      42.148  34.108  29.616  1.00  0.00     0.037 A 
BRANCH  49  63
ATOM     63  C   UNL A   1      36.124  33.550  30.693  1.00  0.00     0.058 A 
ATOM     64  C   UNL A   1      35.237  34.190  29.793  1.00  0.00     0.135 A 
ATOM     65  C   UNL A   1      35.721  33.599  32.042  1.00  0.00     0.135 A 
ATOM     66  F   UNL A   1      35.422  34.136  28.467  1.00  0.00    -0.206 F 
ATOM     67  C   UNL A   1      34.129  34.932  30.205  1.00  0.00     0.059 A 
ATOM     68  C   UNL A   1      34.630  34.364  32.485  1.00  0.00     0.059 A 
ATOM     69  F   UNL A   1      36.366  32.882  32.976  1.00  0.00    -0.206 F 
ATOM     70  C   UNL A   1      33.855  35.051  31.558  1.00  0.00     0.060 A 
BRANCH  70  71
ATOM     71  S   UNL A   1      32.498  36.128  32.068  1.00  0.00     0.124 S 
ATOM     72  O   UNL A   1      33.137  36.967  33.078  1.00  0.00    -0.237 OA
ATOM     73  O   UNL A   1      32.148  36.796  30.820  1.00  0.00    -0.237 OA
ATOM     74  O   UNL A   1      31.499  35.195  32.581  1.00  0.00    -0.744 OA
ENDBRANCH  70  71
ENDBRANCH  49  63
BRANCH  50  75
ATOM     75  C   UNL A   1      44.032  28.589  28.233  1.00  0.00     0.058 A 
ATOM     76  C   UNL A   1      44.714  27.389  28.516  1.00  0.00     0.135 A 
ATOM     77  C   UNL A   1      43.442  28.697  26.964  1.00  0.00     0.135 A 
ATOM     78  F   UNL A   1      45.313  27.222  29.707  1.00  0.00    -0.206 F 
ATOM     79  C   UNL A   1      44.721  26.311  27.639  1.00  0.00     0.059 A 
ATOM     80  C   UNL A   1      43.447  27.630  26.057  1.00  0.00     0.059 A 
ATOM     81  F   UNL A   1      42.790  29.813  26.609  1.00  0.00    -0.206 F 
ATOM     82  C   UNL A   1      44.061  26.430  26.420  1.00  0.00     0.060 A 
BRANCH  82  83
ATOM     83  S   UNL A   1      43.903  24.945  25.399  1.00  0.00     0.124 S 
ATOM     84  O   UNL A   1      43.760  23.903  26.410  1.00  0.00    -0.237 OA
ATOM     85  O   UNL A   1      42.704  25.248  24.623  1.00  0.00    -0.237 OA
ATOM     86  O   UNL A   1      45.153  24.930  24.648  1.00  0.00    -0.744 OA
ENDBRANCH  82  83
ENDBRANCH  50  75
BRANCH  62  87
ATOM     87  C   UNL A   1      42.441  35.569  29.413  1.00  0.00     0.058 A 
ATOM     88  C   UNL A   1      43.340  36.285  30.221  1.00  0.00     0.135 A 
ATOM     89  C   UNL A   1      41.926  36.265  28.295  1.00  0.00     0.135 A 
ATOM     90  F   UNL A   1      43.973  35.693  31.244  1.00  0.00    -0.206 F 
ATOM     91  C   UNL A   1      43.648  37.622  29.986  1.00  0.00     0.059 A 
ATOM     92  C   UNL A   1      42.262  37.585  28.011  1.00  0.00     0.059 A 
ATOM     93  F   UNL A   1      41.081  35.683  27.431  1.00  0.00    -0.206 F 
ATOM     94  C   UNL A   1      43.105  38.265  28.878  1.00  0.00     0.060 A 
BRANCH  94  95
ATOM     95  S   UNL A   1      43.543  39.975  28.525  1.00  0.00     0.124 S 
ATOM     96  O   UNL A   1      43.655  40.529  29.871  1.00  0.00    -0.237 OA
ATOM     97  O   UNL A   1      44.798  39.847  27.790  1.00  0.00    -0.237 OA
ATOM     98  O   UNL A   1      42.409  40.446  27.736  1.00  0.00    -0.744 OA
ENDBRANCH  94  95
ENDBRANCH  62  87
ENDBRANCH  36  37
ENDBRANCH  29  31
ENDBRANCH  28  29
ENDBRANCH   1  28
TORSDOF 17
ENDMDL
