MODEL 1
REMARK VINA RESULT:     -13.2      0.000      0.000
REMARK SMILES O=C(OCCOC(=O)[C@@H]1[C@H](C(=O)Nc2cccc(Cl)c2F)[C@@H]2C=C[C@H]1C2)c1ccc(-c2c3nc(c(-c4c(F)cc(S(=O)(=O)[O-])cc4F)c4ccc([nH]4)c(-c4c(F)cc(S(=O)(=O)[O-])cc4F)c4nc(c(-c5c(F)cc(S(=O)(=O)[O-])cc5F)c5ccc2[nH]5)C=C4)C=C3)cc1
REMARK SMILES IDX 4 1 3 2 2 3 1 4 27 5 28 6 92 7 29 8 91 9 30 10 31 11 32 12
REMARK SMILES IDX 85 13 33 14 90 15 84 16 86 17 34 18 89 19 83 20 82 21 35 23
REMARK SMILES IDX 69 24 48 25 68 26 49 27 52 28 67 29 87 30 50 31 51 32 66 34
REMARK SMILES IDX 88 35 53 36 36 37 37 38 46 39 38 40 39 41 45 42 47 43 40 44
REMARK SMILES IDX 41 45 42 46 43 47 44 48 70 49 71 50 80 51 72 52 73 53 79 54
REMARK SMILES IDX 81 55 74 56 75 57 76 58 77 59 78 60 54 61 55 62 64 63 56 64
REMARK SMILES IDX 57 65 63 66 65 67 58 68 59 69 60 70 61 71 62 72 5 73 6 74
REMARK SMILES IDX 7 75 8 76 9 77 10 78 25 79 22 80 24 81 26 82 23 83 11 84
REMARK SMILES IDX 12 85 13 86 14 88 15 89 20 90 16 91 18 92 21 93 17 94 19 95
REMARK H PARENT 86 22 52 33 13 87
REMARK Flexibility Score: inf
ROOT
ATOM      1  C   UNL A   1      33.260  28.185  24.866  1.00  0.00     0.275 C 
ENDROOT
BRANCH   1   2
ATOM      2  O   UNL A   1      33.814  29.332  25.685  1.00  0.00    -0.458 OA
BRANCH   2   3
ATOM      3  C   UNL A   1      33.526  30.186  26.748  1.00  0.00     0.338 C 
ATOM      4  O   UNL A   1      32.445  30.771  26.756  1.00  0.00    -0.246 OA
BRANCH   3   5
ATOM      5  C   UNL A   1      34.538  30.600  27.827  1.00  0.00     0.060 A 
ATOM      6  C   UNL A   1      35.486  29.379  28.095  1.00  0.00     0.016 A 
ATOM      7  C   UNL A   1      35.002  32.239  28.061  1.00  0.00     0.016 A 
ATOM      8  C   UNL A   1      36.999  29.401  28.400  1.00  0.00     0.010 A 
ATOM      9  C   UNL A   1      36.752  32.546  28.250  1.00  0.00     0.010 A 
ATOM     10  C   UNL A   1      37.856  30.763  28.404  1.00  0.00    -0.014 A 
BRANCH  10  11
ATOM     11  C   UNL A   1      39.492  30.351  29.272  1.00  0.00     0.031 A 
ATOM     12  C   UNL A   1      40.427  29.197  28.722  1.00  0.00     0.074 A 
ATOM     13  C   UNL A   1      39.968  30.753  30.533  1.00  0.00     0.049 A 
ATOM     14  N   UNL A   1      41.294  28.443  29.380  1.00  0.00    -0.248 NA
ATOM     15  C   UNL A   1      40.416  28.902  27.283  1.00  0.00     0.031 C 
ATOM     16  C   UNL A   1      39.727  31.971  31.304  1.00  0.00     0.029 A 
ATOM     17  N   UNL A   1      40.615  30.021  31.545  1.00  0.00    -0.354 N 
ATOM     18  C   UNL A   1      41.888  27.576  28.454  1.00  0.00     0.074 A 
ATOM     19  C   UNL A   1      41.289  27.903  27.178  1.00  0.00     0.031 C 
ATOM     20  C   UNL A   1      39.806  31.812  32.616  1.00  0.00     0.029 A 
ATOM     21  C   UNL A   1      40.384  30.524  32.834  1.00  0.00     0.049 A 
ATOM     22  H   UNL A   1      41.176  29.231  31.366  1.00  0.00     0.167 HD
ATOM     23  C   UNL A   1      42.830  26.604  28.637  1.00  0.00     0.037 A 
ATOM     24  C   UNL A   1      40.642  30.162  34.106  1.00  0.00     0.037 A 
ATOM     25  C   UNL A   1      43.469  26.286  29.904  1.00  0.00     0.049 A 
ATOM     26  C   UNL A   1      41.603  29.064  34.307  1.00  0.00     0.074 A 
ATOM     27  C   UNL A   1      44.474  25.356  30.147  1.00  0.00     0.029 A 
ATOM     28  N   UNL A   1      43.169  26.852  31.133  1.00  0.00    -0.354 N 
ATOM     29  N   UNL A   1      42.151  28.321  33.385  1.00  0.00    -0.248 NA
ATOM     30  C   UNL A   1      42.071  28.818  35.673  1.00  0.00     0.031 C 
ATOM     31  C   UNL A   1      44.707  25.291  31.524  1.00  0.00     0.029 A 
ATOM     32  C   UNL A   1      43.914  26.242  32.137  1.00  0.00     0.049 A 
ATOM     33  H   UNL A   1      42.522  27.580  31.276  1.00  0.00     0.167 HD
ATOM     34  C   UNL A   1      43.057  27.529  34.056  1.00  0.00     0.074 A 
ATOM     35  C   UNL A   1      43.012  27.913  35.453  1.00  0.00     0.031 C 
ATOM     36  C   UNL A   1      43.850  26.569  33.537  1.00  0.00     0.037 A 
BRANCH  23  37
ATOM     37  C   UNL A   1      43.253  25.731  27.459  1.00  0.00     0.058 A 
ATOM     38  C   UNL A   1      44.329  26.060  26.619  1.00  0.00     0.135 A 
ATOM     39  C   UNL A   1      42.679  24.453  27.289  1.00  0.00     0.135 A 
ATOM     40  F   UNL A   1      44.931  27.255  26.727  1.00  0.00    -0.206 F 
ATOM     41  C   UNL A   1      44.810  25.166  25.655  1.00  0.00     0.059 A 
ATOM     42  C   UNL A   1      43.162  23.535  26.355  1.00  0.00     0.059 A 
ATOM     43  F   UNL A   1      41.664  24.063  28.077  1.00  0.00    -0.206 F 
ATOM     44  C   UNL A   1      44.227  23.902  25.537  1.00  0.00     0.060 A 
BRANCH  44  45
ATOM     45  S   UNL A   1      44.893  22.743  24.317  1.00  0.00     0.124 S 
ATOM     46  O   UNL A   1      45.204  21.586  25.151  1.00  0.00    -0.237 OA
ATOM     47  O   UNL A   1      43.770  22.577  23.401  1.00  0.00    -0.237 OA
ATOM     48  O   UNL A   1      46.049  23.445  23.768  1.00  0.00    -0.744 OA
ENDBRANCH  44  45
ENDBRANCH  23  37
BRANCH  24  49
ATOM     49  C   UNL A   1      40.075  30.943  35.257  1.00  0.00     0.058 A 
ATOM     50  C   UNL A   1      40.836  31.869  35.989  1.00  0.00     0.135 A 
ATOM     51  C   UNL A   1      38.717  30.813  35.602  1.00  0.00     0.135 A 
ATOM     52  F   UNL A   1      42.123  32.078  35.673  1.00  0.00    -0.206 F 
ATOM     53  C   UNL A   1      40.295  32.586  37.056  1.00  0.00     0.059 A 
ATOM     54  C   UNL A   1      38.145  31.540  36.645  1.00  0.00     0.059 A 
ATOM     55  F   UNL A   1      37.921  29.992  34.898  1.00  0.00    -0.206 F 
ATOM     56  C   UNL A   1      38.950  32.404  37.385  1.00  0.00     0.060 A 
BRANCH  56  57
ATOM     57  S   UNL A   1      38.272  33.312  38.794  1.00  0.00     0.124 S 
ATOM     58  O   UNL A   1      36.853  32.996  38.690  1.00  0.00    -0.237 OA
ATOM     59  O   UNL A   1      38.980  32.706  39.917  1.00  0.00    -0.237 OA
ATOM     60  O   UNL A   1      38.631  34.698  38.508  1.00  0.00    -0.744 OA
ENDBRANCH  56  57
ENDBRANCH  24  49
BRANCH  36  61
ATOM     61  C   UNL A   1      44.700  25.825  34.514  1.00  0.00     0.058 A 
ATOM     62  C   UNL A   1      44.237  24.647  35.122  1.00  0.00     0.135 A 
ATOM     63  C   UNL A   1      45.972  26.299  34.865  1.00  0.00     0.135 A 
ATOM     64  F   UNL A   1      43.011  24.175  34.840  1.00  0.00    -0.206 F 
ATOM     65  C   UNL A   1      44.997  23.975  36.066  1.00  0.00     0.059 A 
ATOM     66  C   UNL A   1      46.768  25.619  35.777  1.00  0.00     0.059 A 
ATOM     67  F   UNL A   1      46.449  27.429  34.322  1.00  0.00    -0.206 F 
ATOM     68  C   UNL A   1      46.266  24.464  36.378  1.00  0.00     0.060 A 
BRANCH  68  69
ATOM     69  S   UNL A   1      47.263  23.540  37.562  1.00  0.00     0.124 S 
ATOM     70  O   UNL A   1      48.576  24.151  37.380  1.00  0.00    -0.237 OA
ATOM     71  O   UNL A   1      46.592  23.839  38.823  1.00  0.00    -0.237 OA
ATOM     72  O   UNL A   1      47.143  22.160  37.103  1.00  0.00    -0.744 OA
ENDBRANCH  68  69
ENDBRANCH  36  61
ENDBRANCH  10  11
ENDBRANCH   3   5
ENDBRANCH   2   3
ENDBRANCH   1   2
BRANCH   1  73
ATOM     73  C   UNL A   1      33.691  26.741  25.220  1.00  0.00     0.274 C 
BRANCH  73  74
ATOM     74  O   UNL A   1      32.601  25.989  25.735  1.00  0.00    -0.462 OA
BRANCH  74  75
ATOM     75  C   UNL A   1      32.837  24.675  25.780  1.00  0.00     0.310 C 
ATOM     76  O   UNL A   1      31.998  23.839  26.115  1.00  0.00    -0.252 OA
BRANCH  75  77
ATOM     77  C   UNL A   1      34.153  24.263  25.171  1.00  0.00     0.119 C 
ATOM     78  C   UNL A   1      34.731  24.027  23.722  1.00  0.00     0.100 C 
ATOM     79  C   UNL A   1      34.847  23.113  26.014  1.00  0.00     0.027 C 
ATOM     80  C   UNL A   1      36.562  23.198  23.987  1.00  0.00     0.025 C 
ATOM     81  C   UNL A   1      35.483  20.968  25.750  1.00  0.00    -0.027 C 
ATOM     82  C   UNL A   1      36.410  24.164  25.283  1.00  0.00     0.017 C 
ATOM     83  C   UNL A   1      36.752  21.222  24.566  1.00  0.00    -0.027 C 
BRANCH  78  84
ATOM     84  C   UNL A   1      33.088  23.736  23.018  1.00  0.00     0.229 C 
ATOM     85  O   UNL A   1      33.096  22.611  22.430  1.00  0.00    -0.274 OA
ATOM     86  N   UNL A   1      31.837  24.290  22.751  1.00  0.00    -0.323 N 
ATOM     87  H   UNL A   1      31.351  23.613  22.228  1.00  0.00     0.170 HD
BRANCH  86  88
ATOM     88  C   UNL A   1      30.918  25.419  22.894  1.00  0.00     0.078 A 
ATOM     89  C   UNL A   1      29.748  25.308  23.640  1.00  0.00     0.029 A 
ATOM     90  C   UNL A   1      31.148  26.719  22.330  1.00  0.00     0.165 A 
ATOM     91  C   UNL A   1      28.963  26.452  23.955  1.00  0.00     0.004 A 
ATOM     92  C   UNL A   1      30.347  27.852  22.615  1.00  0.00     0.078 A 
ATOM     93  F   UNL A   1      32.290  26.958  21.681  1.00  0.00    -0.203 F 
ATOM     94  C   UNL A   1      29.266  27.726  23.465  1.00  0.00     0.024 A 
ATOM     95  Cl  UNL A   1      30.785  29.430  22.049  1.00  0.00    -0.081 Cl
ENDBRANCH  86  88
ENDBRANCH  78  84
ENDBRANCH  75  77
ENDBRANCH  74  75
ENDBRANCH  73  74
ENDBRANCH   1  73
TORSDOF 16
ENDMDL
MODEL 2
REMARK VINA RESULT:     -12.7      5.294      9.358
REMARK SMILES O=C(OCCOC(=O)[C@@H]1[C@H](C(=O)Nc2cccc(Cl)c2F)[C@@H]2C=C[C@H]1C2)c1ccc(-c2c3nc(c(-c4c(F)cc(S(=O)(=O)[O-])cc4F)c4ccc([nH]4)c(-c4c(F)cc(S(=O)(=O)[O-])cc4F)c4nc(c(-c5c(F)cc(S(=O)(=O)[O-])cc5F)c5ccc2[nH]5)C=C4)C=C3)cc1
REMARK SMILES IDX 4 1 3 2 2 3 1 4 27 5 28 6 92 7 29 8 91 9 30 10 31 11 32 12
REMARK SMILES IDX 85 13 33 14 90 15 84 16 86 17 34 18 89 19 83 20 82 21 35 23
REMARK SMILES IDX 69 24 48 25 68 26 49 27 52 28 67 29 87 30 50 31 51 32 66 34
REMARK SMILES IDX 88 35 53 36 36 37 37 38 46 39 38 40 39 41 45 42 47 43 40 44
REMARK SMILES IDX 41 45 42 46 43 47 44 48 70 49 71 50 80 51 72 52 73 53 79 54
REMARK SMILES IDX 81 55 74 56 75 57 76 58 77 59 78 60 54 61 55 62 64 63 56 64
REMARK SMILES IDX 57 65 63 66 65 67 58 68 59 69 60 70 61 71 62 72 5 73 6 74
REMARK SMILES IDX 7 75 8 76 9 77 10 78 25 79 22 80 24 81 26 82 23 83 11 84
REMARK SMILES IDX 12 85 13 86 14 88 15 89 20 90 16 91 18 92 21 93 17 94 19 95
REMARK H PARENT 86 22 52 33 13 87
REMARK Flexibility Score: inf
ROOT
ATOM      1  C   UNL A   1      33.576  28.619  26.981  1.00  0.00     0.275 C 
ENDROOT
BRANCH   1   2
ATOM      2  O   UNL A   1      34.826  29.474  26.976  1.00  0.00    -0.458 OA
BRANCH   2   3
ATOM      3  C   UNL A   1      35.612  30.306  27.771  1.00  0.00     0.338 C 
ATOM      4  O   UNL A   1      35.502  31.523  27.637  1.00  0.00    -0.246 OA
BRANCH   3   5
ATOM      5  C   UNL A   1      36.750  29.816  28.680  1.00  0.00     0.060 A 
ATOM      6  C   UNL A   1      37.856  29.175  27.769  1.00  0.00     0.016 A 
ATOM      7  C   UNL A   1      37.071  30.537  30.208  1.00  0.00     0.016 A 
ATOM      8  C   UNL A   1      39.388  29.244  27.946  1.00  0.00     0.010 A 
ATOM      9  C   UNL A   1      38.784  30.895  30.569  1.00  0.00     0.010 A 
ATOM     10  C   UNL A   1      40.081  30.100  29.117  1.00  0.00    -0.014 A 
BRANCH  10  11
ATOM     11  C   UNL A   1      41.880  29.504  29.209  1.00  0.00     0.031 A 
ATOM     12  C   UNL A   1      43.078  30.531  29.070  1.00  0.00     0.074 A 
ATOM     13  C   UNL A   1      42.398  28.197  29.152  1.00  0.00     0.049 A 
ATOM     14  N   UNL A   1      44.309  30.320  28.631  1.00  0.00    -0.248 NA
ATOM     15  C   UNL A   1      42.877  31.916  29.516  1.00  0.00     0.031 C 
ATOM     16  C   UNL A   1      41.827  26.920  29.574  1.00  0.00     0.029 A 
ATOM     17  N   UNL A   1      43.507  27.681  28.456  1.00  0.00    -0.354 N 
ATOM     18  C   UNL A   1      45.000  31.535  28.712  1.00  0.00     0.074 A 
ATOM     19  C   UNL A   1      44.052  32.485  29.254  1.00  0.00     0.031 C 
ATOM     20  C   UNL A   1      42.256  25.875  28.885  1.00  0.00     0.029 A 
ATOM     21  C   UNL A   1      43.371  26.327  28.115  1.00  0.00     0.049 A 
ATOM     22  H   UNL A   1      44.302  28.218  28.231  1.00  0.00     0.167 HD
ATOM     23  C   UNL A   1      46.286  31.840  28.370  1.00  0.00     0.037 A 
ATOM     24  C   UNL A   1      44.037  25.413  27.383  1.00  0.00     0.037 A 
ATOM     25  C   UNL A   1      47.264  30.893  27.858  1.00  0.00     0.049 A 
ATOM     26  C   UNL A   1      45.400  25.766  26.948  1.00  0.00     0.074 A 
ATOM     27  C   UNL A   1      48.600  31.123  27.550  1.00  0.00     0.029 A 
ATOM     28  N   UNL A   1      47.027  29.560  27.557  1.00  0.00    -0.354 N 
ATOM     29  N   UNL A   1      45.997  26.916  27.096  1.00  0.00    -0.248 NA
ATOM     30  C   UNL A   1      46.218  24.703  26.360  1.00  0.00     0.031 C 
ATOM     31  C   UNL A   1      49.137  29.967  26.975  1.00  0.00     0.029 A 
ATOM     32  C   UNL A   1      48.166  28.985  27.004  1.00  0.00     0.049 A 
ATOM     33  H   UNL A   1      46.176  29.090  27.712  1.00  0.00     0.167 HD
ATOM     34  C   UNL A   1      47.282  26.712  26.643  1.00  0.00     0.074 A 
ATOM     35  C   UNL A   1      47.385  25.320  26.254  1.00  0.00     0.031 C 
ATOM     36  C   UNL A   1      48.277  27.619  26.563  1.00  0.00     0.037 A 
BRANCH  23  37
ATOM     37  C   UNL A   1      46.776  33.281  28.480  1.00  0.00     0.058 A 
ATOM     38  C   UNL A   1      47.459  33.767  29.606  1.00  0.00     0.135 A 
ATOM     39  C   UNL A   1      46.714  34.133  27.357  1.00  0.00     0.135 A 
ATOM     40  F   UNL A   1      47.566  33.010  30.710  1.00  0.00    -0.206 F 
ATOM     41  C   UNL A   1      48.050  35.036  29.618  1.00  0.00     0.059 A 
ATOM     42  C   UNL A   1      47.321  35.390  27.336  1.00  0.00     0.059 A 
ATOM     43  F   UNL A   1      46.098  33.723  26.236  1.00  0.00    -0.206 F 
ATOM     44  C   UNL A   1      47.985  35.836  28.475  1.00  0.00     0.060 A 
BRANCH  44  45
ATOM     45  S   UNL A   1      48.795  37.455  28.495  1.00  0.00     0.124 S 
ATOM     46  O   UNL A   1      49.833  37.274  27.485  1.00  0.00    -0.237 OA
ATOM     47  O   UNL A   1      47.705  38.352  28.126  1.00  0.00    -0.237 OA
ATOM     48  O   UNL A   1      49.275  37.585  29.867  1.00  0.00    -0.744 OA
ENDBRANCH  44  45
ENDBRANCH  23  37
BRANCH  24  49
ATOM     49  C   UNL A   1      43.457  24.047  27.147  1.00  0.00     0.058 A 
ATOM     50  C   UNL A   1      43.561  23.009  28.087  1.00  0.00     0.135 A 
ATOM     51  C   UNL A   1      42.720  23.782  25.977  1.00  0.00     0.135 A 
ATOM     52  F   UNL A   1      44.205  23.217  29.245  1.00  0.00    -0.206 F 
ATOM     53  C   UNL A   1      43.017  21.747  27.852  1.00  0.00     0.059 A 
ATOM     54  C   UNL A   1      42.142  22.537  25.732  1.00  0.00     0.059 A 
ATOM     55  F   UNL A   1      42.530  24.753  25.069  1.00  0.00    -0.206 F 
ATOM     56  C   UNL A   1      42.320  21.517  26.664  1.00  0.00     0.060 A 
BRANCH  56  57
ATOM     57  S   UNL A   1      41.654  19.864  26.357  1.00  0.00     0.124 S 
ATOM     58  O   UNL A   1      40.245  20.156  26.122  1.00  0.00    -0.237 OA
ATOM     59  O   UNL A   1      42.420  19.438  25.190  1.00  0.00    -0.237 OA
ATOM     60  O   UNL A   1      41.950  19.145  27.593  1.00  0.00    -0.744 OA
ENDBRANCH  56  57
ENDBRANCH  24  49
BRANCH  36  61
ATOM     61  C   UNL A   1      49.560  27.130  25.974  1.00  0.00     0.058 A 
ATOM     62  C   UNL A   1      50.570  26.595  26.791  1.00  0.00     0.135 A 
ATOM     63  C   UNL A   1      49.795  27.214  24.595  1.00  0.00     0.135 A 
ATOM     64  F   UNL A   1      50.400  26.525  28.121  1.00  0.00    -0.206 F 
ATOM     65  C   UNL A   1      51.782  26.182  26.262  1.00  0.00     0.059 A 
ATOM     66  C   UNL A   1      50.986  26.768  24.038  1.00  0.00     0.059 A 
ATOM     67  F   UNL A   1      48.866  27.733  23.778  1.00  0.00    -0.206 F 
ATOM     68  C   UNL A   1      51.977  26.263  24.882  1.00  0.00     0.060 A 
BRANCH  68  69
ATOM     69  S   UNL A   1      53.537  25.664  24.209  1.00  0.00     0.124 S 
ATOM     70  O   UNL A   1      53.506  24.259  24.602  1.00  0.00    -0.237 OA
ATOM     71  O   UNL A   1      53.374  25.929  22.783  1.00  0.00    -0.237 OA
ATOM     72  O   UNL A   1      54.536  26.485  24.886  1.00  0.00    -0.744 OA
ENDBRANCH  68  69
ENDBRANCH  36  61
ENDBRANCH  10  11
ENDBRANCH   3   5
ENDBRANCH   2   3
ENDBRANCH   1   2
BRANCH   1  73
ATOM     73  C   UNL A   1      33.602  27.259  26.241  1.00  0.00     0.274 C 
BRANCH  73  74
ATOM     74  O   UNL A   1      32.302  26.691  26.164  1.00  0.00    -0.462 OA
BRANCH  74  75
ATOM     75  C   UNL A   1      32.284  25.372  26.382  1.00  0.00     0.310 C 
ATOM     76  O   UNL A   1      31.367  24.784  26.953  1.00  0.00    -0.252 OA
BRANCH  75  77
ATOM     77  C   UNL A   1      33.378  24.615  25.672  1.00  0.00     0.119 C 
ATOM     78  C   UNL A   1      33.739  24.234  24.184  1.00  0.00     0.100 C 
ATOM     79  C   UNL A   1      33.799  23.316  26.477  1.00  0.00     0.027 C 
ATOM     80  C   UNL A   1      35.288  22.931  24.310  1.00  0.00     0.025 C 
ATOM     81  C   UNL A   1      33.795  21.080  26.205  1.00  0.00    -0.027 C 
ATOM     82  C   UNL A   1      35.521  23.898  25.594  1.00  0.00     0.017 C 
ATOM     83  C   UNL A   1      34.977  20.978  24.913  1.00  0.00    -0.027 C 
BRANCH  78  84
ATOM     84  C   UNL A   1      32.024  24.409  23.628  1.00  0.00     0.229 C 
ATOM     85  O   UNL A   1      31.576  23.258  23.338  1.00  0.00    -0.274 OA
ATOM     86  N   UNL A   1      31.017  25.305  23.274  1.00  0.00    -0.323 N 
ATOM     87  H   UNL A   1      30.270  24.753  22.951  1.00  0.00     0.170 HD
BRANCH  86  88
ATOM     88  C   UNL A   1      30.565  26.692  23.162  1.00  0.00     0.078 A 
ATOM     89  C   UNL A   1      31.433  27.705  22.766  1.00  0.00     0.029 A 
ATOM     90  C   UNL A   1      29.217  27.120  23.405  1.00  0.00     0.165 A 
ATOM     91  C   UNL A   1      30.953  29.007  22.453  1.00  0.00     0.004 A 
ATOM     92  C   UNL A   1      28.745  28.426  23.127  1.00  0.00     0.078 A 
ATOM     93  F   UNL A   1      28.283  26.210  23.693  1.00  0.00    -0.203 F 
ATOM     94  C   UNL A   1      29.612  29.369  22.611  1.00  0.00     0.024 A 
ATOM     95  Cl  UNL A   1      27.065  28.826  23.269  1.00  0.00    -0.081 Cl
ENDBRANCH  86  88
ENDBRANCH  78  84
ENDBRANCH  75  77
ENDBRANCH  74  75
ENDBRANCH  73  74
ENDBRANCH   1  73
TORSDOF 16
ENDMDL
MODEL 3
REMARK VINA RESULT:     -12.6      5.009     10.774
REMARK SMILES O=C(OCCOC(=O)[C@@H]1[C@H](C(=O)Nc2cccc(Cl)c2F)[C@@H]2C=C[C@H]1C2)c1ccc(-c2c3nc(c(-c4c(F)cc(S(=O)(=O)[O-])cc4F)c4ccc([nH]4)c(-c4c(F)cc(S(=O)(=O)[O-])cc4F)c4nc(c(-c5c(F)cc(S(=O)(=O)[O-])cc5F)c5ccc2[nH]5)C=C4)C=C3)cc1
REMARK SMILES IDX 4 1 3 2 2 3 1 4 27 5 28 6 92 7 29 8 91 9 30 10 31 11 32 12
REMARK SMILES IDX 85 13 33 14 90 15 84 16 86 17 34 18 89 19 83 20 82 21 35 23
REMARK SMILES IDX 69 24 48 25 68 26 49 27 52 28 67 29 87 30 50 31 51 32 66 34
REMARK SMILES IDX 88 35 53 36 36 37 37 38 46 39 38 40 39 41 45 42 47 43 40 44
REMARK SMILES IDX 41 45 42 46 43 47 44 48 70 49 71 50 80 51 72 52 73 53 79 54
REMARK SMILES IDX 81 55 74 56 75 57 76 58 77 59 78 60 54 61 55 62 64 63 56 64
REMARK SMILES IDX 57 65 63 66 65 67 58 68 59 69 60 70 61 71 62 72 5 73 6 74
REMARK SMILES IDX 7 75 8 76 9 77 10 78 25 79 22 80 24 81 26 82 23 83 11 84
REMARK SMILES IDX 12 85 13 86 14 88 15 89 20 90 16 91 18 92 21 93 17 94 19 95
REMARK H PARENT 86 22 52 33 13 87
REMARK Flexibility Score: inf
ROOT
ATOM      1  C   UNL A   1      36.658  22.546  23.157  1.00  0.00     0.275 C 
ENDROOT
BRANCH   1   2
ATOM      2  O   UNL A   1      37.242  22.030  24.455  1.00  0.00    -0.458 OA
BRANCH   2   3
ATOM      3  C   UNL A   1      37.607  22.411  25.745  1.00  0.00     0.338 C 
ATOM      4  O   UNL A   1      36.755  22.383  26.630  1.00  0.00    -0.246 OA
BRANCH   3   5
ATOM      5  C   UNL A   1      38.957  23.045  26.113  1.00  0.00     0.060 A 
ATOM      6  C   UNL A   1      38.748  24.595  26.233  1.00  0.00     0.016 A 
ATOM      7  C   UNL A   1      40.170  22.175  26.968  1.00  0.00     0.016 A 
ATOM      8  C   UNL A   1      39.404  25.566  27.239  1.00  0.00     0.010 A 
ATOM      9  C   UNL A   1      40.953  23.036  28.323  1.00  0.00     0.010 A 
ATOM     10  C   UNL A   1      40.385  25.059  28.408  1.00  0.00    -0.014 A 
BRANCH  10  11
ATOM     11  C   UNL A   1      41.279  26.605  29.050  1.00  0.00     0.031 A 
ATOM     12  C   UNL A   1      40.460  27.808  29.675  1.00  0.00     0.074 A 
ATOM     13  C   UNL A   1      42.611  27.016  28.863  1.00  0.00     0.049 A 
ATOM     14  N   UNL A   1      40.774  29.093  29.725  1.00  0.00    -0.248 NA
ATOM     15  C   UNL A   1      39.187  27.522  30.351  1.00  0.00     0.031 C 
ATOM     16  C   UNL A   1      43.835  26.241  28.670  1.00  0.00     0.029 A 
ATOM     17  N   UNL A   1      43.146  28.282  28.558  1.00  0.00    -0.354 N 
ATOM     18  C   UNL A   1      39.737  29.756  30.391  1.00  0.00     0.074 A 
ATOM     19  C   UNL A   1      38.780  28.728  30.739  1.00  0.00     0.031 C 
ATOM     20  C   UNL A   1      44.767  26.859  27.961  1.00  0.00     0.029 A 
ATOM     21  C   UNL A   1      44.354  28.222  27.849  1.00  0.00     0.049 A 
ATOM     22  H   UNL A   1      42.713  29.128  28.818  1.00  0.00     0.167 HD
ATOM     23  C   UNL A   1      39.585  31.082  30.683  1.00  0.00     0.037 A 
ATOM     24  C   UNL A   1      45.190  29.079  27.230  1.00  0.00     0.037 A 
ATOM     25  C   UNL A   1      40.551  32.124  30.374  1.00  0.00     0.049 A 
ATOM     26  C   UNL A   1      44.984  30.515  27.485  1.00  0.00     0.074 A 
ATOM     27  C   UNL A   1      40.487  33.475  30.697  1.00  0.00     0.029 A 
ATOM     28  N   UNL A   1      41.731  31.957  29.666  1.00  0.00    -0.354 N 
ATOM     29  N   UNL A   1      44.008  31.062  28.155  1.00  0.00    -0.248 NA
ATOM     30  C   UNL A   1      46.019  31.439  27.015  1.00  0.00     0.031 C 
ATOM     31  C   UNL A   1      41.568  34.133  30.103  1.00  0.00     0.029 A 
ATOM     32  C   UNL A   1      42.358  33.185  29.483  1.00  0.00     0.049 A 
ATOM     33  H   UNL A   1      42.075  31.094  29.339  1.00  0.00     0.167 HD
ATOM     34  C   UNL A   1      44.322  32.402  28.216  1.00  0.00     0.074 A 
ATOM     35  C   UNL A   1      45.597  32.575  27.549  1.00  0.00     0.031 C 
ATOM     36  C   UNL A   1      43.598  33.390  28.781  1.00  0.00     0.037 A 
BRANCH  23  37
ATOM     37  C   UNL A   1      38.303  31.565  31.354  1.00  0.00     0.058 A 
ATOM     38  C   UNL A   1      38.145  31.608  32.749  1.00  0.00     0.135 A 
ATOM     39  C   UNL A   1      37.286  32.164  30.580  1.00  0.00     0.135 A 
ATOM     40  F   UNL A   1      39.074  31.065  33.551  1.00  0.00    -0.206 F 
ATOM     41  C   UNL A   1      37.033  32.213  33.346  1.00  0.00     0.059 A 
ATOM     42  C   UNL A   1      36.185  32.800  31.154  1.00  0.00     0.059 A 
ATOM     43  F   UNL A   1      37.386  32.184  29.241  1.00  0.00    -0.206 F 
ATOM     44  C   UNL A   1      36.063  32.816  32.541  1.00  0.00     0.060 A 
BRANCH  44  45
ATOM     45  S   UNL A   1      34.656  33.635  33.333  1.00  0.00     0.124 S 
ATOM     46  O   UNL A   1      34.735  34.974  32.758  1.00  0.00    -0.237 OA
ATOM     47  O   UNL A   1      33.531  32.821  32.885  1.00  0.00    -0.237 OA
ATOM     48  O   UNL A   1      34.962  33.547  34.757  1.00  0.00    -0.744 OA
ENDBRANCH  44  45
ENDBRANCH  23  37
BRANCH  24  49
ATOM     49  C   UNL A   1      46.358  28.572  26.433  1.00  0.00     0.058 A 
ATOM     50  C   UNL A   1      47.676  28.610  26.916  1.00  0.00     0.135 A 
ATOM     51  C   UNL A   1      46.152  27.973  25.176  1.00  0.00     0.135 A 
ATOM     52  F   UNL A   1      47.930  29.120  28.131  1.00  0.00    -0.206 F 
ATOM     53  C   UNL A   1      48.750  28.136  26.163  1.00  0.00     0.059 A 
ATOM     54  C   UNL A   1      47.205  27.466  24.416  1.00  0.00     0.059 A 
ATOM     55  F   UNL A   1      44.907  27.849  24.688  1.00  0.00    -0.206 F 
ATOM     56  C   UNL A   1      48.505  27.577  24.907  1.00  0.00     0.060 A 
BRANCH  56  57
ATOM     57  S   UNL A   1      49.910  27.002  23.926  1.00  0.00     0.124 S 
ATOM     58  O   UNL A   1      49.240  26.391  22.784  1.00  0.00    -0.237 OA
ATOM     59  O   UNL A   1      50.624  28.246  23.656  1.00  0.00    -0.237 OA
ATOM     60  O   UNL A   1      50.594  26.075  24.824  1.00  0.00    -0.744 OA
ENDBRANCH  56  57
ENDBRANCH  24  49
BRANCH  36  61
ATOM     61  C   UNL A   1      44.158  34.768  28.647  1.00  0.00     0.058 A 
ATOM     62  C   UNL A   1      43.822  35.580  27.551  1.00  0.00     0.135 A 
ATOM     63  C   UNL A   1      45.050  35.276  29.601  1.00  0.00     0.135 A 
ATOM     64  F   UNL A   1      42.997  35.121  26.596  1.00  0.00    -0.206 F 
ATOM     65  C   UNL A   1      44.372  36.841  27.392  1.00  0.00     0.059 A 
ATOM     66  C   UNL A   1      45.581  36.553  29.484  1.00  0.00     0.059 A 
ATOM     67  F   UNL A   1      45.411  34.531  30.657  1.00  0.00    -0.206 F 
ATOM     68  C   UNL A   1      45.243  37.323  28.370  1.00  0.00     0.060 A 
BRANCH  68  69
ATOM     69  S   UNL A   1      45.899  38.990  28.174  1.00  0.00     0.124 S 
ATOM     70  O   UNL A   1      45.802  39.505  29.536  1.00  0.00    -0.237 OA
ATOM     71  O   UNL A   1      47.250  38.730  27.688  1.00  0.00    -0.237 OA
ATOM     72  O   UNL A   1      44.993  39.600  27.205  1.00  0.00    -0.744 OA
ENDBRANCH  68  69
ENDBRANCH  36  61
ENDBRANCH  10  11
ENDBRANCH   3   5
ENDBRANCH   2   3
ENDBRANCH   1   2
BRANCH   1  73
ATOM     73  C   UNL A   1      35.171  22.976  23.128  1.00  0.00     0.274 C 
BRANCH  73  74
ATOM     74  O   UNL A   1      34.957  24.142  23.910  1.00  0.00    -0.462 OA
BRANCH  74  75
ATOM     75  C   UNL A   1      34.164  25.041  23.318  1.00  0.00     0.310 C 
ATOM     76  O   UNL A   1      33.893  25.032  22.118  1.00  0.00    -0.252 OA
BRANCH  75  77
ATOM     77  C   UNL A   1      33.436  25.948  24.277  1.00  0.00     0.119 C 
ATOM     78  C   UNL A   1      32.164  25.863  25.206  1.00  0.00     0.100 C 
ATOM     79  C   UNL A   1      33.371  27.435  23.732  1.00  0.00     0.027 C 
ATOM     80  C   UNL A   1      31.855  27.746  25.892  1.00  0.00     0.025 C 
ATOM     81  C   UNL A   1      31.819  28.939  23.095  1.00  0.00    -0.027 C 
ATOM     82  C   UNL A   1      33.470  27.676  25.736  1.00  0.00     0.017 C 
ATOM     83  C   UNL A   1      31.064  29.203  24.656  1.00  0.00    -0.027 C 
BRANCH  78  84
ATOM     84  C   UNL A   1      31.427  24.531  24.225  1.00  0.00     0.229 C 
ATOM     85  O   UNL A   1      30.436  25.002  23.587  1.00  0.00    -0.274 OA
ATOM     86  N   UNL A   1      31.425  23.162  23.964  1.00  0.00    -0.323 N 
ATOM     87  H   UNL A   1      30.681  23.010  23.338  1.00  0.00     0.170 HD
BRANCH  86  88
ATOM     88  C   UNL A   1      32.025  21.848  24.196  1.00  0.00     0.078 A 
ATOM     89  C   UNL A   1      32.543  21.500  25.440  1.00  0.00     0.029 A 
ATOM     90  C   UNL A   1      32.096  20.811  23.207  1.00  0.00     0.165 A 
ATOM     91  C   UNL A   1      32.932  20.163  25.730  1.00  0.00     0.004 A 
ATOM     92  C   UNL A   1      32.516  19.487  23.485  1.00  0.00     0.078 A 
ATOM     93  F   UNL A   1      31.537  21.008  22.010  1.00  0.00    -0.203 F 
ATOM     94  C   UNL A   1      32.903  19.150  24.767  1.00  0.00     0.024 A 
ATOM     95  Cl  UNL A   1      32.405  18.237  22.290  1.00  0.00    -0.081 Cl
ENDBRANCH  86  88
ENDBRANCH  78  84
ENDBRANCH  75  77
ENDBRANCH  74  75
ENDBRANCH  73  74
ENDBRANCH   1  73
TORSDOF 16
ENDMDL
