MODEL 1
REMARK VINA RESULT:     -12.8      0.000      0.000
REMARK SMILES Cc1ccc(C(=O)OCCOC(=O)c2ccc(-c3c4nc(c(-c5c(F)cc(S(=O)(=O)[O-])cc5F)c5ccc([nH]5)c(-c5c(F)cc(S(=O)(=O)[O-])cc5F)c5nc(c(-c6c(F)cc(S(=O)(=O)[O-])cc6F)c6ccc3[nH]6)C=C5)C=C4)cc2)cc1N1CC(C)C1
REMARK SMILES IDX 10 1 9 2 8 3 6 4 7 5 5 6 1 7 2 8 3 9 81 10 4 11 80 12 82 13
REMARK SMILES IDX 83 14 86 15 84 16 85 17 11 18 12 19 13 20 14 21 15 22 79 23
REMARK SMILES IDX 16 24 78 25 17 26 18 27 19 28 72 29 20 30 77 31 71 32 73 33
REMARK SMILES IDX 21 34 76 35 70 36 69 37 22 39 56 40 35 41 55 42 36 43 39 44
REMARK SMILES IDX 54 45 74 46 37 47 38 48 53 50 75 51 40 52 23 53 24 54 33 55
REMARK SMILES IDX 25 56 26 57 32 58 34 59 27 60 28 61 29 62 30 63 31 64 57 65
REMARK SMILES IDX 58 66 67 67 59 68 60 69 66 70 68 71 61 72 62 73 63 74 64 75
REMARK SMILES IDX 65 76 41 77 42 78 51 79 43 80 44 81 50 82 52 83 45 84 46 85
REMARK SMILES IDX 47 86 48 87 49 88
REMARK H PARENT 73 38 39 49
REMARK Flexibility Score: inf
ROOT
ATOM      1  C   UNL A   1      33.929  30.720  27.359  1.00  0.00     0.275 C 
ENDROOT
BRANCH   1   2
ATOM      2  C   UNL A   1      32.670  29.989  26.857  1.00  0.00     0.275 C 
BRANCH   2   3
ATOM      3  O   UNL A   1      32.874  28.567  26.779  1.00  0.00    -0.458 OA
BRANCH   3   4
ATOM      4  C   UNL A   1      31.744  27.856  27.038  1.00  0.00     0.338 C 
ATOM      5  O   UNL A   1      31.027  28.009  28.003  1.00  0.00    -0.246 OA
BRANCH   4   6
ATOM      6  C   UNL A   1      31.536  26.759  26.057  1.00  0.00     0.062 A 
ATOM      7  C   UNL A   1      31.090  23.319  23.482  1.00  0.00     0.046 C 
ATOM      8  C   UNL A   1      31.308  24.534  24.343  1.00  0.00    -0.028 A 
ATOM      9  C   UNL A   1      30.301  25.514  24.394  1.00  0.00     0.006 A 
ATOM     10  C   UNL A   1      32.454  24.691  25.142  1.00  0.00     0.040 A 
ATOM     11  C   UNL A   1      30.438  26.645  25.208  1.00  0.00     0.016 A 
ATOM     12  C   UNL A   1      32.528  25.778  26.023  1.00  0.00     0.041 A 
BRANCH  10  13
ATOM     13  N   UNL A   1      33.573  23.830  24.992  1.00  0.00    -0.371 N 
ATOM     14  C   UNL A   1      34.312  23.217  26.072  1.00  0.00     0.121 C 
ATOM     15  C   UNL A   1      34.790  24.335  24.386  1.00  0.00     0.121 C 
ATOM     16  C   UNL A   1      35.490  24.138  25.735  1.00  0.00     0.025 C 
ATOM     17  C   UNL A   1      36.877  23.536  25.708  1.00  0.00     0.011 C 
ENDBRANCH  10  13
ENDBRANCH   4   6
ENDBRANCH   3   4
ENDBRANCH   2   3
ENDBRANCH   1   2
BRANCH   1  18
ATOM     18  O   UNL A   1      35.073  29.892  27.651  1.00  0.00    -0.458 OA
BRANCH  18  19
ATOM     19  C   UNL A   1      36.136  30.541  28.201  1.00  0.00     0.338 C 
ATOM     20  O   UNL A   1      36.045  31.594  28.816  1.00  0.00    -0.246 OA
BRANCH  19  21
ATOM     21  C   UNL A   1      37.280  29.586  28.224  1.00  0.00     0.060 A 
ATOM     22  C   UNL A   1      38.298  29.697  27.269  1.00  0.00     0.016 A 
ATOM     23  C   UNL A   1      37.480  28.822  29.379  1.00  0.00     0.016 A 
ATOM     24  C   UNL A   1      39.558  29.153  27.524  1.00  0.00     0.010 A 
ATOM     25  C   UNL A   1      38.742  28.370  29.679  1.00  0.00     0.010 A 
ATOM     26  C   UNL A   1      39.779  28.521  28.747  1.00  0.00    -0.014 A 
BRANCH  26  27
ATOM     27  C   UNL A   1      40.921  27.666  29.026  1.00  0.00     0.031 A 
ATOM     28  C   UNL A   1      41.067  26.273  28.571  1.00  0.00     0.074 A 
ATOM     29  C   UNL A   1      41.935  28.365  29.576  1.00  0.00     0.049 A 
ATOM     30  N   UNL A   1      41.952  25.461  29.043  1.00  0.00    -0.248 NA
ATOM     31  C   UNL A   1      40.221  25.658  27.555  1.00  0.00     0.031 C 
ATOM     32  C   UNL A   1      43.345  28.053  29.681  1.00  0.00     0.029 A 
ATOM     33  N   UNL A   1      41.785  29.538  30.317  1.00  0.00    -0.354 N 
ATOM     34  C   UNL A   1      41.999  24.355  28.219  1.00  0.00     0.074 A 
ATOM     35  C   UNL A   1      40.840  24.485  27.365  1.00  0.00     0.031 C 
ATOM     36  C   UNL A   1      43.882  28.842  30.633  1.00  0.00     0.029 A 
ATOM     37  C   UNL A   1      42.783  29.553  31.281  1.00  0.00     0.049 A 
ATOM     38  H   UNL A   1      41.096  30.229  30.180  1.00  0.00     0.167 HD
ATOM     39  C   UNL A   1      43.108  23.554  28.247  1.00  0.00     0.037 A 
ATOM     40  C   UNL A   1      42.410  29.399  32.587  1.00  0.00     0.037 A 
ATOM     41  C   UNL A   1      44.048  24.028  29.263  1.00  0.00     0.049 A 
ATOM     42  C   UNL A   1      42.968  28.121  33.163  1.00  0.00     0.074 A 
ATOM     43  C   UNL A   1      45.137  24.879  29.168  1.00  0.00     0.029 A 
ATOM     44  N   UNL A   1      43.723  23.951  30.615  1.00  0.00    -0.354 N 
ATOM     45  N   UNL A   1      43.183  27.035  32.473  1.00  0.00    -0.248 NA
ATOM     46  C   UNL A   1      43.407  28.013  34.549  1.00  0.00     0.031 C 
ATOM     47  C   UNL A   1      45.401  25.398  30.457  1.00  0.00     0.029 A 
ATOM     48  C   UNL A   1      44.495  24.839  31.342  1.00  0.00     0.049 A 
ATOM     49  H   UNL A   1      43.043  23.350  30.998  1.00  0.00     0.167 HD
ATOM     50  C   UNL A   1      43.859  26.137  33.255  1.00  0.00     0.074 A 
ATOM     51  C   UNL A   1      43.945  26.782  34.556  1.00  0.00     0.031 C 
ATOM     52  C   UNL A   1      44.362  24.960  32.783  1.00  0.00     0.037 A 
BRANCH  39  53
ATOM     53  C   UNL A   1      43.498  22.602  27.125  1.00  0.00     0.058 A 
ATOM     54  C   UNL A   1      42.785  21.398  26.918  1.00  0.00     0.135 A 
ATOM     55  C   UNL A   1      44.598  22.781  26.262  1.00  0.00     0.135 A 
ATOM     56  F   UNL A   1      41.650  21.129  27.575  1.00  0.00    -0.206 F 
ATOM     57  C   UNL A   1      43.203  20.398  26.037  1.00  0.00     0.059 A 
ATOM     58  C   UNL A   1      45.058  21.780  25.393  1.00  0.00     0.059 A 
ATOM     59  F   UNL A   1      45.248  23.953  26.209  1.00  0.00    -0.206 F 
ATOM     60  C   UNL A   1      44.366  20.578  25.305  1.00  0.00     0.060 A 
BRANCH  60  61
ATOM     61  S   UNL A   1      44.937  19.227  24.254  1.00  0.00     0.124 S 
ATOM     62  O   UNL A   1      46.377  19.242  24.491  1.00  0.00    -0.237 OA
ATOM     63  O   UNL A   1      44.218  18.083  24.804  1.00  0.00    -0.237 OA
ATOM     64  O   UNL A   1      44.525  19.639  22.916  1.00  0.00    -0.744 OA
ENDBRANCH  60  61
ENDBRANCH  39  53
BRANCH  40  65
ATOM     65  C   UNL A   1      41.078  29.998  32.931  1.00  0.00     0.058 A 
ATOM     66  C   UNL A   1      40.965  31.406  32.987  1.00  0.00     0.135 A 
ATOM     67  C   UNL A   1      39.877  29.273  32.917  1.00  0.00     0.135 A 
ATOM     68  F   UNL A   1      42.073  32.167  33.001  1.00  0.00    -0.206 F 
ATOM     69  C   UNL A   1      39.738  32.062  32.929  1.00  0.00     0.059 A 
ATOM     70  C   UNL A   1      38.629  29.912  32.872  1.00  0.00     0.059 A 
ATOM     71  F   UNL A   1      39.894  27.933  32.867  1.00  0.00    -0.206 F 
ATOM     72  C   UNL A   1      38.572  31.306  32.845  1.00  0.00     0.060 A 
BRANCH  72  73
ATOM     73  S   UNL A   1      37.011  32.171  32.529  1.00  0.00     0.124 S 
ATOM     74  O   UNL A   1      36.721  32.750  33.837  1.00  0.00    -0.237 OA
ATOM     75  O   UNL A   1      37.398  33.121  31.488  1.00  0.00    -0.237 OA
ATOM     76  O   UNL A   1      36.119  31.101  32.095  1.00  0.00    -0.744 OA
ENDBRANCH  72  73
ENDBRANCH  40  65
BRANCH  52  77
ATOM     77  C   UNL A   1      44.931  23.870  33.648  1.00  0.00     0.058 A 
ATOM     78  C   UNL A   1      44.198  22.731  34.018  1.00  0.00     0.135 A 
ATOM     79  C   UNL A   1      46.301  23.870  34.003  1.00  0.00     0.135 A 
ATOM     80  F   UNL A   1      42.918  22.578  33.647  1.00  0.00    -0.206 F 
ATOM     81  C   UNL A   1      44.766  21.690  34.749  1.00  0.00     0.059 A 
ATOM     82  C   UNL A   1      46.899  22.818  34.683  1.00  0.00     0.059 A 
ATOM     83  F   UNL A   1      47.108  24.894  33.688  1.00  0.00    -0.206 F 
ATOM     84  C   UNL A   1      46.117  21.742  35.076  1.00  0.00     0.060 A 
BRANCH  84  85
ATOM     85  S   UNL A   1      46.876  20.374  35.965  1.00  0.00     0.124 S 
ATOM     86  O   UNL A   1      46.292  19.225  35.280  1.00  0.00    -0.237 OA
ATOM     87  O   UNL A   1      48.302  20.587  35.735  1.00  0.00    -0.237 OA
ATOM     88  O   UNL A   1      46.433  20.584  37.339  1.00  0.00    -0.744 OA
ENDBRANCH  84  85
ENDBRANCH  52  77
ENDBRANCH  26  27
ENDBRANCH  19  21
ENDBRANCH  18  19
ENDBRANCH   1  18
TORSDOF 15
ENDMDL
MODEL 2
REMARK VINA RESULT:     -12.7      1.303      2.481
REMARK SMILES Cc1ccc(C(=O)OCCOC(=O)c2ccc(-c3c4nc(c(-c5c(F)cc(S(=O)(=O)[O-])cc5F)c5ccc([nH]5)c(-c5c(F)cc(S(=O)(=O)[O-])cc5F)c5nc(c(-c6c(F)cc(S(=O)(=O)[O-])cc6F)c6ccc3[nH]6)C=C5)C=C4)cc2)cc1N1CC(C)C1
REMARK SMILES IDX 10 1 9 2 8 3 6 4 7 5 5 6 1 7 2 8 3 9 81 10 4 11 80 12 82 13
REMARK SMILES IDX 83 14 86 15 84 16 85 17 11 18 12 19 13 20 14 21 15 22 79 23
REMARK SMILES IDX 16 24 78 25 17 26 18 27 19 28 72 29 20 30 77 31 71 32 73 33
REMARK SMILES IDX 21 34 76 35 70 36 69 37 22 39 56 40 35 41 55 42 36 43 39 44
REMARK SMILES IDX 54 45 74 46 37 47 38 48 53 50 75 51 40 52 23 53 24 54 33 55
REMARK SMILES IDX 25 56 26 57 32 58 34 59 27 60 28 61 29 62 30 63 31 64 57 65
REMARK SMILES IDX 58 66 67 67 59 68 60 69 66 70 68 71 61 72 62 73 63 74 64 75
REMARK SMILES IDX 65 76 41 77 42 78 51 79 43 80 44 81 50 82 52 83 45 84 46 85
REMARK SMILES IDX 47 86 48 87 49 88
REMARK H PARENT 73 38 39 49
REMARK Flexibility Score: inf
ROOT
ATOM      1  C   UNL A   1      34.198  31.195  27.413  1.00  0.00     0.275 C 
ENDROOT
BRANCH   1   2
ATOM      2  C   UNL A   1      32.953  30.319  27.182  1.00  0.00     0.275 C 
BRANCH   2   3
ATOM      3  O   UNL A   1      33.179  28.955  27.578  1.00  0.00    -0.458 OA
BRANCH   3   4
ATOM      4  C   UNL A   1      32.140  28.135  27.267  1.00  0.00     0.338 C 
ATOM      5  O   UNL A   1      31.248  27.818  28.023  1.00  0.00    -0.246 OA
BRANCH   4   6
ATOM      6  C   UNL A   1      32.276  27.551  25.907  1.00  0.00     0.062 A 
ATOM      7  C   UNL A   1      32.588  26.225  21.808  1.00  0.00     0.046 C 
ATOM      8  C   UNL A   1      32.411  26.660  23.237  1.00  0.00    -0.028 A 
ATOM      9  C   UNL A   1      33.315  26.186  24.204  1.00  0.00     0.006 A 
ATOM     10  C   UNL A   1      31.411  27.570  23.625  1.00  0.00     0.040 A 
ATOM     11  C   UNL A   1      33.216  26.591  25.541  1.00  0.00     0.016 A 
ATOM     12  C   UNL A   1      31.390  28.038  24.946  1.00  0.00     0.041 A 
BRANCH  10  13
ATOM     13  N   UNL A   1      30.368  27.935  22.733  1.00  0.00    -0.371 N 
ATOM     14  C   UNL A   1      30.208  29.231  22.115  1.00  0.00     0.121 C 
ATOM     15  C   UNL A   1      28.994  27.934  23.197  1.00  0.00     0.121 C 
ATOM     16  C   UNL A   1      28.975  29.454  23.000  1.00  0.00     0.025 C 
ATOM     17  C   UNL A   1      27.741  30.048  22.361  1.00  0.00     0.011 C 
ENDBRANCH  10  13
ENDBRANCH   4   6
ENDBRANCH   3   4
ENDBRANCH   2   3
ENDBRANCH   1   2
BRANCH   1  18
ATOM     18  O   UNL A   1      35.463  30.505  27.465  1.00  0.00    -0.458 OA
BRANCH  18  19
ATOM     19  C   UNL A   1      36.141  30.620  28.639  1.00  0.00     0.338 C 
ATOM     20  O   UNL A   1      35.702  31.195  29.625  1.00  0.00    -0.246 OA
BRANCH  19  21
ATOM     21  C   UNL A   1      37.272  29.649  28.599  1.00  0.00     0.060 A 
ATOM     22  C   UNL A   1      38.227  29.736  27.578  1.00  0.00     0.016 A 
ATOM     23  C   UNL A   1      37.537  28.895  29.748  1.00  0.00     0.016 A 
ATOM     24  C   UNL A   1      39.494  29.178  27.757  1.00  0.00     0.010 A 
ATOM     25  C   UNL A   1      38.810  28.429  29.970  1.00  0.00     0.010 A 
ATOM     26  C   UNL A   1      39.786  28.556  28.970  1.00  0.00    -0.014 A 
BRANCH  26  27
ATOM     27  C   UNL A   1      40.933  27.688  29.184  1.00  0.00     0.031 A 
ATOM     28  C   UNL A   1      41.024  26.284  28.750  1.00  0.00     0.074 A 
ATOM     29  C   UNL A   1      41.994  28.382  29.645  1.00  0.00     0.049 A 
ATOM     30  N   UNL A   1      41.930  25.467  29.174  1.00  0.00    -0.248 NA
ATOM     31  C   UNL A   1      40.098  25.663  27.811  1.00  0.00     0.031 C 
ATOM     32  C   UNL A   1      43.403  28.050  29.654  1.00  0.00     0.029 A 
ATOM     33  N   UNL A   1      41.915  29.572  30.369  1.00  0.00    -0.354 N 
ATOM     34  C   UNL A   1      41.900  24.345  28.372  1.00  0.00     0.074 A 
ATOM     35  C   UNL A   1      40.685  24.476  27.601  1.00  0.00     0.031 C 
ATOM     36  C   UNL A   1      44.020  28.849  30.547  1.00  0.00     0.029 A 
ATOM     37  C   UNL A   1      42.981  29.590  31.258  1.00  0.00     0.049 A 
ATOM     38  H   UNL A   1      41.229  30.271  30.267  1.00  0.00     0.167 HD
ATOM     39  C   UNL A   1      42.997  23.527  28.336  1.00  0.00     0.037 A 
ATOM     40  C   UNL A   1      42.702  29.468  32.590  1.00  0.00     0.037 A 
ATOM     41  C   UNL A   1      44.015  24.006  29.272  1.00  0.00     0.049 A 
ATOM     42  C   UNL A   1      43.282  28.194  33.151  1.00  0.00     0.074 A 
ATOM     43  C   UNL A   1      45.107  24.838  29.079  1.00  0.00     0.029 A 
ATOM     44  N   UNL A   1      43.788  23.961  30.645  1.00  0.00    -0.354 N 
ATOM     45  N   UNL A   1      43.430  27.090  32.470  1.00  0.00    -0.248 NA
ATOM     46  C   UNL A   1      43.818  28.106  34.504  1.00  0.00     0.031 C 
ATOM     47  C   UNL A   1      45.472  25.378  30.335  1.00  0.00     0.029 A 
ATOM     48  C   UNL A   1      44.624  24.851  31.295  1.00  0.00     0.049 A 
ATOM     49  H   UNL A   1      43.129  23.380  31.089  1.00  0.00     0.167 HD
ATOM     50  C   UNL A   1      44.148  26.198  33.221  1.00  0.00     0.074 A 
ATOM     51  C   UNL A   1      44.337  26.867  34.499  1.00  0.00     0.031 C 
ATOM     52  C   UNL A   1      44.598  25.004  32.739  1.00  0.00     0.037 A 
BRANCH  39  53
ATOM     53  C   UNL A   1      43.290  22.546  27.210  1.00  0.00     0.058 A 
ATOM     54  C   UNL A   1      42.662  21.279  27.172  1.00  0.00     0.135 A 
ATOM     55  C   UNL A   1      44.224  22.762  26.176  1.00  0.00     0.135 A 
ATOM     56  F   UNL A   1      41.670  20.959  28.012  1.00  0.00    -0.206 F 
ATOM     57  C   UNL A   1      43.024  20.267  26.280  1.00  0.00     0.059 A 
ATOM     58  C   UNL A   1      44.630  21.753  25.290  1.00  0.00     0.059 A 
ATOM     59  F   UNL A   1      44.754  23.976  25.969  1.00  0.00    -0.206 F 
ATOM     60  C   UNL A   1      44.040  20.497  25.366  1.00  0.00     0.060 A 
BRANCH  60  61
ATOM     61  S   UNL A   1      44.557  19.137  24.298  1.00  0.00     0.124 S 
ATOM     62  O   UNL A   1      45.918  18.883  24.763  1.00  0.00    -0.237 OA
ATOM     63  O   UNL A   1      43.577  18.104  24.617  1.00  0.00    -0.237 OA
ATOM     64  O   UNL A   1      44.457  19.701  22.956  1.00  0.00    -0.744 OA
ENDBRANCH  60  61
ENDBRANCH  39  53
BRANCH  40  65
ATOM     65  C   UNL A   1      41.407  30.096  33.017  1.00  0.00     0.058 A 
ATOM     66  C   UNL A   1      41.348  31.502  33.142  1.00  0.00     0.135 A 
ATOM     67  C   UNL A   1      40.181  29.414  33.020  1.00  0.00     0.135 A 
ATOM     68  F   UNL A   1      42.482  32.224  33.145  1.00  0.00    -0.206 F 
ATOM     69  C   UNL A   1      40.143  32.203  33.166  1.00  0.00     0.059 A 
ATOM     70  C   UNL A   1      38.956  30.096  33.057  1.00  0.00     0.059 A 
ATOM     71  F   UNL A   1      40.148  28.078  32.907  1.00  0.00    -0.206 F 
ATOM     72  C   UNL A   1      38.949  31.492  33.096  1.00  0.00     0.060 A 
BRANCH  72  73
ATOM     73  S   UNL A   1      37.409  32.424  32.886  1.00  0.00     0.124 S 
ATOM     74  O   UNL A   1      37.473  33.362  34.001  1.00  0.00    -0.237 OA
ATOM     75  O   UNL A   1      37.587  33.005  31.558  1.00  0.00    -0.237 OA
ATOM     76  O   UNL A   1      36.379  31.393  32.981  1.00  0.00    -0.744 OA
ENDBRANCH  72  73
ENDBRANCH  40  65
BRANCH  52  77
ATOM     77  C   UNL A   1      45.212  23.922  33.583  1.00  0.00     0.058 A 
ATOM     78  C   UNL A   1      46.545  23.959  34.019  1.00  0.00     0.135 A 
ATOM     79  C   UNL A   1      44.413  22.879  34.111  1.00  0.00     0.135 A 
ATOM     80  F   UNL A   1      47.365  24.959  33.662  1.00  0.00    -0.206 F 
ATOM     81  C   UNL A   1      47.074  22.991  34.870  1.00  0.00     0.059 A 
ATOM     82  C   UNL A   1      44.907  21.936  35.003  1.00  0.00     0.059 A 
ATOM     83  F   UNL A   1      43.119  22.749  33.783  1.00  0.00    -0.206 F 
ATOM     84  C   UNL A   1      46.247  21.984  35.358  1.00  0.00     0.060 A 
BRANCH  84  85
ATOM     85  S   UNL A   1      46.903  20.765  36.507  1.00  0.00     0.124 S 
ATOM     86  O   UNL A   1      47.522  21.622  37.513  1.00  0.00    -0.237 OA
ATOM     87  O   UNL A   1      45.707  20.048  36.939  1.00  0.00    -0.237 OA
ATOM     88  O   UNL A   1      47.824  19.992  35.681  1.00  0.00    -0.744 OA
ENDBRANCH  84  85
ENDBRANCH  52  77
ENDBRANCH  26  27
ENDBRANCH  19  21
ENDBRANCH  18  19
ENDBRANCH   1  18
TORSDOF 15
ENDMDL
MODEL 3
REMARK VINA RESULT:     -12.3      4.790     11.321
REMARK SMILES Cc1ccc(C(=O)OCCOC(=O)c2ccc(-c3c4nc(c(-c5c(F)cc(S(=O)(=O)[O-])cc5F)c5ccc([nH]5)c(-c5c(F)cc(S(=O)(=O)[O-])cc5F)c5nc(c(-c6c(F)cc(S(=O)(=O)[O-])cc6F)c6ccc3[nH]6)C=C5)C=C4)cc2)cc1N1CC(C)C1
REMARK SMILES IDX 10 1 9 2 8 3 6 4 7 5 5 6 1 7 2 8 3 9 81 10 4 11 80 12 82 13
REMARK SMILES IDX 83 14 86 15 84 16 85 17 11 18 12 19 13 20 14 21 15 22 79 23
REMARK SMILES IDX 16 24 78 25 17 26 18 27 19 28 72 29 20 30 77 31 71 32 73 33
REMARK SMILES IDX 21 34 76 35 70 36 69 37 22 39 56 40 35 41 55 42 36 43 39 44
REMARK SMILES IDX 54 45 74 46 37 47 38 48 53 50 75 51 40 52 23 53 24 54 33 55
REMARK SMILES IDX 25 56 26 57 32 58 34 59 27 60 28 61 29 62 30 63 31 64 57 65
REMARK SMILES IDX 58 66 67 67 59 68 60 69 66 70 68 71 61 72 62 73 63 74 64 75
REMARK SMILES IDX 65 76 41 77 42 78 51 79 43 80 44 81 50 82 52 83 45 84 46 85
REMARK SMILES IDX 47 86 48 87 49 88
REMARK H PARENT 73 38 39 49
REMARK Flexibility Score: inf
ROOT
ATOM      1  C   UNL A   1      38.059  22.775  25.514  1.00  0.00     0.275 C 
ENDROOT
BRANCH   1   2
ATOM      2  C   UNL A   1      36.835  21.884  25.792  1.00  0.00     0.275 C 
BRANCH   2   3
ATOM      3  O   UNL A   1      35.661  22.665  26.078  1.00  0.00    -0.458 OA
BRANCH   3   4
ATOM      4  C   UNL A   1      34.543  22.179  25.475  1.00  0.00     0.338 C 
ATOM      5  O   UNL A   1      34.081  21.072  25.645  1.00  0.00    -0.246 OA
BRANCH   4   6
ATOM      6  C   UNL A   1      33.996  23.123  24.465  1.00  0.00     0.062 A 
ATOM      7  C   UNL A   1      32.652  26.152  21.693  1.00  0.00     0.046 C 
ATOM      8  C   UNL A   1      33.060  25.110  22.699  1.00  0.00    -0.028 A 
ATOM      9  C   UNL A   1      33.274  23.792  22.258  1.00  0.00     0.006 A 
ATOM     10  C   UNL A   1      33.294  25.424  24.050  1.00  0.00     0.040 A 
ATOM     11  C   UNL A   1      33.690  22.794  23.147  1.00  0.00     0.016 A 
ATOM     12  C   UNL A   1      33.805  24.435  24.902  1.00  0.00     0.041 A 
BRANCH  10  13
ATOM     13  N   UNL A   1      32.921  26.686  24.582  1.00  0.00    -0.371 N 
ATOM     14  C   UNL A   1      33.764  27.859  24.630  1.00  0.00     0.121 C 
ATOM     15  C   UNL A   1      32.600  26.803  25.992  1.00  0.00     0.121 C 
ATOM     16  C   UNL A   1      33.836  27.695  26.153  1.00  0.00     0.025 C 
ATOM     17  C   UNL A   1      33.684  28.932  27.008  1.00  0.00     0.011 C 
ENDBRANCH  10  13
ENDBRANCH   4   6
ENDBRANCH   3   4
ENDBRANCH   2   3
ENDBRANCH   1   2
BRANCH   1  18
ATOM     18  O   UNL A   1      38.356  23.779  26.506  1.00  0.00    -0.458 OA
BRANCH  18  19
ATOM     19  C   UNL A   1      39.611  23.727  27.030  1.00  0.00     0.338 C 
ATOM     20  O   UNL A   1      40.397  22.813  26.823  1.00  0.00    -0.246 OA
BRANCH  19  21
ATOM     21  C   UNL A   1      39.935  25.085  27.552  1.00  0.00     0.060 A 
ATOM     22  C   UNL A   1      40.361  26.086  26.669  1.00  0.00     0.016 A 
ATOM     23  C   UNL A   1      39.497  25.421  28.838  1.00  0.00     0.016 A 
ATOM     24  C   UNL A   1      40.229  27.430  27.021  1.00  0.00     0.010 A 
ATOM     25  C   UNL A   1      39.275  26.740  29.151  1.00  0.00     0.010 A 
ATOM     26  C   UNL A   1      39.653  27.747  28.251  1.00  0.00    -0.014 A 
BRANCH  26  27
ATOM     27  C   UNL A   1      39.724  29.061  28.867  1.00  0.00     0.031 A 
ATOM     28  C   UNL A   1      38.686  30.101  28.765  1.00  0.00     0.074 A 
ATOM     29  C   UNL A   1      40.764  29.148  29.722  1.00  0.00     0.049 A 
ATOM     30  N   UNL A   1      38.882  31.334  29.093  1.00  0.00    -0.248 NA
ATOM     31  C   UNL A   1      37.336  29.855  28.271  1.00  0.00     0.031 C 
ATOM     32  C   UNL A   1      41.020  30.078  30.802  1.00  0.00     0.029 A 
ATOM     33  N   UNL A   1      41.931  28.388  29.637  1.00  0.00    -0.354 N 
ATOM     34  C   UNL A   1      37.654  31.962  29.143  1.00  0.00     0.074 A 
ATOM     35  C   UNL A   1      36.737  31.025  28.535  1.00  0.00     0.031 C 
ATOM     36  C   UNL A   1      42.331  30.019  31.108  1.00  0.00     0.029 A 
ATOM     37  C   UNL A   1      42.975  29.174  30.105  1.00  0.00     0.049 A 
ATOM     38  H   UNL A   1      42.002  27.464  29.305  1.00  0.00     0.167 HD
ATOM     39  C   UNL A   1      37.534  33.128  29.850  1.00  0.00     0.037 A 
ATOM     40  C   UNL A   1      43.908  29.600  29.201  1.00  0.00     0.037 A 
ATOM     41  C   UNL A   1      38.836  33.531  30.384  1.00  0.00     0.049 A 
ATOM     42  C   UNL A   1      43.885  31.103  29.066  1.00  0.00     0.074 A 
ATOM     43  C   UNL A   1      39.427  33.295  31.615  1.00  0.00     0.029 A 
ATOM     44  N   UNL A   1      39.856  33.933  29.525  1.00  0.00    -0.354 N 
ATOM     45  N   UNL A   1      42.817  31.839  29.212  1.00  0.00    -0.248 NA
ATOM     46  C   UNL A   1      45.092  31.887  28.842  1.00  0.00     0.031 C 
ATOM     47  C   UNL A   1      40.825  33.454  31.466  1.00  0.00     0.029 A 
ATOM     48  C   UNL A   1      41.082  33.819  30.155  1.00  0.00     0.049 A 
ATOM     49  H   UNL A   1      39.723  34.253  28.603  1.00  0.00     0.167 HD
ATOM     50  C   UNL A   1      43.183  33.158  29.206  1.00  0.00     0.074 A 
ATOM     51  C   UNL A   1      44.612  33.138  28.937  1.00  0.00     0.031 C 
ATOM     52  C   UNL A   1      42.319  34.177  29.484  1.00  0.00     0.037 A 
BRANCH  39  53
ATOM     53  C   UNL A   1      36.211  33.678  30.365  1.00  0.00     0.058 A 
ATOM     54  C   UNL A   1      35.298  34.306  29.485  1.00  0.00     0.135 A 
ATOM     55  C   UNL A   1      35.811  33.680  31.716  1.00  0.00     0.135 A 
ATOM     56  F   UNL A   1      35.474  34.290  28.158  1.00  0.00    -0.206 F 
ATOM     57  C   UNL A   1      34.163  34.995  29.918  1.00  0.00     0.059 A 
ATOM     58  C   UNL A   1      34.694  34.392  32.181  1.00  0.00     0.059 A 
ATOM     59  F   UNL A   1      36.474  32.960  32.632  1.00  0.00    -0.206 F 
ATOM     60  C   UNL A   1      33.888  35.070  31.274  1.00  0.00     0.060 A 
BRANCH  60  61
ATOM     61  S   UNL A   1      32.474  36.054  31.810  1.00  0.00     0.124 S 
ATOM     62  O   UNL A   1      33.108  37.079  32.634  1.00  0.00    -0.237 OA
ATOM     63  O   UNL A   1      31.921  36.516  30.541  1.00  0.00    -0.237 OA
ATOM     64  O   UNL A   1      31.649  35.096  32.540  1.00  0.00    -0.744 OA
ENDBRANCH  60  61
ENDBRANCH  39  53
BRANCH  40  65
ATOM     65  C   UNL A   1      44.188  28.631  28.089  1.00  0.00     0.058 A 
ATOM     66  C   UNL A   1      44.876  27.435  28.394  1.00  0.00     0.135 A 
ATOM     67  C   UNL A   1      43.567  28.695  26.833  1.00  0.00     0.135 A 
ATOM     68  F   UNL A   1      45.494  27.301  29.580  1.00  0.00    -0.206 F 
ATOM     69  C   UNL A   1      44.864  26.328  27.549  1.00  0.00     0.059 A 
ATOM     70  C   UNL A   1      43.552  27.597  25.960  1.00  0.00     0.059 A 
ATOM     71  F   UNL A   1      42.894  29.795  26.464  1.00  0.00    -0.206 F 
ATOM     72  C   UNL A   1      44.176  26.408  26.341  1.00  0.00     0.060 A 
BRANCH  72  73
ATOM     73  S   UNL A   1      43.968  24.892  25.371  1.00  0.00     0.124 S 
ATOM     74  O   UNL A   1      42.803  25.216  24.556  1.00  0.00    -0.237 OA
ATOM     75  O   UNL A   1      45.239  24.815  24.656  1.00  0.00    -0.237 OA
ATOM     76  O   UNL A   1      43.767  23.868  26.392  1.00  0.00    -0.744 OA
ENDBRANCH  72  73
ENDBRANCH  40  65
BRANCH  52  77
ATOM     77  C   UNL A   1      42.633  35.635  29.295  1.00  0.00     0.058 A 
ATOM     78  C   UNL A   1      42.061  36.411  28.275  1.00  0.00     0.135 A 
ATOM     79  C   UNL A   1      43.412  36.335  30.247  1.00  0.00     0.135 A 
ATOM     80  F   UNL A   1      41.224  35.871  27.377  1.00  0.00    -0.206 F 
ATOM     81  C   UNL A   1      42.297  37.780  28.164  1.00  0.00     0.059 A 
ATOM     82  C   UNL A   1      43.615  37.707  30.185  1.00  0.00     0.059 A 
ATOM     83  F   UNL A   1      43.996  35.706  31.277  1.00  0.00    -0.206 F 
ATOM     84  C   UNL A   1      43.074  38.419  29.125  1.00  0.00     0.060 A 
BRANCH  84  85
ATOM     85  S   UNL A   1      43.334  40.197  29.028  1.00  0.00     0.124 S 
ATOM     86  O   UNL A   1      42.794  40.637  30.310  1.00  0.00    -0.237 OA
ATOM     87  O   UNL A   1      44.782  40.307  28.881  1.00  0.00    -0.237 OA
ATOM     88  O   UNL A   1      42.561  40.581  27.851  1.00  0.00    -0.744 OA
ENDBRANCH  84  85
ENDBRANCH  52  77
ENDBRANCH  26  27
ENDBRANCH  19  21
ENDBRANCH  18  19
ENDBRANCH   1  18
TORSDOF 15
ENDMDL
