MODEL 1
REMARK VINA RESULT:     -12.5      0.000      0.000
REMARK SMILES C[C@@H](C(=O)OCCOC(=O)c1ccc(-c2c3nc(c(-c4c(F)cc(S(=O)(=O)[O-])cc4F)c4ccc([nH]4)c(-c4c(F)cc(S(=O)(=O)[O-])cc4F)c4nc(c(-c5c(F)cc(S(=O)(=O)[O-])cc5F)c5ccc2[nH]5)C=C4)C=C3)cc1)c1ccc(-c2cccc(OC(=O)NCCC3CCCCC3)c2)c(F)c1
REMARK SMILES IDX 3 1 4 2 2 3 1 4 77 5 78 6 101 7 79 8 99 9 80 10 100 11 81 12
REMARK SMILES IDX 82 13 98 14 83 15 85 16 84 17 86 18 87 19 88 20 89 21 90 23
REMARK SMILES IDX 91 24 92 25 93 26 97 27 94 28 96 29 95 30 5 31 6 32 7 33
REMARK SMILES IDX 8 34 9 35 10 36 11 37 12 38 76 39 13 40 75 41 14 42 15 43
REMARK SMILES IDX 16 44 69 45 17 46 74 47 68 48 70 49 18 50 73 51 67 52 66 53
REMARK SMILES IDX 19 55 53 56 32 57 52 58 33 59 36 60 51 61 71 62 34 63 35 64
REMARK SMILES IDX 50 66 72 67 37 68 20 69 21 70 30 71 22 72 23 73 29 74 31 75
REMARK SMILES IDX 24 76 25 77 26 78 27 79 28 80 54 81 55 82 64 83 56 84 57 85
REMARK SMILES IDX 63 86 65 87 58 88 59 89 60 90 61 91 62 92 38 93 39 94 48 95
REMARK SMILES IDX 40 96 41 97 47 98 49 99 42 100 43 101 44 102 45 103 46 104
REMARK H PARENT 89 22 70 54 36 65
REMARK Flexibility Score: inf
ROOT
ATOM      1  C   UNL A   1      42.055  20.786  26.456  1.00  0.00     0.313 C 
ATOM      2  O   UNL A   1      42.063  19.663  26.945  1.00  0.00    -0.252 OA
ENDROOT
BRANCH   1   3
ATOM      3  C   UNL A   1      41.103  21.928  26.915  1.00  0.00     0.126 C 
ATOM      4  C   UNL A   1      41.063  22.017  28.454  1.00  0.00     0.025 C 
BRANCH   3   5
ATOM      5  C   UNL A   1      39.702  21.930  26.251  1.00  0.00    -0.031 A 
ATOM      6  C   UNL A   1      38.893  23.080  26.169  1.00  0.00     0.005 A 
ATOM      7  C   UNL A   1      39.170  20.773  25.653  1.00  0.00     0.044 A 
ATOM      8  C   UNL A   1      37.589  23.054  25.616  1.00  0.00     0.012 A 
ATOM      9  C   UNL A   1      37.864  20.750  25.106  1.00  0.00     0.131 A 
ATOM     10  C   UNL A   1      37.023  21.875  25.109  1.00  0.00     0.018 A 
ATOM     11  F   UNL A   1      37.421  19.583  24.616  1.00  0.00    -0.206 F 
BRANCH  10  12
ATOM     12  C   UNL A   1      35.583  21.808  24.736  1.00  0.00    -0.012 A 
ATOM     13  C   UNL A   1      34.666  20.948  25.351  1.00  0.00     0.009 A 
ATOM     14  C   UNL A   1      35.075  22.645  23.721  1.00  0.00     0.056 A 
ATOM     15  C   UNL A   1      33.299  20.963  24.990  1.00  0.00     0.004 A 
ATOM     16  C   UNL A   1      33.703  22.700  23.411  1.00  0.00     0.133 A 
ATOM     17  C   UNL A   1      32.794  21.858  24.032  1.00  0.00     0.047 A 
BRANCH  16  18
ATOM     18  O   UNL A   1      33.106  23.923  22.421  1.00  0.00    -0.410 OA
BRANCH  18  19
ATOM     19  C   UNL A   1      32.572  25.318  21.693  1.00  0.00     0.412 C 
ATOM     20  O   UNL A   1      33.280  25.929  20.894  1.00  0.00    -0.224 OA
ATOM     21  N   UNL A   1      31.313  25.778  21.944  1.00  0.00    -0.321 N 
ATOM     22  H   UNL A   1      30.562  25.145  21.872  1.00  0.00     0.167 HD
BRANCH  21  23
ATOM     23  C   UNL A   1      31.026  27.143  22.308  1.00  0.00     0.119 C 
BRANCH  23  24
ATOM     24  C   UNL A   1      30.371  27.416  23.656  1.00  0.00     0.025 C 
BRANCH  24  25
ATOM     25  C   UNL A   1      31.211  27.052  24.894  1.00  0.00    -0.009 C 
ATOM     26  C   UNL A   1      31.161  25.539  25.170  1.00  0.00     0.003 C 
ATOM     27  C   UNL A   1      32.647  27.555  24.648  1.00  0.00     0.003 C 
ATOM     28  C   UNL A   1      32.204  25.071  26.175  1.00  0.00     0.000 C 
ATOM     29  C   UNL A   1      33.658  27.036  25.661  1.00  0.00     0.000 C 
ATOM     30  C   UNL A   1      33.599  25.518  25.769  1.00  0.00     0.000 C 
ENDBRANCH  24  25
ENDBRANCH  23  24
ENDBRANCH  21  23
ENDBRANCH  18  19
ENDBRANCH  16  18
ENDBRANCH  10  12
ENDBRANCH   3   5
ENDBRANCH   1   3
BRANCH   1  31
ATOM     31  O   UNL A   1      42.821  21.133  25.374  1.00  0.00    -0.462 OA
BRANCH  31  32
ATOM     32  C   UNL A   1      43.764  22.223  25.525  1.00  0.00     0.274 C 
BRANCH  32  33
ATOM     33  C   UNL A   1      43.391  23.413  24.635  1.00  0.00     0.275 C 
BRANCH  33  34
ATOM     34  O   UNL A   1      42.710  24.403  25.421  1.00  0.00    -0.458 OA
BRANCH  34  35
ATOM     35  C   UNL A   1      43.429  25.516  25.694  1.00  0.00     0.338 C 
ATOM     36  O   UNL A   1      44.270  26.054  24.999  1.00  0.00    -0.246 OA
BRANCH  35  37
ATOM     37  C   UNL A   1      42.788  26.153  26.849  1.00  0.00     0.060 A 
ATOM     38  C   UNL A   1      43.247  27.426  27.156  1.00  0.00     0.016 A 
ATOM     39  C   UNL A   1      41.771  25.558  27.598  1.00  0.00     0.016 A 
ATOM     40  C   UNL A   1      42.666  28.129  28.192  1.00  0.00     0.010 A 
ATOM     41  C   UNL A   1      41.204  26.264  28.671  1.00  0.00     0.010 A 
ATOM     42  C   UNL A   1      41.651  27.558  28.965  1.00  0.00    -0.014 A 
BRANCH  42  43
ATOM     43  C   UNL A   1      41.230  28.326  30.160  1.00  0.00     0.031 A 
ATOM     44  C   UNL A   1      42.271  28.202  31.388  1.00  0.00     0.074 A 
ATOM     45  C   UNL A   1      40.195  29.224  29.967  1.00  0.00     0.049 A 
ATOM     46  N   UNL A   1      42.365  28.911  32.480  1.00  0.00    -0.248 NA
ATOM     47  C   UNL A   1      43.388  27.235  31.363  1.00  0.00     0.031 C 
ATOM     48  C   UNL A   1      39.292  29.442  28.818  1.00  0.00     0.029 A 
ATOM     49  N   UNL A   1      39.753  30.248  30.760  1.00  0.00    -0.354 N 
ATOM     50  C   UNL A   1      43.426  28.560  33.276  1.00  0.00     0.074 A 
ATOM     51  C   UNL A   1      44.047  27.490  32.508  1.00  0.00     0.031 C 
ATOM     52  C   UNL A   1      38.418  30.459  29.090  1.00  0.00     0.029 A 
ATOM     53  C   UNL A   1      38.653  30.981  30.441  1.00  0.00     0.049 A 
ATOM     54  H   UNL A   1      40.246  30.461  31.585  1.00  0.00     0.167 HD
ATOM     55  C   UNL A   1      43.770  29.057  34.516  1.00  0.00     0.037 A 
ATOM     56  C   UNL A   1      37.997  31.902  31.218  1.00  0.00     0.037 A 
ATOM     57  C   UNL A   1      43.092  30.103  35.349  1.00  0.00     0.049 A 
ATOM     58  C   UNL A   1      38.350  32.262  32.731  1.00  0.00     0.074 A 
ATOM     59  C   UNL A   1      43.148  30.325  36.723  1.00  0.00     0.029 A 
ATOM     60  N   UNL A   1      42.183  31.084  34.929  1.00  0.00    -0.354 N 
ATOM     61  N   UNL A   1      39.441  32.068  33.436  1.00  0.00    -0.248 NA
ATOM     62  C   UNL A   1      37.343  32.958  33.555  1.00  0.00     0.031 C 
ATOM     63  C   UNL A   1      42.109  31.224  37.096  1.00  0.00     0.029 A 
ATOM     64  C   UNL A   1      41.404  31.614  35.960  1.00  0.00     0.049 A 
ATOM     65  H   UNL A   1      42.101  31.372  33.991  1.00  0.00     0.167 HD
ATOM     66  C   UNL A   1      39.288  32.512  34.744  1.00  0.00     0.074 A 
ATOM     67  C   UNL A   1      37.970  33.132  34.724  1.00  0.00     0.031 C 
ATOM     68  C   UNL A   1      40.112  32.363  35.845  1.00  0.00     0.037 A 
BRANCH  55  69
ATOM     69  C   UNL A   1      44.847  28.279  35.219  1.00  0.00     0.058 A 
ATOM     70  C   UNL A   1      46.203  28.584  35.072  1.00  0.00     0.135 A 
ATOM     71  C   UNL A   1      44.490  27.256  36.119  1.00  0.00     0.135 A 
ATOM     72  F   UNL A   1      46.590  29.546  34.220  1.00  0.00    -0.206 F 
ATOM     73  C   UNL A   1      47.177  27.900  35.795  1.00  0.00     0.059 A 
ATOM     74  C   UNL A   1      45.445  26.569  36.860  1.00  0.00     0.059 A 
ATOM     75  F   UNL A   1      43.198  26.937  36.296  1.00  0.00    -0.206 F 
ATOM     76  C   UNL A   1      46.788  26.895  36.686  1.00  0.00     0.060 A 
BRANCH  76  77
ATOM     77  S   UNL A   1      48.066  26.027  37.624  1.00  0.00     0.124 S 
ATOM     78  O   UNL A   1      49.244  26.835  37.323  1.00  0.00    -0.237 OA
ATOM     79  O   UNL A   1      47.565  26.121  38.992  1.00  0.00    -0.237 OA
ATOM     80  O   UNL A   1      48.060  24.687  37.047  1.00  0.00    -0.744 OA
ENDBRANCH  76  77
ENDBRANCH  55  69
BRANCH  56  81
ATOM     81  C   UNL A   1      36.827  32.630  30.639  1.00  0.00     0.058 A 
ATOM     82  C   UNL A   1      37.036  33.749  29.815  1.00  0.00     0.135 A 
ATOM     83  C   UNL A   1      35.500  32.292  30.943  1.00  0.00     0.135 A 
ATOM     84  F   UNL A   1      38.286  34.144  29.522  1.00  0.00    -0.206 F 
ATOM     85  C   UNL A   1      35.979  34.503  29.314  1.00  0.00     0.059 A 
ATOM     86  C   UNL A   1      34.424  33.017  30.432  1.00  0.00     0.059 A 
ATOM     87  F   UNL A   1      35.232  31.257  31.752  1.00  0.00    -0.206 F 
ATOM     88  C   UNL A   1      34.674  34.127  29.626  1.00  0.00     0.060 A 
BRANCH  88  89
ATOM     89  S   UNL A   1      33.304  35.080  28.933  1.00  0.00     0.124 S 
ATOM     90  O   UNL A   1      32.731  34.129  27.986  1.00  0.00    -0.237 OA
ATOM     91  O   UNL A   1      32.495  35.368  30.113  1.00  0.00    -0.237 OA
ATOM     92  O   UNL A   1      33.966  36.239  28.341  1.00  0.00    -0.744 OA
ENDBRANCH  88  89
ENDBRANCH  56  81
BRANCH  68  93
ATOM     93  C   UNL A   1      39.564  32.913  37.158  1.00  0.00     0.058 A 
ATOM     94  C   UNL A   1      38.536  32.271  37.877  1.00  0.00     0.135 A 
ATOM     95  C   UNL A   1      40.135  34.052  37.750  1.00  0.00     0.135 A 
ATOM     96  F   UNL A   1      37.951  31.166  37.388  1.00  0.00    -0.206 F 
ATOM     97  C   UNL A   1      38.071  32.756  39.100  1.00  0.00     0.059 A 
ATOM     98  C   UNL A   1      39.705  34.540  38.985  1.00  0.00     0.059 A 
ATOM     99  F   UNL A   1      41.143  34.695  37.136  1.00  0.00    -0.206 F 
ATOM    100  C   UNL A   1      38.660  33.895  39.645  1.00  0.00     0.060 A 
BRANCH 100 101
ATOM    101  S   UNL A   1      38.064  34.503  41.242  1.00  0.00     0.124 S 
ATOM    102  O   UNL A   1      38.179  35.947  41.069  1.00  0.00    -0.237 OA
ATOM    103  O   UNL A   1      36.704  33.978  41.292  1.00  0.00    -0.237 OA
ATOM    104  O   UNL A   1      38.994  33.910  42.198  1.00  0.00    -0.744 OA
ENDBRANCH 100 101
ENDBRANCH  68  93
ENDBRANCH  42  43
ENDBRANCH  35  37
ENDBRANCH  34  35
ENDBRANCH  33  34
ENDBRANCH  32  33
ENDBRANCH  31  32
ENDBRANCH   1  31
TORSDOF 21
ENDMDL
MODEL 2
REMARK VINA RESULT:     -12.3      5.862     12.207
REMARK SMILES C[C@@H](C(=O)OCCOC(=O)c1ccc(-c2c3nc(c(-c4c(F)cc(S(=O)(=O)[O-])cc4F)c4ccc([nH]4)c(-c4c(F)cc(S(=O)(=O)[O-])cc4F)c4nc(c(-c5c(F)cc(S(=O)(=O)[O-])cc5F)c5ccc2[nH]5)C=C4)C=C3)cc1)c1ccc(-c2cccc(OC(=O)NCCC3CCCCC3)c2)c(F)c1
REMARK SMILES IDX 3 1 4 2 2 3 1 4 77 5 78 6 101 7 79 8 99 9 80 10 100 11 81 12
REMARK SMILES IDX 82 13 98 14 83 15 85 16 84 17 86 18 87 19 88 20 89 21 90 23
REMARK SMILES IDX 91 24 92 25 93 26 97 27 94 28 96 29 95 30 5 31 6 32 7 33
REMARK SMILES IDX 8 34 9 35 10 36 11 37 12 38 76 39 13 40 75 41 14 42 15 43
REMARK SMILES IDX 16 44 69 45 17 46 74 47 68 48 70 49 18 50 73 51 67 52 66 53
REMARK SMILES IDX 19 55 53 56 32 57 52 58 33 59 36 60 51 61 71 62 34 63 35 64
REMARK SMILES IDX 50 66 72 67 37 68 20 69 21 70 30 71 22 72 23 73 29 74 31 75
REMARK SMILES IDX 24 76 25 77 26 78 27 79 28 80 54 81 55 82 64 83 56 84 57 85
REMARK SMILES IDX 63 86 65 87 58 88 59 89 60 90 61 91 62 92 38 93 39 94 48 95
REMARK SMILES IDX 40 96 41 97 47 98 49 99 42 100 43 101 44 102 45 103 46 104
REMARK H PARENT 89 22 70 54 36 65
REMARK Flexibility Score: inf
ROOT
ATOM      1  C   UNL A   1      34.569  33.254  30.042  1.00  0.00     0.313 C 
ATOM      2  O   UNL A   1      33.849  34.210  29.780  1.00  0.00    -0.252 OA
ENDROOT
BRANCH   1   3
ATOM      3  C   UNL A   1      35.602  32.644  29.051  1.00  0.00     0.126 C 
ATOM      4  C   UNL A   1      36.237  33.746  28.180  1.00  0.00     0.025 C 
BRANCH   3   5
ATOM      5  C   UNL A   1      35.099  31.419  28.243  1.00  0.00    -0.031 A 
ATOM      6  C   UNL A   1      35.868  30.252  28.064  1.00  0.00     0.005 A 
ATOM      7  C   UNL A   1      33.817  31.393  27.668  1.00  0.00     0.044 A 
ATOM      8  C   UNL A   1      35.422  29.165  27.271  1.00  0.00     0.012 A 
ATOM      9  C   UNL A   1      33.378  30.308  26.872  1.00  0.00     0.131 A 
ATOM     10  C   UNL A   1      34.182  29.184  26.617  1.00  0.00     0.018 A 
ATOM     11  F   UNL A   1      32.163  30.403  26.312  1.00  0.00    -0.206 F 
BRANCH  10  12
ATOM     12  C   UNL A   1      33.821  28.143  25.616  1.00  0.00    -0.012 A 
ATOM     13  C   UNL A   1      33.755  28.386  24.240  1.00  0.00     0.009 A 
ATOM     14  C   UNL A   1      33.532  26.827  26.035  1.00  0.00     0.056 A 
ATOM     15  C   UNL A   1      33.455  27.346  23.329  1.00  0.00     0.004 A 
ATOM     16  C   UNL A   1      33.297  25.783  25.120  1.00  0.00     0.133 A 
ATOM     17  C   UNL A   1      33.246  26.024  23.756  1.00  0.00     0.047 A 
BRANCH  16  18
ATOM     18  O   UNL A   1      33.264  24.186  25.648  1.00  0.00    -0.410 OA
BRANCH  18  19
ATOM     19  C   UNL A   1      33.441  22.707  26.387  1.00  0.00     0.412 C 
ATOM     20  O   UNL A   1      34.325  22.516  27.220  1.00  0.00    -0.224 OA
ATOM     21  N   UNL A   1      32.569  21.697  26.106  1.00  0.00    -0.321 N 
ATOM     22  H   UNL A   1      31.604  21.890  26.141  1.00  0.00     0.167 HD
BRANCH  21  23
ATOM     23  C   UNL A   1      32.990  20.362  25.761  1.00  0.00     0.119 C 
BRANCH  23  24
ATOM     24  C   UNL A   1      32.573  19.792  24.410  1.00  0.00     0.025 C 
BRANCH  24  25
ATOM     25  C   UNL A   1      32.612  18.258  24.292  1.00  0.00    -0.009 C 
ATOM     26  C   UNL A   1      33.836  17.796  23.483  1.00  0.00     0.003 C 
ATOM     27  C   UNL A   1      32.600  17.679  25.720  1.00  0.00     0.003 C 
ATOM     28  C   UNL A   1      34.106  16.302  23.590  1.00  0.00     0.000 C 
ATOM     29  C   UNL A   1      32.905  16.188  25.778  1.00  0.00     0.000 C 
ATOM     30  C   UNL A   1      34.198  15.862  25.043  1.00  0.00     0.000 C 
ENDBRANCH  24  25
ENDBRANCH  23  24
ENDBRANCH  21  23
ENDBRANCH  18  19
ENDBRANCH  16  18
ENDBRANCH  10  12
ENDBRANCH   3   5
ENDBRANCH   1   3
BRANCH   1  31
ATOM     31  O   UNL A   1      34.475  32.550  31.215  1.00  0.00    -0.462 OA
BRANCH  31  32
ATOM     32  C   UNL A   1      35.117  33.094  32.393  1.00  0.00     0.274 C 
BRANCH  32  33
ATOM     33  C   UNL A   1      36.142  32.116  32.974  1.00  0.00     0.275 C 
BRANCH  33  34
ATOM     34  O   UNL A   1      37.093  31.762  31.959  1.00  0.00    -0.458 OA
BRANCH  34  35
ATOM     35  C   UNL A   1      37.176  30.440  31.682  1.00  0.00     0.338 C 
ATOM     36  O   UNL A   1      36.266  29.657  31.491  1.00  0.00    -0.246 OA
BRANCH  35  37
ATOM     37  C   UNL A   1      38.576  30.173  31.336  1.00  0.00     0.060 A 
ATOM     38  C   UNL A   1      38.902  30.351  29.999  1.00  0.00     0.016 A 
ATOM     39  C   UNL A   1      39.544  29.786  32.264  1.00  0.00     0.016 A 
ATOM     40  C   UNL A   1      40.207  30.178  29.586  1.00  0.00     0.010 A 
ATOM     41  C   UNL A   1      40.865  29.581  31.834  1.00  0.00     0.010 A 
ATOM     42  C   UNL A   1      41.198  29.784  30.490  1.00  0.00    -0.014 A 
BRANCH  42  43
ATOM     43  C   UNL A   1      42.519  29.451  29.905  1.00  0.00     0.031 A 
ATOM     44  C   UNL A   1      42.541  28.010  29.177  1.00  0.00     0.074 A 
ATOM     45  C   UNL A   1      43.425  30.494  29.827  1.00  0.00     0.049 A 
ATOM     46  N   UNL A   1      43.421  27.499  28.360  1.00  0.00    -0.248 NA
ATOM     47  C   UNL A   1      41.416  27.060  29.302  1.00  0.00     0.031 C 
ATOM     48  C   UNL A   1      43.392  31.861  30.387  1.00  0.00     0.029 A 
ATOM     49  N   UNL A   1      44.595  30.599  29.126  1.00  0.00    -0.354 N 
ATOM     50  C   UNL A   1      43.075  26.262  27.879  1.00  0.00     0.074 A 
ATOM     51  C   UNL A   1      41.781  26.037  28.509  1.00  0.00     0.031 C 
ATOM     52  C   UNL A   1      44.525  32.543  30.036  1.00  0.00     0.029 A 
ATOM     53  C   UNL A   1      45.407  31.683  29.239  1.00  0.00     0.049 A 
ATOM     54  H   UNL A   1      44.856  29.867  28.520  1.00  0.00     0.167 HD
ATOM     55  C   UNL A   1      43.803  25.426  27.059  1.00  0.00     0.037 A 
ATOM     56  C   UNL A   1      46.678  31.843  28.746  1.00  0.00     0.037 A 
ATOM     57  C   UNL A   1      45.168  25.614  26.469  1.00  0.00     0.049 A 
ATOM     58  C   UNL A   1      47.524  30.730  27.980  1.00  0.00     0.074 A 
ATOM     59  C   UNL A   1      46.081  24.668  26.010  1.00  0.00     0.029 A 
ATOM     60  N   UNL A   1      45.873  26.813  26.293  1.00  0.00    -0.354 N 
ATOM     61  N   UNL A   1      47.154  29.625  27.373  1.00  0.00    -0.248 NA
ATOM     62  C   UNL A   1      48.985  30.897  27.861  1.00  0.00     0.031 C 
ATOM     63  C   UNL A   1      47.350  25.289  25.829  1.00  0.00     0.029 A 
ATOM     64  C   UNL A   1      47.250  26.644  26.135  1.00  0.00     0.049 A 
ATOM     65  H   UNL A   1      45.435  27.695  26.283  1.00  0.00     0.167 HD
ATOM     66  C   UNL A   1      48.248  28.930  26.871  1.00  0.00     0.074 A 
ATOM     67  C   UNL A   1      49.360  29.830  27.146  1.00  0.00     0.031 C 
ATOM     68  C   UNL A   1      48.329  27.668  26.311  1.00  0.00     0.037 A 
BRANCH  55  69
ATOM     69  C   UNL A   1      43.235  24.040  26.924  1.00  0.00     0.058 A 
ATOM     70  C   UNL A   1      42.416  23.672  25.853  1.00  0.00     0.135 A 
ATOM     71  C   UNL A   1      43.593  23.049  27.858  1.00  0.00     0.135 A 
ATOM     72  F   UNL A   1      42.043  24.584  24.943  1.00  0.00    -0.206 F 
ATOM     73  C   UNL A   1      41.966  22.362  25.709  1.00  0.00     0.059 A 
ATOM     74  C   UNL A   1      43.166  21.732  27.726  1.00  0.00     0.059 A 
ATOM     75  F   UNL A   1      44.384  23.359  28.897  1.00  0.00    -0.206 F 
ATOM     76  C   UNL A   1      42.347  21.400  26.649  1.00  0.00     0.060 A 
BRANCH  76  77
ATOM     77  S   UNL A   1      41.763  19.702  26.438  1.00  0.00     0.124 S 
ATOM     78  O   UNL A   1      42.516  19.283  25.258  1.00  0.00    -0.237 OA
ATOM     79  O   UNL A   1      42.159  19.079  27.696  1.00  0.00    -0.237 OA
ATOM     80  O   UNL A   1      40.326  19.858  26.241  1.00  0.00    -0.744 OA
ENDBRANCH  76  77
ENDBRANCH  55  69
BRANCH  56  81
ATOM     81  C   UNL A   1      47.371  33.151  28.952  1.00  0.00     0.058 A 
ATOM     82  C   UNL A   1      47.318  34.137  27.951  1.00  0.00     0.135 A 
ATOM     83  C   UNL A   1      48.150  33.425  30.085  1.00  0.00     0.135 A 
ATOM     84  F   UNL A   1      46.620  33.915  26.825  1.00  0.00    -0.206 F 
ATOM     85  C   UNL A   1      48.009  35.340  28.065  1.00  0.00     0.059 A 
ATOM     86  C   UNL A   1      48.830  34.633  30.233  1.00  0.00     0.059 A 
ATOM     87  F   UNL A   1      48.271  32.512  31.061  1.00  0.00    -0.206 F 
ATOM     88  C   UNL A   1      48.761  35.581  29.213  1.00  0.00     0.060 A 
BRANCH  88  89
ATOM     89  S   UNL A   1      49.616  37.164  29.377  1.00  0.00     0.124 S 
ATOM     90  O   UNL A   1      49.128  37.631  30.671  1.00  0.00    -0.237 OA
ATOM     91  O   UNL A   1      51.019  36.767  29.333  1.00  0.00    -0.237 OA
ATOM     92  O   UNL A   1      49.150  37.919  28.217  1.00  0.00    -0.744 OA
ENDBRANCH  88  89
ENDBRANCH  56  81
BRANCH  68  93
ATOM     93  C   UNL A   1      49.735  27.195  25.953  1.00  0.00     0.058 A 
ATOM     94  C   UNL A   1      50.596  26.599  26.895  1.00  0.00     0.135 A 
ATOM     95  C   UNL A   1      50.193  27.259  24.626  1.00  0.00     0.135 A 
ATOM     96  F   UNL A   1      50.223  26.483  28.179  1.00  0.00    -0.206 F 
ATOM     97  C   UNL A   1      51.863  26.128  26.549  1.00  0.00     0.059 A 
ATOM     98  C   UNL A   1      51.447  26.770  24.251  1.00  0.00     0.059 A 
ATOM     99  F   UNL A   1      49.411  27.785  23.669  1.00  0.00    -0.206 F 
ATOM    100  C   UNL A   1      52.282  26.221  25.223  1.00  0.00     0.060 A 
BRANCH 100 101
ATOM    101  S   UNL A   1      53.918  25.588  24.780  1.00  0.00     0.124 S 
ATOM    102  O   UNL A   1      53.647  24.165  24.610  1.00  0.00    -0.237 OA
ATOM    103  O   UNL A   1      54.222  26.326  23.558  1.00  0.00    -0.237 OA
ATOM    104  O   UNL A   1      54.740  25.937  25.935  1.00  0.00    -0.744 OA
ENDBRANCH 100 101
ENDBRANCH  68  93
ENDBRANCH  42  43
ENDBRANCH  35  37
ENDBRANCH  34  35
ENDBRANCH  33  34
ENDBRANCH  32  33
ENDBRANCH  31  32
ENDBRANCH   1  31
TORSDOF 21
ENDMDL
MODEL 3
REMARK VINA RESULT:     -11.8      3.125      9.754
REMARK SMILES C[C@@H](C(=O)OCCOC(=O)c1ccc(-c2c3nc(c(-c4c(F)cc(S(=O)(=O)[O-])cc4F)c4ccc([nH]4)c(-c4c(F)cc(S(=O)(=O)[O-])cc4F)c4nc(c(-c5c(F)cc(S(=O)(=O)[O-])cc5F)c5ccc2[nH]5)C=C4)C=C3)cc1)c1ccc(-c2cccc(OC(=O)NCCC3CCCCC3)c2)c(F)c1
REMARK SMILES IDX 3 1 4 2 2 3 1 4 77 5 78 6 101 7 79 8 99 9 80 10 100 11 81 12
REMARK SMILES IDX 82 13 98 14 83 15 85 16 84 17 86 18 87 19 88 20 89 21 90 23
REMARK SMILES IDX 91 24 92 25 93 26 97 27 94 28 96 29 95 30 5 31 6 32 7 33
REMARK SMILES IDX 8 34 9 35 10 36 11 37 12 38 76 39 13 40 75 41 14 42 15 43
REMARK SMILES IDX 16 44 69 45 17 46 74 47 68 48 70 49 18 50 73 51 67 52 66 53
REMARK SMILES IDX 19 55 53 56 32 57 52 58 33 59 36 60 51 61 71 62 34 63 35 64
REMARK SMILES IDX 50 66 72 67 37 68 20 69 21 70 30 71 22 72 23 73 29 74 31 75
REMARK SMILES IDX 24 76 25 77 26 78 27 79 28 80 54 81 55 82 64 83 56 84 57 85
REMARK SMILES IDX 63 86 65 87 58 88 59 89 60 90 61 91 62 92 38 93 39 94 48 95
REMARK SMILES IDX 40 96 41 97 47 98 49 99 42 100 43 101 44 102 45 103 46 104
REMARK H PARENT 89 22 70 54 36 65
REMARK Flexibility Score: inf
ROOT
ATOM      1  C   UNL A   1      34.875  34.224  28.133  1.00  0.00     0.313 C 
ATOM      2  O   UNL A   1      35.043  34.799  27.064  1.00  0.00    -0.252 OA
ENDROOT
BRANCH   1   3
ATOM      3  C   UNL A   1      35.294  32.750  28.403  1.00  0.00     0.126 C 
ATOM      4  C   UNL A   1      36.773  32.527  28.030  1.00  0.00     0.025 C 
BRANCH   3   5
ATOM      5  C   UNL A   1      34.334  31.674  27.832  1.00  0.00    -0.031 A 
ATOM      6  C   UNL A   1      34.713  30.329  27.648  1.00  0.00     0.005 A 
ATOM      7  C   UNL A   1      33.004  31.979  27.495  1.00  0.00     0.044 A 
ATOM      8  C   UNL A   1      33.847  29.370  27.066  1.00  0.00     0.012 A 
ATOM      9  C   UNL A   1      32.144  31.019  26.909  1.00  0.00     0.131 A 
ATOM     10  C   UNL A   1      32.553  29.702  26.641  1.00  0.00     0.018 A 
ATOM     11  F   UNL A   1      30.912  31.422  26.564  1.00  0.00    -0.206 F 
BRANCH  10  12
ATOM     12  C   UNL A   1      31.737  28.752  25.835  1.00  0.00    -0.012 A 
ATOM     13  C   UNL A   1      31.316  29.014  24.527  1.00  0.00     0.009 A 
ATOM     14  C   UNL A   1      31.357  27.507  26.379  1.00  0.00     0.056 A 
ATOM     15  C   UNL A   1      30.585  28.052  23.791  1.00  0.00     0.004 A 
ATOM     16  C   UNL A   1      30.685  26.530  25.621  1.00  0.00     0.133 A 
ATOM     17  C   UNL A   1      30.281  26.787  24.320  1.00  0.00     0.047 A 
BRANCH  16  18
ATOM     18  O   UNL A   1      30.528  24.962  26.208  1.00  0.00    -0.410 OA
BRANCH  18  19
ATOM     19  C   UNL A   1      30.580  23.338  26.559  1.00  0.00     0.412 C 
ATOM     20  O   UNL A   1      30.296  22.921  27.681  1.00  0.00    -0.224 OA
ATOM     21  N   UNL A   1      30.898  22.440  25.583  1.00  0.00    -0.321 N 
ATOM     22  H   UNL A   1      30.427  22.503  24.720  1.00  0.00     0.167 HD
BRANCH  21  23
ATOM     23  C   UNL A   1      31.886  21.404  25.751  1.00  0.00     0.119 C 
BRANCH  23  24
ATOM     24  C   UNL A   1      33.227  21.770  26.375  1.00  0.00     0.025 C 
BRANCH  24  25
ATOM     25  C   UNL A   1      34.085  22.769  25.578  1.00  0.00    -0.009 C 
ATOM     26  C   UNL A   1      33.749  22.712  24.078  1.00  0.00     0.003 C 
ATOM     27  C   UNL A   1      33.850  24.169  26.178  1.00  0.00     0.003 C 
ATOM     28  C   UNL A   1      34.325  23.875  23.282  1.00  0.00     0.000 C 
ATOM     29  C   UNL A   1      34.417  25.300  25.331  1.00  0.00     0.000 C 
ATOM     30  C   UNL A   1      33.928  25.210  23.892  1.00  0.00     0.000 C 
ENDBRANCH  24  25
ENDBRANCH  23  24
ENDBRANCH  21  23
ENDBRANCH  18  19
ENDBRANCH  16  18
ENDBRANCH  10  12
ENDBRANCH   3   5
ENDBRANCH   1   3
BRANCH   1  31
ATOM     31  O   UNL A   1      34.205  34.790  29.186  1.00  0.00    -0.462 OA
BRANCH  31  32
ATOM     32  C   UNL A   1      33.549  36.064  28.974  1.00  0.00     0.274 C 
BRANCH  32  33
ATOM     33  C   UNL A   1      32.603  36.406  30.129  1.00  0.00     0.275 C 
BRANCH  33  34
ATOM     34  O   UNL A   1      32.595  35.326  31.075  1.00  0.00    -0.458 OA
BRANCH  34  35
ATOM     35  C   UNL A   1      32.919  35.669  32.344  1.00  0.00     0.338 C 
ATOM     36  O   UNL A   1      32.254  36.301  33.142  1.00  0.00    -0.246 OA
BRANCH  35  37
ATOM     37  C   UNL A   1      34.093  34.867  32.705  1.00  0.00     0.060 A 
ATOM     38  C   UNL A   1      35.320  35.479  32.490  1.00  0.00     0.016 A 
ATOM     39  C   UNL A   1      34.017  33.584  33.251  1.00  0.00     0.016 A 
ATOM     40  C   UNL A   1      36.480  34.825  32.851  1.00  0.00     0.010 A 
ATOM     41  C   UNL A   1      35.202  32.910  33.588  1.00  0.00     0.010 A 
ATOM     42  C   UNL A   1      36.438  33.537  33.393  1.00  0.00    -0.014 A 
BRANCH  42  43
ATOM     43  C   UNL A   1      37.745  32.862  33.572  1.00  0.00     0.031 A 
ATOM     44  C   UNL A   1      38.441  33.200  34.989  1.00  0.00     0.074 A 
ATOM     45  C   UNL A   1      38.039  31.863  32.660  1.00  0.00     0.049 A 
ATOM     46  N   UNL A   1      39.442  32.617  35.590  1.00  0.00    -0.248 NA
ATOM     47  C   UNL A   1      37.910  34.251  35.882  1.00  0.00     0.031 C 
ATOM     48  C   UNL A   1      37.367  31.453  31.409  1.00  0.00     0.029 A 
ATOM     49  N   UNL A   1      39.002  30.893  32.691  1.00  0.00    -0.354 N 
ATOM     50  C   UNL A   1      39.721  33.137  36.828  1.00  0.00     0.074 A 
ATOM     51  C   UNL A   1      38.706  34.172  36.964  1.00  0.00     0.031 C 
ATOM     52  C   UNL A   1      38.028  30.398  30.841  1.00  0.00     0.029 A 
ATOM     53  C   UNL A   1      39.198  30.040  31.650  1.00  0.00     0.049 A 
ATOM     54  H   UNL A   1      39.571  30.808  33.491  1.00  0.00     0.167 HD
ATOM     55  C   UNL A   1      40.745  32.801  37.689  1.00  0.00     0.037 A 
ATOM     56  C   UNL A   1      40.228  29.150  31.468  1.00  0.00     0.037 A 
ATOM     57  C   UNL A   1      41.842  31.792  37.524  1.00  0.00     0.049 A 
ATOM     58  C   UNL A   1      41.489  28.979  32.429  1.00  0.00     0.074 A 
ATOM     59  C   UNL A   1      43.087  31.718  38.143  1.00  0.00     0.029 A 
ATOM     60  N   UNL A   1      41.883  30.699  36.648  1.00  0.00    -0.354 N 
ATOM     61  N   UNL A   1      41.681  29.337  33.678  1.00  0.00    -0.248 NA
ATOM     62  C   UNL A   1      42.689  28.288  31.918  1.00  0.00     0.031 C 
ATOM     63  C   UNL A   1      43.900  30.776  37.451  1.00  0.00     0.029 A 
ATOM     64  C   UNL A   1      43.169  30.212  36.407  1.00  0.00     0.049 A 
ATOM     65  H   UNL A   1      41.076  30.311  36.238  1.00  0.00     0.167 HD
ATOM     66  C   UNL A   1      42.965  29.018  34.106  1.00  0.00     0.074 A 
ATOM     67  C   UNL A   1      43.514  28.288  32.971  1.00  0.00     0.031 C 
ATOM     68  C   UNL A   1      43.630  29.349  35.273  1.00  0.00     0.037 A 
BRANCH  55  69
ATOM     69  C   UNL A   1      40.908  33.736  38.855  1.00  0.00     0.058 A 
ATOM     70  C   UNL A   1      40.387  33.447  40.120  1.00  0.00     0.135 A 
ATOM     71  C   UNL A   1      41.672  34.908  38.704  1.00  0.00     0.135 A 
ATOM     72  F   UNL A   1      39.646  32.344  40.309  1.00  0.00    -0.206 F 
ATOM     73  C   UNL A   1      40.617  34.291  41.203  1.00  0.00     0.059 A 
ATOM     74  C   UNL A   1      41.926  35.759  39.775  1.00  0.00     0.059 A 
ATOM     75  F   UNL A   1      42.197  35.219  37.508  1.00  0.00    -0.206 F 
ATOM     76  C   UNL A   1      41.388  35.443  41.020  1.00  0.00     0.060 A 
BRANCH  76  77
ATOM     77  S   UNL A   1      41.687  36.520  42.441  1.00  0.00     0.124 S 
ATOM     78  O   UNL A   1      43.015  37.043  42.132  1.00  0.00    -0.237 OA
ATOM     79  O   UNL A   1      40.590  37.477  42.342  1.00  0.00    -0.237 OA
ATOM     80  O   UNL A   1      41.621  35.609  43.578  1.00  0.00    -0.744 OA
ENDBRANCH  76  77
ENDBRANCH  55  69
BRANCH  56  81
ATOM     81  C   UNL A   1      40.213  28.270  30.260  1.00  0.00     0.058 A 
ATOM     82  C   UNL A   1      39.420  27.110  30.249  1.00  0.00     0.135 A 
ATOM     83  C   UNL A   1      41.025  28.506  29.142  1.00  0.00     0.135 A 
ATOM     84  F   UNL A   1      38.652  26.810  31.308  1.00  0.00    -0.206 F 
ATOM     85  C   UNL A   1      39.431  26.220  29.178  1.00  0.00     0.059 A 
ATOM     86  C   UNL A   1      41.034  27.644  28.046  1.00  0.00     0.059 A 
ATOM     87  F   UNL A   1      41.833  29.577  29.104  1.00  0.00    -0.206 F 
ATOM     88  C   UNL A   1      40.240  26.497  28.078  1.00  0.00     0.060 A 
BRANCH  88  89
ATOM     89  S   UNL A   1      40.214  25.365  26.670  1.00  0.00     0.124 S 
ATOM     90  O   UNL A   1      38.800  25.010  26.603  1.00  0.00    -0.237 OA
ATOM     91  O   UNL A   1      40.711  26.205  25.585  1.00  0.00    -0.237 OA
ATOM     92  O   UNL A   1      41.115  24.293  27.084  1.00  0.00    -0.744 OA
ENDBRANCH  88  89
ENDBRANCH  56  81
BRANCH  68  93
ATOM     93  C   UNL A   1      45.082  28.891  35.356  1.00  0.00     0.058 A 
ATOM     94  C   UNL A   1      46.148  29.661  34.849  1.00  0.00     0.135 A 
ATOM     95  C   UNL A   1      45.421  27.706  36.031  1.00  0.00     0.135 A 
ATOM     96  F   UNL A   1      45.909  30.815  34.208  1.00  0.00    -0.206 F 
ATOM     97  C   UNL A   1      47.478  29.257  34.970  1.00  0.00     0.059 A 
ATOM     98  C   UNL A   1      46.747  27.296  36.187  1.00  0.00     0.059 A 
ATOM     99  F   UNL A   1      44.458  26.940  36.569  1.00  0.00    -0.206 F 
ATOM    100  C   UNL A   1      47.768  28.069  35.638  1.00  0.00     0.060 A 
BRANCH 100 101
ATOM    101  S   UNL A   1      49.497  27.565  35.807  1.00  0.00     0.124 S 
ATOM    102  O   UNL A   1      49.479  26.875  37.092  1.00  0.00    -0.237 OA
ATOM    103  O   UNL A   1      49.695  26.716  34.636  1.00  0.00    -0.237 OA
ATOM    104  O   UNL A   1      50.223  28.831  35.784  1.00  0.00    -0.744 OA
ENDBRANCH 100 101
ENDBRANCH  68  93
ENDBRANCH  42  43
ENDBRANCH  35  37
ENDBRANCH  34  35
ENDBRANCH  33  34
ENDBRANCH  32  33
ENDBRANCH  31  32
ENDBRANCH   1  31
TORSDOF 21
ENDMDL
