MODEL 1
REMARK VINA RESULT:     -12.5      0.000      0.000
REMARK SMILES Cc1ccc(-c2nnc(S[C@@H](C)C(=O)OCCOC(=O)c3ccc(-c4c5nc(c(-c6c(F)cc(S(=O)(=O)[O-])cc6F)c6ccc([nH]6)c(-c6c(F)cc(S(=O)(=O)[O-])cc6F)c6nc(c(-c7c(F)cc(S(=O)(=O)[O-])cc7F)c7ccc4[nH]7)C=C6)C=C5)cc3)n2C)cc1
REMARK SMILES IDX 16 1 15 2 13 3 14 4 11 5 12 6 10 7 9 8 6 9 7 10 87 11 8 12
REMARK SMILES IDX 88 13 5 14 1 15 2 16 3 17 90 18 4 19 89 20 17 21 18 22 19 23
REMARK SMILES IDX 20 24 21 25 22 26 86 27 23 28 85 29 24 30 25 31 26 32 79 33
REMARK SMILES IDX 27 34 84 35 78 36 80 37 28 38 83 39 77 40 76 41 29 43 63 44
REMARK SMILES IDX 42 45 62 46 43 47 46 48 61 49 81 50 44 51 45 52 60 54 82 55
REMARK SMILES IDX 47 56 30 57 31 58 40 59 32 60 33 61 39 62 41 63 34 64 35 65
REMARK SMILES IDX 36 66 37 67 38 68 64 69 65 70 74 71 66 72 67 73 73 74 75 75
REMARK SMILES IDX 68 76 69 77 70 78 71 79 72 80 48 81 49 82 58 83 50 84 51 85
REMARK SMILES IDX 57 86 59 87 52 88 53 89 54 90 55 91 56 92
REMARK H PARENT 80 42 46 53
REMARK Flexibility Score: inf
ROOT
ATOM      1  C   UNL A   1      35.627  23.296  25.735  1.00  0.00     0.274 C 
ENDROOT
BRANCH   1   2
ATOM      2  O   UNL A   1      35.214  24.040  24.580  1.00  0.00    -0.461 OA
BRANCH   2   3
ATOM      3  C   UNL A   1      34.561  23.312  23.631  1.00  0.00     0.319 C 
ATOM      4  O   UNL A   1      34.927  23.230  22.480  1.00  0.00    -0.251 OA
BRANCH   3   5
ATOM      5  C   UNL A   1      33.293  22.666  24.168  1.00  0.00     0.161 C 
ATOM      6  C   UNL A   1      33.162  21.176  23.809  1.00  0.00     0.032 C 
BRANCH   5   7
ATOM      7  S   UNL A   1      31.775  23.497  23.593  1.00  0.00    -0.071 SA
BRANCH   7   8
ATOM      8  C   UNL A   1      32.011  25.197  23.816  1.00  0.00     0.192 A 
ATOM      9  C   UNL A   1      32.474  27.176  24.649  1.00  0.00     0.164 A 
ATOM     10  N   UNL A   1      32.424  27.283  23.336  1.00  0.00    -0.129 NA
ATOM     11  N   UNL A   1      32.193  25.864  24.996  1.00  0.00    -0.305 N 
ATOM     12  N   UNL A   1      32.165  26.035  22.815  1.00  0.00    -0.123 NA
ATOM     13  C   UNL A   1      32.015  25.431  26.357  1.00  0.00     0.154 C 
BRANCH   9  14
ATOM     14  C   UNL A   1      32.658  28.246  25.624  1.00  0.00     0.019 A 
ATOM     15  C   UNL A   1      33.564  31.836  27.815  1.00  0.00     0.044 C 
ATOM     16  C   UNL A   1      33.232  30.564  27.093  1.00  0.00    -0.051 A 
ATOM     17  C   UNL A   1      34.139  29.496  27.071  1.00  0.00     0.004 A 
ATOM     18  C   UNL A   1      31.996  30.426  26.459  1.00  0.00     0.004 A 
ATOM     19  C   UNL A   1      33.856  28.344  26.333  1.00  0.00     0.012 A 
ATOM     20  C   UNL A   1      31.702  29.262  25.755  1.00  0.00     0.012 A 
ENDBRANCH   9  14
ENDBRANCH   7   8
ENDBRANCH   5   7
ENDBRANCH   3   5
ENDBRANCH   2   3
ENDBRANCH   1   2
BRANCH   1  21
ATOM     21  C   UNL A   1      37.155  23.140  25.767  1.00  0.00     0.275 C 
BRANCH  21  22
ATOM     22  O   UNL A   1      37.979  24.214  26.296  1.00  0.00    -0.458 OA
BRANCH  22  23
ATOM     23  C   UNL A   1      39.272  23.979  26.654  1.00  0.00     0.338 C 
ATOM     24  O   UNL A   1      39.939  23.054  26.214  1.00  0.00    -0.246 OA
BRANCH  23  25
ATOM     25  C   UNL A   1      39.830  25.141  27.404  1.00  0.00     0.060 A 
ATOM     26  C   UNL A   1      40.442  26.205  26.719  1.00  0.00     0.016 A 
ATOM     27  C   UNL A   1      39.442  25.297  28.729  1.00  0.00     0.016 A 
ATOM     28  C   UNL A   1      40.509  27.473  27.313  1.00  0.00     0.010 A 
ATOM     29  C   UNL A   1      39.348  26.567  29.235  1.00  0.00     0.010 A 
ATOM     30  C   UNL A   1      39.882  27.670  28.543  1.00  0.00    -0.014 A 
BRANCH  30  31
ATOM     31  C   UNL A   1      39.857  28.911  29.320  1.00  0.00     0.031 A 
ATOM     32  C   UNL A   1      38.808  29.955  29.256  1.00  0.00     0.074 A 
ATOM     33  C   UNL A   1      40.841  28.954  30.246  1.00  0.00     0.049 A 
ATOM     34  N   UNL A   1      38.886  31.070  29.896  1.00  0.00    -0.248 NA
ATOM     35  C   UNL A   1      37.571  29.864  28.495  1.00  0.00     0.031 C 
ATOM     36  C   UNL A   1      41.082  29.855  31.357  1.00  0.00     0.029 A 
ATOM     37  N   UNL A   1      42.011  28.187  30.183  1.00  0.00    -0.354 N 
ATOM     38  C   UNL A   1      37.680  31.738  29.820  1.00  0.00     0.074 A 
ATOM     39  C   UNL A   1      36.888  30.940  28.918  1.00  0.00     0.031 C 
ATOM     40  C   UNL A   1      42.403  29.840  31.622  1.00  0.00     0.029 A 
ATOM     41  C   UNL A   1      43.046  29.025  30.595  1.00  0.00     0.049 A 
ATOM     42  H   UNL A   1      42.087  27.245  29.906  1.00  0.00     0.167 HD
ATOM     43  C   UNL A   1      37.515  32.848  30.600  1.00  0.00     0.037 A 
ATOM     44  C   UNL A   1      43.899  29.450  29.612  1.00  0.00     0.037 A 
ATOM     45  C   UNL A   1      38.819  33.259  31.128  1.00  0.00     0.049 A 
ATOM     46  C   UNL A   1      43.762  30.939  29.351  1.00  0.00     0.074 A 
ATOM     47  C   UNL A   1      39.506  33.048  32.310  1.00  0.00     0.029 A 
ATOM     48  N   UNL A   1      39.755  33.714  30.218  1.00  0.00    -0.354 N 
ATOM     49  N   UNL A   1      42.796  31.680  29.825  1.00  0.00    -0.248 NA
ATOM     50  C   UNL A   1      44.691  31.712  28.530  1.00  0.00     0.031 C 
ATOM     51  C   UNL A   1      40.892  33.285  32.055  1.00  0.00     0.029 A 
ATOM     52  C   UNL A   1      41.034  33.664  30.731  1.00  0.00     0.049 A 
ATOM     53  H   UNL A   1      39.535  34.035  29.314  1.00  0.00     0.167 HD
ATOM     54  C   UNL A   1      42.971  32.979  29.445  1.00  0.00     0.074 A 
ATOM     55  C   UNL A   1      44.156  32.946  28.604  1.00  0.00     0.031 C 
ATOM     56  C   UNL A   1      42.147  33.989  29.849  1.00  0.00     0.037 A 
BRANCH  43  57
ATOM     57  C   UNL A   1      36.218  33.520  31.021  1.00  0.00     0.058 A 
ATOM     58  C   UNL A   1      35.437  34.195  30.048  1.00  0.00     0.135 A 
ATOM     59  C   UNL A   1      35.711  33.616  32.333  1.00  0.00     0.135 A 
ATOM     60  F   UNL A   1      35.759  34.165  28.747  1.00  0.00    -0.206 F 
ATOM     61  C   UNL A   1      34.309  34.959  30.355  1.00  0.00     0.059 A 
ATOM     62  C   UNL A   1      34.586  34.388  32.667  1.00  0.00     0.059 A 
ATOM     63  F   UNL A   1      36.265  32.954  33.353  1.00  0.00    -0.206 F 
ATOM     64  C   UNL A   1      33.903  35.074  31.673  1.00  0.00     0.060 A 
BRANCH  64  65
ATOM     65  S   UNL A   1      32.497  36.137  32.055  1.00  0.00     0.124 S 
ATOM     66  O   UNL A   1      31.506  35.171  32.522  1.00  0.00    -0.237 OA
ATOM     67  O   UNL A   1      33.047  37.025  33.073  1.00  0.00    -0.237 OA
ATOM     68  O   UNL A   1      32.190  36.767  30.773  1.00  0.00    -0.744 OA
ENDBRANCH  64  65
ENDBRANCH  43  57
BRANCH  44  69
ATOM     69  C   UNL A   1      44.182  28.370  28.592  1.00  0.00     0.058 A 
ATOM     70  C   UNL A   1      43.824  28.617  27.240  1.00  0.00     0.135 A 
ATOM     71  C   UNL A   1      45.073  27.309  28.809  1.00  0.00     0.135 A 
ATOM     72  F   UNL A   1      42.975  29.617  26.944  1.00  0.00    -0.206 F 
ATOM     73  C   UNL A   1      44.419  27.953  26.168  1.00  0.00     0.059 A 
ATOM     74  C   UNL A   1      45.656  26.601  27.745  1.00  0.00     0.059 A 
ATOM     75  F   UNL A   1      45.467  26.998  30.053  1.00  0.00    -0.206 F 
ATOM     76  C   UNL A   1      45.361  26.965  26.429  1.00  0.00     0.060 A 
BRANCH  76  77
ATOM     77  S   UNL A   1      46.291  26.284  25.030  1.00  0.00     0.124 S 
ATOM     78  O   UNL A   1      45.474  25.134  24.658  1.00  0.00    -0.237 OA
ATOM     79  O   UNL A   1      46.281  27.397  24.083  1.00  0.00    -0.237 OA
ATOM     80  O   UNL A   1      47.592  25.974  25.614  1.00  0.00    -0.744 OA
ENDBRANCH  76  77
ENDBRANCH  44  69
BRANCH  56  81
ATOM     81  C   UNL A   1      42.352  35.416  29.444  1.00  0.00     0.058 A 
ATOM     82  C   UNL A   1      41.680  35.980  28.352  1.00  0.00     0.135 A 
ATOM     83  C   UNL A   1      43.329  36.220  30.069  1.00  0.00     0.135 A 
ATOM     84  F   UNL A   1      40.772  35.270  27.663  1.00  0.00    -0.206 F 
ATOM     85  C   UNL A   1      41.926  37.285  27.933  1.00  0.00     0.059 A 
ATOM     86  C   UNL A   1      43.640  37.498  29.626  1.00  0.00     0.059 A 
ATOM     87  F   UNL A   1      43.992  35.798  31.157  1.00  0.00    -0.206 F 
ATOM     88  C   UNL A   1      42.910  38.034  28.576  1.00  0.00     0.060 A 
BRANCH  88  89
ATOM     89  S   UNL A   1      43.232  39.721  28.037  1.00  0.00     0.124 S 
ATOM     90  O   UNL A   1      43.975  39.523  26.797  1.00  0.00    -0.237 OA
ATOM     91  O   UNL A   1      41.875  40.237  27.887  1.00  0.00    -0.237 OA
ATOM     92  O   UNL A   1      44.003  40.287  29.140  1.00  0.00    -0.744 OA
ENDBRANCH  88  89
ENDBRANCH  56  81
ENDBRANCH  30  31
ENDBRANCH  23  25
ENDBRANCH  22  23
ENDBRANCH  21  22
ENDBRANCH   1  21
TORSDOF 17
ENDMDL
MODEL 2
REMARK VINA RESULT:     -11.5      1.304      2.024
REMARK SMILES Cc1ccc(-c2nnc(S[C@@H](C)C(=O)OCCOC(=O)c3ccc(-c4c5nc(c(-c6c(F)cc(S(=O)(=O)[O-])cc6F)c6ccc([nH]6)c(-c6c(F)cc(S(=O)(=O)[O-])cc6F)c6nc(c(-c7c(F)cc(S(=O)(=O)[O-])cc7F)c7ccc4[nH]7)C=C6)C=C5)cc3)n2C)cc1
REMARK SMILES IDX 16 1 15 2 13 3 14 4 11 5 12 6 10 7 9 8 6 9 7 10 87 11 8 12
REMARK SMILES IDX 88 13 5 14 1 15 2 16 3 17 90 18 4 19 89 20 17 21 18 22 19 23
REMARK SMILES IDX 20 24 21 25 22 26 86 27 23 28 85 29 24 30 25 31 26 32 79 33
REMARK SMILES IDX 27 34 84 35 78 36 80 37 28 38 83 39 77 40 76 41 29 43 63 44
REMARK SMILES IDX 42 45 62 46 43 47 46 48 61 49 81 50 44 51 45 52 60 54 82 55
REMARK SMILES IDX 47 56 30 57 31 58 40 59 32 60 33 61 39 62 41 63 34 64 35 65
REMARK SMILES IDX 36 66 37 67 38 68 64 69 65 70 74 71 66 72 67 73 73 74 75 75
REMARK SMILES IDX 68 76 69 77 70 78 71 79 72 80 48 81 49 82 58 83 50 84 51 85
REMARK SMILES IDX 57 86 59 87 52 88 53 89 54 90 55 91 56 92
REMARK H PARENT 80 42 46 53
REMARK Flexibility Score: inf
ROOT
ATOM      1  C   UNL A   1      37.484  22.309  25.070  1.00  0.00     0.274 C 
ENDROOT
BRANCH   1   2
ATOM      2  O   UNL A   1      36.145  22.272  25.583  1.00  0.00    -0.461 OA
BRANCH   2   3
ATOM      3  C   UNL A   1      35.418  21.181  25.215  1.00  0.00     0.319 C 
ATOM      4  O   UNL A   1      35.911  20.164  24.779  1.00  0.00    -0.251 OA
BRANCH   3   5
ATOM      5  C   UNL A   1      33.921  21.406  25.357  1.00  0.00     0.161 C 
ATOM      6  C   UNL A   1      33.137  20.129  25.709  1.00  0.00     0.032 C 
BRANCH   5   7
ATOM      7  S   UNL A   1      33.162  22.111  23.857  1.00  0.00    -0.071 SA
BRANCH   7   8
ATOM      8  C   UNL A   1      32.359  23.569  24.332  1.00  0.00     0.192 A 
ATOM      9  C   UNL A   1      31.893  25.646  24.872  1.00  0.00     0.164 A 
ATOM     10  N   UNL A   1      30.761  25.026  24.604  1.00  0.00    -0.129 NA
ATOM     11  N   UNL A   1      32.935  24.744  24.733  1.00  0.00    -0.305 N 
ATOM     12  N   UNL A   1      31.058  23.734  24.235  1.00  0.00    -0.123 NA
ATOM     13  C   UNL A   1      34.293  25.047  25.097  1.00  0.00     0.154 C 
BRANCH   9  14
ATOM     14  C   UNL A   1      32.067  27.009  25.364  1.00  0.00     0.019 A 
ATOM     15  C   UNL A   1      31.710  31.096  26.660  1.00  0.00     0.044 C 
ATOM     16  C   UNL A   1      31.884  29.674  26.216  1.00  0.00    -0.051 A 
ATOM     17  C   UNL A   1      32.231  29.376  24.892  1.00  0.00     0.004 A 
ATOM     18  C   UNL A   1      31.726  28.634  27.133  1.00  0.00     0.004 A 
ATOM     19  C   UNL A   1      32.315  28.048  24.465  1.00  0.00     0.012 A 
ATOM     20  C   UNL A   1      31.848  27.312  26.714  1.00  0.00     0.012 A 
ENDBRANCH   9  14
ENDBRANCH   7   8
ENDBRANCH   5   7
ENDBRANCH   3   5
ENDBRANCH   2   3
ENDBRANCH   1   2
BRANCH   1  21
ATOM     21  C   UNL A   1      38.507  22.353  26.215  1.00  0.00     0.275 C 
BRANCH  21  22
ATOM     22  O   UNL A   1      39.131  23.615  26.578  1.00  0.00    -0.458 OA
BRANCH  22  23
ATOM     23  C   UNL A   1      40.487  23.743  26.567  1.00  0.00     0.338 C 
ATOM     24  O   UNL A   1      41.237  22.945  26.027  1.00  0.00    -0.246 OA
BRANCH  23  25
ATOM     25  C   UNL A   1      40.890  25.101  27.032  1.00  0.00     0.060 A 
ATOM     26  C   UNL A   1      40.726  26.220  26.198  1.00  0.00     0.016 A 
ATOM     27  C   UNL A   1      41.114  25.274  28.393  1.00  0.00     0.016 A 
ATOM     28  C   UNL A   1      40.618  27.501  26.758  1.00  0.00     0.010 A 
ATOM     29  C   UNL A   1      40.833  26.495  28.949  1.00  0.00     0.010 A 
ATOM     30  C   UNL A   1      40.588  27.623  28.147  1.00  0.00    -0.014 A 
BRANCH  30  31
ATOM     31  C   UNL A   1      40.496  28.871  28.909  1.00  0.00     0.031 A 
ATOM     32  C   UNL A   1      39.412  29.874  28.805  1.00  0.00     0.074 A 
ATOM     33  C   UNL A   1      41.451  28.958  29.863  1.00  0.00     0.049 A 
ATOM     34  N   UNL A   1      39.430  30.998  29.436  1.00  0.00    -0.248 NA
ATOM     35  C   UNL A   1      38.200  29.730  28.011  1.00  0.00     0.031 C 
ATOM     36  C   UNL A   1      41.627  29.878  30.970  1.00  0.00     0.029 A 
ATOM     37  N   UNL A   1      42.649  28.234  29.840  1.00  0.00    -0.354 N 
ATOM     38  C   UNL A   1      38.204  31.620  29.319  1.00  0.00     0.074 A 
ATOM     39  C   UNL A   1      37.468  30.784  28.404  1.00  0.00     0.031 C 
ATOM     40  C   UNL A   1      42.940  29.914  31.272  1.00  0.00     0.029 A 
ATOM     41  C   UNL A   1      43.641  29.113  30.272  1.00  0.00     0.049 A 
ATOM     42  H   UNL A   1      42.767  27.293  29.575  1.00  0.00     0.167 HD
ATOM     43  C   UNL A   1      37.976  32.730  30.083  1.00  0.00     0.037 A 
ATOM     44  C   UNL A   1      44.505  29.560  29.309  1.00  0.00     0.037 A 
ATOM     45  C   UNL A   1      39.249  33.194  30.642  1.00  0.00     0.049 A 
ATOM     46  C   UNL A   1      44.322  31.040  29.029  1.00  0.00     0.074 A 
ATOM     47  C   UNL A   1      39.909  33.020  31.845  1.00  0.00     0.029 A 
ATOM     48  N   UNL A   1      40.193  33.674  29.755  1.00  0.00    -0.354 N 
ATOM     49  N   UNL A   1      43.316  31.750  29.467  1.00  0.00    -0.248 NA
ATOM     50  C   UNL A   1      45.244  31.840  28.227  1.00  0.00     0.031 C 
ATOM     51  C   UNL A   1      41.293  33.305  31.627  1.00  0.00     0.029 A 
ATOM     52  C   UNL A   1      41.458  33.676  30.304  1.00  0.00     0.049 A 
ATOM     53  H   UNL A   1      39.987  33.979  28.842  1.00  0.00     0.167 HD
ATOM     54  C   UNL A   1      43.454  33.051  29.080  1.00  0.00     0.074 A 
ATOM     55  C   UNL A   1      44.663  33.053  28.273  1.00  0.00     0.031 C 
ATOM     56  C   UNL A   1      42.583  34.034  29.450  1.00  0.00     0.037 A 
BRANCH  43  57
ATOM     57  C   UNL A   1      36.644  33.358  30.460  1.00  0.00     0.058 A 
ATOM     58  C   UNL A   1      35.823  33.910  29.443  1.00  0.00     0.135 A 
ATOM     59  C   UNL A   1      36.135  33.526  31.764  1.00  0.00     0.135 A 
ATOM     60  F   UNL A   1      36.142  33.799  28.146  1.00  0.00    -0.206 F 
ATOM     61  C   UNL A   1      34.654  34.631  29.699  1.00  0.00     0.059 A 
ATOM     62  C   UNL A   1      34.969  34.256  32.046  1.00  0.00     0.059 A 
ATOM     63  F   UNL A   1      36.730  32.978  32.828  1.00  0.00    -0.206 F 
ATOM     64  C   UNL A   1      34.245  34.824  31.007  1.00  0.00     0.060 A 
BRANCH  64  65
ATOM     65  S   UNL A   1      32.782  35.831  31.316  1.00  0.00     0.124 S 
ATOM     66  O   UNL A   1      33.366  37.051  31.868  1.00  0.00    -0.237 OA
ATOM     67  O   UNL A   1      32.201  35.952  29.983  1.00  0.00    -0.237 OA
ATOM     68  O   UNL A   1      32.012  35.031  32.265  1.00  0.00    -0.744 OA
ENDBRANCH  64  65
ENDBRANCH  43  57
BRANCH  44  69
ATOM     69  C   UNL A   1      44.857  28.482  28.309  1.00  0.00     0.058 A 
ATOM     70  C   UNL A   1      45.735  27.446  28.725  1.00  0.00     0.135 A 
ATOM     71  C   UNL A   1      44.122  28.235  27.141  1.00  0.00     0.135 A 
ATOM     72  F   UNL A   1      46.476  27.603  29.836  1.00  0.00    -0.206 F 
ATOM     73  C   UNL A   1      45.774  26.197  28.108  1.00  0.00     0.059 A 
ATOM     74  C   UNL A   1      44.175  26.995  26.480  1.00  0.00     0.059 A 
ATOM     75  F   UNL A   1      43.268  29.155  26.669  1.00  0.00    -0.206 F 
ATOM     76  C   UNL A   1      44.965  25.968  27.001  1.00  0.00     0.060 A 
BRANCH  76  77
ATOM     77  S   UNL A   1      44.854  24.275  26.361  1.00  0.00     0.124 S 
ATOM     78  O   UNL A   1      44.210  24.484  25.070  1.00  0.00    -0.237 OA
ATOM     79  O   UNL A   1      46.258  23.874  26.309  1.00  0.00    -0.237 OA
ATOM     80  O   UNL A   1      44.048  23.591  27.368  1.00  0.00    -0.744 OA
ENDBRANCH  76  77
ENDBRANCH  44  69
BRANCH  56  81
ATOM     81  C   UNL A   1      42.746  35.463  29.036  1.00  0.00     0.058 A 
ATOM     82  C   UNL A   1      43.421  36.395  29.837  1.00  0.00     0.135 A 
ATOM     83  C   UNL A   1      42.115  35.966  27.878  1.00  0.00     0.135 A 
ATOM     84  F   UNL A   1      44.005  36.016  30.985  1.00  0.00    -0.206 F 
ATOM     85  C   UNL A   1      43.508  37.739  29.485  1.00  0.00     0.059 A 
ATOM     86  C   UNL A   1      42.131  37.313  27.543  1.00  0.00     0.059 A 
ATOM     87  F   UNL A   1      41.489  35.153  27.013  1.00  0.00    -0.206 F 
ATOM     88  C   UNL A   1      42.858  38.187  28.336  1.00  0.00     0.060 A 
BRANCH  88  89
ATOM     89  S   UNL A   1      42.967  39.924  27.877  1.00  0.00     0.124 S 
ATOM     90  O   UNL A   1      44.321  40.278  28.290  1.00  0.00    -0.237 OA
ATOM     91  O   UNL A   1      42.744  39.853  26.437  1.00  0.00    -0.237 OA
ATOM     92  O   UNL A   1      41.898  40.547  28.651  1.00  0.00    -0.744 OA
ENDBRANCH  88  89
ENDBRANCH  56  81
ENDBRANCH  30  31
ENDBRANCH  23  25
ENDBRANCH  22  23
ENDBRANCH  21  22
ENDBRANCH   1  21
TORSDOF 17
ENDMDL
MODEL 3
REMARK VINA RESULT:     -11.3      1.533      2.100
REMARK SMILES Cc1ccc(-c2nnc(S[C@@H](C)C(=O)OCCOC(=O)c3ccc(-c4c5nc(c(-c6c(F)cc(S(=O)(=O)[O-])cc6F)c6ccc([nH]6)c(-c6c(F)cc(S(=O)(=O)[O-])cc6F)c6nc(c(-c7c(F)cc(S(=O)(=O)[O-])cc7F)c7ccc4[nH]7)C=C6)C=C5)cc3)n2C)cc1
REMARK SMILES IDX 16 1 15 2 13 3 14 4 11 5 12 6 10 7 9 8 6 9 7 10 87 11 8 12
REMARK SMILES IDX 88 13 5 14 1 15 2 16 3 17 90 18 4 19 89 20 17 21 18 22 19 23
REMARK SMILES IDX 20 24 21 25 22 26 86 27 23 28 85 29 24 30 25 31 26 32 79 33
REMARK SMILES IDX 27 34 84 35 78 36 80 37 28 38 83 39 77 40 76 41 29 43 63 44
REMARK SMILES IDX 42 45 62 46 43 47 46 48 61 49 81 50 44 51 45 52 60 54 82 55
REMARK SMILES IDX 47 56 30 57 31 58 40 59 32 60 33 61 39 62 41 63 34 64 35 65
REMARK SMILES IDX 36 66 37 67 38 68 64 69 65 70 74 71 66 72 67 73 73 74 75 75
REMARK SMILES IDX 68 76 69 77 70 78 71 79 72 80 48 81 49 82 58 83 50 84 51 85
REMARK SMILES IDX 57 86 59 87 52 88 53 89 54 90 55 91 56 92
REMARK H PARENT 80 42 46 53
REMARK Flexibility Score: inf
ROOT
ATOM      1  C   UNL A   1      37.635  22.433  25.254  1.00  0.00     0.274 C 
ENDROOT
BRANCH   1   2
ATOM      2  O   UNL A   1      36.349  22.362  25.884  1.00  0.00    -0.461 OA
BRANCH   2   3
ATOM      3  C   UNL A   1      35.633  21.237  25.604  1.00  0.00     0.319 C 
ATOM      4  O   UNL A   1      36.083  20.291  24.996  1.00  0.00    -0.251 OA
BRANCH   3   5
ATOM      5  C   UNL A   1      34.195  21.328  26.090  1.00  0.00     0.161 C 
ATOM      6  C   UNL A   1      33.191  21.680  24.979  1.00  0.00     0.032 C 
BRANCH   5   7
ATOM      7  S   UNL A   1      33.973  22.548  27.427  1.00  0.00    -0.071 SA
BRANCH   7   8
ATOM      8  C   UNL A   1      32.816  23.708  26.868  1.00  0.00     0.192 A 
ATOM      9  C   UNL A   1      31.749  25.244  25.717  1.00  0.00     0.164 A 
ATOM     10  N   UNL A   1      30.896  24.693  26.556  1.00  0.00    -0.129 NA
ATOM     11  N   UNL A   1      32.991  24.659  25.900  1.00  0.00    -0.305 N 
ATOM     12  N   UNL A   1      31.559  23.709  27.254  1.00  0.00    -0.123 NA
ATOM     13  C   UNL A   1      34.188  25.130  25.252  1.00  0.00     0.154 C 
BRANCH   9  14
ATOM     14  C   UNL A   1      31.514  26.370  24.819  1.00  0.00     0.019 A 
ATOM     15  C   UNL A   1      29.965  29.549  22.367  1.00  0.00     0.044 C 
ATOM     16  C   UNL A   1      30.550  28.452  23.205  1.00  0.00    -0.051 A 
ATOM     17  C   UNL A   1      30.777  27.180  22.662  1.00  0.00     0.004 A 
ATOM     18  C   UNL A   1      30.901  28.701  24.532  1.00  0.00     0.004 A 
ATOM     19  C   UNL A   1      31.250  26.141  23.467  1.00  0.00     0.012 A 
ATOM     20  C   UNL A   1      31.408  27.673  25.323  1.00  0.00     0.012 A 
ENDBRANCH   9  14
ENDBRANCH   7   8
ENDBRANCH   5   7
ENDBRANCH   3   5
ENDBRANCH   2   3
ENDBRANCH   1   2
BRANCH   1  21
ATOM     21  C   UNL A   1      38.722  22.813  26.271  1.00  0.00     0.275 C 
BRANCH  21  22
ATOM     22  O   UNL A   1      39.060  24.211  26.478  1.00  0.00    -0.458 OA
BRANCH  22  23
ATOM     23  C   UNL A   1      40.333  24.573  26.801  1.00  0.00     0.338 C 
ATOM     24  O   UNL A   1      41.310  24.283  26.127  1.00  0.00    -0.246 OA
BRANCH  23  25
ATOM     25  C   UNL A   1      40.330  25.589  27.893  1.00  0.00     0.060 A 
ATOM     26  C   UNL A   1      41.530  25.971  28.516  1.00  0.00     0.016 A 
ATOM     27  C   UNL A   1      39.188  26.368  28.043  1.00  0.00     0.016 A 
ATOM     28  C   UNL A   1      41.625  27.219  29.147  1.00  0.00     0.010 A 
ATOM     29  C   UNL A   1      39.332  27.652  28.500  1.00  0.00     0.010 A 
ATOM     30  C   UNL A   1      40.543  28.095  29.062  1.00  0.00    -0.014 A 
BRANCH  30  31
ATOM     31  C   UNL A   1      40.451  29.427  29.666  1.00  0.00     0.031 A 
ATOM     32  C   UNL A   1      39.307  30.359  29.541  1.00  0.00     0.074 A 
ATOM     33  C   UNL A   1      41.482  29.681  30.503  1.00  0.00     0.049 A 
ATOM     34  N   UNL A   1      39.320  31.556  30.019  1.00  0.00    -0.248 NA
ATOM     35  C   UNL A   1      38.039  30.060  28.893  1.00  0.00     0.031 C 
ATOM     36  C   UNL A   1      41.706  30.745  31.462  1.00  0.00     0.029 A 
ATOM     37  N   UNL A   1      42.712  29.013  30.457  1.00  0.00    -0.354 N 
ATOM     38  C   UNL A   1      38.056  32.103  29.944  1.00  0.00     0.074 A 
ATOM     39  C   UNL A   1      37.287  31.123  29.218  1.00  0.00     0.031 C 
ATOM     40  C   UNL A   1      43.037  30.878  31.629  1.00  0.00     0.029 A 
ATOM     41  C   UNL A   1      43.688  29.984  30.675  1.00  0.00     0.049 A 
ATOM     42  H   UNL A   1      42.858  28.052  30.302  1.00  0.00     0.167 HD
ATOM     43  C   UNL A   1      37.836  33.294  30.579  1.00  0.00     0.037 A 
ATOM     44  C   UNL A   1      44.435  30.338  29.584  1.00  0.00     0.037 A 
ATOM     45  C   UNL A   1      39.127  33.882  30.949  1.00  0.00     0.049 A 
ATOM     46  C   UNL A   1      44.145  31.758  29.137  1.00  0.00     0.074 A 
ATOM     47  C   UNL A   1      39.902  33.897  32.095  1.00  0.00     0.029 A 
ATOM     48  N   UNL A   1      39.958  34.282  29.920  1.00  0.00    -0.354 N 
ATOM     49  N   UNL A   1      43.144  32.475  29.578  1.00  0.00    -0.248 NA
ATOM     50  C   UNL A   1      44.945  32.485  28.154  1.00  0.00     0.031 C 
ATOM     51  C   UNL A   1      41.242  34.211  31.708  1.00  0.00     0.029 A 
ATOM     52  C   UNL A   1      41.265  34.411  30.339  1.00  0.00     0.049 A 
ATOM     53  H   UNL A   1      39.653  34.454  29.000  1.00  0.00     0.167 HD
ATOM     54  C   UNL A   1      43.174  33.718  29.016  1.00  0.00     0.074 A 
ATOM     55  C   UNL A   1      44.303  33.667  28.102  1.00  0.00     0.031 C 
ATOM     56  C   UNL A   1      42.287  34.702  29.342  1.00  0.00     0.037 A 
BRANCH  43  57
ATOM     57  C   UNL A   1      36.511  33.906  31.002  1.00  0.00     0.058 A 
ATOM     58  C   UNL A   1      35.536  34.202  30.014  1.00  0.00     0.135 A 
ATOM     59  C   UNL A   1      36.145  34.298  32.306  1.00  0.00     0.135 A 
ATOM     60  F   UNL A   1      35.710  33.856  28.731  1.00  0.00    -0.206 F 
ATOM     61  C   UNL A   1      34.350  34.891  30.280  1.00  0.00     0.059 A 
ATOM     62  C   UNL A   1      34.965  35.002  32.594  1.00  0.00     0.059 A 
ATOM     63  F   UNL A   1      36.902  34.003  33.367  1.00  0.00    -0.206 F 
ATOM     64  C   UNL A   1      34.082  35.313  31.570  1.00  0.00     0.060 A 
BRANCH  64  65
ATOM     65  S   UNL A   1      32.588  36.277  31.872  1.00  0.00     0.124 S 
ATOM     66  O   UNL A   1      32.214  36.685  30.520  1.00  0.00    -0.237 OA
ATOM     67  O   UNL A   1      31.711  35.300  32.506  1.00  0.00    -0.237 OA
ATOM     68  O   UNL A   1      33.051  37.359  32.738  1.00  0.00    -0.744 OA
ENDBRANCH  64  65
ENDBRANCH  43  57
BRANCH  44  69
ATOM     69  C   UNL A   1      44.754  29.153  28.699  1.00  0.00     0.058 A 
ATOM     70  C   UNL A   1      44.047  29.024  27.475  1.00  0.00     0.135 A 
ATOM     71  C   UNL A   1      45.918  28.381  28.822  1.00  0.00     0.135 A 
ATOM     72  F   UNL A   1      42.920  29.731  27.274  1.00  0.00    -0.206 F 
ATOM     73  C   UNL A   1      44.537  28.293  26.393  1.00  0.00     0.059 A 
ATOM     74  C   UNL A   1      46.410  27.607  27.758  1.00  0.00     0.059 A 
ATOM     75  F   UNL A   1      46.652  28.434  29.944  1.00  0.00    -0.206 F 
ATOM     76  C   UNL A   1      45.739  27.611  26.533  1.00  0.00     0.060 A 
BRANCH  76  77
ATOM     77  S   UNL A   1      46.474  26.866  25.052  1.00  0.00     0.124 S 
ATOM     78  O   UNL A   1      45.575  25.743  24.804  1.00  0.00    -0.237 OA
ATOM     79  O   UNL A   1      46.397  27.961  24.087  1.00  0.00    -0.237 OA
ATOM     80  O   UNL A   1      47.821  26.513  25.490  1.00  0.00    -0.744 OA
ENDBRANCH  76  77
ENDBRANCH  44  69
BRANCH  56  81
ATOM     81  C   UNL A   1      42.332  36.071  28.736  1.00  0.00     0.058 A 
ATOM     82  C   UNL A   1      41.798  36.339  27.468  1.00  0.00     0.135 A 
ATOM     83  C   UNL A   1      43.031  37.125  29.363  1.00  0.00     0.135 A 
ATOM     84  F   UNL A   1      41.164  35.380  26.774  1.00  0.00    -0.206 F 
ATOM     85  C   UNL A   1      41.906  37.594  26.876  1.00  0.00     0.059 A 
ATOM     86  C   UNL A   1      43.210  38.364  28.763  1.00  0.00     0.059 A 
ATOM     87  F   UNL A   1      43.534  36.993  30.600  1.00  0.00    -0.206 F 
ATOM     88  C   UNL A   1      42.616  38.599  27.532  1.00  0.00     0.060 A 
BRANCH  88  89
ATOM     89  S   UNL A   1      42.759  40.224  26.771  1.00  0.00     0.124 S 
ATOM     90  O   UNL A   1      42.925  41.102  27.924  1.00  0.00    -0.237 OA
ATOM     91  O   UNL A   1      43.942  40.045  25.936  1.00  0.00    -0.237 OA
ATOM     92  O   UNL A   1      41.497  40.373  26.053  1.00  0.00    -0.744 OA
ENDBRANCH  88  89
ENDBRANCH  56  81
ENDBRANCH  30  31
ENDBRANCH  23  25
ENDBRANCH  22  23
ENDBRANCH  21  22
ENDBRANCH   1  21
TORSDOF 17
ENDMDL
