MODEL 1
REMARK VINA RESULT:      -9.6      0.000      0.000
REMARK SMILES CCOC(=O)c1cc(C[NH2+]CC(=O)OCCOC(=O)c2ccc(-c3c4nc(c(-c5c(F)cc(S(=O)(=O)[O-])cc5F)c5ccc([nH]5)c(-c5c(F)cc(S(=O)(=O)[O-])cc5F)c5nc(c(-c6c(F)cc(S(=O)(=O)[O-])cc6F)c6ccc3[nH]6)C=C5)C=C4)cc2)c(C)o1
REMARK SMILES IDX 14 1 12 2 13 3 11 4 10 5 9 8 8 9 6 10 7 11 88 12 86 13 87 14
REMARK SMILES IDX 4 15 5 16 3 17 2 18 1 19 15 20 16 21 17 22 18 23 19 24 20 25
REMARK SMILES IDX 21 26 85 27 22 28 84 29 23 30 24 31 25 32 78 33 26 34 83 35
REMARK SMILES IDX 77 36 79 37 27 38 82 39 76 40 75 41 28 43 62 44 41 45 61 46
REMARK SMILES IDX 42 47 45 48 60 49 80 50 43 51 44 52 59 54 81 55 46 56 29 57
REMARK SMILES IDX 30 58 39 59 31 60 32 61 38 62 40 63 33 64 34 65 35 66 36 67
REMARK SMILES IDX 37 68 63 69 64 70 73 71 65 72 66 73 72 74 74 75 67 76 68 77
REMARK SMILES IDX 69 78 70 79 71 80 47 81 48 82 57 83 49 84 50 85 56 86 58 87
REMARK SMILES IDX 51 88 52 89 53 90 54 91 55 92
REMARK H PARENT 10 6 10 7 79 42 45 53
REMARK Flexibility Score: inf
ROOT
ATOM      1  O   UNL A   1      41.277  21.804  25.457  1.00  0.00    -0.458 OA
ENDROOT
BRANCH   1   2
ATOM      2  C   UNL A   1      40.310  21.079  26.079  1.00  0.00     0.361 C 
ATOM      3  O   UNL A   1      40.391  19.879  26.315  1.00  0.00    -0.245 OA
BRANCH   2   4
ATOM      4  C   UNL A   1      39.078  21.914  26.436  1.00  0.00     0.385 C 
BRANCH   4   5
ATOM      5  N   UNL A   1      38.404  22.556  25.288  1.00  0.00    -0.333 N 
ATOM      6  H   UNL A   1      37.871  23.359  25.623  1.00  0.00     0.347 HD
ATOM      7  H   UNL A   1      39.117  22.850  24.619  1.00  0.00     0.347 HD
BRANCH   5   8
ATOM      8  C   UNL A   1      37.504  21.634  24.622  1.00  0.00     0.301 C 
BRANCH   8   9
ATOM      9  C   UNL A   1      36.142  22.219  24.532  1.00  0.00     0.048 A 
ATOM     10  C   UNL A   1      34.525  23.633  23.874  1.00  0.00     0.212 A 
ATOM     11  C   UNL A   1      35.841  23.585  24.300  1.00  0.00     0.068 A 
ATOM     12  O   UNL A   1      33.941  22.414  24.090  1.00  0.00    -0.454 OA
ATOM     13  C   UNL A   1      34.921  21.572  24.530  1.00  0.00     0.110 A 
ATOM     14  C   UNL A   1      34.512  20.182  24.817  1.00  0.00     0.088 C 
BRANCH  10  15
ATOM     15  C   UNL A   1      33.815  24.664  23.162  1.00  0.00     0.374 C 
ATOM     16  O   UNL A   1      33.986  25.019  21.995  1.00  0.00    -0.242 OA
BRANCH  15  17
ATOM     17  O   UNL A   1      33.006  25.334  24.032  1.00  0.00    -0.460 OA
BRANCH  17  18
ATOM     18  C   UNL A   1      33.602  26.505  24.603  1.00  0.00     0.230 C 
ATOM     19  C   UNL A   1      33.136  26.603  26.049  1.00  0.00     0.049 C 
ENDBRANCH  17  18
ENDBRANCH  15  17
ENDBRANCH  10  15
ENDBRANCH   8   9
ENDBRANCH   5   8
ENDBRANCH   4   5
ENDBRANCH   2   4
ENDBRANCH   1   2
BRANCH   1  20
ATOM     20  C   UNL A   1      42.505  22.014  26.178  1.00  0.00     0.274 C 
BRANCH  20  21
ATOM     21  C   UNL A   1      42.806  23.510  26.307  1.00  0.00     0.275 C 
BRANCH  21  22
ATOM     22  O   UNL A   1      41.608  24.281  26.512  1.00  0.00    -0.458 OA
BRANCH  22  23
ATOM     23  C   UNL A   1      41.682  25.584  26.150  1.00  0.00     0.338 C 
ATOM     24  O   UNL A   1      41.761  26.028  25.016  1.00  0.00    -0.246 OA
BRANCH  23  25
ATOM     25  C   UNL A   1      41.476  26.430  27.334  1.00  0.00     0.060 A 
ATOM     26  C   UNL A   1      40.464  26.075  28.232  1.00  0.00     0.016 A 
ATOM     27  C   UNL A   1      42.245  27.575  27.548  1.00  0.00     0.016 A 
ATOM     28  C   UNL A   1      40.231  26.852  29.363  1.00  0.00     0.010 A 
ATOM     29  C   UNL A   1      42.008  28.354  28.684  1.00  0.00     0.010 A 
ATOM     30  C   UNL A   1      41.006  27.994  29.602  1.00  0.00    -0.014 A 
BRANCH  30  31
ATOM     31  C   UNL A   1      40.769  28.813  30.814  1.00  0.00     0.031 A 
ATOM     32  C   UNL A   1      39.720  29.887  30.799  1.00  0.00     0.074 A 
ATOM     33  C   UNL A   1      41.506  28.591  31.919  1.00  0.00     0.049 A 
ATOM     34  N   UNL A   1      39.458  30.796  31.700  1.00  0.00    -0.248 NA
ATOM     35  C   UNL A   1      38.850  29.945  29.613  1.00  0.00     0.031 C 
ATOM     36  C   UNL A   1      42.521  27.544  32.059  1.00  0.00     0.029 A 
ATOM     37  N   UNL A   1      41.528  29.240  33.127  1.00  0.00    -0.354 N 
ATOM     38  C   UNL A   1      38.397  31.537  31.195  1.00  0.00     0.074 A 
ATOM     39  C   UNL A   1      38.082  30.988  29.893  1.00  0.00     0.031 C 
ATOM     40  C   UNL A   1      43.079  27.636  33.277  1.00  0.00     0.029 A 
ATOM     41  C   UNL A   1      42.501  28.776  33.981  1.00  0.00     0.049 A 
ATOM     42  H   UNL A   1      40.907  29.967  33.361  1.00  0.00     0.167 HD
ATOM     43  C   UNL A   1      37.743  32.573  31.773  1.00  0.00     0.037 A 
ATOM     44  C   UNL A   1      42.914  29.248  35.174  1.00  0.00     0.037 A 
ATOM     45  C   UNL A   1      38.071  33.108  33.070  1.00  0.00     0.049 A 
ATOM     46  C   UNL A   1      42.236  30.465  35.750  1.00  0.00     0.074 A 
ATOM     47  C   UNL A   1      37.476  34.162  33.741  1.00  0.00     0.029 A 
ATOM     48  N   UNL A   1      39.080  32.629  33.893  1.00  0.00    -0.354 N 
ATOM     49  N   UNL A   1      41.238  31.161  35.260  1.00  0.00    -0.248 NA
ATOM     50  C   UNL A   1      42.746  30.968  37.034  1.00  0.00     0.031 C 
ATOM     51  C   UNL A   1      38.153  34.347  34.951  1.00  0.00     0.029 A 
ATOM     52  C   UNL A   1      39.139  33.379  35.055  1.00  0.00     0.049 A 
ATOM     53  H   UNL A   1      39.668  31.867  33.683  1.00  0.00     0.167 HD
ATOM     54  C   UNL A   1      40.991  32.172  36.182  1.00  0.00     0.074 A 
ATOM     55  C   UNL A   1      41.930  31.986  37.268  1.00  0.00     0.031 C 
ATOM     56  C   UNL A   1      40.075  33.170  36.132  1.00  0.00     0.037 A 
BRANCH  43  57
ATOM     57  C   UNL A   1      36.614  33.205  31.011  1.00  0.00     0.058 A 
ATOM     58  C   UNL A   1      35.279  33.049  31.414  1.00  0.00     0.135 A 
ATOM     59  C   UNL A   1      36.872  34.032  29.906  1.00  0.00     0.135 A 
ATOM     60  F   UNL A   1      34.976  32.256  32.453  1.00  0.00    -0.206 F 
ATOM     61  C   UNL A   1      34.237  33.681  30.742  1.00  0.00     0.059 A 
ATOM     62  C   UNL A   1      35.847  34.695  29.233  1.00  0.00     0.059 A 
ATOM     63  F   UNL A   1      38.130  34.214  29.476  1.00  0.00    -0.206 F 
ATOM     64  C   UNL A   1      34.532  34.506  29.656  1.00  0.00     0.060 A 
BRANCH  64  65
ATOM     65  S   UNL A   1      33.170  35.342  28.815  1.00  0.00     0.124 S 
ATOM     66  O   UNL A   1      32.597  34.251  28.033  1.00  0.00    -0.237 OA
ATOM     67  O   UNL A   1      32.359  35.817  29.931  1.00  0.00    -0.237 OA
ATOM     68  O   UNL A   1      33.837  36.384  28.040  1.00  0.00    -0.744 OA
ENDBRANCH  64  65
ENDBRANCH  43  57
BRANCH  44  69
ATOM     69  C   UNL A   1      44.060  28.614  35.878  1.00  0.00     0.058 A 
ATOM     70  C   UNL A   1      45.379  29.025  35.642  1.00  0.00     0.135 A 
ATOM     71  C   UNL A   1      43.860  27.557  36.782  1.00  0.00     0.135 A 
ATOM     72  F   UNL A   1      45.626  30.025  34.780  1.00  0.00    -0.206 F 
ATOM     73  C   UNL A   1      46.460  28.395  36.251  1.00  0.00     0.059 A 
ATOM     74  C   UNL A   1      44.922  26.932  37.427  1.00  0.00     0.059 A 
ATOM     75  F   UNL A   1      42.616  27.131  37.055  1.00  0.00    -0.206 F 
ATOM     76  C   UNL A   1      46.221  27.345  37.139  1.00  0.00     0.060 A 
BRANCH  76  77
ATOM     77  S   UNL A   1      47.628  26.534  37.929  1.00  0.00     0.124 S 
ATOM     78  O   UNL A   1      48.750  27.224  37.305  1.00  0.00    -0.237 OA
ATOM     79  O   UNL A   1      47.401  26.827  39.340  1.00  0.00    -0.237 OA
ATOM     80  O   UNL A   1      47.460  25.133  37.553  1.00  0.00    -0.744 OA
ENDBRANCH  76  77
ENDBRANCH  44  69
BRANCH  56  81
ATOM     81  C   UNL A   1      40.024  34.125  37.291  1.00  0.00     0.058 A 
ATOM     82  C   UNL A   1      40.797  35.296  37.309  1.00  0.00     0.135 A 
ATOM     83  C   UNL A   1      39.136  33.906  38.357  1.00  0.00     0.135 A 
ATOM     84  F   UNL A   1      41.669  35.545  36.320  1.00  0.00    -0.206 F 
ATOM     85  C   UNL A   1      40.698  36.214  38.349  1.00  0.00     0.059 A 
ATOM     86  C   UNL A   1      39.002  34.823  39.394  1.00  0.00     0.059 A 
ATOM     87  F   UNL A   1      38.370  32.804  38.383  1.00  0.00    -0.206 F 
ATOM     88  C   UNL A   1      39.790  35.974  39.383  1.00  0.00     0.060 A 
BRANCH  88  89
ATOM     89  S   UNL A   1      39.625  37.207  40.691  1.00  0.00     0.124 S 
ATOM     90  O   UNL A   1      39.515  36.366  41.877  1.00  0.00    -0.237 OA
ATOM     91  O   UNL A   1      40.866  37.964  40.563  1.00  0.00    -0.237 OA
ATOM     92  O   UNL A   1      38.414  37.934  40.322  1.00  0.00    -0.744 OA
ENDBRANCH  88  89
ENDBRANCH  56  81
ENDBRANCH  30  31
ENDBRANCH  23  25
ENDBRANCH  22  23
ENDBRANCH  21  22
ENDBRANCH  20  21
ENDBRANCH   1  20
TORSDOF 20
ENDMDL
MODEL 2
REMARK VINA RESULT:      -9.6      5.124     10.272
REMARK SMILES CCOC(=O)c1cc(C[NH2+]CC(=O)OCCOC(=O)c2ccc(-c3c4nc(c(-c5c(F)cc(S(=O)(=O)[O-])cc5F)c5ccc([nH]5)c(-c5c(F)cc(S(=O)(=O)[O-])cc5F)c5nc(c(-c6c(F)cc(S(=O)(=O)[O-])cc6F)c6ccc3[nH]6)C=C5)C=C4)cc2)c(C)o1
REMARK SMILES IDX 14 1 12 2 13 3 11 4 10 5 9 8 8 9 6 10 7 11 88 12 86 13 87 14
REMARK SMILES IDX 4 15 5 16 3 17 2 18 1 19 15 20 16 21 17 22 18 23 19 24 20 25
REMARK SMILES IDX 21 26 85 27 22 28 84 29 23 30 24 31 25 32 78 33 26 34 83 35
REMARK SMILES IDX 77 36 79 37 27 38 82 39 76 40 75 41 28 43 62 44 41 45 61 46
REMARK SMILES IDX 42 47 45 48 60 49 80 50 43 51 44 52 59 54 81 55 46 56 29 57
REMARK SMILES IDX 30 58 39 59 31 60 32 61 38 62 40 63 33 64 34 65 35 66 36 67
REMARK SMILES IDX 37 68 63 69 64 70 73 71 65 72 66 73 72 74 74 75 67 76 68 77
REMARK SMILES IDX 69 78 70 79 71 80 47 81 48 82 57 83 49 84 50 85 56 86 58 87
REMARK SMILES IDX 51 88 52 89 53 90 54 91 55 92
REMARK H PARENT 10 6 10 7 79 42 45 53
REMARK Flexibility Score: inf
ROOT
ATOM      1  O   UNL A   1      32.156  27.778  24.675  1.00  0.00    -0.458 OA
ENDROOT
BRANCH   1   2
ATOM      2  C   UNL A   1      31.149  26.872  24.542  1.00  0.00     0.361 C 
ATOM      3  O   UNL A   1      30.344  26.601  25.425  1.00  0.00    -0.245 OA
BRANCH   2   4
ATOM      4  C   UNL A   1      31.139  26.193  23.171  1.00  0.00     0.385 C 
BRANCH   4   5
ATOM      5  N   UNL A   1      32.472  25.971  22.572  1.00  0.00    -0.333 N 
ATOM      6  H   UNL A   1      32.659  26.711  21.896  1.00  0.00     0.347 HD
ATOM      7  H   UNL A   1      33.166  25.981  23.320  1.00  0.00     0.347 HD
BRANCH   5   8
ATOM      8  C   UNL A   1      32.540  24.687  21.900  1.00  0.00     0.301 C 
BRANCH   8   9
ATOM      9  C   UNL A   1      33.414  23.756  22.656  1.00  0.00     0.048 A 
ATOM     10  C   UNL A   1      34.918  23.098  24.189  1.00  0.00     0.212 A 
ATOM     11  C   UNL A   1      34.651  24.090  23.264  1.00  0.00     0.068 A 
ATOM     12  O   UNL A   1      34.055  22.055  23.987  1.00  0.00    -0.454 OA
ATOM     13  C   UNL A   1      33.171  22.447  23.024  1.00  0.00     0.110 A 
ATOM     14  C   UNL A   1      32.129  21.468  22.652  1.00  0.00     0.088 C 
BRANCH  10  15
ATOM     15  C   UNL A   1      35.806  23.098  25.324  1.00  0.00     0.374 C 
ATOM     16  O   UNL A   1      35.508  23.279  26.505  1.00  0.00    -0.242 OA
BRANCH  15  17
ATOM     17  O   UNL A   1      37.095  23.030  24.883  1.00  0.00    -0.460 OA
BRANCH  17  18
ATOM     18  C   UNL A   1      37.853  21.957  25.455  1.00  0.00     0.230 C 
ATOM     19  C   UNL A   1      38.916  22.570  26.355  1.00  0.00     0.049 C 
ENDBRANCH  17  18
ENDBRANCH  15  17
ENDBRANCH  10  15
ENDBRANCH   8   9
ENDBRANCH   5   8
ENDBRANCH   4   5
ENDBRANCH   2   4
ENDBRANCH   1   2
BRANCH   1  20
ATOM     20  C   UNL A   1      32.998  27.655  25.835  1.00  0.00     0.274 C 
BRANCH  20  21
ATOM     21  C   UNL A   1      33.685  28.988  26.147  1.00  0.00     0.275 C 
BRANCH  21  22
ATOM     22  O   UNL A   1      33.794  29.214  27.564  1.00  0.00    -0.458 OA
BRANCH  22  23
ATOM     23  C   UNL A   1      34.470  30.330  27.927  1.00  0.00     0.338 C 
ATOM     24  O   UNL A   1      34.004  31.442  28.116  1.00  0.00    -0.246 OA
BRANCH  23  25
ATOM     25  C   UNL A   1      35.862  29.975  28.243  1.00  0.00     0.060 A 
ATOM     26  C   UNL A   1      36.823  30.112  27.236  1.00  0.00     0.016 A 
ATOM     27  C   UNL A   1      36.216  29.486  29.501  1.00  0.00     0.016 A 
ATOM     28  C   UNL A   1      38.150  29.780  27.490  1.00  0.00     0.010 A 
ATOM     29  C   UNL A   1      37.550  29.153  29.753  1.00  0.00     0.010 A 
ATOM     30  C   UNL A   1      38.526  29.305  28.753  1.00  0.00    -0.014 A 
BRANCH  30  31
ATOM     31  C   UNL A   1      39.942  28.967  29.029  1.00  0.00     0.031 A 
ATOM     32  C   UNL A   1      40.873  30.018  29.561  1.00  0.00     0.074 A 
ATOM     33  C   UNL A   1      40.385  27.718  28.791  1.00  0.00     0.049 A 
ATOM     34  N   UNL A   1      42.166  29.963  29.733  1.00  0.00    -0.248 NA
ATOM     35  C   UNL A   1      40.266  31.301  29.951  1.00  0.00     0.031 C 
ATOM     36  C   UNL A   1      39.557  26.606  28.317  1.00  0.00     0.029 A 
ATOM     37  N   UNL A   1      41.641  27.176  28.899  1.00  0.00    -0.354 N 
ATOM     38  C   UNL A   1      42.534  31.200  30.249  1.00  0.00     0.074 A 
ATOM     39  C   UNL A   1      41.328  31.996  30.335  1.00  0.00     0.031 C 
ATOM     40  C   UNL A   1      40.333  25.521  28.156  1.00  0.00     0.029 A 
ATOM     41  C   UNL A   1      41.715  25.873  28.465  1.00  0.00     0.049 A 
ATOM     42  H   UNL A   1      42.414  27.671  29.254  1.00  0.00     0.167 HD
ATOM     43  C   UNL A   1      43.764  31.623  30.624  1.00  0.00     0.037 A 
ATOM     44  C   UNL A   1      42.783  25.071  28.288  1.00  0.00     0.037 A 
ATOM     45  C   UNL A   1      44.955  30.817  30.531  1.00  0.00     0.049 A 
ATOM     46  C   UNL A   1      44.155  25.600  28.618  1.00  0.00     0.074 A 
ATOM     47  C   UNL A   1      46.252  31.157  30.875  1.00  0.00     0.029 A 
ATOM     48  N   UNL A   1      44.995  29.513  30.061  1.00  0.00    -0.354 N 
ATOM     49  N   UNL A   1      44.491  26.774  29.099  1.00  0.00    -0.248 NA
ATOM     50  C   UNL A   1      45.293  24.705  28.371  1.00  0.00     0.031 C 
ATOM     51  C   UNL A   1      47.082  30.071  30.574  1.00  0.00     0.029 A 
ATOM     52  C   UNL A   1      46.296  29.040  30.086  1.00  0.00     0.049 A 
ATOM     53  H   UNL A   1      44.213  28.997  29.755  1.00  0.00     0.167 HD
ATOM     54  C   UNL A   1      45.875  26.750  29.228  1.00  0.00     0.074 A 
ATOM     55  C   UNL A   1      46.313  25.440  28.792  1.00  0.00     0.031 C 
ATOM     56  C   UNL A   1      46.710  27.727  29.659  1.00  0.00     0.037 A 
BRANCH  43  57
ATOM     57  C   UNL A   1      43.894  33.019  31.162  1.00  0.00     0.058 A 
ATOM     58  C   UNL A   1      43.774  33.290  32.534  1.00  0.00     0.135 A 
ATOM     59  C   UNL A   1      44.210  34.089  30.309  1.00  0.00     0.135 A 
ATOM     60  F   UNL A   1      43.456  32.308  33.392  1.00  0.00    -0.206 F 
ATOM     61  C   UNL A   1      43.951  34.575  33.040  1.00  0.00     0.059 A 
ATOM     62  C   UNL A   1      44.416  35.377  30.796  1.00  0.00     0.059 A 
ATOM     63  F   UNL A   1      44.334  33.885  28.988  1.00  0.00    -0.206 F 
ATOM     64  C   UNL A   1      44.277  35.611  32.164  1.00  0.00     0.060 A 
BRANCH  64  65
ATOM     65  S   UNL A   1      44.532  37.264  32.842  1.00  0.00     0.124 S 
ATOM     66  O   UNL A   1      43.426  37.364  33.790  1.00  0.00    -0.237 OA
ATOM     67  O   UNL A   1      45.863  37.158  33.429  1.00  0.00    -0.237 OA
ATOM     68  O   UNL A   1      44.432  38.132  31.672  1.00  0.00    -0.744 OA
ENDBRANCH  64  65
ENDBRANCH  43  57
BRANCH  44  69
ATOM     69  C   UNL A   1      42.613  23.708  27.718  1.00  0.00     0.058 A 
ATOM     70  C   UNL A   1      42.490  22.581  28.543  1.00  0.00     0.135 A 
ATOM     71  C   UNL A   1      42.603  23.500  26.328  1.00  0.00     0.135 A 
ATOM     72  F   UNL A   1      42.504  22.723  29.878  1.00  0.00    -0.206 F 
ATOM     73  C   UNL A   1      42.393  21.297  28.016  1.00  0.00     0.059 A 
ATOM     74  C   UNL A   1      42.476  22.230  25.776  1.00  0.00     0.059 A 
ATOM     75  F   UNL A   1      42.705  24.545  25.491  1.00  0.00    -0.206 F 
ATOM     76  C   UNL A   1      42.391  21.132  26.629  1.00  0.00     0.060 A 
BRANCH  76  77
ATOM     77  S   UNL A   1      42.261  19.463  25.952  1.00  0.00     0.124 S 
ATOM     78  O   UNL A   1      43.170  19.538  24.815  1.00  0.00    -0.237 OA
ATOM     79  O   UNL A   1      42.703  18.639  27.072  1.00  0.00    -0.237 OA
ATOM     80  O   UNL A   1      40.842  19.347  25.621  1.00  0.00    -0.744 OA
ENDBRANCH  76  77
ENDBRANCH  44  69
BRANCH  56  81
ATOM     81  C   UNL A   1      48.179  27.412  29.706  1.00  0.00     0.058 A 
ATOM     82  C   UNL A   1      49.036  27.760  28.651  1.00  0.00     0.135 A 
ATOM     83  C   UNL A   1      48.748  26.829  30.850  1.00  0.00     0.135 A 
ATOM     84  F   UNL A   1      48.540  28.309  27.531  1.00  0.00    -0.206 F 
ATOM     85  C   UNL A   1      50.406  27.533  28.724  1.00  0.00     0.059 A 
ATOM     86  C   UNL A   1      50.118  26.616  30.956  1.00  0.00     0.059 A 
ATOM     87  F   UNL A   1      47.971  26.484  31.890  1.00  0.00    -0.206 F 
ATOM     88  C   UNL A   1      50.939  26.969  29.885  1.00  0.00     0.060 A 
BRANCH  88  89
ATOM     89  S   UNL A   1      52.727  26.741  29.992  1.00  0.00     0.124 S 
ATOM     90  O   UNL A   1      52.838  25.784  31.086  1.00  0.00    -0.237 OA
ATOM     91  O   UNL A   1      53.055  26.229  28.665  1.00  0.00    -0.237 OA
ATOM     92  O   UNL A   1      53.225  28.083  30.279  1.00  0.00    -0.744 OA
ENDBRANCH  88  89
ENDBRANCH  56  81
ENDBRANCH  30  31
ENDBRANCH  23  25
ENDBRANCH  22  23
ENDBRANCH  21  22
ENDBRANCH  20  21
ENDBRANCH   1  20
TORSDOF 20
ENDMDL
MODEL 3
REMARK VINA RESULT:      -9.4      3.063      9.315
REMARK SMILES CCOC(=O)c1cc(C[NH2+]CC(=O)OCCOC(=O)c2ccc(-c3c4nc(c(-c5c(F)cc(S(=O)(=O)[O-])cc5F)c5ccc([nH]5)c(-c5c(F)cc(S(=O)(=O)[O-])cc5F)c5nc(c(-c6c(F)cc(S(=O)(=O)[O-])cc6F)c6ccc3[nH]6)C=C5)C=C4)cc2)c(C)o1
REMARK SMILES IDX 14 1 12 2 13 3 11 4 10 5 9 8 8 9 6 10 7 11 88 12 86 13 87 14
REMARK SMILES IDX 4 15 5 16 3 17 2 18 1 19 15 20 16 21 17 22 18 23 19 24 20 25
REMARK SMILES IDX 21 26 85 27 22 28 84 29 23 30 24 31 25 32 78 33 26 34 83 35
REMARK SMILES IDX 77 36 79 37 27 38 82 39 76 40 75 41 28 43 62 44 41 45 61 46
REMARK SMILES IDX 42 47 45 48 60 49 80 50 43 51 44 52 59 54 81 55 46 56 29 57
REMARK SMILES IDX 30 58 39 59 31 60 32 61 38 62 40 63 33 64 34 65 35 66 36 67
REMARK SMILES IDX 37 68 63 69 64 70 73 71 65 72 66 73 72 74 74 75 67 76 68 77
REMARK SMILES IDX 69 78 70 79 71 80 47 81 48 82 57 83 49 84 50 85 56 86 58 87
REMARK SMILES IDX 51 88 52 89 53 90 54 91 55 92
REMARK H PARENT 10 6 10 7 79 42 45 53
REMARK Flexibility Score: inf
ROOT
ATOM      1  O   UNL A   1      33.385  30.422  26.371  1.00  0.00    -0.458 OA
ENDROOT
BRANCH   1   2
ATOM      2  C   UNL A   1      33.098  29.161  26.790  1.00  0.00     0.361 C 
ATOM      3  O   UNL A   1      33.928  28.375  27.232  1.00  0.00    -0.245 OA
BRANCH   2   4
ATOM      4  C   UNL A   1      31.620  28.801  26.623  1.00  0.00     0.385 C 
BRANCH   4   5
ATOM      5  N   UNL A   1      31.342  27.359  26.456  1.00  0.00    -0.333 N 
ATOM      6  H   UNL A   1      31.856  26.838  27.165  1.00  0.00     0.347 HD
ATOM      7  H   UNL A   1      30.337  27.212  26.557  1.00  0.00     0.347 HD
BRANCH   5   8
ATOM      8  C   UNL A   1      31.744  26.895  25.142  1.00  0.00     0.301 C 
BRANCH   8   9
ATOM      9  C   UNL A   1      30.960  27.588  24.088  1.00  0.00     0.048 A 
ATOM     10  C   UNL A   1      29.195  28.600  23.136  1.00  0.00     0.212 A 
ATOM     11  C   UNL A   1      29.554  27.519  23.922  1.00  0.00     0.068 A 
ATOM     12  O   UNL A   1      30.325  29.160  22.603  1.00  0.00    -0.454 OA
ATOM     13  C   UNL A   1      31.392  28.511  23.155  1.00  0.00     0.110 A 
ATOM     14  C   UNL A   1      32.730  28.966  22.726  1.00  0.00     0.088 C 
BRANCH  10  15
ATOM     15  C   UNL A   1      27.914  29.235  22.955  1.00  0.00     0.374 C 
ATOM     16  O   UNL A   1      26.803  28.741  23.147  1.00  0.00    -0.242 OA
BRANCH  15  17
ATOM     17  O   UNL A   1      28.097  30.451  22.365  1.00  0.00    -0.460 OA
BRANCH  17  18
ATOM     18  C   UNL A   1      27.710  31.563  23.182  1.00  0.00     0.230 C 
ATOM     19  C   UNL A   1      28.785  32.631  23.049  1.00  0.00     0.049 C 
ENDBRANCH  17  18
ENDBRANCH  15  17
ENDBRANCH  10  15
ENDBRANCH   8   9
ENDBRANCH   5   8
ENDBRANCH   4   5
ENDBRANCH   2   4
ENDBRANCH   1   2
BRANCH   1  20
ATOM     20  C   UNL A   1      32.541  31.482  26.855  1.00  0.00     0.274 C 
BRANCH  20  21
ATOM     21  C   UNL A   1      33.270  32.310  27.918  1.00  0.00     0.275 C 
BRANCH  21  22
ATOM     22  O   UNL A   1      33.070  33.722  27.725  1.00  0.00    -0.458 OA
BRANCH  22  23
ATOM     23  C   UNL A   1      33.332  34.502  28.801  1.00  0.00     0.338 C 
ATOM     24  O   UNL A   1      32.630  35.393  29.250  1.00  0.00    -0.246 OA
BRANCH  23  25
ATOM     25  C   UNL A   1      34.535  34.001  29.483  1.00  0.00     0.060 A 
ATOM     26  C   UNL A   1      34.369  33.266  30.660  1.00  0.00     0.016 A 
ATOM     27  C   UNL A   1      35.811  34.274  28.990  1.00  0.00     0.016 A 
ATOM     28  C   UNL A   1      35.480  32.779  31.342  1.00  0.00     0.010 A 
ATOM     29  C   UNL A   1      36.927  33.784  29.676  1.00  0.00     0.010 A 
ATOM     30  C   UNL A   1      36.768  33.028  30.851  1.00  0.00    -0.014 A 
BRANCH  30  31
ATOM     31  C   UNL A   1      37.952  32.496  31.566  1.00  0.00     0.031 A 
ATOM     32  C   UNL A   1      38.691  31.312  31.015  1.00  0.00     0.074 A 
ATOM     33  C   UNL A   1      38.351  33.078  32.713  1.00  0.00     0.049 A 
ATOM     34  N   UNL A   1      39.654  30.616  31.556  1.00  0.00    -0.248 NA
ATOM     35  C   UNL A   1      38.292  30.850  29.675  1.00  0.00     0.031 C 
ATOM     36  C   UNL A   1      37.734  34.262  33.318  1.00  0.00     0.029 A 
ATOM     37  N   UNL A   1      39.356  32.745  33.585  1.00  0.00    -0.354 N 
ATOM     38  C   UNL A   1      39.979  29.632  30.630  1.00  0.00     0.074 A 
ATOM     39  C   UNL A   1      39.089  29.804  29.502  1.00  0.00     0.031 C 
ATOM     40  C   UNL A   1      38.363  34.543  34.471  1.00  0.00     0.029 A 
ATOM     41  C   UNL A   1      39.388  33.533  34.713  1.00  0.00     0.049 A 
ATOM     42  H   UNL A   1      39.994  32.013  33.420  1.00  0.00     0.167 HD
ATOM     43  C   UNL A   1      40.940  28.681  30.715  1.00  0.00     0.037 A 
ATOM     44  C   UNL A   1      40.126  33.422  35.835  1.00  0.00     0.037 A 
ATOM     45  C   UNL A   1      41.818  28.523  31.846  1.00  0.00     0.049 A 
ATOM     46  C   UNL A   1      41.118  32.294  35.946  1.00  0.00     0.074 A 
ATOM     47  C   UNL A   1      42.818  27.585  32.034  1.00  0.00     0.029 A 
ATOM     48  N   UNL A   1      41.802  29.323  32.979  1.00  0.00    -0.354 N 
ATOM     49  N   UNL A   1      41.412  31.365  35.067  1.00  0.00    -0.248 NA
ATOM     50  C   UNL A   1      41.871  32.189  37.204  1.00  0.00     0.031 C 
ATOM     51  C   UNL A   1      43.379  27.792  33.299  1.00  0.00     0.029 A 
ATOM     52  C   UNL A   1      42.760  28.886  33.880  1.00  0.00     0.049 A 
ATOM     53  H   UNL A   1      41.200  30.088  33.124  1.00  0.00     0.167 HD
ATOM     54  C   UNL A   1      42.394  30.578  35.658  1.00  0.00     0.074 A 
ATOM     55  C   UNL A   1      42.659  31.149  36.962  1.00  0.00     0.031 C 
ATOM     56  C   UNL A   1      43.016  29.477  35.170  1.00  0.00     0.037 A 
BRANCH  43  57
ATOM     57  C   UNL A   1      41.093  27.731  29.561  1.00  0.00     0.058 A 
ATOM     58  C   UNL A   1      42.163  27.839  28.660  1.00  0.00     0.135 A 
ATOM     59  C   UNL A   1      40.201  26.661  29.393  1.00  0.00     0.135 A 
ATOM     60  F   UNL A   1      43.036  28.853  28.764  1.00  0.00    -0.206 F 
ATOM     61  C   UNL A   1      42.337  26.925  27.625  1.00  0.00     0.059 A 
ATOM     62  C   UNL A   1      40.369  25.720  28.380  1.00  0.00     0.059 A 
ATOM     63  F   UNL A   1      39.158  26.513  30.225  1.00  0.00    -0.206 F 
ATOM     64  C   UNL A   1      41.438  25.866  27.496  1.00  0.00     0.060 A 
BRANCH  64  65
ATOM     65  S   UNL A   1      41.697  24.673  26.166  1.00  0.00     0.124 S 
ATOM     66  O   UNL A   1      40.467  23.891  26.232  1.00  0.00    -0.237 OA
ATOM     67  O   UNL A   1      41.839  25.536  24.997  1.00  0.00    -0.237 OA
ATOM     68  O   UNL A   1      42.909  23.968  26.571  1.00  0.00    -0.744 OA
ENDBRANCH  64  65
ENDBRANCH  43  57
BRANCH  44  69
ATOM     69  C   UNL A   1      39.916  34.362  36.968  1.00  0.00     0.058 A 
ATOM     70  C   UNL A   1      39.045  34.052  38.022  1.00  0.00     0.135 A 
ATOM     71  C   UNL A   1      40.563  35.609  37.004  1.00  0.00     0.135 A 
ATOM     72  F   UNL A   1      38.395  32.877  38.031  1.00  0.00    -0.206 F 
ATOM     73  C   UNL A   1      38.798  34.953  39.053  1.00  0.00     0.059 A 
ATOM     74  C   UNL A   1      40.356  36.514  38.039  1.00  0.00     0.059 A 
ATOM     75  F   UNL A   1      41.417  35.952  36.026  1.00  0.00    -0.206 F 
ATOM     76  C   UNL A   1      39.456  36.184  39.050  1.00  0.00     0.060 A 
BRANCH  76  77
ATOM     77  S   UNL A   1      39.134  37.347  40.394  1.00  0.00     0.124 S 
ATOM     78  O   UNL A   1      40.479  37.817  40.703  1.00  0.00    -0.237 OA
ATOM     79  O   UNL A   1      38.247  38.316  39.758  1.00  0.00    -0.237 OA
ATOM     80  O   UNL A   1      38.505  36.512  41.415  1.00  0.00    -0.744 OA
ENDBRANCH  76  77
ENDBRANCH  44  69
BRANCH  56  81
ATOM     81  C   UNL A   1      44.059  28.829  36.035  1.00  0.00     0.058 A 
ATOM     82  C   UNL A   1      43.745  27.751  36.877  1.00  0.00     0.135 A 
ATOM     83  C   UNL A   1      45.401  29.238  35.964  1.00  0.00     0.135 A 
ATOM     84  F   UNL A   1      42.476  27.329  36.989  1.00  0.00    -0.206 F 
ATOM     85  C   UNL A   1      44.724  27.105  37.624  1.00  0.00     0.059 A 
ATOM     86  C   UNL A   1      46.400  28.591  36.683  1.00  0.00     0.059 A 
ATOM     87  F   UNL A   1      45.754  30.261  35.168  1.00  0.00    -0.206 F 
ATOM     88  C   UNL A   1      46.051  27.527  37.514  1.00  0.00     0.060 A 
BRANCH  88  89
ATOM     89  S   UNL A   1      47.320  26.636  38.439  1.00  0.00     0.124 S 
ATOM     90  O   UNL A   1      48.530  27.345  38.038  1.00  0.00    -0.237 OA
ATOM     91  O   UNL A   1      46.896  26.839  39.821  1.00  0.00    -0.237 OA
ATOM     92  O   UNL A   1      47.202  25.267  37.949  1.00  0.00    -0.744 OA
ENDBRANCH  88  89
ENDBRANCH  56  81
ENDBRANCH  30  31
ENDBRANCH  23  25
ENDBRANCH  22  23
ENDBRANCH  21  22
ENDBRANCH  20  21
ENDBRANCH   1  20
TORSDOF 20
ENDMDL
