MODEL 1
REMARK VINA RESULT:     -10.5      0.000      0.000
REMARK SMILES O=C(Cn1nc(-c2ccc(Br)cc2)ccc1=O)N[C@H](C(=O)OCCOC(=O)c1ccc(-c2c3nc(c(-c4c(F)cc(S(=O)(=O)[O-])cc4F)c4ccc([nH]4)c(-c4c(F)cc(S(=O)(=O)[O-])cc4F)c4nc(c(-c5c(F)cc(S(=O)(=O)[O-])cc5F)c5ccc2[nH]5)C=C4)C=C3)cc1)c1ccccc1
REMARK SMILES IDX 23 1 22 2 20 3 21 4 19 5 18 6 1 7 2 8 3 10 4 11 5 12 16 13
REMARK SMILES IDX 6 14 15 15 17 16 14 17 7 18 8 19 13 20 9 21 12 22 10 23
REMARK SMILES IDX 11 24 94 25 95 26 99 27 96 28 98 29 97 30 24 31 25 32 26 33
REMARK SMILES IDX 27 34 28 35 29 36 93 37 30 38 92 39 31 40 32 41 33 42 86 43
REMARK SMILES IDX 34 44 91 45 85 46 87 47 35 48 90 49 84 50 83 51 36 53 70 54
REMARK SMILES IDX 49 55 69 56 50 57 53 58 68 59 88 60 51 61 52 62 67 64 89 65
REMARK SMILES IDX 54 66 37 67 38 68 47 69 39 70 40 71 46 72 48 73 41 74 42 75
REMARK SMILES IDX 43 76 44 77 45 78 71 79 72 80 81 81 73 82 74 83 80 84 82 85
REMARK SMILES IDX 75 86 76 87 77 88 78 89 79 90 55 91 56 92 65 93 57 94 58 95
REMARK SMILES IDX 64 96 66 97 59 98 60 99 61 100 62 101 63 102
REMARK H PARENT 18 9 87 52 53 63
REMARK Flexibility Score: inf
ROOT
ATOM      1  C   UNL A   1      34.490  34.598  28.140  1.00  0.00     0.274 C 
ENDROOT
BRANCH   1   2
ATOM      2  O   UNL A   1      34.762  33.250  27.694  1.00  0.00    -0.460 OA
BRANCH   2   3
ATOM      3  C   UNL A   1      35.554  32.525  28.547  1.00  0.00     0.333 C 
ATOM      4  O   UNL A   1      36.416  33.039  29.254  1.00  0.00    -0.249 OA
BRANCH   3   5
ATOM      5  C   UNL A   1      35.312  30.998  28.416  1.00  0.00     0.223 C 
BRANCH   5   6
ATOM      6  N   UNL A   1      34.757  30.797  27.070  1.00  0.00    -0.337 N 
ATOM      7  O   UNL A   1      33.131  29.276  27.661  1.00  0.00    -0.273 OA
ATOM      8  C   UNL A   1      33.728  29.910  26.794  1.00  0.00     0.242 C 
ATOM      9  H   UNL A   1      35.135  31.320  26.327  1.00  0.00     0.164 HD
BRANCH   8  10
ATOM     10  C   UNL A   1      33.499  29.646  25.308  1.00  0.00     0.248 C 
BRANCH  10  11
ATOM     11  N   UNL A   1      32.807  28.376  25.080  1.00  0.00    -0.220 N 
ATOM     12  N   UNL A   1      33.586  27.237  25.106  1.00  0.00    -0.169 NA
ATOM     13  C   UNL A   1      31.452  28.382  24.780  1.00  0.00     0.267 A 
ATOM     14  C   UNL A   1      33.000  26.102  24.894  1.00  0.00     0.091 A 
ATOM     15  C   UNL A   1      30.829  27.054  24.596  1.00  0.00     0.075 A 
ATOM     16  O   UNL A   1      30.754  29.383  24.659  1.00  0.00    -0.268 OA
ATOM     17  C   UNL A   1      31.556  25.937  24.645  1.00  0.00     0.036 A 
BRANCH  14  18
ATOM     18  C   UNL A   1      33.819  24.869  24.909  1.00  0.00     0.002 A 
ATOM     19  C   UNL A   1      33.937  24.157  26.107  1.00  0.00     0.011 A 
ATOM     20  C   UNL A   1      34.518  24.457  23.769  1.00  0.00     0.011 A 
ATOM     21  C   UNL A   1      34.735  23.013  26.161  1.00  0.00     0.016 A 
ATOM     22  C   UNL A   1      35.326  23.318  23.830  1.00  0.00     0.016 A 
ATOM     23  C   UNL A   1      35.426  22.602  25.023  1.00  0.00     0.018 A 
ATOM     24  Br  UNL A   1      36.523  21.063  25.100  1.00  0.00    -0.051 Br
ENDBRANCH  14  18
ENDBRANCH  10  11
ENDBRANCH   8  10
ENDBRANCH   5   6
BRANCH   5  25
ATOM     25  C   UNL A   1      36.456  30.047  28.758  1.00  0.00    -0.014 A 
ATOM     26  C   UNL A   1      37.448  29.752  27.798  1.00  0.00     0.006 A 
ATOM     27  C   UNL A   1      36.566  29.414  30.006  1.00  0.00     0.006 A 
ATOM     28  C   UNL A   1      38.567  28.980  28.113  1.00  0.00     0.000 A 
ATOM     29  C   UNL A   1      37.691  28.641  30.324  1.00  0.00     0.000 A 
ATOM     30  C   UNL A   1      38.700  28.442  29.386  1.00  0.00     0.000 A 
ENDBRANCH   5  25
ENDBRANCH   3   5
ENDBRANCH   2   3
ENDBRANCH   1   2
BRANCH   1  31
ATOM     31  C   UNL A   1      33.297  34.657  29.091  1.00  0.00     0.275 C 
BRANCH  31  32
ATOM     32  O   UNL A   1      33.578  35.557  30.170  1.00  0.00    -0.458 OA
BRANCH  32  33
ATOM     33  C   UNL A   1      33.231  35.132  31.404  1.00  0.00     0.338 C 
ATOM     34  O   UNL A   1      32.119  35.176  31.915  1.00  0.00    -0.246 OA
BRANCH  33  35
ATOM     35  C   UNL A   1      34.415  34.585  32.080  1.00  0.00     0.060 A 
ATOM     36  C   UNL A   1      34.473  33.223  32.370  1.00  0.00     0.016 A 
ATOM     37  C   UNL A   1      35.505  35.408  32.358  1.00  0.00     0.016 A 
ATOM     38  C   UNL A   1      35.616  32.704  32.981  1.00  0.00     0.010 A 
ATOM     39  C   UNL A   1      36.680  34.873  32.874  1.00  0.00     0.010 A 
ATOM     40  C   UNL A   1      36.732  33.524  33.230  1.00  0.00    -0.014 A 
BRANCH  40  41
ATOM     41  C   UNL A   1      37.948  32.973  33.875  1.00  0.00     0.031 A 
ATOM     42  C   UNL A   1      38.989  32.261  33.053  1.00  0.00     0.074 A 
ATOM     43  C   UNL A   1      38.107  33.111  35.204  1.00  0.00     0.049 A 
ATOM     44  N   UNL A   1      40.167  31.823  33.418  1.00  0.00    -0.248 NA
ATOM     45  C   UNL A   1      38.666  31.993  31.642  1.00  0.00     0.031 C 
ATOM     46  C   UNL A   1      37.123  33.704  36.114  1.00  0.00     0.029 A 
ATOM     47  N   UNL A   1      39.157  32.777  36.020  1.00  0.00    -0.354 N 
ATOM     48  C   UNL A   1      40.723  31.239  32.287  1.00  0.00     0.074 A 
ATOM     49  C   UNL A   1      39.734  31.323  31.237  1.00  0.00     0.031 C 
ATOM     50  C   UNL A   1      37.637  33.738  37.354  1.00  0.00     0.029 A 
ATOM     51  C   UNL A   1      38.976  33.156  37.328  1.00  0.00     0.049 A 
ATOM     52  H   UNL A   1      39.962  32.310  35.700  1.00  0.00     0.167 HD
ATOM     53  C   UNL A   1      41.959  30.709  32.129  1.00  0.00     0.037 A 
ATOM     54  C   UNL A   1      39.809  33.068  38.383  1.00  0.00     0.037 A 
ATOM     55  C   UNL A   1      42.939  30.633  33.180  1.00  0.00     0.049 A 
ATOM     56  C   UNL A   1      41.186  32.502  38.181  1.00  0.00     0.074 A 
ATOM     57  C   UNL A   1      44.239  30.166  33.115  1.00  0.00     0.029 A 
ATOM     58  N   UNL A   1      42.721  31.032  34.492  1.00  0.00    -0.354 N 
ATOM     59  N   UNL A   1      41.732  32.040  37.081  1.00  0.00    -0.248 NA
ATOM     60  C   UNL A   1      42.065  32.459  39.356  1.00  0.00     0.031 C 
ATOM     61  C   UNL A   1      44.798  30.253  34.395  1.00  0.00     0.029 A 
ATOM     62  C   UNL A   1      43.858  30.808  35.249  1.00  0.00     0.049 A 
ATOM     63  H   UNL A   1      41.881  31.415  34.833  1.00  0.00     0.167 HD
ATOM     64  C   UNL A   1      43.024  31.663  37.428  1.00  0.00     0.074 A 
ATOM     65  C   UNL A   1      43.183  31.968  38.836  1.00  0.00     0.031 C 
ATOM     66  C   UNL A   1      43.991  31.113  36.652  1.00  0.00     0.037 A 
BRANCH  53  67
ATOM     67  C   UNL A   1      42.327  30.197  30.764  1.00  0.00     0.058 A 
ATOM     68  C   UNL A   1      42.158  28.844  30.424  1.00  0.00     0.135 A 
ATOM     69  C   UNL A   1      42.818  31.062  29.775  1.00  0.00     0.135 A 
ATOM     70  F   UNL A   1      41.704  27.969  31.336  1.00  0.00    -0.206 F 
ATOM     71  C   UNL A   1      42.481  28.365  29.159  1.00  0.00     0.059 A 
ATOM     72  C   UNL A   1      43.127  30.608  28.494  1.00  0.00     0.059 A 
ATOM     73  F   UNL A   1      43.002  32.364  30.046  1.00  0.00    -0.206 F 
ATOM     74  C   UNL A   1      42.965  29.255  28.199  1.00  0.00     0.060 A 
BRANCH  74  75
ATOM     75  S   UNL A   1      43.361  28.617  26.557  1.00  0.00     0.124 S 
ATOM     76  O   UNL A   1      42.350  29.275  25.734  1.00  0.00    -0.237 OA
ATOM     77  O   UNL A   1      44.732  29.078  26.364  1.00  0.00    -0.237 OA
ATOM     78  O   UNL A   1      43.205  27.174  26.706  1.00  0.00    -0.744 OA
ENDBRANCH  74  75
ENDBRANCH  53  67
BRANCH  54  79
ATOM     79  C   UNL A   1      39.378  33.596  39.703  1.00  0.00     0.058 A 
ATOM     80  C   UNL A   1      38.572  32.827  40.553  1.00  0.00     0.135 A 
ATOM     81  C   UNL A   1      39.806  34.852  40.162  1.00  0.00     0.135 A 
ATOM     82  F   UNL A   1      38.137  31.621  40.156  1.00  0.00    -0.206 F 
ATOM     83  C   UNL A   1      38.197  33.284  41.813  1.00  0.00     0.059 A 
ATOM     84  C   UNL A   1      39.460  35.323  41.425  1.00  0.00     0.059 A 
ATOM     85  F   UNL A   1      40.594  35.617  39.392  1.00  0.00    -0.206 F 
ATOM     86  C   UNL A   1      38.651  34.533  42.242  1.00  0.00     0.060 A 
BRANCH  86  87
ATOM     87  S   UNL A   1      38.216  35.085  43.906  1.00  0.00     0.124 S 
ATOM     88  O   UNL A   1      36.765  35.199  43.807  1.00  0.00    -0.237 OA
ATOM     89  O   UNL A   1      38.716  33.991  44.733  1.00  0.00    -0.237 OA
ATOM     90  O   UNL A   1      38.940  36.345  44.041  1.00  0.00    -0.744 OA
ENDBRANCH  86  87
ENDBRANCH  54  79
BRANCH  66  91
ATOM     91  C   UNL A   1      45.307  30.811  37.307  1.00  0.00     0.058 A 
ATOM     92  C   UNL A   1      46.325  31.774  37.382  1.00  0.00     0.135 A 
ATOM     93  C   UNL A   1      45.534  29.565  37.912  1.00  0.00     0.135 A 
ATOM     94  F   UNL A   1      46.158  32.979  36.813  1.00  0.00    -0.206 F 
ATOM     95  C   UNL A   1      47.532  31.506  38.017  1.00  0.00     0.059 A 
ATOM     96  C   UNL A   1      46.725  29.282  38.572  1.00  0.00     0.059 A 
ATOM     97  F   UNL A   1      44.588  28.613  37.878  1.00  0.00    -0.206 F 
ATOM     98  C   UNL A   1      47.723  30.256  38.609  1.00  0.00     0.060 A 
BRANCH  98  99
ATOM     99  S   UNL A   1      49.283  29.930  39.456  1.00  0.00     0.124 S 
ATOM    100  O   UNL A   1      50.231  30.659  38.619  1.00  0.00    -0.237 OA
ATOM    101  O   UNL A   1      49.046  30.495  40.782  1.00  0.00    -0.237 OA
ATOM    102  O   UNL A   1      49.397  28.475  39.413  1.00  0.00    -0.744 OA
ENDBRANCH  98  99
ENDBRANCH  66  91
ENDBRANCH  40  41
ENDBRANCH  33  35
ENDBRANCH  32  33
ENDBRANCH  31  32
ENDBRANCH   1  31
TORSDOF 19
ENDMDL
MODEL 2
REMARK VINA RESULT:     -10.3      1.126      7.968
REMARK SMILES O=C(Cn1nc(-c2ccc(Br)cc2)ccc1=O)N[C@H](C(=O)OCCOC(=O)c1ccc(-c2c3nc(c(-c4c(F)cc(S(=O)(=O)[O-])cc4F)c4ccc([nH]4)c(-c4c(F)cc(S(=O)(=O)[O-])cc4F)c4nc(c(-c5c(F)cc(S(=O)(=O)[O-])cc5F)c5ccc2[nH]5)C=C4)C=C3)cc1)c1ccccc1
REMARK SMILES IDX 23 1 22 2 20 3 21 4 19 5 18 6 1 7 2 8 3 10 4 11 5 12 16 13
REMARK SMILES IDX 6 14 15 15 17 16 14 17 7 18 8 19 13 20 9 21 12 22 10 23
REMARK SMILES IDX 11 24 94 25 95 26 99 27 96 28 98 29 97 30 24 31 25 32 26 33
REMARK SMILES IDX 27 34 28 35 29 36 93 37 30 38 92 39 31 40 32 41 33 42 86 43
REMARK SMILES IDX 34 44 91 45 85 46 87 47 35 48 90 49 84 50 83 51 36 53 70 54
REMARK SMILES IDX 49 55 69 56 50 57 53 58 68 59 88 60 51 61 52 62 67 64 89 65
REMARK SMILES IDX 54 66 37 67 38 68 47 69 39 70 40 71 46 72 48 73 41 74 42 75
REMARK SMILES IDX 43 76 44 77 45 78 71 79 72 80 81 81 73 82 74 83 80 84 82 85
REMARK SMILES IDX 75 86 76 87 77 88 78 89 79 90 55 91 56 92 65 93 57 94 58 95
REMARK SMILES IDX 64 96 66 97 59 98 60 99 61 100 62 101 63 102
REMARK H PARENT 18 9 87 52 53 63
REMARK Flexibility Score: inf
ROOT
ATOM      1  C   UNL A   1      34.228  34.672  28.111  1.00  0.00     0.274 C 
ENDROOT
BRANCH   1   2
ATOM      2  O   UNL A   1      34.520  33.339  27.635  1.00  0.00    -0.460 OA
BRANCH   2   3
ATOM      3  C   UNL A   1      35.363  32.624  28.445  1.00  0.00     0.333 C 
ATOM      4  O   UNL A   1      36.289  33.141  29.063  1.00  0.00    -0.249 OA
BRANCH   3   5
ATOM      5  C   UNL A   1      35.079  31.100  28.386  1.00  0.00     0.223 C 
BRANCH   5   6
ATOM      6  N   UNL A   1      34.632  30.831  27.013  1.00  0.00    -0.337 N 
ATOM      7  O   UNL A   1      32.905  29.406  27.553  1.00  0.00    -0.273 OA
ATOM      8  C   UNL A   1      33.598  29.962  26.704  1.00  0.00     0.242 C 
ATOM      9  H   UNL A   1      35.091  31.292  26.275  1.00  0.00     0.164 HD
BRANCH   8  10
ATOM     10  C   UNL A   1      33.484  29.610  25.222  1.00  0.00     0.248 C 
BRANCH  10  11
ATOM     11  N   UNL A   1      32.707  28.388  25.011  1.00  0.00    -0.220 N 
ATOM     12  N   UNL A   1      33.408  27.199  25.045  1.00  0.00    -0.169 NA
ATOM     13  C   UNL A   1      31.354  28.482  24.715  1.00  0.00     0.267 A 
ATOM     14  C   UNL A   1      32.746  26.104  24.847  1.00  0.00     0.091 A 
ATOM     15  C   UNL A   1      30.642  27.198  24.547  1.00  0.00     0.075 A 
ATOM     16  O   UNL A   1      30.725  29.527  24.587  1.00  0.00    -0.268 OA
ATOM     17  C   UNL A   1      31.292  26.035  24.604  1.00  0.00     0.036 A 
BRANCH  14  18
ATOM     18  C   UNL A   1      33.479  24.819  24.871  1.00  0.00     0.002 A 
ATOM     19  C   UNL A   1      32.822  23.664  24.434  1.00  0.00     0.011 A 
ATOM     20  C   UNL A   1      34.779  24.743  25.383  1.00  0.00     0.011 A 
ATOM     21  C   UNL A   1      33.475  22.432  24.483  1.00  0.00     0.016 A 
ATOM     22  C   UNL A   1      35.426  23.506  25.442  1.00  0.00     0.016 A 
ATOM     23  C   UNL A   1      34.772  22.359  24.988  1.00  0.00     0.018 A 
ATOM     24  Br  UNL A   1      35.651  20.686  25.073  1.00  0.00    -0.051 Br
ENDBRANCH  14  18
ENDBRANCH  10  11
ENDBRANCH   8  10
ENDBRANCH   5   6
BRANCH   5  25
ATOM     25  C   UNL A   1      36.157  30.139  28.883  1.00  0.00    -0.014 A 
ATOM     26  C   UNL A   1      37.107  29.608  27.983  1.00  0.00     0.006 A 
ATOM     27  C   UNL A   1      36.243  29.724  30.221  1.00  0.00     0.006 A 
ATOM     28  C   UNL A   1      38.172  28.820  28.421  1.00  0.00     0.000 A 
ATOM     29  C   UNL A   1      37.314  28.935  30.663  1.00  0.00     0.000 A 
ATOM     30  C   UNL A   1      38.288  28.502  29.767  1.00  0.00     0.000 A 
ENDBRANCH   5  25
ENDBRANCH   3   5
ENDBRANCH   2   3
ENDBRANCH   1   2
BRANCH   1  31
ATOM     31  C   UNL A   1      33.099  34.678  29.139  1.00  0.00     0.275 C 
BRANCH  31  32
ATOM     32  O   UNL A   1      33.437  35.543  30.230  1.00  0.00    -0.458 OA
BRANCH  32  33
ATOM     33  C   UNL A   1      33.262  35.033  31.469  1.00  0.00     0.338 C 
ATOM     34  O   UNL A   1      32.216  34.967  32.100  1.00  0.00    -0.246 OA
BRANCH  33  35
ATOM     35  C   UNL A   1      34.550  34.543  31.979  1.00  0.00     0.060 A 
ATOM     36  C   UNL A   1      34.734  33.178  32.186  1.00  0.00     0.016 A 
ATOM     37  C   UNL A   1      35.607  35.432  32.179  1.00  0.00     0.016 A 
ATOM     38  C   UNL A   1      35.972  32.717  32.638  1.00  0.00     0.010 A 
ATOM     39  C   UNL A   1      36.866  34.961  32.532  1.00  0.00     0.010 A 
ATOM     40  C   UNL A   1      37.051  33.605  32.806  1.00  0.00    -0.014 A 
BRANCH  40  41
ATOM     41  C   UNL A   1      38.367  33.116  33.282  1.00  0.00     0.031 A 
ATOM     42  C   UNL A   1      38.792  33.345  34.708  1.00  0.00     0.074 A 
ATOM     43  C   UNL A   1      39.179  32.472  32.424  1.00  0.00     0.049 A 
ATOM     44  N   UNL A   1      39.846  32.887  35.335  1.00  0.00    -0.248 NA
ATOM     45  C   UNL A   1      37.935  34.208  35.538  1.00  0.00     0.031 C 
ATOM     46  C   UNL A   1      38.910  32.272  30.998  1.00  0.00     0.029 A 
ATOM     47  N   UNL A   1      40.387  31.856  32.625  1.00  0.00    -0.354 N 
ATOM     48  C   UNL A   1      39.773  33.397  36.626  1.00  0.00     0.074 A 
ATOM     49  C   UNL A   1      38.606  34.247  36.679  1.00  0.00     0.031 C 
ATOM     50  C   UNL A   1      39.898  31.537  30.464  1.00  0.00     0.029 A 
ATOM     51  C   UNL A   1      40.876  31.229  31.505  1.00  0.00     0.049 A 
ATOM     52  H   UNL A   1      40.859  31.863  33.489  1.00  0.00     0.167 HD
ATOM     53  C   UNL A   1      40.587  33.153  37.680  1.00  0.00     0.037 A 
ATOM     54  C   UNL A   1      41.975  30.468  31.343  1.00  0.00     0.037 A 
ATOM     55  C   UNL A   1      41.745  32.303  37.618  1.00  0.00     0.049 A 
ATOM     56  C   UNL A   1      42.851  30.187  32.531  1.00  0.00     0.074 A 
ATOM     57  C   UNL A   1      42.608  31.944  38.638  1.00  0.00     0.029 A 
ATOM     58  N   UNL A   1      42.206  31.680  36.466  1.00  0.00    -0.354 N 
ATOM     59  N   UNL A   1      42.715  30.601  33.768  1.00  0.00    -0.248 NA
ATOM     60  C   UNL A   1      44.019  29.326  32.306  1.00  0.00     0.031 C 
ATOM     61  C   UNL A   1      43.609  31.129  38.096  1.00  0.00     0.029 A 
ATOM     62  C   UNL A   1      43.349  30.951  36.747  1.00  0.00     0.049 A 
ATOM     63  H   UNL A   1      41.783  31.749  35.579  1.00  0.00     0.167 HD
ATOM     64  C   UNL A   1      43.772  30.039  34.474  1.00  0.00     0.074 A 
ATOM     65  C   UNL A   1      44.528  29.243  33.528  1.00  0.00     0.031 C 
ATOM     66  C   UNL A   1      44.090  30.171  35.786  1.00  0.00     0.037 A 
BRANCH  53  67
ATOM     67  C   UNL A   1      40.235  33.794  38.993  1.00  0.00     0.058 A 
ATOM     68  C   UNL A   1      39.247  33.246  39.830  1.00  0.00     0.135 A 
ATOM     69  C   UNL A   1      40.908  34.940  39.443  1.00  0.00     0.135 A 
ATOM     70  F   UNL A   1      38.562  32.158  39.443  1.00  0.00    -0.206 F 
ATOM     71  C   UNL A   1      38.926  33.823  41.053  1.00  0.00     0.059 A 
ATOM     72  C   UNL A   1      40.618  35.523  40.675  1.00  0.00     0.059 A 
ATOM     73  F   UNL A   1      41.859  35.507  38.684  1.00  0.00    -0.206 F 
ATOM     74  C   UNL A   1      39.618  34.962  41.469  1.00  0.00     0.060 A 
BRANCH  74  75
ATOM     75  S   UNL A   1      39.200  35.686  43.069  1.00  0.00     0.124 S 
ATOM     76  O   UNL A   1      37.756  35.476  43.119  1.00  0.00    -0.237 OA
ATOM     77  O   UNL A   1      39.988  34.878  43.994  1.00  0.00    -0.237 OA
ATOM     78  O   UNL A   1      39.627  37.075  42.937  1.00  0.00    -0.744 OA
ENDBRANCH  74  75
ENDBRANCH  53  67
BRANCH  54  79
ATOM     79  C   UNL A   1      42.260  29.866  30.015  1.00  0.00     0.058 A 
ATOM     80  C   UNL A   1      41.860  28.554  29.723  1.00  0.00     0.135 A 
ATOM     81  C   UNL A   1      42.888  30.603  28.999  1.00  0.00     0.135 A 
ATOM     82  F   UNL A   1      41.259  27.811  30.664  1.00  0.00    -0.206 F 
ATOM     83  C   UNL A   1      42.076  27.989  28.470  1.00  0.00     0.059 A 
ATOM     84  C   UNL A   1      43.098  30.066  27.732  1.00  0.00     0.059 A 
ATOM     85  F   UNL A   1      43.273  31.868  29.225  1.00  0.00    -0.206 F 
ATOM     86  C   UNL A   1      42.692  28.756  27.478  1.00  0.00     0.060 A 
BRANCH  86  87
ATOM     87  S   UNL A   1      42.903  28.035  25.835  1.00  0.00     0.124 S 
ATOM     88  O   UNL A   1      42.471  26.661  26.060  1.00  0.00    -0.237 OA
ATOM     89  O   UNL A   1      42.015  28.860  25.022  1.00  0.00    -0.237 OA
ATOM     90  O   UNL A   1      44.328  28.214  25.571  1.00  0.00    -0.744 OA
ENDBRANCH  86  87
ENDBRANCH  54  79
BRANCH  66  91
ATOM     91  C   UNL A   1      45.303  29.435  36.276  1.00  0.00     0.058 A 
ATOM     92  C   UNL A   1      46.572  30.033  36.271  1.00  0.00     0.135 A 
ATOM     93  C   UNL A   1      45.186  28.140  36.806  1.00  0.00     0.135 A 
ATOM     94  F   UNL A   1      46.735  31.268  35.769  1.00  0.00    -0.206 F 
ATOM     95  C   UNL A   1      47.691  29.363  36.754  1.00  0.00     0.059 A 
ATOM     96  C   UNL A   1      46.288  27.461  37.315  1.00  0.00     0.059 A 
ATOM     97  F   UNL A   1      43.991  27.529  36.844  1.00  0.00    -0.206 F 
ATOM     98  C   UNL A   1      47.538  28.077  37.275  1.00  0.00     0.060 A 
BRANCH  98  99
ATOM     99  S   UNL A   1      48.993  27.231  37.927  1.00  0.00     0.124 S 
ATOM    100  O   UNL A   1      48.605  27.010  39.317  1.00  0.00    -0.237 OA
ATOM    101  O   UNL A   1      49.062  26.035  37.092  1.00  0.00    -0.237 OA
ATOM    102  O   UNL A   1      50.069  28.195  37.721  1.00  0.00    -0.744 OA
ENDBRANCH  98  99
ENDBRANCH  66  91
ENDBRANCH  40  41
ENDBRANCH  33  35
ENDBRANCH  32  33
ENDBRANCH  31  32
ENDBRANCH   1  31
TORSDOF 19
ENDMDL
MODEL 3
REMARK VINA RESULT:     -10.0      6.348     13.179
REMARK SMILES O=C(Cn1nc(-c2ccc(Br)cc2)ccc1=O)N[C@H](C(=O)OCCOC(=O)c1ccc(-c2c3nc(c(-c4c(F)cc(S(=O)(=O)[O-])cc4F)c4ccc([nH]4)c(-c4c(F)cc(S(=O)(=O)[O-])cc4F)c4nc(c(-c5c(F)cc(S(=O)(=O)[O-])cc5F)c5ccc2[nH]5)C=C4)C=C3)cc1)c1ccccc1
REMARK SMILES IDX 23 1 22 2 20 3 21 4 19 5 18 6 1 7 2 8 3 10 4 11 5 12 16 13
REMARK SMILES IDX 6 14 15 15 17 16 14 17 7 18 8 19 13 20 9 21 12 22 10 23
REMARK SMILES IDX 11 24 94 25 95 26 99 27 96 28 98 29 97 30 24 31 25 32 26 33
REMARK SMILES IDX 27 34 28 35 29 36 93 37 30 38 92 39 31 40 32 41 33 42 86 43
REMARK SMILES IDX 34 44 91 45 85 46 87 47 35 48 90 49 84 50 83 51 36 53 70 54
REMARK SMILES IDX 49 55 69 56 50 57 53 58 68 59 88 60 51 61 52 62 67 64 89 65
REMARK SMILES IDX 54 66 37 67 38 68 47 69 39 70 40 71 46 72 48 73 41 74 42 75
REMARK SMILES IDX 43 76 44 77 45 78 71 79 72 80 81 81 73 82 74 83 80 84 82 85
REMARK SMILES IDX 75 86 76 87 77 88 78 89 79 90 55 91 56 92 65 93 57 94 58 95
REMARK SMILES IDX 64 96 66 97 59 98 60 99 61 100 62 101 63 102
REMARK H PARENT 18 9 87 52 53 63
REMARK Flexibility Score: inf
ROOT
ATOM      1  C   UNL A   1      46.549  22.739  38.786  1.00  0.00     0.274 C 
ENDROOT
BRANCH   1   2
ATOM      2  O   UNL A   1      47.388  21.773  38.114  1.00  0.00    -0.460 OA
BRANCH   2   3
ATOM      3  C   UNL A   1      47.660  22.077  36.805  1.00  0.00     0.333 C 
ATOM      4  O   UNL A   1      48.650  22.717  36.463  1.00  0.00    -0.249 OA
BRANCH   3   5
ATOM      5  C   UNL A   1      46.522  21.627  35.851  1.00  0.00     0.223 C 
BRANCH   5   6
ATOM      6  N   UNL A   1      45.839  20.523  36.539  1.00  0.00    -0.337 N 
ATOM      7  O   UNL A   1      46.435  18.859  35.062  1.00  0.00    -0.273 OA
ATOM      8  C   UNL A   1      45.815  19.223  36.058  1.00  0.00     0.242 C 
ATOM      9  H   UNL A   1      45.374  20.717  37.384  1.00  0.00     0.164 HD
BRANCH   8  10
ATOM     10  C   UNL A   1      44.822  18.302  36.764  1.00  0.00     0.248 C 
BRANCH  10  11
ATOM     11  N   UNL A   1      45.336  17.832  38.052  1.00  0.00    -0.220 N 
ATOM     12  N   UNL A   1      46.497  18.425  38.505  1.00  0.00    -0.169 NA
ATOM     13  C   UNL A   1      44.694  16.788  38.702  1.00  0.00     0.267 A 
ATOM     14  C   UNL A   1      46.980  18.018  39.636  1.00  0.00     0.091 A 
ATOM     15  C   UNL A   1      45.263  16.399  40.010  1.00  0.00     0.075 A 
ATOM     16  O   UNL A   1      43.716  16.180  38.279  1.00  0.00    -0.268 OA
ATOM     17  C   UNL A   1      46.367  16.977  40.483  1.00  0.00     0.036 A 
BRANCH  14  18
ATOM     18  C   UNL A   1      48.228  18.635  40.135  1.00  0.00     0.002 A 
ATOM     19  C   UNL A   1      48.430  18.714  41.518  1.00  0.00     0.011 A 
ATOM     20  C   UNL A   1      49.161  19.189  39.252  1.00  0.00     0.011 A 
ATOM     21  C   UNL A   1      49.579  19.327  42.019  1.00  0.00     0.016 A 
ATOM     22  C   UNL A   1      50.305  19.812  39.757  1.00  0.00     0.016 A 
ATOM     23  C   UNL A   1      50.509  19.873  41.136  1.00  0.00     0.018 A 
ATOM     24  Br  UNL A   1      52.058  20.721  41.815  1.00  0.00    -0.051 Br
ENDBRANCH  14  18
ENDBRANCH  10  11
ENDBRANCH   8  10
ENDBRANCH   5   6
BRANCH   5  25
ATOM     25  C   UNL A   1      45.575  22.688  35.296  1.00  0.00    -0.014 A 
ATOM     26  C   UNL A   1      44.198  22.409  35.157  1.00  0.00     0.006 A 
ATOM     27  C   UNL A   1      46.016  23.955  34.884  1.00  0.00     0.006 A 
ATOM     28  C   UNL A   1      43.287  23.391  34.762  1.00  0.00     0.000 A 
ATOM     29  C   UNL A   1      45.102  24.942  34.490  1.00  0.00     0.000 A 
ATOM     30  C   UNL A   1      43.738  24.666  34.450  1.00  0.00     0.000 A 
ENDBRANCH   5  25
ENDBRANCH   3   5
ENDBRANCH   2   3
ENDBRANCH   1   2
BRANCH   1  31
ATOM     31  C   UNL A   1      47.194  24.123  38.832  1.00  0.00     0.275 C 
BRANCH  31  32
ATOM     32  O   UNL A   1      46.275  25.105  38.338  1.00  0.00    -0.458 OA
BRANCH  32  33
ATOM     33  C   UNL A   1      46.774  26.347  38.157  1.00  0.00     0.338 C 
ATOM     34  O   UNL A   1      47.850  26.776  38.551  1.00  0.00    -0.246 OA
BRANCH  33  35
ATOM     35  C   UNL A   1      45.812  27.150  37.389  1.00  0.00     0.060 A 
ATOM     36  C   UNL A   1      46.278  28.106  36.488  1.00  0.00     0.016 A 
ATOM     37  C   UNL A   1      44.444  26.902  37.503  1.00  0.00     0.016 A 
ATOM     38  C   UNL A   1      45.359  28.840  35.736  1.00  0.00     0.010 A 
ATOM     39  C   UNL A   1      43.537  27.562  36.683  1.00  0.00     0.010 A 
ATOM     40  C   UNL A   1      43.980  28.568  35.822  1.00  0.00    -0.014 A 
BRANCH  40  41
ATOM     41  C   UNL A   1      43.004  29.344  35.021  1.00  0.00     0.031 A 
ATOM     42  C   UNL A   1      42.708  28.955  33.597  1.00  0.00     0.074 A 
ATOM     43  C   UNL A   1      42.390  30.403  35.580  1.00  0.00     0.049 A 
ATOM     44  N   UNL A   1      41.801  29.436  32.785  1.00  0.00    -0.248 NA
ATOM     45  C   UNL A   1      43.544  27.901  32.999  1.00  0.00     0.031 C 
ATOM     46  C   UNL A   1      42.663  30.925  36.921  1.00  0.00     0.029 A 
ATOM     47  N   UNL A   1      41.402  31.223  35.098  1.00  0.00    -0.354 N 
ATOM     48  C   UNL A   1      41.951  28.741  31.592  1.00  0.00     0.074 A 
ATOM     49  C   UNL A   1      43.074  27.847  31.761  1.00  0.00     0.031 C 
ATOM     50  C   UNL A   1      41.827  31.944  37.174  1.00  0.00     0.029 A 
ATOM     51  C   UNL A   1      40.972  32.157  36.009  1.00  0.00     0.049 A 
ATOM     52  H   UNL A   1      41.037  31.149  34.188  1.00  0.00     0.167 HD
ATOM     53  C   UNL A   1      41.202  28.818  30.467  1.00  0.00     0.037 A 
ATOM     54  C   UNL A   1      39.981  33.064  35.924  1.00  0.00     0.037 A 
ATOM     55  C   UNL A   1      40.084  29.709  30.309  1.00  0.00     0.049 A 
ATOM     56  C   UNL A   1      39.143  33.115  34.678  1.00  0.00     0.074 A 
ATOM     57  C   UNL A   1      39.222  29.830  29.233  1.00  0.00     0.029 A 
ATOM     58  N   UNL A   1      39.675  30.637  31.256  1.00  0.00    -0.354 N 
ATOM     59  N   UNL A   1      39.238  32.385  33.592  1.00  0.00    -0.248 NA
ATOM     60  C   UNL A   1      38.055  34.101  34.649  1.00  0.00     0.031 C 
ATOM     61  C   UNL A   1      38.312  30.854  29.517  1.00  0.00     0.029 A 
ATOM     62  C   UNL A   1      38.583  31.345  30.784  1.00  0.00     0.049 A 
ATOM     63  H   UNL A   1      40.101  30.774  32.133  1.00  0.00     0.167 HD
ATOM     64  C   UNL A   1      38.214  32.813  32.756  1.00  0.00     0.074 A 
ATOM     65  C   UNL A   1      37.501  33.853  33.469  1.00  0.00     0.031 C 
ATOM     66  C   UNL A   1      37.893  32.384  31.510  1.00  0.00     0.037 A 
BRANCH  53  67
ATOM     67  C   UNL A   1      41.552  27.895  29.333  1.00  0.00     0.058 A 
ATOM     68  C   UNL A   1      42.667  28.138  28.514  1.00  0.00     0.135 A 
ATOM     69  C   UNL A   1      40.796  26.740  29.081  1.00  0.00     0.135 A 
ATOM     70  F   UNL A   1      43.419  29.235  28.703  1.00  0.00    -0.206 F 
ATOM     71  C   UNL A   1      43.008  27.281  27.473  1.00  0.00     0.059 A 
ATOM     72  C   UNL A   1      41.131  25.856  28.057  1.00  0.00     0.059 A 
ATOM     73  F   UNL A   1      39.719  26.459  29.830  1.00  0.00    -0.206 F 
ATOM     74  C   UNL A   1      42.234  26.141  27.252  1.00  0.00     0.060 A 
BRANCH  74  75
ATOM     75  S   UNL A   1      42.702  25.031  25.907  1.00  0.00     0.124 S 
ATOM     76  O   UNL A   1      42.380  25.837  24.734  1.00  0.00    -0.237 OA
ATOM     77  O   UNL A   1      44.124  24.819  26.158  1.00  0.00    -0.237 OA
ATOM     78  O   UNL A   1      41.853  23.863  26.118  1.00  0.00    -0.744 OA
ENDBRANCH  74  75
ENDBRANCH  53  67
BRANCH  54  79
ATOM     79  C   UNL A   1      39.690  33.944  37.085  1.00  0.00     0.058 A 
ATOM     80  C   UNL A   1      38.844  33.513  38.116  1.00  0.00     0.135 A 
ATOM     81  C   UNL A   1      40.291  35.206  37.212  1.00  0.00     0.135 A 
ATOM     82  F   UNL A   1      38.247  32.314  38.037  1.00  0.00    -0.206 F 
ATOM     83  C   UNL A   1      38.598  34.303  39.235  1.00  0.00     0.059 A 
ATOM     84  C   UNL A   1      40.075  36.007  38.330  1.00  0.00     0.059 A 
ATOM     85  F   UNL A   1      41.122  35.655  36.259  1.00  0.00    -0.206 F 
ATOM     86  C   UNL A   1      39.223  35.548  39.335  1.00  0.00     0.060 A 
BRANCH  86  87
ATOM     87  S   UNL A   1      38.950  36.534  40.823  1.00  0.00     0.124 S 
ATOM     88  O   UNL A   1      37.919  35.759  41.504  1.00  0.00    -0.237 OA
ATOM     89  O   UNL A   1      40.271  36.526  41.444  1.00  0.00    -0.237 OA
ATOM     90  O   UNL A   1      38.521  37.827  40.295  1.00  0.00    -0.744 OA
ENDBRANCH  86  87
ENDBRANCH  54  79
BRANCH  66  91
ATOM     91  C   UNL A   1      36.718  33.036  30.841  1.00  0.00     0.058 A 
ATOM     92  C   UNL A   1      35.403  32.763  31.245  1.00  0.00     0.135 A 
ATOM     93  C   UNL A   1      36.912  33.982  29.822  1.00  0.00     0.135 A 
ATOM     94  F   UNL A   1      35.166  31.861  32.211  1.00  0.00    -0.206 F 
ATOM     95  C   UNL A   1      34.316  33.391  30.648  1.00  0.00     0.059 A 
ATOM     96  C   UNL A   1      35.840  34.639  29.226  1.00  0.00     0.059 A 
ATOM     97  F   UNL A   1      38.152  34.286  29.407  1.00  0.00    -0.206 F 
ATOM     98  C   UNL A   1      34.545  34.327  29.638  1.00  0.00     0.060 A 
BRANCH  98  99
ATOM     99  S   UNL A   1      33.127  35.158  28.891  1.00  0.00     0.124 S 
ATOM    100  O   UNL A   1      33.755  36.332  28.294  1.00  0.00    -0.237 OA
ATOM    101  O   UNL A   1      32.635  34.156  27.950  1.00  0.00    -0.237 OA
ATOM    102  O   UNL A   1      32.250  35.424  30.028  1.00  0.00    -0.744 OA
ENDBRANCH  98  99
ENDBRANCH  66  91
ENDBRANCH  40  41
ENDBRANCH  33  35
ENDBRANCH  32  33
ENDBRANCH  31  32
ENDBRANCH   1  31
TORSDOF 19
ENDMDL
