MODEL 1
REMARK VINA RESULT:     -12.1      0.000      0.000
REMARK SMILES Cc1ncccc1NC(=O)Nc1ccc(C(=O)OCCOC(=O)c2ccc(-c3c4nc(c(-c5c(F)cc(S(=O)(=O)[O-])cc5F)c5ccc([nH]5)c(-c5c(F)cc(S(=O)(=O)[O-])cc5F)c5nc(c(-c6c(F)cc(S(=O)(=O)[O-])cc6F)c6ccc3[nH]6)C=C5)C=C4)cc2)c(O)c1
REMARK SMILES IDX 20 1 19 2 18 3 16 4 17 5 15 6 12 7 13 8 92 9 14 10 90 11
REMARK SMILES IDX 11 12 8 13 9 14 10 16 7 18 1 19 2 20 3 21 4 22 6 23 5 24
REMARK SMILES IDX 91 25 21 27 22 28 23 29 24 30 25 31 89 32 26 33 88 34 27 35
REMARK SMILES IDX 28 36 29 37 82 38 30 39 87 40 81 41 83 42 31 43 86 44 80 45
REMARK SMILES IDX 79 46 32 48 66 49 45 50 65 51 46 52 49 53 64 54 84 55 47 56
REMARK SMILES IDX 48 57 63 59 85 60 50 61 33 62 34 63 43 64 35 65 36 66 42 67
REMARK SMILES IDX 44 68 37 69 38 70 39 71 40 72 41 73 67 74 68 75 77 76 69 77
REMARK SMILES IDX 70 78 76 79 78 80 71 81 72 82 73 83 74 84 75 85 51 86 52 87
REMARK SMILES IDX 61 88 53 89 54 90 60 91 62 92 55 93 56 94 57 95 58 96 59 97
REMARK H PARENT 8 15 11 17 91 26 83 47 49 58
REMARK Flexibility Score: inf
ROOT
ATOM      1  C   UNL A   1      38.536  23.232  26.269  1.00  0.00     0.275 C 
ENDROOT
BRANCH   1   2
ATOM      2  C   UNL A   1      38.566  21.839  25.638  1.00  0.00     0.275 C 
BRANCH   2   3
ATOM      3  O   UNL A   1      37.236  21.332  25.393  1.00  0.00    -0.458 OA
BRANCH   3   4
ATOM      4  C   UNL A   1      36.530  21.979  24.422  1.00  0.00     0.342 C 
ATOM      5  O   UNL A   1      36.986  22.465  23.405  1.00  0.00    -0.246 OA
BRANCH   4   6
ATOM      6  C   UNL A   1      35.075  21.923  24.721  1.00  0.00     0.101 A 
ATOM      7  C   UNL A   1      32.406  22.026  25.563  1.00  0.00     0.046 A 
ATOM      8  C   UNL A   1      33.373  21.470  26.399  1.00  0.00     0.027 A 
ATOM      9  C   UNL A   1      32.745  22.404  24.260  1.00  0.00     0.073 A 
ATOM     10  C   UNL A   1      34.694  21.369  25.953  1.00  0.00     0.022 A 
ATOM     11  C   UNL A   1      34.084  22.421  23.869  1.00  0.00     0.132 A 
BRANCH   7  12
ATOM     12  N   UNL A   1      31.099  22.289  25.997  1.00  0.00    -0.308 N 
ATOM     13  N   UNL A   1      31.165  24.484  26.932  1.00  0.00    -0.306 N 
ATOM     14  C   UNL A   1      30.631  23.238  26.843  1.00  0.00     0.323 C 
ATOM     15  H   UNL A   1      30.987  24.921  27.797  1.00  0.00     0.171 HD
ATOM     16  O   UNL A   1      29.638  22.976  27.527  1.00  0.00    -0.248 OA
ATOM     17  H   UNL A   1      30.411  21.688  25.627  1.00  0.00     0.171 HD
BRANCH  13  18
ATOM     18  C   UNL A   1      31.924  25.291  26.044  1.00  0.00     0.064 A 
ATOM     19  C   UNL A   1      29.860  25.884  24.635  1.00  0.00     0.069 C 
ATOM     20  C   UNL A   1      31.309  26.016  25.006  1.00  0.00     0.061 A 
ATOM     21  N   UNL A   1      31.988  26.902  24.221  1.00  0.00    -0.259 NA
ATOM     22  C   UNL A   1      33.314  27.031  24.407  1.00  0.00     0.111 A 
ATOM     23  C   UNL A   1      33.317  25.370  26.101  1.00  0.00     0.030 A 
ATOM     24  C   UNL A   1      34.022  26.275  25.311  1.00  0.00     0.022 A 
ENDBRANCH  13  18
ENDBRANCH   7  12
BRANCH  11  25
ATOM     25  O   UNL A   1      34.342  22.990  22.651  1.00  0.00    -0.507 OA
ATOM     26  H   UNL A   1      33.766  23.646  22.309  1.00  0.00     0.293 HD
ENDBRANCH  11  25
ENDBRANCH   4   6
ENDBRANCH   3   4
ENDBRANCH   2   3
ENDBRANCH   1   2
BRANCH   1  27
ATOM     27  O   UNL A   1      39.589  23.369  27.238  1.00  0.00    -0.458 OA
BRANCH  27  28
ATOM     28  C   UNL A   1      40.536  24.292  26.949  1.00  0.00     0.338 C 
ATOM     29  O   UNL A   1      41.376  24.240  26.066  1.00  0.00    -0.246 OA
BRANCH  28  30
ATOM     30  C   UNL A   1      40.379  25.456  27.834  1.00  0.00     0.060 A 
ATOM     31  C   UNL A   1      41.388  26.416  27.844  1.00  0.00     0.016 A 
ATOM     32  C   UNL A   1      39.335  25.528  28.752  1.00  0.00     0.016 A 
ATOM     33  C   UNL A   1      41.386  27.430  28.799  1.00  0.00     0.010 A 
ATOM     34  C   UNL A   1      39.299  26.584  29.673  1.00  0.00     0.010 A 
ATOM     35  C   UNL A   1      40.336  27.536  29.721  1.00  0.00    -0.014 A 
BRANCH  35  36
ATOM     36  C   UNL A   1      40.335  28.626  30.738  1.00  0.00     0.031 A 
ATOM     37  C   UNL A   1      41.301  28.597  31.894  1.00  0.00     0.074 A 
ATOM     38  C   UNL A   1      39.469  29.654  30.626  1.00  0.00     0.049 A 
ATOM     39  N   UNL A   1      41.353  29.375  32.947  1.00  0.00    -0.248 NA
ATOM     40  C   UNL A   1      42.338  27.555  31.868  1.00  0.00     0.031 C 
ATOM     41  C   UNL A   1      38.505  29.834  29.538  1.00  0.00     0.029 A 
ATOM     42  N   UNL A   1      39.255  30.742  31.438  1.00  0.00    -0.354 N 
ATOM     43  C   UNL A   1      42.398  28.891  33.729  1.00  0.00     0.074 A 
ATOM     44  C   UNL A   1      42.947  27.748  33.031  1.00  0.00     0.031 C 
ATOM     45  C   UNL A   1      37.819  30.969  29.739  1.00  0.00     0.029 A 
ATOM     46  C   UNL A   1      38.237  31.561  31.007  1.00  0.00     0.049 A 
ATOM     47  H   UNL A   1      39.781  30.919  32.251  1.00  0.00     0.167 HD
ATOM     48  C   UNL A   1      42.855  29.360  34.916  1.00  0.00     0.037 A 
ATOM     49  C   UNL A   1      37.669  32.640  31.580  1.00  0.00     0.037 A 
ATOM     50  C   UNL A   1      42.332  30.524  35.589  1.00  0.00     0.049 A 
ATOM     51  C   UNL A   1      38.165  33.115  32.916  1.00  0.00     0.074 A 
ATOM     52  C   UNL A   1      42.752  31.087  36.784  1.00  0.00     0.029 A 
ATOM     53  N   UNL A   1      41.282  31.306  35.130  1.00  0.00    -0.354 N 
ATOM     54  N   UNL A   1      39.134  32.631  33.655  1.00  0.00    -0.248 NA
ATOM     55  C   UNL A   1      37.483  34.277  33.504  1.00  0.00     0.031 C 
ATOM     56  C   UNL A   1      41.930  32.184  37.066  1.00  0.00     0.029 A 
ATOM     57  C   UNL A   1      41.030  32.335  36.025  1.00  0.00     0.049 A 
ATOM     58  H   UNL A   1      40.790  31.153  34.292  1.00  0.00     0.167 HD
ATOM     59  C   UNL A   1      39.187  33.436  34.787  1.00  0.00     0.074 A 
ATOM     60  C   UNL A   1      38.164  34.449  34.628  1.00  0.00     0.031 C 
ATOM     61  C   UNL A   1      40.009  33.341  35.861  1.00  0.00     0.037 A 
BRANCH  48  62
ATOM     62  C   UNL A   1      43.964  28.597  35.591  1.00  0.00     0.058 A 
ATOM     63  C   UNL A   1      43.708  27.558  36.499  1.00  0.00     0.135 A 
ATOM     64  C   UNL A   1      45.305  28.877  35.280  1.00  0.00     0.135 A 
ATOM     65  F   UNL A   1      42.446  27.254  36.841  1.00  0.00    -0.206 F 
ATOM     66  C   UNL A   1      44.743  26.842  37.095  1.00  0.00     0.059 A 
ATOM     67  C   UNL A   1      46.355  28.157  35.843  1.00  0.00     0.059 A 
ATOM     68  F   UNL A   1      45.608  29.857  34.413  1.00  0.00    -0.206 F 
ATOM     69  C   UNL A   1      46.064  27.150  36.762  1.00  0.00     0.060 A 
BRANCH  69  70
ATOM     70  S   UNL A   1      47.395  26.207  37.536  1.00  0.00     0.124 S 
ATOM     71  O   UNL A   1      47.957  27.194  38.452  1.00  0.00    -0.237 OA
ATOM     72  O   UNL A   1      46.675  25.101  38.159  1.00  0.00    -0.237 OA
ATOM     73  O   UNL A   1      48.250  25.838  36.411  1.00  0.00    -0.744 OA
ENDBRANCH  69  70
ENDBRANCH  48  62
BRANCH  49  74
ATOM     74  C   UNL A   1      36.535  33.324  30.900  1.00  0.00     0.058 A 
ATOM     75  C   UNL A   1      35.226  33.216  31.388  1.00  0.00     0.135 A 
ATOM     76  C   UNL A   1      36.747  34.118  29.761  1.00  0.00     0.135 A 
ATOM     77  F   UNL A   1      34.972  32.457  32.464  1.00  0.00    -0.206 F 
ATOM     78  C   UNL A   1      34.164  33.868  30.770  1.00  0.00     0.059 A 
ATOM     79  C   UNL A   1      35.706  34.803  29.144  1.00  0.00     0.059 A 
ATOM     80  F   UNL A   1      37.985  34.261  29.261  1.00  0.00    -0.206 F 
ATOM     81  C   UNL A   1      34.415  34.665  29.651  1.00  0.00     0.060 A 
BRANCH  81  82
ATOM     82  S   UNL A   1      33.042  35.562  28.895  1.00  0.00     0.124 S 
ATOM     83  O   UNL A   1      32.410  34.515  28.101  1.00  0.00    -0.237 OA
ATOM     84  O   UNL A   1      32.294  36.018  30.062  1.00  0.00    -0.237 OA
ATOM     85  O   UNL A   1      33.709  36.617  28.137  1.00  0.00    -0.744 OA
ENDBRANCH  81  82
ENDBRANCH  49  74
BRANCH  61  86
ATOM     86  C   UNL A   1      39.861  34.380  36.939  1.00  0.00     0.058 A 
ATOM     87  C   UNL A   1      40.533  35.611  36.874  1.00  0.00     0.135 A 
ATOM     88  C   UNL A   1      39.009  34.156  38.031  1.00  0.00     0.135 A 
ATOM     89  F   UNL A   1      41.367  35.873  35.856  1.00  0.00    -0.206 F 
ATOM     90  C   UNL A   1      40.383  36.574  37.868  1.00  0.00     0.059 A 
ATOM     91  C   UNL A   1      38.824  35.114  39.023  1.00  0.00     0.059 A 
ATOM     92  F   UNL A   1      38.336  32.999  38.138  1.00  0.00    -0.206 F 
ATOM     93  C   UNL A   1      39.526  36.316  38.940  1.00  0.00     0.060 A 
BRANCH  93  94
ATOM     94  S   UNL A   1      39.320  37.583  40.210  1.00  0.00     0.124 S 
ATOM     95  O   UNL A   1      38.924  36.783  41.363  1.00  0.00    -0.237 OA
ATOM     96  O   UNL A   1      40.650  38.179  40.278  1.00  0.00    -0.237 OA
ATOM     97  O   UNL A   1      38.280  38.448  39.659  1.00  0.00    -0.744 OA
ENDBRANCH  93  94
ENDBRANCH  61  86
ENDBRANCH  35  36
ENDBRANCH  28  30
ENDBRANCH  27  28
ENDBRANCH   1  27
TORSDOF 17
ENDMDL
MODEL 2
REMARK VINA RESULT:     -11.9      6.691     12.151
REMARK SMILES Cc1ncccc1NC(=O)Nc1ccc(C(=O)OCCOC(=O)c2ccc(-c3c4nc(c(-c5c(F)cc(S(=O)(=O)[O-])cc5F)c5ccc([nH]5)c(-c5c(F)cc(S(=O)(=O)[O-])cc5F)c5nc(c(-c6c(F)cc(S(=O)(=O)[O-])cc6F)c6ccc3[nH]6)C=C5)C=C4)cc2)c(O)c1
REMARK SMILES IDX 20 1 19 2 18 3 16 4 17 5 15 6 12 7 13 8 92 9 14 10 90 11
REMARK SMILES IDX 11 12 8 13 9 14 10 16 7 18 1 19 2 20 3 21 4 22 6 23 5 24
REMARK SMILES IDX 91 25 21 27 22 28 23 29 24 30 25 31 89 32 26 33 88 34 27 35
REMARK SMILES IDX 28 36 29 37 82 38 30 39 87 40 81 41 83 42 31 43 86 44 80 45
REMARK SMILES IDX 79 46 32 48 66 49 45 50 65 51 46 52 49 53 64 54 84 55 47 56
REMARK SMILES IDX 48 57 63 59 85 60 50 61 33 62 34 63 43 64 35 65 36 66 42 67
REMARK SMILES IDX 44 68 37 69 38 70 39 71 40 72 41 73 67 74 68 75 77 76 69 77
REMARK SMILES IDX 70 78 76 79 78 80 71 81 72 82 73 83 74 84 75 85 51 86 52 87
REMARK SMILES IDX 61 88 53 89 54 90 60 91 62 92 55 93 56 94 57 95 58 96 59 97
REMARK H PARENT 8 15 11 17 91 26 83 47 49 58
REMARK Flexibility Score: inf
ROOT
ATOM      1  C   UNL A   1      34.822  31.469  27.667  1.00  0.00     0.275 C 
ENDROOT
BRANCH   1   2
ATOM      2  C   UNL A   1      33.293  31.474  27.630  1.00  0.00     0.275 C 
BRANCH   2   3
ATOM      3  O   UNL A   1      32.767  30.274  27.023  1.00  0.00    -0.458 OA
BRANCH   3   4
ATOM      4  C   UNL A   1      31.848  30.471  26.033  1.00  0.00     0.342 C 
ATOM      5  O   UNL A   1      31.105  31.427  25.922  1.00  0.00    -0.246 OA
BRANCH   4   6
ATOM      6  C   UNL A   1      31.944  29.387  25.020  1.00  0.00     0.101 A 
ATOM      7  C   UNL A   1      31.964  27.571  22.889  1.00  0.00     0.046 A 
ATOM      8  C   UNL A   1      30.749  28.031  23.393  1.00  0.00     0.027 A 
ATOM      9  C   UNL A   1      33.159  27.909  23.533  1.00  0.00     0.073 A 
ATOM     10  C   UNL A   1      30.741  28.893  24.493  1.00  0.00     0.022 A 
ATOM     11  C   UNL A   1      33.153  28.870  24.545  1.00  0.00     0.132 A 
BRANCH   7  12
ATOM     12  N   UNL A   1      32.053  26.823  21.706  1.00  0.00    -0.308 N 
ATOM     13  N   UNL A   1      33.134  24.785  22.318  1.00  0.00    -0.306 N 
ATOM     14  C   UNL A   1      32.813  25.741  21.409  1.00  0.00     0.323 C 
ATOM     15  H   UNL A   1      33.951  24.286  22.085  1.00  0.00     0.171 HD
ATOM     16  O   UNL A   1      33.186  25.590  20.242  1.00  0.00    -0.248 OA
ATOM     17  H   UNL A   1      31.470  27.133  20.975  1.00  0.00     0.171 HD
BRANCH  13  18
ATOM     18  C   UNL A   1      32.543  24.351  23.534  1.00  0.00     0.064 A 
ATOM     19  C   UNL A   1      34.725  24.690  24.846  1.00  0.00     0.069 C 
ATOM     20  C   UNL A   1      33.260  24.375  24.745  1.00  0.00     0.061 A 
ATOM     21  N   UNL A   1      32.685  24.094  25.951  1.00  0.00    -0.259 NA
ATOM     22  C   UNL A   1      31.396  23.709  25.966  1.00  0.00     0.111 A 
ATOM     23  C   UNL A   1      31.253  23.821  23.600  1.00  0.00     0.030 A 
ATOM     24  C   UNL A   1      30.651  23.536  24.823  1.00  0.00     0.022 A 
ENDBRANCH  13  18
ENDBRANCH   7  12
BRANCH  11  25
ATOM     25  O   UNL A   1      34.383  29.283  24.980  1.00  0.00    -0.507 OA
ATOM     26  H   UNL A   1      34.450  30.002  25.579  1.00  0.00     0.293 HD
ENDBRANCH  11  25
ENDBRANCH   4   6
ENDBRANCH   3   4
ENDBRANCH   2   3
ENDBRANCH   1   2
BRANCH   1  27
ATOM     27  O   UNL A   1      35.304  30.322  28.389  1.00  0.00    -0.458 OA
BRANCH  27  28
ATOM     28  C   UNL A   1      36.144  30.586  29.417  1.00  0.00     0.338 C 
ATOM     29  O   UNL A   1      35.886  31.181  30.450  1.00  0.00    -0.246 OA
BRANCH  28  30
ATOM     30  C   UNL A   1      37.457  29.977  29.153  1.00  0.00     0.060 A 
ATOM     31  C   UNL A   1      38.284  29.698  30.238  1.00  0.00     0.016 A 
ATOM     32  C   UNL A   1      37.932  29.825  27.852  1.00  0.00     0.016 A 
ATOM     33  C   UNL A   1      39.605  29.308  30.035  1.00  0.00     0.010 A 
ATOM     34  C   UNL A   1      39.243  29.372  27.648  1.00  0.00     0.010 A 
ATOM     35  C   UNL A   1      40.102  29.128  28.736  1.00  0.00    -0.014 A 
BRANCH  35  36
ATOM     36  C   UNL A   1      41.515  28.706  28.524  1.00  0.00     0.031 A 
ATOM     37  C   UNL A   1      42.638  29.706  28.623  1.00  0.00     0.074 A 
ATOM     38  C   UNL A   1      41.800  27.418  28.245  1.00  0.00     0.049 A 
ATOM     39  N   UNL A   1      43.907  29.556  28.331  1.00  0.00    -0.248 NA
ATOM     40  C   UNL A   1      42.290  31.051  29.104  1.00  0.00     0.031 C 
ATOM     41  C   UNL A   1      40.820  26.333  28.158  1.00  0.00     0.029 A 
ATOM     42  N   UNL A   1      42.999  26.799  27.980  1.00  0.00    -0.354 N 
ATOM     43  C   UNL A   1      44.499  30.795  28.552  1.00  0.00     0.074 A 
ATOM     44  C   UNL A   1      43.449  31.688  28.996  1.00  0.00     0.031 C 
ATOM     45  C   UNL A   1      41.455  25.185  27.880  1.00  0.00     0.029 A 
ATOM     46  C   UNL A   1      42.877  25.459  27.693  1.00  0.00     0.049 A 
ATOM     47  H   UNL A   1      43.864  27.270  27.995  1.00  0.00     0.167 HD
ATOM     48  C   UNL A   1      45.798  31.152  28.401  1.00  0.00     0.037 A 
ATOM     49  C   UNL A   1      43.790  24.557  27.284  1.00  0.00     0.037 A 
ATOM     50  C   UNL A   1      46.850  30.251  27.999  1.00  0.00     0.049 A 
ATOM     51  C   UNL A   1      45.216  24.987  27.082  1.00  0.00     0.074 A 
ATOM     52  C   UNL A   1      48.201  30.520  27.844  1.00  0.00     0.029 A 
ATOM     53  N   UNL A   1      46.676  28.910  27.691  1.00  0.00    -0.354 N 
ATOM     54  N   UNL A   1      45.755  26.167  27.268  1.00  0.00    -0.248 NA
ATOM     55  C   UNL A   1      46.157  23.965  26.603  1.00  0.00     0.031 C 
ATOM     56  C   UNL A   1      48.835  29.353  27.404  1.00  0.00     0.029 A 
ATOM     57  C   UNL A   1      47.890  28.343  27.331  1.00  0.00     0.049 A 
ATOM     58  H   UNL A   1      45.817  28.431  27.724  1.00  0.00     0.167 HD
ATOM     59  C   UNL A   1      47.099  26.027  26.943  1.00  0.00     0.074 A 
ATOM     60  C   UNL A   1      47.296  24.643  26.565  1.00  0.00     0.031 C 
ATOM     61  C   UNL A   1      48.079  26.964  26.955  1.00  0.00     0.037 A 
BRANCH  48  62
ATOM     62  C   UNL A   1      46.162  32.594  28.642  1.00  0.00     0.058 A 
ATOM     63  C   UNL A   1      46.553  33.063  29.905  1.00  0.00     0.135 A 
ATOM     64  C   UNL A   1      46.168  33.508  27.575  1.00  0.00     0.135 A 
ATOM     65  F   UNL A   1      46.556  32.236  30.963  1.00  0.00    -0.206 F 
ATOM     66  C   UNL A   1      46.913  34.393  30.107  1.00  0.00     0.059 A 
ATOM     67  C   UNL A   1      46.548  34.835  27.748  1.00  0.00     0.059 A 
ATOM     68  F   UNL A   1      45.806  33.112  26.344  1.00  0.00    -0.206 F 
ATOM     69  C   UNL A   1      46.906  35.272  29.022  1.00  0.00     0.060 A 
BRANCH  69  70
ATOM     70  S   UNL A   1      47.383  36.993  29.298  1.00  0.00     0.124 S 
ATOM     71  O   UNL A   1      48.255  37.240  28.155  1.00  0.00    -0.237 OA
ATOM     72  O   UNL A   1      46.096  37.682  29.275  1.00  0.00    -0.237 OA
ATOM     73  O   UNL A   1      48.047  36.957  30.598  1.00  0.00    -0.744 OA
ENDBRANCH  69  70
ENDBRANCH  48  62
BRANCH  49  74
ATOM     74  C   UNL A   1      43.368  23.158  27.002  1.00  0.00     0.058 A 
ATOM     75  C   UNL A   1      43.290  22.675  25.689  1.00  0.00     0.135 A 
ATOM     76  C   UNL A   1      43.058  22.271  28.046  1.00  0.00     0.135 A 
ATOM     77  F   UNL A   1      43.562  23.488  24.658  1.00  0.00    -0.206 F 
ATOM     78  C   UNL A   1      42.916  21.362  25.418  1.00  0.00     0.059 A 
ATOM     79  C   UNL A   1      42.710  20.947  27.802  1.00  0.00     0.059 A 
ATOM     80  F   UNL A   1      43.128  22.682  29.322  1.00  0.00    -0.206 F 
ATOM     81  C   UNL A   1      42.634  20.504  26.482  1.00  0.00     0.060 A 
BRANCH  81  82
ATOM     82  S   UNL A   1      42.215  18.784  26.125  1.00  0.00     0.124 S 
ATOM     83  O   UNL A   1      40.813  18.898  25.740  1.00  0.00    -0.237 OA
ATOM     84  O   UNL A   1      43.148  18.457  25.052  1.00  0.00    -0.237 OA
ATOM     85  O   UNL A   1      42.470  18.107  27.394  1.00  0.00    -0.744 OA
ENDBRANCH  81  82
ENDBRANCH  49  74
BRANCH  61  86
ATOM     86  C   UNL A   1      49.466  26.517  26.580  1.00  0.00     0.058 A 
ATOM     87  C   UNL A   1      50.358  25.999  27.531  1.00  0.00     0.135 A 
ATOM     88  C   UNL A   1      49.894  26.575  25.244  1.00  0.00     0.135 A 
ATOM     89  F   UNL A   1      50.002  25.930  28.824  1.00  0.00    -0.206 F 
ATOM     90  C   UNL A   1      51.636  25.576  27.176  1.00  0.00     0.059 A 
ATOM     91  C   UNL A   1      51.158  26.134  24.862  1.00  0.00     0.059 A 
ATOM     92  F   UNL A   1      49.078  27.054  24.291  1.00  0.00    -0.206 F 
ATOM     93  C   UNL A   1      52.027  25.649  25.838  1.00  0.00     0.060 A 
BRANCH  93  94
ATOM     94  S   UNL A   1      53.678  25.072  25.385  1.00  0.00     0.124 S 
ATOM     95  O   UNL A   1      53.942  25.853  24.181  1.00  0.00    -0.237 OA
ATOM     96  O   UNL A   1      54.468  25.430  26.558  1.00  0.00    -0.237 OA
ATOM     97  O   UNL A   1      53.491  23.639  25.175  1.00  0.00    -0.744 OA
ENDBRANCH  93  94
ENDBRANCH  61  86
ENDBRANCH  35  36
ENDBRANCH  28  30
ENDBRANCH  27  28
ENDBRANCH   1  27
TORSDOF 17
ENDMDL
MODEL 3
REMARK VINA RESULT:     -11.9      5.176     10.602
REMARK SMILES Cc1ncccc1NC(=O)Nc1ccc(C(=O)OCCOC(=O)c2ccc(-c3c4nc(c(-c5c(F)cc(S(=O)(=O)[O-])cc5F)c5ccc([nH]5)c(-c5c(F)cc(S(=O)(=O)[O-])cc5F)c5nc(c(-c6c(F)cc(S(=O)(=O)[O-])cc6F)c6ccc3[nH]6)C=C5)C=C4)cc2)c(O)c1
REMARK SMILES IDX 20 1 19 2 18 3 16 4 17 5 15 6 12 7 13 8 92 9 14 10 90 11
REMARK SMILES IDX 11 12 8 13 9 14 10 16 7 18 1 19 2 20 3 21 4 22 6 23 5 24
REMARK SMILES IDX 91 25 21 27 22 28 23 29 24 30 25 31 89 32 26 33 88 34 27 35
REMARK SMILES IDX 28 36 29 37 82 38 30 39 87 40 81 41 83 42 31 43 86 44 80 45
REMARK SMILES IDX 79 46 32 48 66 49 45 50 65 51 46 52 49 53 64 54 84 55 47 56
REMARK SMILES IDX 48 57 63 59 85 60 50 61 33 62 34 63 43 64 35 65 36 66 42 67
REMARK SMILES IDX 44 68 37 69 38 70 39 71 40 72 41 73 67 74 68 75 77 76 69 77
REMARK SMILES IDX 70 78 76 79 78 80 71 81 72 82 73 83 74 84 75 85 51 86 52 87
REMARK SMILES IDX 61 88 53 89 54 90 60 91 62 92 55 93 56 94 57 95 58 96 59 97
REMARK H PARENT 8 15 11 17 91 26 83 47 49 58
REMARK Flexibility Score: inf
ROOT
ATOM      1  C   UNL A   1      33.475  28.873  26.045  1.00  0.00     0.275 C 
ENDROOT
BRANCH   1   2
ATOM      2  C   UNL A   1      31.947  28.911  26.106  1.00  0.00     0.275 C 
BRANCH   2   3
ATOM      3  O   UNL A   1      31.387  27.605  26.363  1.00  0.00    -0.458 OA
BRANCH   3   4
ATOM      4  C   UNL A   1      30.871  26.963  25.276  1.00  0.00     0.342 C 
ATOM      5  O   UNL A   1      30.249  27.477  24.366  1.00  0.00    -0.246 OA
BRANCH   4   6
ATOM      6  C   UNL A   1      31.264  25.530  25.291  1.00  0.00     0.101 A 
ATOM      7  C   UNL A   1      31.876  22.821  25.651  1.00  0.00     0.046 A 
ATOM      8  C   UNL A   1      32.471  23.778  26.470  1.00  0.00     0.027 A 
ATOM      9  C   UNL A   1      31.085  23.223  24.569  1.00  0.00     0.073 A 
ATOM     10  C   UNL A   1      32.207  25.133  26.251  1.00  0.00     0.022 A 
ATOM     11  C   UNL A   1      30.722  24.563  24.437  1.00  0.00     0.132 A 
BRANCH   7  12
ATOM     12  N   UNL A   1      31.982  21.445  25.902  1.00  0.00    -0.308 N 
ATOM     13  N   UNL A   1      33.752  20.674  24.497  1.00  0.00    -0.306 N 
ATOM     14  C   UNL A   1      32.603  20.471  25.193  1.00  0.00     0.323 C 
ATOM     15  H   UNL A   1      33.882  20.026  23.767  1.00  0.00     0.171 HD
ATOM     16  O   UNL A   1      32.130  19.331  25.226  1.00  0.00    -0.248 OA
ATOM     17  H   UNL A   1      31.534  21.138  26.724  1.00  0.00     0.171 HD
BRANCH  13  18
ATOM     18  C   UNL A   1      34.804  21.621  24.598  1.00  0.00     0.064 A 
ATOM     19  C   UNL A   1      33.915  22.989  22.615  1.00  0.00     0.069 C 
ATOM     20  C   UNL A   1      34.849  22.756  23.767  1.00  0.00     0.061 A 
ATOM     21  N   UNL A   1      35.768  23.753  23.926  1.00  0.00    -0.259 NA
ATOM     22  C   UNL A   1      36.712  23.603  24.873  1.00  0.00     0.111 A 
ATOM     23  C   UNL A   1      35.882  21.462  25.471  1.00  0.00     0.030 A 
ATOM     24  C   UNL A   1      36.824  22.472  25.648  1.00  0.00     0.022 A 
ENDBRANCH  13  18
ENDBRANCH   7  12
BRANCH  11  25
ATOM     25  O   UNL A   1      29.790  24.836  23.472  1.00  0.00    -0.507 OA
ATOM     26  H   UNL A   1      29.278  25.620  23.524  1.00  0.00     0.293 HD
ENDBRANCH  11  25
ENDBRANCH   4   6
ENDBRANCH   3   4
ENDBRANCH   2   3
ENDBRANCH   1   2
BRANCH   1  27
ATOM     27  O   UNL A   1      34.029  28.772  27.368  1.00  0.00    -0.458 OA
BRANCH  27  28
ATOM     28  C   UNL A   1      34.462  29.933  27.914  1.00  0.00     0.338 C 
ATOM     29  O   UNL A   1      33.800  30.927  28.163  1.00  0.00    -0.246 OA
BRANCH  28  30
ATOM     30  C   UNL A   1      35.890  29.821  28.248  1.00  0.00     0.060 A 
ATOM     31  C   UNL A   1      36.823  30.059  27.242  1.00  0.00     0.016 A 
ATOM     32  C   UNL A   1      36.303  29.340  29.488  1.00  0.00     0.016 A 
ATOM     33  C   UNL A   1      38.171  29.776  27.450  1.00  0.00     0.010 A 
ATOM     34  C   UNL A   1      37.668  29.116  29.718  1.00  0.00     0.010 A 
ATOM     35  C   UNL A   1      38.615  29.311  28.695  1.00  0.00    -0.014 A 
BRANCH  35  36
ATOM     36  C   UNL A   1      40.060  29.015  28.915  1.00  0.00     0.031 A 
ATOM     37  C   UNL A   1      40.987  30.074  29.454  1.00  0.00     0.074 A 
ATOM     38  C   UNL A   1      40.548  27.789  28.638  1.00  0.00     0.049 A 
ATOM     39  N   UNL A   1      42.291  30.047  29.575  1.00  0.00    -0.248 NA
ATOM     40  C   UNL A   1      40.369  31.329  29.907  1.00  0.00     0.031 C 
ATOM     41  C   UNL A   1      39.760  26.655  28.149  1.00  0.00     0.029 A 
ATOM     42  N   UNL A   1      41.826  27.289  28.723  1.00  0.00    -0.354 N 
ATOM     43  C   UNL A   1      42.654  31.292  30.078  1.00  0.00     0.074 A 
ATOM     44  C   UNL A   1      41.432  32.054  30.232  1.00  0.00     0.031 C 
ATOM     45  C   UNL A   1      40.564  25.592  27.997  1.00  0.00     0.029 A 
ATOM     46  C   UNL A   1      41.937  25.985  28.302  1.00  0.00     0.049 A 
ATOM     47  H   UNL A   1      42.589  27.815  29.054  1.00  0.00     0.167 HD
ATOM     48  C   UNL A   1      43.891  31.755  30.384  1.00  0.00     0.037 A 
ATOM     49  C   UNL A   1      43.020  25.200  28.135  1.00  0.00     0.037 A 
ATOM     50  C   UNL A   1      45.103  30.980  30.268  1.00  0.00     0.049 A 
ATOM     51  C   UNL A   1      44.385  25.748  28.440  1.00  0.00     0.074 A 
ATOM     52  C   UNL A   1      46.399  31.358  30.580  1.00  0.00     0.029 A 
ATOM     53  N   UNL A   1      45.172  29.672  29.810  1.00  0.00    -0.354 N 
ATOM     54  N   UNL A   1      44.715  26.936  28.887  1.00  0.00    -0.248 NA
ATOM     55  C   UNL A   1      45.528  24.855  28.206  1.00  0.00     0.031 C 
ATOM     56  C   UNL A   1      47.254  30.295  30.273  1.00  0.00     0.029 A 
ATOM     57  C   UNL A   1      46.489  29.236  29.816  1.00  0.00     0.049 A 
ATOM     58  H   UNL A   1      44.400  29.133  29.525  1.00  0.00     0.167 HD
ATOM     59  C   UNL A   1      46.100  26.928  29.002  1.00  0.00     0.074 A 
ATOM     60  C   UNL A   1      46.546  25.611  28.593  1.00  0.00     0.031 C 
ATOM     61  C   UNL A   1      46.926  27.923  29.407  1.00  0.00     0.037 A 
BRANCH  48  62
ATOM     62  C   UNL A   1      44.012  33.183  30.847  1.00  0.00     0.058 A 
ATOM     63  C   UNL A   1      44.238  34.240  29.952  1.00  0.00     0.135 A 
ATOM     64  C   UNL A   1      43.844  33.501  32.205  1.00  0.00     0.135 A 
ATOM     65  F   UNL A   1      44.415  33.993  28.644  1.00  0.00    -0.206 F 
ATOM     66  C   UNL A   1      44.319  35.558  30.391  1.00  0.00     0.059 A 
ATOM     67  C   UNL A   1      43.896  34.814  32.663  1.00  0.00     0.059 A 
ATOM     68  F   UNL A   1      43.621  32.529  33.105  1.00  0.00    -0.206 F 
ATOM     69  C   UNL A   1      44.149  35.836  31.749  1.00  0.00     0.060 A 
BRANCH  69  70
ATOM     70  S   UNL A   1      44.249  37.552  32.302  1.00  0.00     0.124 S 
ATOM     71  O   UNL A   1      45.664  37.668  32.639  1.00  0.00    -0.237 OA
ATOM     72  O   UNL A   1      43.816  38.289  31.119  1.00  0.00    -0.237 OA
ATOM     73  O   UNL A   1      43.329  37.598  33.436  1.00  0.00    -0.744 OA
ENDBRANCH  69  70
ENDBRANCH  48  62
BRANCH  49  74
ATOM     74  C   UNL A   1      42.853  23.814  27.617  1.00  0.00     0.058 A 
ATOM     75  C   UNL A   1      42.641  22.736  28.486  1.00  0.00     0.135 A 
ATOM     76  C   UNL A   1      42.879  23.549  26.238  1.00  0.00     0.135 A 
ATOM     77  F   UNL A   1      42.622  22.937  29.812  1.00  0.00    -0.206 F 
ATOM     78  C   UNL A   1      42.464  21.441  28.009  1.00  0.00     0.059 A 
ATOM     79  C   UNL A   1      42.676  22.268  25.736  1.00  0.00     0.059 A 
ATOM     80  F   UNL A   1      43.069  24.550  25.364  1.00  0.00    -0.206 F 
ATOM     81  C   UNL A   1      42.477  21.218  26.631  1.00  0.00     0.060 A 
BRANCH  81  82
ATOM     82  S   UNL A   1      42.179  19.546  26.017  1.00  0.00     0.124 S 
ATOM     83  O   UNL A   1      43.028  19.514  24.831  1.00  0.00    -0.237 OA
ATOM     84  O   UNL A   1      42.619  18.724  27.139  1.00  0.00    -0.237 OA
ATOM     85  O   UNL A   1      40.741  19.533  25.767  1.00  0.00    -0.744 OA
ENDBRANCH  81  82
ENDBRANCH  49  74
BRANCH  61  86
ATOM     86  C   UNL A   1      48.398  27.620  29.463  1.00  0.00     0.058 A 
ATOM     87  C   UNL A   1      48.983  27.001  30.579  1.00  0.00     0.135 A 
ATOM     88  C   UNL A   1      49.228  27.920  28.371  1.00  0.00     0.135 A 
ATOM     89  F   UNL A   1      48.237  26.701  31.653  1.00  0.00    -0.206 F 
ATOM     90  C   UNL A   1      50.344  26.712  30.620  1.00  0.00     0.059 A 
ATOM     91  C   UNL A   1      50.586  27.617  28.380  1.00  0.00     0.059 A 
ATOM     92  F   UNL A   1      48.719  28.505  27.274  1.00  0.00    -0.206 F 
ATOM     93  C   UNL A   1      51.138  27.024  29.514  1.00  0.00     0.060 A 
BRANCH  93  94
ATOM     94  S   UNL A   1      52.898  26.620  29.569  1.00  0.00     0.124 S 
ATOM     95  O   UNL A   1      52.977  25.814  30.783  1.00  0.00    -0.237 OA
ATOM     96  O   UNL A   1      53.094  25.901  28.316  1.00  0.00    -0.237 OA
ATOM     97  O   UNL A   1      53.544  27.928  29.642  1.00  0.00    -0.744 OA
ENDBRANCH  93  94
ENDBRANCH  61  86
ENDBRANCH  35  36
ENDBRANCH  28  30
ENDBRANCH  27  28
ENDBRANCH   1  27
TORSDOF 17
ENDMDL
