MODEL 1
REMARK VINA RESULT:     -12.8      0.000      0.000
REMARK SMILES Cc1ccc(-c2cc(C(=O)OCCOC(=O)c3ccc(-c4c5nc(c(-c6c(F)cc(S(=O)(=O)[O-])cc6F)c6ccc([nH]6)c(-c6c(F)cc(S(=O)(=O)[O-])cc6F)c6nc(c(-c7c(F)cc(S(=O)(=O)[O-])cc7F)c7ccc4[nH]7)C=C6)C=C5)cc3)c3cc(C)ccc3n2)c(C)c1
REMARK SMILES IDX 13 1 12 2 11 3 9 4 10 5 8 6 6 7 7 8 90 9 89 10 83 11 88 12
REMARK SMILES IDX 84 13 87 14 85 15 86 16 5 17 1 18 2 19 3 20 93 21 4 22 91 23
REMARK SMILES IDX 92 24 14 25 15 26 16 27 17 28 18 29 82 30 19 31 81 32 20 33
REMARK SMILES IDX 21 34 22 35 75 36 23 37 80 38 74 39 76 40 24 41 79 42 73 43
REMARK SMILES IDX 72 44 25 46 59 47 38 48 58 49 39 50 42 51 57 52 77 53 40 54
REMARK SMILES IDX 41 55 56 57 78 58 43 59 26 60 27 61 36 62 28 63 29 64 35 65
REMARK SMILES IDX 37 66 30 67 31 68 32 69 33 70 34 71 60 72 61 73 70 74 62 75
REMARK SMILES IDX 63 76 69 77 71 78 64 79 65 80 66 81 67 82 68 83 44 84 45 85
REMARK SMILES IDX 54 86 46 87 47 88 53 89 55 90 48 91 49 92 50 93 51 94 52 95
REMARK H PARENT 76 45 42 56
REMARK Flexibility Score: inf
ROOT
ATOM      1  C   UNL A   1      34.283  31.194  27.828  1.00  0.00     0.275 C 
ENDROOT
BRANCH   1   2
ATOM      2  C   UNL A   1      33.158  30.390  27.180  1.00  0.00     0.275 C 
BRANCH   2   3
ATOM      3  O   UNL A   1      33.467  28.981  27.181  1.00  0.00    -0.458 OA
BRANCH   3   4
ATOM      4  C   UNL A   1      32.415  28.124  27.194  1.00  0.00     0.339 C 
ATOM      5  O   UNL A   1      31.503  28.111  28.000  1.00  0.00    -0.246 OA
BRANCH   4   6
ATOM      6  C   UNL A   1      32.442  27.236  26.007  1.00  0.00     0.071 A 
ATOM      7  C   UNL A   1      33.345  25.243  25.026  1.00  0.00     0.072 A 
ATOM      8  C   UNL A   1      33.297  26.136  26.077  1.00  0.00     0.045 A 
ATOM      9  N   UNL A   1      32.654  25.452  23.885  1.00  0.00    -0.248 NA
ATOM     10  C   UNL A   1      31.891  26.556  23.779  1.00  0.00     0.072 A 
ATOM     11  C   UNL A   1      31.726  27.491  24.822  1.00  0.00     0.015 A 
ATOM     12  C   UNL A   1      31.255  26.798  22.570  1.00  0.00     0.029 A 
ATOM     13  C   UNL A   1      30.912  28.631  24.603  1.00  0.00     0.014 A 
ATOM     14  C   UNL A   1      30.459  27.929  22.358  1.00  0.00     0.005 A 
ATOM     15  C   UNL A   1      30.278  28.856  23.379  1.00  0.00    -0.050 A 
ATOM     16  C   UNL A   1      29.409  30.064  23.205  1.00  0.00     0.044 C 
BRANCH   7  17
ATOM     17  C   UNL A   1      34.200  24.049  25.108  1.00  0.00     0.003 A 
ATOM     18  C   UNL A   1      36.683  20.491  24.999  1.00  0.00     0.044 C 
ATOM     19  C   UNL A   1      35.839  21.733  25.038  1.00  0.00    -0.051 A 
ATOM     20  C   UNL A   1      36.271  22.918  24.442  1.00  0.00     0.004 A 
ATOM     21  C   UNL A   1      34.594  21.713  25.679  1.00  0.00     0.007 A 
ATOM     22  C   UNL A   1      35.463  24.060  24.481  1.00  0.00     0.011 A 
ATOM     23  C   UNL A   1      33.764  22.851  25.710  1.00  0.00    -0.041 A 
ATOM     24  C   UNL A   1      32.435  22.727  26.406  1.00  0.00     0.045 C 
ENDBRANCH   7  17
ENDBRANCH   4   6
ENDBRANCH   3   4
ENDBRANCH   2   3
ENDBRANCH   1   2
BRANCH   1  25
ATOM     25  O   UNL A   1      35.197  30.309  28.498  1.00  0.00    -0.458 OA
BRANCH  25  26
ATOM     26  C   UNL A   1      36.223  30.926  29.126  1.00  0.00     0.338 C 
ATOM     27  O   UNL A   1      36.169  31.897  29.862  1.00  0.00    -0.246 OA
BRANCH  26  28
ATOM     28  C   UNL A   1      37.461  30.173  28.903  1.00  0.00     0.060 A 
ATOM     29  C   UNL A   1      38.253  29.903  30.012  1.00  0.00     0.016 A 
ATOM     30  C   UNL A   1      37.929  29.900  27.624  1.00  0.00     0.016 A 
ATOM     31  C   UNL A   1      39.574  29.502  29.851  1.00  0.00     0.010 A 
ATOM     32  C   UNL A   1      39.213  29.362  27.470  1.00  0.00     0.010 A 
ATOM     33  C   UNL A   1      40.073  29.201  28.577  1.00  0.00    -0.014 A 
BRANCH  33  34
ATOM     34  C   UNL A   1      41.486  28.753  28.399  1.00  0.00     0.031 A 
ATOM     35  C   UNL A   1      42.614  29.750  28.515  1.00  0.00     0.074 A 
ATOM     36  C   UNL A   1      41.769  27.458  28.142  1.00  0.00     0.049 A 
ATOM     37  N   UNL A   1      43.872  29.620  28.177  1.00  0.00    -0.248 NA
ATOM     38  C   UNL A   1      42.281  31.073  29.068  1.00  0.00     0.031 C 
ATOM     39  C   UNL A   1      40.791  26.369  28.058  1.00  0.00     0.029 A 
ATOM     40  N   UNL A   1      42.969  26.830  27.903  1.00  0.00    -0.354 N 
ATOM     41  C   UNL A   1      44.466  30.854  28.426  1.00  0.00     0.074 A 
ATOM     42  C   UNL A   1      43.427  31.726  28.928  1.00  0.00     0.031 C 
ATOM     43  C   UNL A   1      41.428  25.213  27.826  1.00  0.00     0.029 A 
ATOM     44  C   UNL A   1      42.846  25.485  27.635  1.00  0.00     0.049 A 
ATOM     45  H   UNL A   1      43.836  27.298  27.923  1.00  0.00     0.167 HD
ATOM     46  C   UNL A   1      45.759  31.221  28.257  1.00  0.00     0.037 A 
ATOM     47  C   UNL A   1      43.753  24.579  27.221  1.00  0.00     0.037 A 
ATOM     48  C   UNL A   1      46.797  30.329  27.804  1.00  0.00     0.049 A 
ATOM     49  C   UNL A   1      45.168  25.029  26.980  1.00  0.00     0.074 A 
ATOM     50  C   UNL A   1      48.137  30.605  27.589  1.00  0.00     0.029 A 
ATOM     51  N   UNL A   1      46.618  28.983  27.522  1.00  0.00    -0.354 N 
ATOM     52  N   UNL A   1      45.698  26.216  27.154  1.00  0.00    -0.248 NA
ATOM     53  C   UNL A   1      46.107  24.020  26.468  1.00  0.00     0.031 C 
ATOM     54  C   UNL A   1      48.760  29.434  27.146  1.00  0.00     0.029 A 
ATOM     55  C   UNL A   1      47.820  28.417  27.133  1.00  0.00     0.049 A 
ATOM     56  H   UNL A   1      45.762  28.501  27.588  1.00  0.00     0.167 HD
ATOM     57  C   UNL A   1      47.036  26.088  26.801  1.00  0.00     0.074 A 
ATOM     58  C   UNL A   1      47.239  24.706  26.421  1.00  0.00     0.031 C 
ATOM     59  C   UNL A   1      48.010  27.031  26.786  1.00  0.00     0.037 A 
BRANCH  46  60
ATOM     60  C   UNL A   1      46.139  32.649  28.551  1.00  0.00     0.058 A 
ATOM     61  C   UNL A   1      46.050  33.654  27.575  1.00  0.00     0.135 A 
ATOM     62  C   UNL A   1      46.524  33.031  29.847  1.00  0.00     0.135 A 
ATOM     63  F   UNL A   1      45.706  33.343  26.315  1.00  0.00    -0.206 F 
ATOM     64  C   UNL A   1      46.339  34.983  27.871  1.00  0.00     0.059 A 
ATOM     65  C   UNL A   1      46.791  34.358  30.173  1.00  0.00     0.059 A 
ATOM     66  F   UNL A   1      46.627  32.110  30.820  1.00  0.00    -0.206 F 
ATOM     67  C   UNL A   1      46.701  35.327  29.174  1.00  0.00     0.060 A 
BRANCH  67  68
ATOM     68  S   UNL A   1      47.033  37.063  29.549  1.00  0.00     0.124 S 
ATOM     69  O   UNL A   1      46.521  37.169  30.912  1.00  0.00    -0.237 OA
ATOM     70  O   UNL A   1      48.483  37.138  29.409  1.00  0.00    -0.237 OA
ATOM     71  O   UNL A   1      46.268  37.783  28.535  1.00  0.00    -0.744 OA
ENDBRANCH  67  68
ENDBRANCH  46  60
BRANCH  47  72
ATOM     72  C   UNL A   1      43.349  23.173  26.944  1.00  0.00     0.058 A 
ATOM     73  C   UNL A   1      43.037  22.289  27.988  1.00  0.00     0.135 A 
ATOM     74  C   UNL A   1      43.302  22.671  25.633  1.00  0.00     0.135 A 
ATOM     75  F   UNL A   1      43.074  22.715  29.261  1.00  0.00    -0.206 F 
ATOM     76  C   UNL A   1      42.733  20.953  27.748  1.00  0.00     0.059 A 
ATOM     77  C   UNL A   1      42.964  21.348  25.365  1.00  0.00     0.059 A 
ATOM     78  F   UNL A   1      43.577  23.474  24.593  1.00  0.00    -0.206 F 
ATOM     79  C   UNL A   1      42.704  20.491  26.431  1.00  0.00     0.060 A 
BRANCH  79  80
ATOM     80  S   UNL A   1      42.317  18.754  26.126  1.00  0.00     0.124 S 
ATOM     81  O   UNL A   1      40.896  18.825  25.807  1.00  0.00    -0.237 OA
ATOM     82  O   UNL A   1      43.207  18.430  25.015  1.00  0.00    -0.237 OA
ATOM     83  O   UNL A   1      42.649  18.109  27.394  1.00  0.00    -0.744 OA
ENDBRANCH  79  80
ENDBRANCH  47  72
BRANCH  59  84
ATOM     84  C   UNL A   1      49.395  26.585  26.411  1.00  0.00     0.058 A 
ATOM     85  C   UNL A   1      50.255  25.978  27.337  1.00  0.00     0.135 A 
ATOM     86  C   UNL A   1      49.852  26.734  25.091  1.00  0.00     0.135 A 
ATOM     87  F   UNL A   1      49.870  25.820  28.615  1.00  0.00    -0.206 F 
ATOM     88  C   UNL A   1      51.532  25.558  26.976  1.00  0.00     0.059 A 
ATOM     89  C   UNL A   1      51.111  26.295  24.701  1.00  0.00     0.059 A 
ATOM     90  F   UNL A   1      49.064  27.301  24.163  1.00  0.00    -0.206 F 
ATOM     91  C   UNL A   1      51.949  25.720  25.654  1.00  0.00     0.060 A 
BRANCH  91  92
ATOM     92  S   UNL A   1      53.596  25.142  25.192  1.00  0.00     0.124 S 
ATOM     93  O   UNL A   1      53.689  25.596  23.808  1.00  0.00    -0.237 OA
ATOM     94  O   UNL A   1      54.451  25.839  26.147  1.00  0.00    -0.237 OA
ATOM     95  O   UNL A   1      53.512  23.695  25.375  1.00  0.00    -0.744 OA
ENDBRANCH  91  92
ENDBRANCH  59  84
ENDBRANCH  33  34
ENDBRANCH  26  28
ENDBRANCH  25  26
ENDBRANCH   1  25
TORSDOF 15
ENDMDL
MODEL 2
REMARK VINA RESULT:     -12.5      6.400     11.974
REMARK SMILES Cc1ccc(-c2cc(C(=O)OCCOC(=O)c3ccc(-c4c5nc(c(-c6c(F)cc(S(=O)(=O)[O-])cc6F)c6ccc([nH]6)c(-c6c(F)cc(S(=O)(=O)[O-])cc6F)c6nc(c(-c7c(F)cc(S(=O)(=O)[O-])cc7F)c7ccc4[nH]7)C=C6)C=C5)cc3)c3cc(C)ccc3n2)c(C)c1
REMARK SMILES IDX 13 1 12 2 11 3 9 4 10 5 8 6 6 7 7 8 90 9 89 10 83 11 88 12
REMARK SMILES IDX 84 13 87 14 85 15 86 16 5 17 1 18 2 19 3 20 93 21 4 22 91 23
REMARK SMILES IDX 92 24 14 25 15 26 16 27 17 28 18 29 82 30 19 31 81 32 20 33
REMARK SMILES IDX 21 34 22 35 75 36 23 37 80 38 74 39 76 40 24 41 79 42 73 43
REMARK SMILES IDX 72 44 25 46 59 47 38 48 58 49 39 50 42 51 57 52 77 53 40 54
REMARK SMILES IDX 41 55 56 57 78 58 43 59 26 60 27 61 36 62 28 63 29 64 35 65
REMARK SMILES IDX 37 66 30 67 31 68 32 69 33 70 34 71 60 72 61 73 70 74 62 75
REMARK SMILES IDX 63 76 69 77 71 78 64 79 65 80 66 81 67 82 68 83 44 84 45 85
REMARK SMILES IDX 54 86 46 87 47 88 53 89 55 90 48 91 49 92 50 93 51 94 52 95
REMARK H PARENT 76 45 42 56
REMARK Flexibility Score: inf
ROOT
ATOM      1  C   UNL A   1      39.411  22.061  26.018  1.00  0.00     0.275 C 
ENDROOT
BRANCH   1   2
ATOM      2  C   UNL A   1      37.935  21.927  25.651  1.00  0.00     0.275 C 
BRANCH   2   3
ATOM      3  O   UNL A   1      37.351  23.221  25.389  1.00  0.00    -0.458 OA
BRANCH   3   4
ATOM      4  C   UNL A   1      36.612  23.340  24.257  1.00  0.00     0.339 C 
ATOM      5  O   UNL A   1      37.002  23.169  23.117  1.00  0.00    -0.246 OA
BRANCH   4   6
ATOM      6  C   UNL A   1      35.189  23.607  24.581  1.00  0.00     0.071 A 
ATOM      7  C   UNL A   1      33.544  25.264  25.123  1.00  0.00     0.072 A 
ATOM      8  C   UNL A   1      34.857  24.934  24.853  1.00  0.00     0.045 A 
ATOM      9  N   UNL A   1      32.581  24.324  25.223  1.00  0.00    -0.248 NA
ATOM     10  C   UNL A   1      32.913  23.031  25.042  1.00  0.00     0.072 A 
ATOM     11  C   UNL A   1      34.212  22.602  24.698  1.00  0.00     0.015 A 
ATOM     12  C   UNL A   1      31.930  22.071  25.232  1.00  0.00     0.029 A 
ATOM     13  C   UNL A   1      34.461  21.215  24.547  1.00  0.00     0.014 A 
ATOM     14  C   UNL A   1      32.184  20.703  25.088  1.00  0.00     0.005 A 
ATOM     15  C   UNL A   1      33.457  20.263  24.740  1.00  0.00    -0.050 A 
ATOM     16  C   UNL A   1      33.765  18.810  24.546  1.00  0.00     0.044 C 
BRANCH   7  17
ATOM     17  C   UNL A   1      33.168  26.667  25.357  1.00  0.00     0.003 A 
ATOM     18  C   UNL A   1      31.745  30.686  26.168  1.00  0.00     0.044 C 
ATOM     19  C   UNL A   1      32.247  29.296  25.904  1.00  0.00    -0.051 A 
ATOM     20  C   UNL A   1      32.502  28.409  26.949  1.00  0.00     0.004 A 
ATOM     21  C   UNL A   1      32.467  28.870  24.588  1.00  0.00     0.007 A 
ATOM     22  C   UNL A   1      32.959  27.115  26.678  1.00  0.00     0.011 A 
ATOM     23  C   UNL A   1      32.911  27.565  24.300  1.00  0.00    -0.041 A 
ATOM     24  C   UNL A   1      33.099  27.193  22.854  1.00  0.00     0.045 C 
ENDBRANCH   7  17
ENDBRANCH   4   6
ENDBRANCH   3   4
ENDBRANCH   2   3
ENDBRANCH   1   2
BRANCH   1  25
ATOM     25  O   UNL A   1      39.574  23.052  27.048  1.00  0.00    -0.458 OA
BRANCH  25  26
ATOM     26  C   UNL A   1      40.682  23.816  26.927  1.00  0.00     0.338 C 
ATOM     27  O   UNL A   1      41.667  23.597  26.240  1.00  0.00    -0.246 OA
BRANCH  26  28
ATOM     28  C   UNL A   1      40.501  25.068  27.667  1.00  0.00     0.060 A 
ATOM     29  C   UNL A   1      41.608  25.897  27.803  1.00  0.00     0.016 A 
ATOM     30  C   UNL A   1      39.332  25.340  28.367  1.00  0.00     0.016 A 
ATOM     31  C   UNL A   1      41.612  26.913  28.752  1.00  0.00     0.010 A 
ATOM     32  C   UNL A   1      39.291  26.451  29.219  1.00  0.00     0.010 A 
ATOM     33  C   UNL A   1      40.446  27.224  29.462  1.00  0.00    -0.014 A 
BRANCH  33  34
ATOM     34  C   UNL A   1      40.439  28.327  30.469  1.00  0.00     0.031 A 
ATOM     35  C   UNL A   1      41.420  28.305  31.618  1.00  0.00     0.074 A 
ATOM     36  C   UNL A   1      39.569  29.353  30.360  1.00  0.00     0.049 A 
ATOM     37  N   UNL A   1      41.433  29.027  32.709  1.00  0.00    -0.248 NA
ATOM     38  C   UNL A   1      42.520  27.329  31.538  1.00  0.00     0.031 C 
ATOM     39  C   UNL A   1      38.601  29.541  29.275  1.00  0.00     0.029 A 
ATOM     40  N   UNL A   1      39.353  30.439  31.175  1.00  0.00    -0.354 N 
ATOM     41  C   UNL A   1      42.505  28.562  33.465  1.00  0.00     0.074 A 
ATOM     42  C   UNL A   1      43.109  27.482  32.716  1.00  0.00     0.031 C 
ATOM     43  C   UNL A   1      37.928  30.684  29.469  1.00  0.00     0.029 A 
ATOM     44  C   UNL A   1      38.332  31.257  30.746  1.00  0.00     0.049 A 
ATOM     45  H   UNL A   1      39.880  30.617  31.988  1.00  0.00     0.167 HD
ATOM     46  C   UNL A   1      42.947  29.000  34.668  1.00  0.00     0.037 A 
ATOM     47  C   UNL A   1      37.740  32.315  31.334  1.00  0.00     0.037 A 
ATOM     48  C   UNL A   1      42.369  30.111  35.382  1.00  0.00     0.049 A 
ATOM     49  C   UNL A   1      38.208  32.741  32.700  1.00  0.00     0.074 A 
ATOM     50  C   UNL A   1      42.735  30.629  36.613  1.00  0.00     0.029 A 
ATOM     51  N   UNL A   1      41.321  30.893  34.918  1.00  0.00    -0.354 N 
ATOM     52  N   UNL A   1      39.177  32.245  33.432  1.00  0.00    -0.248 NA
ATOM     53  C   UNL A   1      37.489  33.857  33.329  1.00  0.00     0.031 C 
ATOM     54  C   UNL A   1      41.887  31.701  36.909  1.00  0.00     0.029 A 
ATOM     55  C   UNL A   1      41.027  31.885  35.839  1.00  0.00     0.049 A 
ATOM     56  H   UNL A   1      40.854  30.762  34.061  1.00  0.00     0.167 HD
ATOM     57  C   UNL A   1      39.202  33.009  34.592  1.00  0.00     0.074 A 
ATOM     58  C   UNL A   1      38.165  34.010  34.458  1.00  0.00     0.031 C 
ATOM     59  C   UNL A   1      40.008  32.891  35.675  1.00  0.00     0.037 A 
BRANCH  46  60
ATOM     60  C   UNL A   1      44.106  28.282  35.307  1.00  0.00     0.058 A 
ATOM     61  C   UNL A   1      43.934  27.084  36.017  1.00  0.00     0.135 A 
ATOM     62  C   UNL A   1      45.418  28.758  35.141  1.00  0.00     0.135 A 
ATOM     63  F   UNL A   1      42.701  26.591  36.222  1.00  0.00    -0.206 F 
ATOM     64  C   UNL A   1      45.018  26.389  36.548  1.00  0.00     0.059 A 
ATOM     65  C   UNL A   1      46.519  28.067  35.639  1.00  0.00     0.059 A 
ATOM     66  F   UNL A   1      45.642  29.901  34.472  1.00  0.00    -0.206 F 
ATOM     67  C   UNL A   1      46.307  26.885  36.347  1.00  0.00     0.060 A 
BRANCH  67  68
ATOM     68  S   UNL A   1      47.704  25.949  37.009  1.00  0.00     0.124 S 
ATOM     69  O   UNL A   1      48.082  25.137  35.856  1.00  0.00    -0.237 OA
ATOM     70  O   UNL A   1      48.640  27.007  37.373  1.00  0.00    -0.237 OA
ATOM     71  O   UNL A   1      47.123  25.215  38.129  1.00  0.00    -0.744 OA
ENDBRANCH  67  68
ENDBRANCH  46  60
BRANCH  47  72
ATOM     72  C   UNL A   1      36.598  33.009  30.676  1.00  0.00     0.058 A 
ATOM     73  C   UNL A   1      36.815  33.982  29.689  1.00  0.00     0.135 A 
ATOM     74  C   UNL A   1      35.270  32.742  31.046  1.00  0.00     0.135 A 
ATOM     75  F   UNL A   1      38.065  34.282  29.305  1.00  0.00    -0.206 F 
ATOM     76  C   UNL A   1      35.762  34.693  29.121  1.00  0.00     0.059 A 
ATOM     77  C   UNL A   1      34.197  33.413  30.464  1.00  0.00     0.059 A 
ATOM     78  F   UNL A   1      35.001  31.812  31.974  1.00  0.00    -0.206 F 
ATOM     79  C   UNL A   1      34.456  34.404  29.520  1.00  0.00     0.060 A 
BRANCH  79  80
ATOM     80  S   UNL A   1      33.094  35.334  28.785  1.00  0.00     0.124 S 
ATOM     81  O   UNL A   1      32.471  34.321  27.943  1.00  0.00    -0.237 OA
ATOM     82  O   UNL A   1      32.333  35.747  29.961  1.00  0.00    -0.237 OA
ATOM     83  O   UNL A   1      33.773  36.416  28.077  1.00  0.00    -0.744 OA
ENDBRANCH  79  80
ENDBRANCH  47  72
BRANCH  59  84
ATOM     84  C   UNL A   1      39.844  33.907  36.770  1.00  0.00     0.058 A 
ATOM     85  C   UNL A   1      38.997  33.687  37.866  1.00  0.00     0.135 A 
ATOM     86  C   UNL A   1      40.578  35.105  36.738  1.00  0.00     0.135 A 
ATOM     87  F   UNL A   1      38.266  32.562  37.940  1.00  0.00    -0.206 F 
ATOM     88  C   UNL A   1      38.861  34.630  38.880  1.00  0.00     0.059 A 
ATOM     89  C   UNL A   1      40.481  36.047  37.755  1.00  0.00     0.059 A 
ATOM     90  F   UNL A   1      41.410  35.361  35.715  1.00  0.00    -0.206 F 
ATOM     91  C   UNL A   1      39.609  35.807  38.815  1.00  0.00     0.060 A 
BRANCH  91  92
ATOM     92  S   UNL A   1      39.447  37.008  40.153  1.00  0.00     0.124 S 
ATOM     93  O   UNL A   1      38.478  36.350  41.023  1.00  0.00    -0.237 OA
ATOM     94  O   UNL A   1      40.810  37.087  40.668  1.00  0.00    -0.237 OA
ATOM     95  O   UNL A   1      38.969  38.209  39.475  1.00  0.00    -0.744 OA
ENDBRANCH  91  92
ENDBRANCH  59  84
ENDBRANCH  33  34
ENDBRANCH  26  28
ENDBRANCH  25  26
ENDBRANCH   1  25
TORSDOF 15
ENDMDL
MODEL 3
REMARK VINA RESULT:     -12.4      1.206      3.485
REMARK SMILES Cc1ccc(-c2cc(C(=O)OCCOC(=O)c3ccc(-c4c5nc(c(-c6c(F)cc(S(=O)(=O)[O-])cc6F)c6ccc([nH]6)c(-c6c(F)cc(S(=O)(=O)[O-])cc6F)c6nc(c(-c7c(F)cc(S(=O)(=O)[O-])cc7F)c7ccc4[nH]7)C=C6)C=C5)cc3)c3cc(C)ccc3n2)c(C)c1
REMARK SMILES IDX 13 1 12 2 11 3 9 4 10 5 8 6 6 7 7 8 90 9 89 10 83 11 88 12
REMARK SMILES IDX 84 13 87 14 85 15 86 16 5 17 1 18 2 19 3 20 93 21 4 22 91 23
REMARK SMILES IDX 92 24 14 25 15 26 16 27 17 28 18 29 82 30 19 31 81 32 20 33
REMARK SMILES IDX 21 34 22 35 75 36 23 37 80 38 74 39 76 40 24 41 79 42 73 43
REMARK SMILES IDX 72 44 25 46 59 47 38 48 58 49 39 50 42 51 57 52 77 53 40 54
REMARK SMILES IDX 41 55 56 57 78 58 43 59 26 60 27 61 36 62 28 63 29 64 35 65
REMARK SMILES IDX 37 66 30 67 31 68 32 69 33 70 34 71 60 72 61 73 70 74 62 75
REMARK SMILES IDX 63 76 69 77 71 78 64 79 65 80 66 81 67 82 68 83 44 84 45 85
REMARK SMILES IDX 54 86 46 87 47 88 53 89 55 90 48 91 49 92 50 93 51 94 52 95
REMARK H PARENT 76 45 42 56
REMARK Flexibility Score: inf
ROOT
ATOM      1  C   UNL A   1      33.939  30.318  27.664  1.00  0.00     0.275 C 
ENDROOT
BRANCH   1   2
ATOM      2  C   UNL A   1      33.707  29.420  26.450  1.00  0.00     0.275 C 
BRANCH   2   3
ATOM      3  O   UNL A   1      33.323  28.091  26.859  1.00  0.00    -0.458 OA
BRANCH   3   4
ATOM      4  C   UNL A   1      31.996  27.858  27.015  1.00  0.00     0.339 C 
ATOM      5  O   UNL A   1      31.328  28.115  28.000  1.00  0.00    -0.246 OA
BRANCH   4   6
ATOM      6  C   UNL A   1      31.400  27.333  25.763  1.00  0.00     0.071 A 
ATOM      7  C   UNL A   1      30.217  27.856  23.745  1.00  0.00     0.072 A 
ATOM      8  C   UNL A   1      30.760  28.264  24.946  1.00  0.00     0.045 A 
ATOM      9  N   UNL A   1      30.204  26.557  23.376  1.00  0.00    -0.248 NA
ATOM     10  C   UNL A   1      30.748  25.642  24.201  1.00  0.00     0.072 A 
ATOM     11  C   UNL A   1      31.384  25.969  25.416  1.00  0.00     0.015 A 
ATOM     12  C   UNL A   1      30.651  24.304  23.846  1.00  0.00     0.029 A 
ATOM     13  C   UNL A   1      31.910  24.928  26.221  1.00  0.00     0.014 A 
ATOM     14  C   UNL A   1      31.166  23.280  24.649  1.00  0.00     0.005 A 
ATOM     15  C   UNL A   1      31.806  23.586  25.846  1.00  0.00    -0.050 A 
ATOM     16  C   UNL A   1      32.398  22.523  26.719  1.00  0.00     0.044 C 
BRANCH   7  17
ATOM     17  C   UNL A   1      29.588  28.836  22.846  1.00  0.00     0.003 A 
ATOM     18  C   UNL A   1      27.866  31.985  20.405  1.00  0.00     0.044 C 
ATOM     19  C   UNL A   1      28.476  30.894  21.237  1.00  0.00    -0.051 A 
ATOM     20  C   UNL A   1      29.859  30.720  21.299  1.00  0.00     0.004 A 
ATOM     21  C   UNL A   1      27.653  30.030  21.970  1.00  0.00     0.007 A 
ATOM     22  C   UNL A   1      30.405  29.703  22.090  1.00  0.00     0.011 A 
ATOM     23  C   UNL A   1      28.191  29.013  22.783  1.00  0.00    -0.041 A 
ATOM     24  C   UNL A   1      27.227  28.146  23.548  1.00  0.00     0.045 C 
ENDBRANCH   7  17
ENDBRANCH   4   6
ENDBRANCH   3   4
ENDBRANCH   2   3
ENDBRANCH   1   2
BRANCH   1  25
ATOM     25  O   UNL A   1      35.269  30.863  27.624  1.00  0.00    -0.458 OA
BRANCH  25  26
ATOM     26  C   UNL A   1      35.936  30.814  28.799  1.00  0.00     0.338 C 
ATOM     27  O   UNL A   1      35.555  31.208  29.889  1.00  0.00    -0.246 OA
BRANCH  26  28
ATOM     28  C   UNL A   1      37.192  30.080  28.622  1.00  0.00     0.060 A 
ATOM     29  C   UNL A   1      37.922  29.777  29.764  1.00  0.00     0.016 A 
ATOM     30  C   UNL A   1      37.736  29.857  27.363  1.00  0.00     0.016 A 
ATOM     31  C   UNL A   1      39.254  29.393  29.666  1.00  0.00     0.010 A 
ATOM     32  C   UNL A   1      39.033  29.335  27.265  1.00  0.00     0.010 A 
ATOM     33  C   UNL A   1      39.828  29.142  28.413  1.00  0.00    -0.014 A 
BRANCH  33  34
ATOM     34  C   UNL A   1      41.254  28.711  28.302  1.00  0.00     0.031 A 
ATOM     35  C   UNL A   1      42.363  29.723  28.466  1.00  0.00     0.074 A 
ATOM     36  C   UNL A   1      41.565  27.419  28.064  1.00  0.00     0.049 A 
ATOM     37  N   UNL A   1      43.636  29.609  28.187  1.00  0.00    -0.248 NA
ATOM     38  C   UNL A   1      41.988  31.044  28.999  1.00  0.00     0.031 C 
ATOM     39  C   UNL A   1      40.606  26.318  27.938  1.00  0.00     0.029 A 
ATOM     40  N   UNL A   1      42.783  26.807  27.882  1.00  0.00    -0.354 N 
ATOM     41  C   UNL A   1      44.202  30.851  28.458  1.00  0.00     0.074 A 
ATOM     42  C   UNL A   1      43.130  31.711  28.909  1.00  0.00     0.031 C 
ATOM     43  C   UNL A   1      41.268  25.169  27.741  1.00  0.00     0.029 A 
ATOM     44  C   UNL A   1      42.690  25.459  27.613  1.00  0.00     0.049 A 
ATOM     45  H   UNL A   1      43.642  27.286  27.940  1.00  0.00     0.167 HD
ATOM     46  C   UNL A   1      45.497  31.235  28.348  1.00  0.00     0.037 A 
ATOM     47  C   UNL A   1      43.626  24.564  27.245  1.00  0.00     0.037 A 
ATOM     48  C   UNL A   1      46.566  30.355  27.947  1.00  0.00     0.049 A 
ATOM     49  C   UNL A   1      45.045  25.031  27.068  1.00  0.00     0.074 A 
ATOM     50  C   UNL A   1      47.911  30.647  27.792  1.00  0.00     0.029 A 
ATOM     51  N   UNL A   1      46.417  29.006  27.661  1.00  0.00    -0.354 N 
ATOM     52  N   UNL A   1      45.551  26.226  27.261  1.00  0.00    -0.248 NA
ATOM     53  C   UNL A   1      46.019  24.034  26.603  1.00  0.00     0.031 C 
ATOM     54  C   UNL A   1      48.569  29.484  27.382  1.00  0.00     0.029 A 
ATOM     55  C   UNL A   1      47.644  28.454  27.330  1.00  0.00     0.049 A 
ATOM     56  H   UNL A   1      45.566  28.512  27.689  1.00  0.00     0.167 HD
ATOM     57  C   UNL A   1      46.906  26.114  26.970  1.00  0.00     0.074 A 
ATOM     58  C   UNL A   1      47.144  24.734  26.606  1.00  0.00     0.031 C 
ATOM     59  C   UNL A   1      47.867  27.070  26.997  1.00  0.00     0.037 A 
BRANCH  46  60
ATOM     60  C   UNL A   1      45.844  32.668  28.653  1.00  0.00     0.058 A 
ATOM     61  C   UNL A   1      45.908  33.644  27.647  1.00  0.00     0.135 A 
ATOM     62  C   UNL A   1      46.041  33.086  29.980  1.00  0.00     0.135 A 
ATOM     63  F   UNL A   1      45.747  33.299  26.359  1.00  0.00    -0.206 F 
ATOM     64  C   UNL A   1      46.164  34.981  27.945  1.00  0.00     0.059 A 
ATOM     65  C   UNL A   1      46.271  34.420  30.304  1.00  0.00     0.059 A 
ATOM     66  F   UNL A   1      45.992  32.194  30.984  1.00  0.00    -0.206 F 
ATOM     67  C   UNL A   1      46.337  35.360  29.276  1.00  0.00     0.060 A 
BRANCH  67  68
ATOM     68  S   UNL A   1      46.628  37.104  29.646  1.00  0.00     0.124 S 
ATOM     69  O   UNL A   1      46.852  37.651  28.312  1.00  0.00    -0.237 OA
ATOM     70  O   UNL A   1      45.378  37.497  30.291  1.00  0.00    -0.237 OA
ATOM     71  O   UNL A   1      47.799  37.078  30.517  1.00  0.00    -0.744 OA
ENDBRANCH  67  68
ENDBRANCH  46  60
BRANCH  47  72
ATOM     72  C   UNL A   1      43.254  23.151  26.955  1.00  0.00     0.058 A 
ATOM     73  C   UNL A   1      42.932  22.260  27.989  1.00  0.00     0.135 A 
ATOM     74  C   UNL A   1      43.248  22.653  25.642  1.00  0.00     0.135 A 
ATOM     75  F   UNL A   1      42.931  22.683  29.263  1.00  0.00    -0.206 F 
ATOM     76  C   UNL A   1      42.657  20.919  27.738  1.00  0.00     0.059 A 
ATOM     77  C   UNL A   1      42.939  21.325  25.362  1.00  0.00     0.059 A 
ATOM     78  F   UNL A   1      43.534  23.463  24.611  1.00  0.00    -0.206 F 
ATOM     79  C   UNL A   1      42.669  20.461  26.420  1.00  0.00     0.060 A 
BRANCH  79  80
ATOM     80  S   UNL A   1      42.319  18.718  26.102  1.00  0.00     0.124 S 
ATOM     81  O   UNL A   1      40.903  18.764  25.755  1.00  0.00    -0.237 OA
ATOM     82  O   UNL A   1      43.236  18.414  25.007  1.00  0.00    -0.237 OA
ATOM     83  O   UNL A   1      42.638  18.075  27.373  1.00  0.00    -0.744 OA
ENDBRANCH  79  80
ENDBRANCH  47  72
BRANCH  59  84
ATOM     84  C   UNL A   1      49.273  26.641  26.687  1.00  0.00     0.058 A 
ATOM     85  C   UNL A   1      50.123  26.116  27.672  1.00  0.00     0.135 A 
ATOM     86  C   UNL A   1      49.763  26.722  25.373  1.00  0.00     0.135 A 
ATOM     87  F   UNL A   1      49.706  26.026  28.946  1.00  0.00    -0.206 F 
ATOM     88  C   UNL A   1      51.419  25.711  27.372  1.00  0.00     0.059 A 
ATOM     89  C   UNL A   1      51.045  26.295  25.045  1.00  0.00     0.059 A 
ATOM     90  F   UNL A   1      48.987  27.209  24.391  1.00  0.00    -0.206 F 
ATOM     91  C   UNL A   1      51.870  25.803  26.054  1.00  0.00     0.060 A 
BRANCH  91  92
ATOM     92  S   UNL A   1      53.544  25.245  25.673  1.00  0.00     0.124 S 
ATOM     93  O   UNL A   1      53.882  26.089  24.531  1.00  0.00    -0.237 OA
ATOM     94  O   UNL A   1      54.259  25.535  26.911  1.00  0.00    -0.237 OA
ATOM     95  O   UNL A   1      53.369  23.826  25.376  1.00  0.00    -0.744 OA
ENDBRANCH  91  92
ENDBRANCH  59  84
ENDBRANCH  33  34
ENDBRANCH  26  28
ENDBRANCH  25  26
ENDBRANCH   1  25
TORSDOF 15
ENDMDL
