MODEL 1
REMARK VINA RESULT:     -11.6      0.000      0.000
REMARK SMILES CCc1ccc(C[NH+]2CCC(Oc3ccccc3OC)(C(=O)OCCOC(=O)c3ccc(-c4c5nc(c(-c6c(F)cc(S(=O)(=O)[O-])cc6F)c6ccc([nH]6)c(-c6c(F)cc(S(=O)(=O)[O-])cc6F)c6nc(c(-c7c(F)cc(S(=O)(=O)[O-])cc7F)c7ccc4[nH]7)C=C6)C=C5)cc3)CC2)nc1
REMARK SMILES IDX 24 1 23 2 21 3 22 4 11 5 8 6 9 7 96 8 10 10 95 11 7 12 6 13
REMARK SMILES IDX 3 14 4 15 98 16 5 17 97 18 2 19 1 20 12 21 13 22 14 23 18 24
REMARK SMILES IDX 15 25 17 26 16 27 19 28 20 29 25 30 26 31 27 32 28 33 29 34
REMARK SMILES IDX 30 35 94 36 31 37 93 38 32 39 33 40 34 41 87 42 35 43 92 44
REMARK SMILES IDX 86 45 88 46 36 47 91 48 85 49 84 50 37 52 71 53 50 54 70 55
REMARK SMILES IDX 51 56 54 57 69 58 89 59 52 60 53 61 68 63 90 64 55 65 38 66
REMARK SMILES IDX 39 67 48 68 40 69 41 70 47 71 49 72 42 73 43 74 44 75 45 76
REMARK SMILES IDX 46 77 72 78 73 79 82 80 74 81 75 82 81 83 83 84 76 85 77 86
REMARK SMILES IDX 78 87 79 88 80 89 56 90 57 91 66 92 58 93 59 94 65 95 67 96
REMARK SMILES IDX 60 97 61 98 62 99 63 100 64 101
REMARK H PARENT 8 9 88 51 54 62
REMARK Flexibility Score: inf
ROOT
ATOM      1  C   UNL A   1      37.517  23.967  26.211  1.00  0.00     0.274 C 
ENDROOT
BRANCH   1   2
ATOM      2  O   UNL A   1      36.466  23.588  25.296  1.00  0.00    -0.459 OA
BRANCH   2   3
ATOM      3  C   UNL A   1      35.222  23.498  25.846  1.00  0.00     0.351 C 
ATOM      4  O   UNL A   1      35.026  23.263  27.037  1.00  0.00    -0.247 OA
BRANCH   3   5
ATOM      5  C   UNL A   1      34.083  23.558  24.816  1.00  0.00     0.216 C 
ATOM      6  N   UNL A   1      32.169  25.782  25.145  1.00  0.00    -0.330 N 
ATOM      7  C   UNL A   1      33.503  26.040  24.606  1.00  0.00     0.267 C 
ATOM      8  C   UNL A   1      32.229  24.723  26.150  1.00  0.00     0.267 C 
ATOM      9  H   UNL A   1      31.589  25.460  24.371  1.00  0.00     0.348 HD
ATOM     10  C   UNL A   1      34.051  24.803  23.923  1.00  0.00     0.122 C 
ATOM     11  C   UNL A   1      32.718  23.406  25.523  1.00  0.00     0.122 C 
BRANCH   6  12
ATOM     12  C   UNL A   1      31.478  27.005  25.644  1.00  0.00     0.319 C 
BRANCH  12  13
ATOM     13  C   UNL A   1      30.724  27.857  24.629  1.00  0.00     0.095 A 
ATOM     14  C   UNL A   1      29.075  29.473  23.118  1.00  0.00    -0.030 A 
ATOM     15  C   UNL A   1      30.158  30.037  23.782  1.00  0.00     0.007 A 
ATOM     16  C   UNL A   1      28.969  28.088  23.149  1.00  0.00     0.115 A 
ATOM     17  C   UNL A   1      31.007  29.220  24.521  1.00  0.00     0.030 A 
ATOM     18  N   UNL A   1      29.739  27.274  23.909  1.00  0.00    -0.255 NA
BRANCH  14  19
ATOM     19  C   UNL A   1      28.006  30.324  22.491  1.00  0.00     0.034 C 
ATOM     20  C   UNL A   1      27.608  31.520  23.331  1.00  0.00     0.009 C 
ENDBRANCH  14  19
ENDBRANCH  12  13
ENDBRANCH   6  12
BRANCH   5  21
ATOM     21  O   UNL A   1      34.552  22.497  23.928  1.00  0.00    -0.471 OA
BRANCH  21  22
ATOM     22  C   UNL A   1      34.027  21.246  24.000  1.00  0.00     0.162 A 
ATOM     23  C   UNL A   1      32.768  20.987  23.446  1.00  0.00     0.050 A 
ATOM     24  C   UNL A   1      34.674  20.252  24.747  1.00  0.00     0.160 A 
ATOM     25  C   UNL A   1      32.196  19.718  23.545  1.00  0.00     0.004 A 
ATOM     26  C   UNL A   1      34.098  18.977  24.823  1.00  0.00     0.050 A 
ATOM     27  C   UNL A   1      32.868  18.708  24.223  1.00  0.00     0.004 A 
BRANCH  24  28
ATOM     28  O   UNL A   1      35.860  20.348  25.425  1.00  0.00    -0.493 OA
ATOM     29  C   UNL A   1      37.018  19.791  24.820  1.00  0.00     0.278 C 
ENDBRANCH  24  28
ENDBRANCH  21  22
ENDBRANCH   5  21
ENDBRANCH   3   5
ENDBRANCH   2   3
ENDBRANCH   1   2
BRANCH   1  30
ATOM     30  C   UNL A   1      38.755  23.089  26.073  1.00  0.00     0.275 C 
BRANCH  30  31
ATOM     31  O   UNL A   1      39.657  23.335  27.164  1.00  0.00    -0.458 OA
BRANCH  31  32
ATOM     32  C   UNL A   1      40.670  24.180  26.869  1.00  0.00     0.338 C 
ATOM     33  O   UNL A   1      41.567  23.968  26.071  1.00  0.00    -0.246 OA
BRANCH  32  34
ATOM     34  C   UNL A   1      40.577  25.437  27.639  1.00  0.00     0.060 A 
ATOM     35  C   UNL A   1      41.557  26.423  27.535  1.00  0.00     0.016 A 
ATOM     36  C   UNL A   1      39.595  25.532  28.627  1.00  0.00     0.016 A 
ATOM     37  C   UNL A   1      41.651  27.411  28.518  1.00  0.00     0.010 A 
ATOM     38  C   UNL A   1      39.646  26.563  29.568  1.00  0.00     0.010 A 
ATOM     39  C   UNL A   1      40.702  27.484  29.548  1.00  0.00    -0.014 A 
BRANCH  39  40
ATOM     40  C   UNL A   1      40.756  28.576  30.552  1.00  0.00     0.031 A 
ATOM     41  C   UNL A   1      41.734  28.547  31.696  1.00  0.00     0.074 A 
ATOM     42  C   UNL A   1      39.868  29.580  30.440  1.00  0.00     0.049 A 
ATOM     43  N   UNL A   1      41.787  29.321  32.751  1.00  0.00    -0.248 NA
ATOM     44  C   UNL A   1      42.788  27.523  31.654  1.00  0.00     0.031 C 
ATOM     45  C   UNL A   1      38.890  29.722  29.359  1.00  0.00     0.029 A 
ATOM     46  N   UNL A   1      39.630  30.660  31.249  1.00  0.00    -0.354 N 
ATOM     47  C   UNL A   1      42.857  28.861  33.513  1.00  0.00     0.074 A 
ATOM     48  C   UNL A   1      43.430  27.742  32.797  1.00  0.00     0.031 C 
ATOM     49  C   UNL A   1      38.159  30.824  29.570  1.00  0.00     0.029 A 
ATOM     50  C   UNL A   1      38.562  31.420  30.837  1.00  0.00     0.049 A 
ATOM     51  H   UNL A   1      40.169  30.870  32.046  1.00  0.00     0.167 HD
ATOM     52  C   UNL A   1      43.306  29.335  34.701  1.00  0.00     0.037 A 
ATOM     53  C   UNL A   1      37.934  32.446  31.436  1.00  0.00     0.037 A 
ATOM     54  C   UNL A   1      42.741  30.475  35.383  1.00  0.00     0.049 A 
ATOM     55  C   UNL A   1      38.415  32.914  32.773  1.00  0.00     0.074 A 
ATOM     56  C   UNL A   1      43.160  31.067  36.564  1.00  0.00     0.029 A 
ATOM     57  N   UNL A   1      41.638  31.194  34.948  1.00  0.00    -0.354 N 
ATOM     58  N   UNL A   1      39.410  32.455  33.492  1.00  0.00    -0.248 NA
ATOM     59  C   UNL A   1      37.679  34.024  33.388  1.00  0.00     0.031 C 
ATOM     60  C   UNL A   1      42.286  32.121  36.860  1.00  0.00     0.029 A 
ATOM     61  C   UNL A   1      41.345  32.207  35.848  1.00  0.00     0.049 A 
ATOM     62  H   UNL A   1      41.137  31.012  34.120  1.00  0.00     0.167 HD
ATOM     63  C   UNL A   1      39.424  33.222  34.648  1.00  0.00     0.074 A 
ATOM     64  C   UNL A   1      38.346  34.184  34.524  1.00  0.00     0.031 C 
ATOM     65  C   UNL A   1      40.255  33.138  35.716  1.00  0.00     0.037 A 
BRANCH  52  66
ATOM     66  C   UNL A   1      44.450  28.624  35.372  1.00  0.00     0.058 A 
ATOM     67  C   UNL A   1      45.785  28.998  35.156  1.00  0.00     0.135 A 
ATOM     68  C   UNL A   1      44.197  27.636  36.338  1.00  0.00     0.135 A 
ATOM     69  F   UNL A   1      46.084  29.933  34.241  1.00  0.00    -0.206 F 
ATOM     70  C   UNL A   1      46.829  28.420  35.876  1.00  0.00     0.059 A 
ATOM     71  C   UNL A   1      45.222  27.055  37.080  1.00  0.00     0.059 A 
ATOM     72  F   UNL A   1      42.937  27.243  36.588  1.00  0.00    -0.206 F 
ATOM     73  C   UNL A   1      46.537  27.453  36.841  1.00  0.00     0.060 A 
BRANCH  73  74
ATOM     74  S   UNL A   1      47.892  26.753  37.813  1.00  0.00     0.124 S 
ATOM     75  O   UNL A   1      47.577  27.245  39.150  1.00  0.00    -0.237 OA
ATOM     76  O   UNL A   1      47.719  25.319  37.610  1.00  0.00    -0.237 OA
ATOM     77  O   UNL A   1      49.083  27.329  37.196  1.00  0.00    -0.744 OA
ENDBRANCH  73  74
ENDBRANCH  52  66
BRANCH  53  78
ATOM     78  C   UNL A   1      36.748  33.044  30.777  1.00  0.00     0.058 A 
ATOM     79  C   UNL A   1      35.453  32.761  31.229  1.00  0.00     0.135 A 
ATOM     80  C   UNL A   1      36.897  33.981  29.742  1.00  0.00     0.135 A 
ATOM     81  F   UNL A   1      35.267  31.868  32.214  1.00  0.00    -0.206 F 
ATOM     82  C   UNL A   1      34.343  33.397  30.688  1.00  0.00     0.059 A 
ATOM     83  C   UNL A   1      35.805  34.647  29.202  1.00  0.00     0.059 A 
ATOM     84  F   UNL A   1      38.121  34.297  29.292  1.00  0.00    -0.206 F 
ATOM     85  C   UNL A   1      34.530  34.347  29.680  1.00  0.00     0.060 A 
BRANCH  85  86
ATOM     86  S   UNL A   1      33.100  35.254  29.052  1.00  0.00     0.124 S 
ATOM     87  O   UNL A   1      32.564  34.314  28.076  1.00  0.00    -0.237 OA
ATOM     88  O   UNL A   1      32.299  35.451  30.257  1.00  0.00    -0.237 OA
ATOM     89  O   UNL A   1      33.696  36.469  28.504  1.00  0.00    -0.744 OA
ENDBRANCH  85  86
ENDBRANCH  53  78
BRANCH  65  90
ATOM     90  C   UNL A   1      40.022  34.122  36.822  1.00  0.00     0.058 A 
ATOM     91  C   UNL A   1      39.240  33.789  37.939  1.00  0.00     0.135 A 
ATOM     92  C   UNL A   1      40.574  35.410  36.759  1.00  0.00     0.135 A 
ATOM     93  F   UNL A   1      38.683  32.572  38.036  1.00  0.00    -0.206 F 
ATOM     94  C   UNL A   1      38.986  34.716  38.944  1.00  0.00     0.059 A 
ATOM     95  C   UNL A   1      40.346  36.346  37.762  1.00  0.00     0.059 A 
ATOM     96  F   UNL A   1      41.332  35.771  35.711  1.00  0.00    -0.206 F 
ATOM     97  C   UNL A   1      39.536  35.995  38.842  1.00  0.00     0.060 A 
BRANCH  97  98
ATOM     98  S   UNL A   1      39.192  37.198  40.143  1.00  0.00     0.124 S 
ATOM     99  O   UNL A   1      38.460  38.223  39.406  1.00  0.00    -0.237 OA
ATOM    100  O   UNL A   1      38.408  36.420  41.097  1.00  0.00    -0.237 OA
ATOM    101  O   UNL A   1      40.523  37.585  40.603  1.00  0.00    -0.744 OA
ENDBRANCH  97  98
ENDBRANCH  65  90
ENDBRANCH  39  40
ENDBRANCH  32  34
ENDBRANCH  31  32
ENDBRANCH  30  31
ENDBRANCH   1  30
TORSDOF 20
ENDMDL
MODEL 2
REMARK VINA RESULT:     -11.4      1.434      4.734
REMARK SMILES CCc1ccc(C[NH+]2CCC(Oc3ccccc3OC)(C(=O)OCCOC(=O)c3ccc(-c4c5nc(c(-c6c(F)cc(S(=O)(=O)[O-])cc6F)c6ccc([nH]6)c(-c6c(F)cc(S(=O)(=O)[O-])cc6F)c6nc(c(-c7c(F)cc(S(=O)(=O)[O-])cc7F)c7ccc4[nH]7)C=C6)C=C5)cc3)CC2)nc1
REMARK SMILES IDX 24 1 23 2 21 3 22 4 11 5 8 6 9 7 96 8 10 10 95 11 7 12 6 13
REMARK SMILES IDX 3 14 4 15 98 16 5 17 97 18 2 19 1 20 12 21 13 22 14 23 18 24
REMARK SMILES IDX 15 25 17 26 16 27 19 28 20 29 25 30 26 31 27 32 28 33 29 34
REMARK SMILES IDX 30 35 94 36 31 37 93 38 32 39 33 40 34 41 87 42 35 43 92 44
REMARK SMILES IDX 86 45 88 46 36 47 91 48 85 49 84 50 37 52 71 53 50 54 70 55
REMARK SMILES IDX 51 56 54 57 69 58 89 59 52 60 53 61 68 63 90 64 55 65 38 66
REMARK SMILES IDX 39 67 48 68 40 69 41 70 47 71 49 72 42 73 43 74 44 75 45 76
REMARK SMILES IDX 46 77 72 78 73 79 82 80 74 81 75 82 81 83 83 84 76 85 77 86
REMARK SMILES IDX 78 87 79 88 80 89 56 90 57 91 66 92 58 93 59 94 65 95 67 96
REMARK SMILES IDX 60 97 61 98 62 99 63 100 64 101
REMARK H PARENT 8 9 88 51 54 62
REMARK Flexibility Score: inf
ROOT
ATOM      1  C   UNL A   1      37.062  22.286  25.792  1.00  0.00     0.274 C 
ENDROOT
BRANCH   1   2
ATOM      2  O   UNL A   1      36.277  23.485  25.611  1.00  0.00    -0.459 OA
BRANCH   2   3
ATOM      3  C   UNL A   1      35.031  23.451  26.165  1.00  0.00     0.351 C 
ATOM      4  O   UNL A   1      34.792  22.943  27.258  1.00  0.00    -0.247 OA
BRANCH   3   5
ATOM      5  C   UNL A   1      33.924  23.965  25.230  1.00  0.00     0.216 C 
ATOM      6  N   UNL A   1      32.376  21.891  23.810  1.00  0.00    -0.330 N 
ATOM      7  C   UNL A   1      32.142  22.132  25.233  1.00  0.00     0.267 C 
ATOM      8  C   UNL A   1      33.789  22.084  23.493  1.00  0.00     0.267 C 
ATOM      9  H   UNL A   1      31.832  22.583  23.295  1.00  0.00     0.348 HD
ATOM     10  C   UNL A   1      32.494  23.560  25.597  1.00  0.00     0.122 C 
ATOM     11  C   UNL A   1      34.216  23.534  23.775  1.00  0.00     0.122 C 
BRANCH   6  12
ATOM     12  C   UNL A   1      31.857  20.578  23.331  1.00  0.00     0.319 C 
BRANCH  12  13
ATOM     13  C   UNL A   1      32.509  19.315  23.882  1.00  0.00     0.095 A 
ATOM     14  C   UNL A   1      33.291  16.849  24.842  1.00  0.00    -0.030 A 
ATOM     15  C   UNL A   1      33.420  17.123  23.485  1.00  0.00     0.007 A 
ATOM     16  C   UNL A   1      32.896  17.898  25.663  1.00  0.00     0.115 A 
ATOM     17  C   UNL A   1      33.054  18.376  23.004  1.00  0.00     0.030 A 
ATOM     18  N   UNL A   1      32.472  19.105  25.218  1.00  0.00    -0.255 NA
BRANCH  14  19
ATOM     19  C   UNL A   1      33.461  15.457  25.383  1.00  0.00     0.034 C 
ATOM     20  C   UNL A   1      32.152  14.757  25.688  1.00  0.00     0.009 C 
ENDBRANCH  14  19
ENDBRANCH  12  13
ENDBRANCH   6  12
BRANCH   5  21
ATOM     21  O   UNL A   1      33.995  25.380  25.586  1.00  0.00    -0.471 OA
BRANCH  21  22
ATOM     22  C   UNL A   1      33.263  26.306  24.913  1.00  0.00     0.162 A 
ATOM     23  C   UNL A   1      33.640  26.686  23.620  1.00  0.00     0.050 A 
ATOM     24  C   UNL A   1      32.220  26.984  25.560  1.00  0.00     0.160 A 
ATOM     25  C   UNL A   1      32.923  27.664  22.930  1.00  0.00     0.004 A 
ATOM     26  C   UNL A   1      31.496  27.951  24.849  1.00  0.00     0.050 A 
ATOM     27  C   UNL A   1      31.840  28.288  23.541  1.00  0.00     0.004 A 
BRANCH  24  28
ATOM     28  O   UNL A   1      31.769  26.808  26.841  1.00  0.00    -0.493 OA
ATOM     29  C   UNL A   1      31.512  27.968  27.620  1.00  0.00     0.278 C 
ENDBRANCH  24  28
ENDBRANCH  21  22
ENDBRANCH   5  21
ENDBRANCH   3   5
ENDBRANCH   2   3
ENDBRANCH   1   2
BRANCH   1  30
ATOM     30  C   UNL A   1      38.542  22.584  25.998  1.00  0.00     0.275 C 
BRANCH  30  31
ATOM     31  O   UNL A   1      38.722  23.962  26.363  1.00  0.00    -0.458 OA
BRANCH  31  32
ATOM     32  C   UNL A   1      39.887  24.222  26.997  1.00  0.00     0.338 C 
ATOM     33  O   UNL A   1      40.890  23.530  26.958  1.00  0.00    -0.246 OA
BRANCH  32  34
ATOM     34  C   UNL A   1      39.822  25.479  27.770  1.00  0.00     0.060 A 
ATOM     35  C   UNL A   1      40.749  26.501  27.570  1.00  0.00     0.016 A 
ATOM     36  C   UNL A   1      38.938  25.542  28.850  1.00  0.00     0.016 A 
ATOM     37  C   UNL A   1      40.900  27.496  28.536  1.00  0.00     0.010 A 
ATOM     38  C   UNL A   1      39.042  26.579  29.779  1.00  0.00     0.010 A 
ATOM     39  C   UNL A   1      40.055  27.539  29.655  1.00  0.00    -0.014 A 
BRANCH  39  40
ATOM     40  C   UNL A   1      40.165  28.637  30.647  1.00  0.00     0.031 A 
ATOM     41  C   UNL A   1      41.130  28.565  31.799  1.00  0.00     0.074 A 
ATOM     42  C   UNL A   1      39.339  29.691  30.516  1.00  0.00     0.049 A 
ATOM     43  N   UNL A   1      41.220  29.346  32.846  1.00  0.00    -0.248 NA
ATOM     44  C   UNL A   1      42.122  27.479  31.778  1.00  0.00     0.031 C 
ATOM     45  C   UNL A   1      38.379  29.877  29.425  1.00  0.00     0.029 A 
ATOM     46  N   UNL A   1      39.158  30.792  31.311  1.00  0.00    -0.354 N 
ATOM     47  C   UNL A   1      42.255  28.833  33.623  1.00  0.00     0.074 A 
ATOM     48  C   UNL A   1      42.767  27.674  32.924  1.00  0.00     0.031 C 
ATOM     49  C   UNL A   1      37.712  31.023  29.617  1.00  0.00     0.029 A 
ATOM     50  C   UNL A   1      38.140  31.608  30.880  1.00  0.00     0.049 A 
ATOM     51  H   UNL A   1      39.702  30.980  32.109  1.00  0.00     0.167 HD
ATOM     52  C   UNL A   1      42.721  29.294  34.809  1.00  0.00     0.037 A 
ATOM     53  C   UNL A   1      37.569  32.677  31.462  1.00  0.00     0.037 A 
ATOM     54  C   UNL A   1      42.219  30.473  35.473  1.00  0.00     0.049 A 
ATOM     55  C   UNL A   1      38.066  33.131  32.798  1.00  0.00     0.074 A 
ATOM     56  C   UNL A   1      42.662  31.053  36.651  1.00  0.00     0.029 A 
ATOM     57  N   UNL A   1      41.165  31.250  35.021  1.00  0.00    -0.354 N 
ATOM     58  N   UNL A   1      39.026  32.623  33.531  1.00  0.00    -0.248 NA
ATOM     59  C   UNL A   1      37.392  34.290  33.394  1.00  0.00     0.031 C 
ATOM     60  C   UNL A   1      41.850  32.160  36.928  1.00  0.00     0.029 A 
ATOM     61  C   UNL A   1      40.924  32.289  35.907  1.00  0.00     0.049 A 
ATOM     62  H   UNL A   1      40.660  31.089  34.191  1.00  0.00     0.167 HD
ATOM     63  C   UNL A   1      39.076  33.401  34.678  1.00  0.00     0.074 A 
ATOM     64  C   UNL A   1      38.057  34.424  34.534  1.00  0.00     0.031 C 
ATOM     65  C   UNL A   1      39.892  33.282  35.754  1.00  0.00     0.037 A 
BRANCH  52  66
ATOM     66  C   UNL A   1      43.816  28.525  35.499  1.00  0.00     0.058 A 
ATOM     67  C   UNL A   1      43.541  27.484  36.396  1.00  0.00     0.135 A 
ATOM     68  C   UNL A   1      45.161  28.758  35.160  1.00  0.00     0.135 A 
ATOM     69  F   UNL A   1      42.275  27.221  36.759  1.00  0.00    -0.206 F 
ATOM     70  C   UNL A   1      44.558  26.696  36.932  1.00  0.00     0.059 A 
ATOM     71  C   UNL A   1      46.191  27.974  35.672  1.00  0.00     0.059 A 
ATOM     72  F   UNL A   1      45.480  29.740  34.303  1.00  0.00    -0.206 F 
ATOM     73  C   UNL A   1      45.881  26.945  36.559  1.00  0.00     0.060 A 
BRANCH  73  74
ATOM     74  S   UNL A   1      47.187  25.878  37.212  1.00  0.00     0.124 S 
ATOM     75  O   UNL A   1      47.084  24.718  36.332  1.00  0.00    -0.237 OA
ATOM     76  O   UNL A   1      48.381  26.699  37.039  1.00  0.00    -0.237 OA
ATOM     77  O   UNL A   1      46.782  25.654  38.596  1.00  0.00    -0.744 OA
ENDBRANCH  73  74
ENDBRANCH  52  66
BRANCH  53  78
ATOM     78  C   UNL A   1      36.425  33.336  30.787  1.00  0.00     0.058 A 
ATOM     79  C   UNL A   1      35.117  33.173  31.260  1.00  0.00     0.135 A 
ATOM     80  C   UNL A   1      36.635  34.214  29.711  1.00  0.00     0.135 A 
ATOM     81  F   UNL A   1      34.873  32.340  32.283  1.00  0.00    -0.206 F 
ATOM     82  C   UNL A   1      34.053  33.869  30.699  1.00  0.00     0.059 A 
ATOM     83  C   UNL A   1      35.592  34.938  29.150  1.00  0.00     0.059 A 
ATOM     84  F   UNL A   1      37.875  34.415  29.240  1.00  0.00    -0.206 F 
ATOM     85  C   UNL A   1      34.302  34.758  29.650  1.00  0.00     0.060 A 
BRANCH  85  86
ATOM     86  S   UNL A   1      32.940  35.745  28.993  1.00  0.00     0.124 S 
ATOM     87  O   UNL A   1      32.186  36.044  30.205  1.00  0.00    -0.237 OA
ATOM     88  O   UNL A   1      33.636  36.872  28.379  1.00  0.00    -0.237 OA
ATOM     89  O   UNL A   1      32.295  34.834  28.053  1.00  0.00    -0.744 OA
ENDBRANCH  85  86
ENDBRANCH  53  78
BRANCH  65  90
ATOM     90  C   UNL A   1      39.708  34.290  36.847  1.00  0.00     0.058 A 
ATOM     91  C   UNL A   1      40.346  35.539  36.800  1.00  0.00     0.135 A 
ATOM     92  C   UNL A   1      38.897  34.002  37.955  1.00  0.00     0.135 A 
ATOM     93  F   UNL A   1      41.140  35.854  35.765  1.00  0.00    -0.206 F 
ATOM     94  C   UNL A   1      40.212  36.458  37.835  1.00  0.00     0.059 A 
ATOM     95  C   UNL A   1      38.735  34.914  38.993  1.00  0.00     0.059 A 
ATOM     96  F   UNL A   1      38.263  32.821  38.041  1.00  0.00    -0.206 F 
ATOM     97  C   UNL A   1      39.411  36.132  38.932  1.00  0.00     0.060 A 
BRANCH  97  98
ATOM     98  S   UNL A   1      39.251  37.323  40.278  1.00  0.00     0.124 S 
ATOM     99  O   UNL A   1      40.605  37.862  40.354  1.00  0.00    -0.237 OA
ATOM    100  O   UNL A   1      38.232  38.239  39.774  1.00  0.00    -0.237 OA
ATOM    101  O   UNL A   1      38.837  36.498  41.409  1.00  0.00    -0.744 OA
ENDBRANCH  97  98
ENDBRANCH  65  90
ENDBRANCH  39  40
ENDBRANCH  32  34
ENDBRANCH  31  32
ENDBRANCH  30  31
ENDBRANCH   1  30
TORSDOF 20
ENDMDL
MODEL 3
REMARK VINA RESULT:     -11.0      6.602     12.135
REMARK SMILES CCc1ccc(C[NH+]2CCC(Oc3ccccc3OC)(C(=O)OCCOC(=O)c3ccc(-c4c5nc(c(-c6c(F)cc(S(=O)(=O)[O-])cc6F)c6ccc([nH]6)c(-c6c(F)cc(S(=O)(=O)[O-])cc6F)c6nc(c(-c7c(F)cc(S(=O)(=O)[O-])cc7F)c7ccc4[nH]7)C=C6)C=C5)cc3)CC2)nc1
REMARK SMILES IDX 24 1 23 2 21 3 22 4 11 5 8 6 9 7 96 8 10 10 95 11 7 12 6 13
REMARK SMILES IDX 3 14 4 15 98 16 5 17 97 18 2 19 1 20 12 21 13 22 14 23 18 24
REMARK SMILES IDX 15 25 17 26 16 27 19 28 20 29 25 30 26 31 27 32 28 33 29 34
REMARK SMILES IDX 30 35 94 36 31 37 93 38 32 39 33 40 34 41 87 42 35 43 92 44
REMARK SMILES IDX 86 45 88 46 36 47 91 48 85 49 84 50 37 52 71 53 50 54 70 55
REMARK SMILES IDX 51 56 54 57 69 58 89 59 52 60 53 61 68 63 90 64 55 65 38 66
REMARK SMILES IDX 39 67 48 68 40 69 41 70 47 71 49 72 42 73 43 74 44 75 45 76
REMARK SMILES IDX 46 77 72 78 73 79 82 80 74 81 75 82 81 83 83 84 76 85 77 86
REMARK SMILES IDX 78 87 79 88 80 89 56 90 57 91 66 92 58 93 59 94 65 95 67 96
REMARK SMILES IDX 60 97 61 98 62 99 63 100 64 101
REMARK H PARENT 8 9 88 51 54 62
REMARK Flexibility Score: inf
ROOT
ATOM      1  C   UNL A   1      33.789  29.268  26.211  1.00  0.00     0.274 C 
ENDROOT
BRANCH   1   2
ATOM      2  O   UNL A   1      32.586  29.568  25.472  1.00  0.00    -0.459 OA
BRANCH   2   3
ATOM      3  C   UNL A   1      31.702  28.534  25.357  1.00  0.00     0.351 C 
ATOM      4  O   UNL A   1      31.619  27.625  26.180  1.00  0.00    -0.247 OA
BRANCH   3   5
ATOM      5  C   UNL A   1      30.930  28.524  24.029  1.00  0.00     0.216 C 
ATOM      6  N   UNL A   1      31.915  26.636  21.984  1.00  0.00    -0.330 N 
ATOM      7  C   UNL A   1      31.166  26.139  23.136  1.00  0.00     0.267 C 
ATOM      8  C   UNL A   1      32.741  27.777  22.375  1.00  0.00     0.267 C 
ATOM      9  H   UNL A   1      31.232  26.952  21.295  1.00  0.00     0.348 HD
ATOM     10  C   UNL A   1      30.233  27.209  23.668  1.00  0.00     0.122 C 
ATOM     11  C   UNL A   1      31.862  28.939  22.869  1.00  0.00     0.122 C 
BRANCH   6  12
ATOM     12  C   UNL A   1      32.696  25.582  21.276  1.00  0.00     0.319 C 
BRANCH  12  13
ATOM     13  C   UNL A   1      33.266  24.442  22.113  1.00  0.00     0.095 A 
ATOM     14  C   UNL A   1      34.065  22.551  23.957  1.00  0.00    -0.030 A 
ATOM     15  C   UNL A   1      32.959  22.295  23.155  1.00  0.00     0.007 A 
ATOM     16  C   UNL A   1      34.790  23.704  23.681  1.00  0.00     0.115 A 
ATOM     17  C   UNL A   1      32.572  23.234  22.205  1.00  0.00     0.030 A 
ATOM     18  N   UNL A   1      34.403  24.666  22.810  1.00  0.00    -0.255 NA
BRANCH  14  19
ATOM     19  C   UNL A   1      34.397  21.683  25.138  1.00  0.00     0.034 C 
ATOM     20  C   UNL A   1      35.667  20.875  24.963  1.00  0.00     0.009 C 
ENDBRANCH  14  19
ENDBRANCH  12  13
ENDBRANCH   6  12
BRANCH   5  21
ATOM     21  O   UNL A   1      29.836  29.409  24.421  1.00  0.00    -0.471 OA
BRANCH  21  22
ATOM     22  C   UNL A   1      29.275  30.263  23.525  1.00  0.00     0.162 A 
ATOM     23  C   UNL A   1      29.633  31.617  23.536  1.00  0.00     0.050 A 
ATOM     24  C   UNL A   1      28.238  29.827  22.689  1.00  0.00     0.160 A 
ATOM     25  C   UNL A   1      29.038  32.515  22.649  1.00  0.00     0.004 A 
ATOM     26  C   UNL A   1      27.662  30.735  21.791  1.00  0.00     0.050 A 
ATOM     27  C   UNL A   1      28.061  32.071  21.766  1.00  0.00     0.004 A 
BRANCH  24  28
ATOM     28  O   UNL A   1      27.701  28.570  22.602  1.00  0.00    -0.493 OA
ATOM     29  C   UNL A   1      26.653  28.232  23.500  1.00  0.00     0.278 C 
ENDBRANCH  24  28
ENDBRANCH  21  22
ENDBRANCH   5  21
ENDBRANCH   3   5
ENDBRANCH   2   3
ENDBRANCH   1   2
BRANCH   1  30
ATOM     30  C   UNL A   1      34.046  30.265  27.335  1.00  0.00     0.275 C 
BRANCH  30  31
ATOM     31  O   UNL A   1      35.448  30.567  27.415  1.00  0.00    -0.458 OA
BRANCH  31  32
ATOM     32  C   UNL A   1      36.038  30.169  28.564  1.00  0.00     0.338 C 
ATOM     33  O   UNL A   1      35.466  29.921  29.612  1.00  0.00    -0.246 OA
BRANCH  32  34
ATOM     34  C   UNL A   1      37.504  30.058  28.418  1.00  0.00     0.060 A 
ATOM     35  C   UNL A   1      38.090  29.783  27.183  1.00  0.00     0.016 A 
ATOM     36  C   UNL A   1      38.281  30.031  29.579  1.00  0.00     0.016 A 
ATOM     37  C   UNL A   1      39.406  29.324  27.129  1.00  0.00     0.010 A 
ATOM     38  C   UNL A   1      39.620  29.642  29.515  1.00  0.00     0.010 A 
ATOM     39  C   UNL A   1      40.181  29.239  28.296  1.00  0.00    -0.014 A 
BRANCH  39  40
ATOM     40  C   UNL A   1      41.603  28.821  28.233  1.00  0.00     0.031 A 
ATOM     41  C   UNL A   1      42.724  29.822  28.324  1.00  0.00     0.074 A 
ATOM     42  C   UNL A   1      41.870  27.516  28.044  1.00  0.00     0.049 A 
ATOM     43  N   UNL A   1      44.002  29.645  28.105  1.00  0.00    -0.248 NA
ATOM     44  C   UNL A   1      42.369  31.196  28.711  1.00  0.00     0.031 C 
ATOM     45  C   UNL A   1      40.863  26.455  27.965  1.00  0.00     0.029 A 
ATOM     46  N   UNL A   1      43.060  26.861  27.866  1.00  0.00    -0.354 N 
ATOM     47  C   UNL A   1      44.601  30.887  28.295  1.00  0.00     0.074 A 
ATOM     48  C   UNL A   1      43.546  31.810  28.655  1.00  0.00     0.031 C 
ATOM     49  C   UNL A   1      41.475  25.282  27.756  1.00  0.00     0.029 A 
ATOM     50  C   UNL A   1      42.905  25.520  27.608  1.00  0.00     0.049 A 
ATOM     51  H   UNL A   1      43.936  27.305  27.918  1.00  0.00     0.167 HD
ATOM     52  C   UNL A   1      45.911  31.214  28.174  1.00  0.00     0.037 A 
ATOM     53  C   UNL A   1      43.802  24.591  27.235  1.00  0.00     0.037 A 
ATOM     54  C   UNL A   1      46.954  30.271  27.849  1.00  0.00     0.049 A 
ATOM     55  C   UNL A   1      45.232  24.991  27.055  1.00  0.00     0.074 A 
ATOM     56  C   UNL A   1      48.319  30.493  27.758  1.00  0.00     0.029 A 
ATOM     57  N   UNL A   1      46.751  28.930  27.561  1.00  0.00    -0.354 N 
ATOM     58  N   UNL A   1      45.780  26.171  27.214  1.00  0.00    -0.248 NA
ATOM     59  C   UNL A   1      46.163  23.940  26.627  1.00  0.00     0.031 C 
ATOM     60  C   UNL A   1      48.935  29.293  27.378  1.00  0.00     0.029 A 
ATOM     61  C   UNL A   1      47.959  28.318  27.266  1.00  0.00     0.049 A 
ATOM     62  H   UNL A   1      45.876  28.479  27.566  1.00  0.00     0.167 HD
ATOM     63  C   UNL A   1      47.123  26.007  26.908  1.00  0.00     0.074 A 
ATOM     64  C   UNL A   1      47.307  24.609  26.568  1.00  0.00     0.031 C 
ATOM     65  C   UNL A   1      48.115  26.931  26.910  1.00  0.00     0.037 A 
BRANCH  52  66
ATOM     66  C   UNL A   1      46.315  32.651  28.369  1.00  0.00     0.058 A 
ATOM     67  C   UNL A   1      46.227  33.593  27.333  1.00  0.00     0.135 A 
ATOM     68  C   UNL A   1      46.679  33.114  29.645  1.00  0.00     0.135 A 
ATOM     69  F   UNL A   1      45.889  33.205  26.094  1.00  0.00    -0.206 F 
ATOM     70  C   UNL A   1      46.482  34.945  27.556  1.00  0.00     0.059 A 
ATOM     71  C   UNL A   1      46.923  34.462  29.893  1.00  0.00     0.059 A 
ATOM     72  F   UNL A   1      46.775  32.255  30.672  1.00  0.00    -0.206 F 
ATOM     73  C   UNL A   1      46.824  35.372  28.842  1.00  0.00     0.060 A 
BRANCH  73  74
ATOM     74  S   UNL A   1      47.092  37.136  29.133  1.00  0.00     0.124 S 
ATOM     75  O   UNL A   1      47.750  37.540  27.895  1.00  0.00    -0.237 OA
ATOM     76  O   UNL A   1      45.734  37.636  29.319  1.00  0.00    -0.237 OA
ATOM     77  O   UNL A   1      47.932  37.159  30.327  1.00  0.00    -0.744 OA
ENDBRANCH  73  74
ENDBRANCH  52  66
BRANCH  53  78
ATOM     78  C   UNL A   1      43.333  23.212  26.957  1.00  0.00     0.058 A 
ATOM     79  C   UNL A   1      43.258  22.726  25.646  1.00  0.00     0.135 A 
ATOM     80  C   UNL A   1      43.041  22.328  28.008  1.00  0.00     0.135 A 
ATOM     81  F   UNL A   1      43.526  23.540  24.613  1.00  0.00    -0.206 F 
ATOM     82  C   UNL A   1      42.922  21.404  25.383  1.00  0.00     0.059 A 
ATOM     83  C   UNL A   1      42.725  20.997  27.772  1.00  0.00     0.059 A 
ATOM     84  F   UNL A   1      43.120  22.746  29.281  1.00  0.00    -0.206 F 
ATOM     85  C   UNL A   1      42.667  20.543  26.454  1.00  0.00     0.060 A 
BRANCH  85  86
ATOM     86  S   UNL A   1      42.338  18.799  26.120  1.00  0.00     0.124 S 
ATOM     87  O   UNL A   1      42.656  18.191  27.406  1.00  0.00    -0.237 OA
ATOM     88  O   UNL A   1      40.926  18.810  25.749  1.00  0.00    -0.237 OA
ATOM     89  O   UNL A   1      43.258  18.493  25.029  1.00  0.00    -0.744 OA
ENDBRANCH  85  86
ENDBRANCH  53  78
BRANCH  65  90
ATOM     90  C   UNL A   1      49.482  26.443  26.536  1.00  0.00     0.058 A 
ATOM     91  C   UNL A   1      49.920  26.457  25.203  1.00  0.00     0.135 A 
ATOM     92  C   UNL A   1      50.355  25.947  27.515  1.00  0.00     0.135 A 
ATOM     93  F   UNL A   1      49.115  26.913  24.231  1.00  0.00    -0.206 F 
ATOM     94  C   UNL A   1      51.171  25.962  24.849  1.00  0.00     0.059 A 
ATOM     95  C   UNL A   1      51.617  25.464  27.185  1.00  0.00     0.059 A 
ATOM     96  F   UNL A   1      49.980  25.918  28.804  1.00  0.00    -0.206 F 
ATOM     97  C   UNL A   1      52.008  25.460  25.847  1.00  0.00     0.060 A 
BRANCH  97  98
ATOM     98  S   UNL A   1      53.625  24.807  25.380  1.00  0.00     0.124 S 
ATOM     99  O   UNL A   1      54.387  25.009  26.608  1.00  0.00    -0.237 OA
ATOM    100  O   UNL A   1      53.323  23.420  25.042  1.00  0.00    -0.237 OA
ATOM    101  O   UNL A   1      54.015  25.649  24.253  1.00  0.00    -0.744 OA
ENDBRANCH  97  98
ENDBRANCH  65  90
ENDBRANCH  39  40
ENDBRANCH  32  34
ENDBRANCH  31  32
ENDBRANCH  30  31
ENDBRANCH   1  30
TORSDOF 20
ENDMDL
