MODEL 1
REMARK VINA RESULT:     -11.6      0.000      0.000
REMARK SMILES O=C(OCCOC(=O)[C@H]1[NH2+]CC[C@H]1c1cccc(Oc2ccccc2)c1)c1ccc(-c2c3nc(c(-c4c(F)cc(S(=O)(=O)[O-])cc4F)c4ccc([nH]4)c(-c4c(F)cc(S(=O)(=O)[O-])cc4F)c4nc(c(-c5c(F)cc(S(=O)(=O)[O-])cc5F)c5ccc2[nH]5)C=C4)C=C3)cc1
REMARK SMILES IDX 4 1 3 2 2 3 1 4 27 5 28 6 92 7 29 8 91 9 30 10 31 11 32 12
REMARK SMILES IDX 85 13 33 14 90 15 84 16 86 17 34 18 89 19 83 20 82 21 35 23
REMARK SMILES IDX 69 24 48 25 68 26 49 27 52 28 67 29 87 30 50 31 51 32 66 34
REMARK SMILES IDX 88 35 53 36 36 37 37 38 46 39 38 40 39 41 45 42 47 43 40 44
REMARK SMILES IDX 41 45 42 46 43 47 44 48 70 49 71 50 80 51 72 52 73 53 79 54
REMARK SMILES IDX 81 55 74 56 75 57 76 58 77 59 78 60 54 61 55 62 64 63 56 64
REMARK SMILES IDX 57 65 63 66 65 67 58 68 59 69 60 70 61 71 62 72 5 73 6 74
REMARK SMILES IDX 7 75 8 76 9 77 10 78 13 79 11 80 12 83 14 84 15 85 26 86
REMARK SMILES IDX 16 87 18 88 17 89 19 90 20 91 21 92 25 93 22 94 24 95 23 96
REMARK H PARENT 86 22 52 33 10 81 10 82
REMARK Flexibility Score: inf
ROOT
ATOM      1  C   UNL A   1      32.208  29.371  27.239  1.00  0.00     0.275 C 
ENDROOT
BRANCH   1   2
ATOM      2  O   UNL A   1      33.644  29.456  27.215  1.00  0.00    -0.458 OA
BRANCH   2   3
ATOM      3  C   UNL A   1      34.507  30.242  27.906  1.00  0.00     0.338 C 
ATOM      4  O   UNL A   1      34.087  31.339  28.283  1.00  0.00    -0.246 OA
BRANCH   3   5
ATOM      5  C   UNL A   1      35.938  29.900  28.241  1.00  0.00     0.060 A 
ATOM      6  C   UNL A   1      36.417  29.435  29.463  1.00  0.00     0.016 A 
ATOM      7  C   UNL A   1      36.895  30.065  27.211  1.00  0.00     0.016 A 
ATOM      8  C   UNL A   1      37.770  29.082  29.624  1.00  0.00     0.010 A 
ATOM      9  C   UNL A   1      38.249  29.694  27.365  1.00  0.00     0.010 A 
ATOM     10  C   UNL A   1      38.701  29.164  28.574  1.00  0.00    -0.014 A 
BRANCH  10  11
ATOM     11  C   UNL A   1      40.145  28.917  28.895  1.00  0.00     0.031 A 
ATOM     12  C   UNL A   1      40.708  27.623  28.441  1.00  0.00     0.074 A 
ATOM     13  C   UNL A   1      40.981  29.825  29.448  1.00  0.00     0.049 A 
ATOM     14  N   UNL A   1      41.953  27.248  28.422  1.00  0.00    -0.248 NA
ATOM     15  C   UNL A   1      39.742  26.602  28.009  1.00  0.00     0.031 C 
ATOM     16  C   UNL A   1      40.535  31.015  30.124  1.00  0.00     0.029 A 
ATOM     17  N   UNL A   1      42.350  29.967  29.488  1.00  0.00    -0.354 N 
ATOM     18  C   UNL A   1      41.923  25.931  28.011  1.00  0.00     0.074 A 
ATOM     19  C   UNL A   1      40.539  25.573  27.786  1.00  0.00     0.031 C 
ATOM     20  C   UNL A   1      41.535  31.892  30.265  1.00  0.00     0.029 A 
ATOM     21  C   UNL A   1      42.767  31.237  29.876  1.00  0.00     0.049 A 
ATOM     22  H   UNL A   1      42.974  29.240  29.264  1.00  0.00     0.167 HD
ATOM     23  C   UNL A   1      42.970  25.094  27.869  1.00  0.00     0.037 A 
ATOM     24  C   UNL A   1      43.992  31.804  29.937  1.00  0.00     0.037 A 
ATOM     25  C   UNL A   1      44.323  25.458  28.182  1.00  0.00     0.049 A 
ATOM     26  C   UNL A   1      45.144  30.871  29.688  1.00  0.00     0.074 A 
ATOM     27  C   UNL A   1      45.450  24.661  28.185  1.00  0.00     0.029 A 
ATOM     28  N   UNL A   1      44.729  26.734  28.560  1.00  0.00    -0.354 N 
ATOM     29  N   UNL A   1      45.097  29.616  29.306  1.00  0.00    -0.248 NA
ATOM     30  C   UNL A   1      46.495  31.376  29.954  1.00  0.00     0.031 C 
ATOM     31  C   UNL A   1      46.534  25.448  28.591  1.00  0.00     0.029 A 
ATOM     32  C   UNL A   1      46.094  26.749  28.786  1.00  0.00     0.049 A 
ATOM     33  H   UNL A   1      44.133  27.512  28.653  1.00  0.00     0.167 HD
ATOM     34  C   UNL A   1      46.404  29.165  29.335  1.00  0.00     0.074 A 
ATOM     35  C   UNL A   1      47.229  30.305  29.687  1.00  0.00     0.031 C 
ATOM     36  C   UNL A   1      46.875  27.910  29.137  1.00  0.00     0.037 A 
BRANCH  23  37
ATOM     37  C   UNL A   1      42.629  23.707  27.432  1.00  0.00     0.058 A 
ATOM     38  C   UNL A   1      42.420  22.682  28.368  1.00  0.00     0.135 A 
ATOM     39  C   UNL A   1      42.625  23.375  26.070  1.00  0.00     0.135 A 
ATOM     40  F   UNL A   1      42.482  22.943  29.685  1.00  0.00    -0.206 F 
ATOM     41  C   UNL A   1      42.242  21.366  27.967  1.00  0.00     0.059 A 
ATOM     42  C   UNL A   1      42.419  22.069  25.645  1.00  0.00     0.059 A 
ATOM     43  F   UNL A   1      42.863  24.316  25.143  1.00  0.00    -0.206 F 
ATOM     44  C   UNL A   1      42.241  21.070  26.603  1.00  0.00     0.060 A 
BRANCH  44  45
ATOM     45  S   UNL A   1      42.003  19.355  26.101  1.00  0.00     0.124 S 
ATOM     46  O   UNL A   1      42.467  18.637  27.283  1.00  0.00    -0.237 OA
ATOM     47  O   UNL A   1      40.566  19.305  25.851  1.00  0.00    -0.237 OA
ATOM     48  O   UNL A   1      42.848  19.229  24.917  1.00  0.00    -0.744 OA
ENDBRANCH  44  45
ENDBRANCH  23  37
BRANCH  24  49
ATOM     49  C   UNL A   1      44.224  33.242  30.323  1.00  0.00     0.058 A 
ATOM     50  C   UNL A   1      44.290  34.262  29.354  1.00  0.00     0.135 A 
ATOM     51  C   UNL A   1      44.435  33.636  31.656  1.00  0.00     0.135 A 
ATOM     52  F   UNL A   1      44.120  33.965  28.056  1.00  0.00    -0.206 F 
ATOM     53  C   UNL A   1      44.574  35.592  29.684  1.00  0.00     0.059 A 
ATOM     54  C   UNL A   1      44.672  34.964  32.017  1.00  0.00     0.059 A 
ATOM     55  F   UNL A   1      44.409  32.726  32.642  1.00  0.00    -0.206 F 
ATOM     56  C   UNL A   1      44.763  35.933  31.022  1.00  0.00     0.060 A 
BRANCH  56  57
ATOM     57  S   UNL A   1      45.113  37.653  31.460  1.00  0.00     0.124 S 
ATOM     58  O   UNL A   1      45.801  37.498  32.737  1.00  0.00    -0.237 OA
ATOM     59  O   UNL A   1      45.938  38.099  30.341  1.00  0.00    -0.237 OA
ATOM     60  O   UNL A   1      43.786  38.258  31.528  1.00  0.00    -0.744 OA
ENDBRANCH  56  57
ENDBRANCH  24  49
BRANCH  36  61
ATOM     61  C   UNL A   1      48.354  27.730  29.283  1.00  0.00     0.058 A 
ATOM     62  C   UNL A   1      48.942  27.452  30.527  1.00  0.00     0.135 A 
ATOM     63  C   UNL A   1      49.184  27.816  28.157  1.00  0.00     0.135 A 
ATOM     64  F   UNL A   1      48.185  27.372  31.633  1.00  0.00    -0.206 F 
ATOM     65  C   UNL A   1      50.316  27.298  30.654  1.00  0.00     0.059 A 
ATOM     66  C   UNL A   1      50.556  27.634  28.256  1.00  0.00     0.059 A 
ATOM     67  F   UNL A   1      48.660  28.074  26.948  1.00  0.00    -0.206 F 
ATOM     68  C   UNL A   1      51.114  27.392  29.511  1.00  0.00     0.060 A 
BRANCH  68  69
ATOM     69  S   UNL A   1      52.895  27.176  29.682  1.00  0.00     0.124 S 
ATOM     70  O   UNL A   1      53.358  28.559  29.678  1.00  0.00    -0.237 OA
ATOM     71  O   UNL A   1      53.003  26.473  30.957  1.00  0.00    -0.237 OA
ATOM     72  O   UNL A   1      53.255  26.389  28.507  1.00  0.00    -0.744 OA
ENDBRANCH  68  69
ENDBRANCH  36  61
ENDBRANCH  10  11
ENDBRANCH   3   5
ENDBRANCH   2   3
ENDBRANCH   1   2
BRANCH   1  73
ATOM     73  C   UNL A   1      31.674  27.978  27.540  1.00  0.00     0.274 C 
BRANCH  73  74
ATOM     74  O   UNL A   1      32.048  27.036  26.537  1.00  0.00    -0.458 OA
BRANCH  74  75
ATOM     75  C   UNL A   1      31.011  26.394  25.933  1.00  0.00     0.365 C 
ATOM     76  O   UNL A   1      30.215  25.639  26.492  1.00  0.00    -0.245 OA
BRANCH  75  77
ATOM     77  C   UNL A   1      31.003  26.626  24.439  1.00  0.00     0.301 C 
ATOM     78  N   UNL A   1      32.053  27.573  23.994  1.00  0.00    -0.334 N 
ATOM     79  C   UNL A   1      31.207  25.372  23.578  1.00  0.00     0.095 C 
ATOM     80  C   UNL A   1      32.073  27.439  22.539  1.00  0.00     0.262 C 
ATOM     81  H   UNL A   1      32.959  27.320  24.391  1.00  0.00     0.347 HD
ATOM     82  H   UNL A   1      31.866  28.530  24.294  1.00  0.00     0.347 HD
ATOM     83  C   UNL A   1      31.512  26.047  22.230  1.00  0.00     0.076 C 
BRANCH  79  84
ATOM     84  C   UNL A   1      32.137  24.288  24.136  1.00  0.00    -0.034 A 
ATOM     85  C   UNL A   1      33.488  24.416  24.420  1.00  0.00     0.004 A 
ATOM     86  C   UNL A   1      31.604  23.020  24.389  1.00  0.00     0.051 A 
ATOM     87  C   UNL A   1      34.294  23.351  24.860  1.00  0.00     0.004 A 
ATOM     88  C   UNL A   1      32.365  21.947  24.901  1.00  0.00     0.127 A 
ATOM     89  C   UNL A   1      33.729  22.109  25.105  1.00  0.00     0.047 A 
BRANCH  88  90
ATOM     90  O   UNL A   1      31.852  20.696  25.207  1.00  0.00    -0.457 OA
BRANCH  90  91
ATOM     91  C   UNL A   1      32.393  19.642  24.508  1.00  0.00     0.127 A 
ATOM     92  C   UNL A   1      33.094  18.657  25.200  1.00  0.00     0.047 A 
ATOM     93  C   UNL A   1      32.187  19.542  23.133  1.00  0.00     0.047 A 
ATOM     94  C   UNL A   1      33.474  17.495  24.527  1.00  0.00     0.004 A 
ATOM     95  C   UNL A   1      32.515  18.360  22.479  1.00  0.00     0.004 A 
ATOM     96  C   UNL A   1      33.148  17.333  23.178  1.00  0.00     0.000 A 
ENDBRANCH  90  91
ENDBRANCH  88  90
ENDBRANCH  79  84
ENDBRANCH  75  77
ENDBRANCH  74  75
ENDBRANCH  73  74
ENDBRANCH   1  73
TORSDOF 17
ENDMDL
MODEL 2
REMARK VINA RESULT:     -11.4      2.484      3.352
REMARK SMILES O=C(OCCOC(=O)[C@H]1[NH2+]CC[C@H]1c1cccc(Oc2ccccc2)c1)c1ccc(-c2c3nc(c(-c4c(F)cc(S(=O)(=O)[O-])cc4F)c4ccc([nH]4)c(-c4c(F)cc(S(=O)(=O)[O-])cc4F)c4nc(c(-c5c(F)cc(S(=O)(=O)[O-])cc5F)c5ccc2[nH]5)C=C4)C=C3)cc1
REMARK SMILES IDX 4 1 3 2 2 3 1 4 27 5 28 6 92 7 29 8 91 9 30 10 31 11 32 12
REMARK SMILES IDX 85 13 33 14 90 15 84 16 86 17 34 18 89 19 83 20 82 21 35 23
REMARK SMILES IDX 69 24 48 25 68 26 49 27 52 28 67 29 87 30 50 31 51 32 66 34
REMARK SMILES IDX 88 35 53 36 36 37 37 38 46 39 38 40 39 41 45 42 47 43 40 44
REMARK SMILES IDX 41 45 42 46 43 47 44 48 70 49 71 50 80 51 72 52 73 53 79 54
REMARK SMILES IDX 81 55 74 56 75 57 76 58 77 59 78 60 54 61 55 62 64 63 56 64
REMARK SMILES IDX 57 65 63 66 65 67 58 68 59 69 60 70 61 71 62 72 5 73 6 74
REMARK SMILES IDX 7 75 8 76 9 77 10 78 13 79 11 80 12 83 14 84 15 85 26 86
REMARK SMILES IDX 16 87 18 88 17 89 19 90 20 91 21 92 25 93 22 94 24 95 23 96
REMARK H PARENT 86 22 52 33 10 81 10 82
REMARK Flexibility Score: inf
ROOT
ATOM      1  C   UNL A   1      34.696  29.196  27.150  1.00  0.00     0.275 C 
ENDROOT
BRANCH   1   2
ATOM      2  O   UNL A   1      35.340  30.228  27.917  1.00  0.00    -0.458 OA
BRANCH   2   3
ATOM      3  C   UNL A   1      36.254  30.162  28.917  1.00  0.00     0.338 C 
ATOM      4  O   UNL A   1      35.852  30.388  30.061  1.00  0.00    -0.246 OA
BRANCH   3   5
ATOM      5  C   UNL A   1      37.722  29.852  28.752  1.00  0.00     0.060 A 
ATOM      6  C   UNL A   1      38.390  29.605  27.556  1.00  0.00     0.016 A 
ATOM      7  C   UNL A   1      38.505  29.808  29.931  1.00  0.00     0.016 A 
ATOM      8  C   UNL A   1      39.783  29.399  27.532  1.00  0.00     0.010 A 
ATOM      9  C   UNL A   1      39.905  29.619  29.908  1.00  0.00     0.010 A 
ATOM     10  C   UNL A   1      40.571  29.443  28.696  1.00  0.00    -0.014 A 
BRANCH  10  11
ATOM     11  C   UNL A   1      42.015  29.053  28.579  1.00  0.00     0.031 A 
ATOM     12  C   UNL A   1      42.288  27.685  28.076  1.00  0.00     0.074 A 
ATOM     13  C   UNL A   1      43.060  29.887  28.778  1.00  0.00     0.049 A 
ATOM     14  N   UNL A   1      43.425  27.174  27.708  1.00  0.00    -0.248 NA
ATOM     15  C   UNL A   1      41.145  26.760  28.041  1.00  0.00     0.031 C 
ATOM     16  C   UNL A   1      42.957  31.149  29.463  1.00  0.00     0.029 A 
ATOM     17  N   UNL A   1      44.381  29.878  28.387  1.00  0.00    -0.354 N 
ATOM     18  C   UNL A   1      43.148  25.852  27.429  1.00  0.00     0.074 A 
ATOM     19  C   UNL A   1      41.737  25.639  27.666  1.00  0.00     0.031 C 
ATOM     20  C   UNL A   1      44.028  31.915  29.224  1.00  0.00     0.029 A 
ATOM     21  C   UNL A   1      45.011  31.111  28.529  1.00  0.00     0.049 A 
ATOM     22  H   UNL A   1      44.834  29.077  28.040  1.00  0.00     0.167 HD
ATOM     23  C   UNL A   1      44.018  24.898  27.041  1.00  0.00     0.037 A 
ATOM     24  C   UNL A   1      46.241  31.540  28.169  1.00  0.00     0.037 A 
ATOM     25  C   UNL A   1      45.428  25.123  26.896  1.00  0.00     0.049 A 
ATOM     26  C   UNL A   1      47.168  30.475  27.655  1.00  0.00     0.074 A 
ATOM     27  C   UNL A   1      46.422  24.207  26.617  1.00  0.00     0.029 A 
ATOM     28  N   UNL A   1      46.047  26.362  27.032  1.00  0.00    -0.354 N 
ATOM     29  N   UNL A   1      46.890  29.217  27.403  1.00  0.00    -0.248 NA
ATOM     30  C   UNL A   1      48.574  30.839  27.455  1.00  0.00     0.031 C 
ATOM     31  C   UNL A   1      47.646  24.886  26.610  1.00  0.00     0.029 A 
ATOM     32  C   UNL A   1      47.410  26.237  26.829  1.00  0.00     0.049 A 
ATOM     33  H   UNL A   1      45.583  27.205  27.242  1.00  0.00     0.167 HD
ATOM     34  C   UNL A   1      48.094  28.625  27.067  1.00  0.00     0.074 A 
ATOM     35  C   UNL A   1      49.088  29.682  27.061  1.00  0.00     0.031 C 
ATOM     36  C   UNL A   1      48.364  27.318  26.833  1.00  0.00     0.037 A 
BRANCH  23  37
ATOM     37  C   UNL A   1      43.433  23.539  26.837  1.00  0.00     0.058 A 
ATOM     38  C   UNL A   1      43.197  22.680  27.922  1.00  0.00     0.135 A 
ATOM     39  C   UNL A   1      43.214  23.049  25.541  1.00  0.00     0.135 A 
ATOM     40  F   UNL A   1      43.457  23.086  29.177  1.00  0.00    -0.206 F 
ATOM     41  C   UNL A   1      42.786  21.370  27.728  1.00  0.00     0.059 A 
ATOM     42  C   UNL A   1      42.774  21.749  25.326  1.00  0.00     0.059 A 
ATOM     43  F   UNL A   1      43.467  23.821  24.473  1.00  0.00    -0.206 F 
ATOM     44  C   UNL A   1      42.575  20.914  26.426  1.00  0.00     0.060 A 
BRANCH  44  45
ATOM     45  S   UNL A   1      42.036  19.209  26.193  1.00  0.00     0.124 S 
ATOM     46  O   UNL A   1      42.407  18.609  27.470  1.00  0.00    -0.237 OA
ATOM     47  O   UNL A   1      40.605  19.369  25.959  1.00  0.00    -0.237 OA
ATOM     48  O   UNL A   1      42.813  18.764  25.040  1.00  0.00    -0.744 OA
ENDBRANCH  44  45
ENDBRANCH  23  37
BRANCH  24  49
ATOM     49  C   UNL A   1      46.713  32.959  28.354  1.00  0.00     0.058 A 
ATOM     50  C   UNL A   1      46.612  33.908  27.317  1.00  0.00     0.135 A 
ATOM     51  C   UNL A   1      47.319  33.401  29.543  1.00  0.00     0.135 A 
ATOM     52  F   UNL A   1      46.064  33.561  26.142  1.00  0.00    -0.206 F 
ATOM     53  C   UNL A   1      47.107  35.211  27.443  1.00  0.00     0.059 A 
ATOM     54  C   UNL A   1      47.777  34.709  29.711  1.00  0.00     0.059 A 
ATOM     55  F   UNL A   1      47.473  32.558  30.575  1.00  0.00    -0.206 F 
ATOM     56  C   UNL A   1      47.688  35.603  28.647  1.00  0.00     0.060 A 
BRANCH  56  57
ATOM     57  S   UNL A   1      48.314  37.291  28.825  1.00  0.00     0.124 S 
ATOM     58  O   UNL A   1      47.844  37.911  27.592  1.00  0.00    -0.237 OA
ATOM     59  O   UNL A   1      47.663  37.738  30.053  1.00  0.00    -0.237 OA
ATOM     60  O   UNL A   1      49.759  37.102  28.926  1.00  0.00    -0.744 OA
ENDBRANCH  56  57
ENDBRANCH  24  49
BRANCH  36  61
ATOM     61  C   UNL A   1      49.791  26.982  26.534  1.00  0.00     0.058 A 
ATOM     62  C   UNL A   1      50.291  26.995  25.223  1.00  0.00     0.135 A 
ATOM     63  C   UNL A   1      50.669  26.664  27.579  1.00  0.00     0.135 A 
ATOM     64  F   UNL A   1      49.482  27.283  24.191  1.00  0.00    -0.206 F 
ATOM     65  C   UNL A   1      51.614  26.671  24.955  1.00  0.00     0.059 A 
ATOM     66  C   UNL A   1      52.003  26.367  27.338  1.00  0.00     0.059 A 
ATOM     67  F   UNL A   1      50.232  26.646  28.849  1.00  0.00    -0.206 F 
ATOM     68  C   UNL A   1      52.461  26.357  26.020  1.00  0.00     0.060 A 
BRANCH  68  69
ATOM     69  S   UNL A   1      54.180  25.952  25.665  1.00  0.00     0.124 S 
ATOM     70  O   UNL A   1      54.736  27.268  25.369  1.00  0.00    -0.237 OA
ATOM     71  O   UNL A   1      54.623  25.342  26.915  1.00  0.00    -0.237 OA
ATOM     72  O   UNL A   1      54.086  25.040  24.529  1.00  0.00    -0.744 OA
ENDBRANCH  68  69
ENDBRANCH  36  61
ENDBRANCH  10  11
ENDBRANCH   3   5
ENDBRANCH   2   3
ENDBRANCH   1   2
BRANCH   1  73
ATOM     73  C   UNL A   1      33.319  29.580  26.627  1.00  0.00     0.274 C 
BRANCH  73  74
ATOM     74  O   UNL A   1      32.759  28.560  25.803  1.00  0.00    -0.458 OA
BRANCH  74  75
ATOM     75  C   UNL A   1      32.496  28.934  24.521  1.00  0.00     0.365 C 
ATOM     76  O   UNL A   1      33.332  29.324  23.705  1.00  0.00    -0.245 OA
BRANCH  75  77
ATOM     77  C   UNL A   1      31.013  28.923  24.226  1.00  0.00     0.301 C 
ATOM     78  N   UNL A   1      30.645  29.783  23.076  1.00  0.00    -0.334 N 
ATOM     79  C   UNL A   1      30.416  27.547  23.902  1.00  0.00     0.095 C 
ATOM     80  C   UNL A   1      29.262  29.418  22.776  1.00  0.00     0.262 C 
ATOM     81  H   UNL A   1      31.250  29.594  22.276  1.00  0.00     0.347 HD
ATOM     82  H   UNL A   1      30.749  30.776  23.285  1.00  0.00     0.347 HD
ATOM     83  C   UNL A   1      29.068  27.996  23.314  1.00  0.00     0.076 C 
BRANCH  79  84
ATOM     84  C   UNL A   1      31.312  26.563  23.138  1.00  0.00    -0.034 A 
ATOM     85  C   UNL A   1      31.697  26.647  21.810  1.00  0.00     0.004 A 
ATOM     86  C   UNL A   1      31.802  25.445  23.820  1.00  0.00     0.051 A 
ATOM     87  C   UNL A   1      32.461  25.662  21.158  1.00  0.00     0.004 A 
ATOM     88  C   UNL A   1      32.632  24.473  23.220  1.00  0.00     0.127 A 
ATOM     89  C   UNL A   1      32.934  24.570  21.867  1.00  0.00     0.047 A 
BRANCH  88  90
ATOM     90  O   UNL A   1      33.172  23.383  23.884  1.00  0.00    -0.457 OA
BRANCH  90  91
ATOM     91  C   UNL A   1      34.514  23.467  24.175  1.00  0.00     0.127 A 
ATOM     92  C   UNL A   1      34.918  24.115  25.340  1.00  0.00     0.047 A 
ATOM     93  C   UNL A   1      35.446  22.857  23.336  1.00  0.00     0.047 A 
ATOM     94  C   UNL A   1      36.253  24.033  25.735  1.00  0.00     0.004 A 
ATOM     95  C   UNL A   1      36.763  22.728  23.760  1.00  0.00     0.004 A 
ATOM     96  C   UNL A   1      37.164  23.306  24.965  1.00  0.00     0.000 A 
ENDBRANCH  90  91
ENDBRANCH  88  90
ENDBRANCH  79  84
ENDBRANCH  75  77
ENDBRANCH  74  75
ENDBRANCH  73  74
ENDBRANCH   1  73
TORSDOF 17
ENDMDL
MODEL 3
REMARK VINA RESULT:     -11.4      5.546     10.780
REMARK SMILES O=C(OCCOC(=O)[C@H]1[NH2+]CC[C@H]1c1cccc(Oc2ccccc2)c1)c1ccc(-c2c3nc(c(-c4c(F)cc(S(=O)(=O)[O-])cc4F)c4ccc([nH]4)c(-c4c(F)cc(S(=O)(=O)[O-])cc4F)c4nc(c(-c5c(F)cc(S(=O)(=O)[O-])cc5F)c5ccc2[nH]5)C=C4)C=C3)cc1
REMARK SMILES IDX 4 1 3 2 2 3 1 4 27 5 28 6 92 7 29 8 91 9 30 10 31 11 32 12
REMARK SMILES IDX 85 13 33 14 90 15 84 16 86 17 34 18 89 19 83 20 82 21 35 23
REMARK SMILES IDX 69 24 48 25 68 26 49 27 52 28 67 29 87 30 50 31 51 32 66 34
REMARK SMILES IDX 88 35 53 36 36 37 37 38 46 39 38 40 39 41 45 42 47 43 40 44
REMARK SMILES IDX 41 45 42 46 43 47 44 48 70 49 71 50 80 51 72 52 73 53 79 54
REMARK SMILES IDX 81 55 74 56 75 57 76 58 77 59 78 60 54 61 55 62 64 63 56 64
REMARK SMILES IDX 57 65 63 66 65 67 58 68 59 69 60 70 61 71 62 72 5 73 6 74
REMARK SMILES IDX 7 75 8 76 9 77 10 78 13 79 11 80 12 83 14 84 15 85 26 86
REMARK SMILES IDX 16 87 18 88 17 89 19 90 20 91 21 92 25 93 22 94 24 95 23 96
REMARK H PARENT 86 22 52 33 10 81 10 82
REMARK Flexibility Score: inf
ROOT
ATOM      1  C   UNL A   1      38.013  22.806  25.728  1.00  0.00     0.275 C 
ENDROOT
BRANCH   1   2
ATOM      2  O   UNL A   1      38.297  24.002  26.474  1.00  0.00    -0.458 OA
BRANCH   2   3
ATOM      3  C   UNL A   1      39.472  24.571  26.843  1.00  0.00     0.338 C 
ATOM      4  O   UNL A   1      40.488  24.191  26.256  1.00  0.00    -0.246 OA
BRANCH   3   5
ATOM      5  C   UNL A   1      39.647  25.614  27.920  1.00  0.00     0.060 A 
ATOM      6  C   UNL A   1      38.902  25.736  29.089  1.00  0.00     0.016 A 
ATOM      7  C   UNL A   1      40.675  26.568  27.726  1.00  0.00     0.016 A 
ATOM      8  C   UNL A   1      39.216  26.714  30.051  1.00  0.00     0.010 A 
ATOM      9  C   UNL A   1      41.004  27.539  28.698  1.00  0.00     0.010 A 
ATOM     10  C   UNL A   1      40.293  27.604  29.896  1.00  0.00    -0.014 A 
BRANCH  10  11
ATOM     11  C   UNL A   1      40.441  28.708  30.901  1.00  0.00     0.031 A 
ATOM     12  C   UNL A   1      39.385  29.748  30.896  1.00  0.00     0.074 A 
ATOM     13  C   UNL A   1      41.382  28.749  31.873  1.00  0.00     0.049 A 
ATOM     14  N   UNL A   1      39.175  30.689  31.769  1.00  0.00    -0.248 NA
ATOM     15  C   UNL A   1      38.490  29.768  29.729  1.00  0.00     0.031 C 
ATOM     16  C   UNL A   1      42.574  27.943  31.866  1.00  0.00     0.029 A 
ATOM     17  N   UNL A   1      41.487  29.411  33.076  1.00  0.00    -0.354 N 
ATOM     18  C   UNL A   1      38.144  31.440  31.243  1.00  0.00     0.074 A 
ATOM     19  C   UNL A   1      37.769  30.847  29.979  1.00  0.00     0.031 C 
ATOM     20  C   UNL A   1      43.145  27.919  33.075  1.00  0.00     0.029 A 
ATOM     21  C   UNL A   1      42.473  28.893  33.910  1.00  0.00     0.049 A 
ATOM     22  H   UNL A   1      40.920  30.176  33.321  1.00  0.00     0.167 HD
ATOM     23  C   UNL A   1      37.591  32.551  31.769  1.00  0.00     0.037 A 
ATOM     24  C   UNL A   1      42.817  29.179  35.185  1.00  0.00     0.037 A 
ATOM     25  C   UNL A   1      38.045  33.162  32.987  1.00  0.00     0.049 A 
ATOM     26  C   UNL A   1      42.122  30.371  35.784  1.00  0.00     0.074 A 
ATOM     27  C   UNL A   1      37.637  34.350  33.557  1.00  0.00     0.029 A 
ATOM     28  N   UNL A   1      39.026  32.630  33.818  1.00  0.00    -0.354 N 
ATOM     29  N   UNL A   1      41.148  31.082  35.265  1.00  0.00    -0.248 NA
ATOM     30  C   UNL A   1      42.609  30.859  37.079  1.00  0.00     0.031 C 
ATOM     31  C   UNL A   1      38.389  34.551  34.721  1.00  0.00     0.029 A 
ATOM     32  C   UNL A   1      39.227  33.461  34.906  1.00  0.00     0.049 A 
ATOM     33  H   UNL A   1      39.507  31.786  33.656  1.00  0.00     0.167 HD
ATOM     34  C   UNL A   1      40.940  32.131  36.142  1.00  0.00     0.074 A 
ATOM     35  C   UNL A   1      41.828  31.913  37.269  1.00  0.00     0.031 C 
ATOM     36  C   UNL A   1      40.124  33.204  36.006  1.00  0.00     0.037 A 
BRANCH  23  37
ATOM     37  C   UNL A   1      36.503  33.173  30.957  1.00  0.00     0.058 A 
ATOM     38  C   UNL A   1      36.797  34.010  29.869  1.00  0.00     0.135 A 
ATOM     39  C   UNL A   1      35.162  33.025  31.340  1.00  0.00     0.135 A 
ATOM     40  F   UNL A   1      38.073  34.233  29.511  1.00  0.00    -0.206 F 
ATOM     41  C   UNL A   1      35.796  34.699  29.200  1.00  0.00     0.059 A 
ATOM     42  C   UNL A   1      34.142  33.683  30.665  1.00  0.00     0.059 A 
ATOM     43  F   UNL A   1      34.839  32.269  32.401  1.00  0.00    -0.206 F 
ATOM     44  C   UNL A   1      34.471  34.528  29.604  1.00  0.00     0.060 A 
BRANCH  44  45
ATOM     45  S   UNL A   1      33.184  35.429  28.720  1.00  0.00     0.124 S 
ATOM     46  O   UNL A   1      32.496  34.347  28.024  1.00  0.00    -0.237 OA
ATOM     47  O   UNL A   1      32.443  36.055  29.810  1.00  0.00    -0.237 OA
ATOM     48  O   UNL A   1      33.937  36.346  27.869  1.00  0.00    -0.744 OA
ENDBRANCH  44  45
ENDBRANCH  23  37
BRANCH  24  49
ATOM     49  C   UNL A   1      43.888  28.440  35.944  1.00  0.00     0.058 A 
ATOM     50  C   UNL A   1      45.248  28.781  35.816  1.00  0.00     0.135 A 
ATOM     51  C   UNL A   1      43.597  27.346  36.779  1.00  0.00     0.135 A 
ATOM     52  F   UNL A   1      45.611  29.802  35.022  1.00  0.00    -0.206 F 
ATOM     53  C   UNL A   1      46.264  28.064  36.457  1.00  0.00     0.059 A 
ATOM     54  C   UNL A   1      44.589  26.645  37.468  1.00  0.00     0.059 A 
ATOM     55  F   UNL A   1      42.329  26.941  36.943  1.00  0.00    -0.206 F 
ATOM     56  C   UNL A   1      45.923  26.996  37.284  1.00  0.00     0.060 A 
BRANCH  56  57
ATOM     57  S   UNL A   1      47.229  26.073  38.131  1.00  0.00     0.124 S 
ATOM     58  O   UNL A   1      46.727  26.041  39.500  1.00  0.00    -0.237 OA
ATOM     59  O   UNL A   1      47.223  24.799  37.419  1.00  0.00    -0.237 OA
ATOM     60  O   UNL A   1      48.415  26.897  37.913  1.00  0.00    -0.744 OA
ENDBRANCH  56  57
ENDBRANCH  24  49
BRANCH  36  61
ATOM     61  C   UNL A   1      40.155  34.203  37.121  1.00  0.00     0.058 A 
ATOM     62  C   UNL A   1      39.278  34.113  38.212  1.00  0.00     0.135 A 
ATOM     63  C   UNL A   1      41.090  35.246  37.099  1.00  0.00     0.135 A 
ATOM     64  F   UNL A   1      38.360  33.135  38.267  1.00  0.00    -0.206 F 
ATOM     65  C   UNL A   1      39.307  35.051  39.236  1.00  0.00     0.059 A 
ATOM     66  C   UNL A   1      41.157  36.177  38.127  1.00  0.00     0.059 A 
ATOM     67  F   UNL A   1      41.951  35.364  36.075  1.00  0.00    -0.206 F 
ATOM     68  C   UNL A   1      40.251  36.079  39.182  1.00  0.00     0.060 A 
BRANCH  68  69
ATOM     69  S   UNL A   1      40.291  37.283  40.522  1.00  0.00     0.124 S 
ATOM     70  O   UNL A   1      41.023  36.551  41.550  1.00  0.00    -0.237 OA
ATOM     71  O   UNL A   1      41.002  38.404  39.914  1.00  0.00    -0.237 OA
ATOM     72  O   UNL A   1      38.880  37.524  40.805  1.00  0.00    -0.744 OA
ENDBRANCH  68  69
ENDBRANCH  36  61
ENDBRANCH  10  11
ENDBRANCH   3   5
ENDBRANCH   2   3
ENDBRANCH   1   2
BRANCH   1  73
ATOM     73  C   UNL A   1      36.883  22.956  24.719  1.00  0.00     0.274 C 
BRANCH  73  74
ATOM     74  O   UNL A   1      35.703  23.488  25.317  1.00  0.00    -0.458 OA
BRANCH  74  75
ATOM     75  C   UNL A   1      34.964  22.596  26.029  1.00  0.00     0.365 C 
ATOM     76  O   UNL A   1      34.792  22.622  27.249  1.00  0.00    -0.245 OA
BRANCH  75  77
ATOM     77  C   UNL A   1      34.449  21.472  25.158  1.00  0.00     0.301 C 
ATOM     78  N   UNL A   1      34.138  20.241  25.923  1.00  0.00    -0.334 N 
ATOM     79  C   UNL A   1      33.169  21.784  24.369  1.00  0.00     0.095 C 
ATOM     80  C   UNL A   1      33.400  19.403  24.981  1.00  0.00     0.262 C 
ATOM     81  H   UNL A   1      33.565  20.458  26.738  1.00  0.00     0.347 HD
ATOM     82  H   UNL A   1      34.978  19.782  26.278  1.00  0.00     0.347 HD
ATOM     83  C   UNL A   1      32.784  20.356  23.951  1.00  0.00     0.076 C 
BRANCH  79  84
ATOM     84  C   UNL A   1      32.143  22.704  25.044  1.00  0.00    -0.034 A 
ATOM     85  C   UNL A   1      31.259  22.363  26.055  1.00  0.00     0.004 A 
ATOM     86  C   UNL A   1      32.056  24.031  24.612  1.00  0.00     0.051 A 
ATOM     87  C   UNL A   1      30.293  23.245  26.572  1.00  0.00     0.004 A 
ATOM     88  C   UNL A   1      31.149  24.966  25.158  1.00  0.00     0.127 A 
ATOM     89  C   UNL A   1      30.239  24.555  26.123  1.00  0.00     0.047 A 
BRANCH  88  90
ATOM     90  O   UNL A   1      31.075  26.298  24.784  1.00  0.00    -0.457 OA
BRANCH  90  91
ATOM     91  C   UNL A   1      31.822  27.172  25.538  1.00  0.00     0.127 A 
ATOM     92  C   UNL A   1      31.288  27.678  26.721  1.00  0.00     0.047 A 
ATOM     93  C   UNL A   1      33.120  27.495  25.144  1.00  0.00     0.047 A 
ATOM     94  C   UNL A   1      32.110  28.406  27.581  1.00  0.00     0.004 A 
ATOM     95  C   UNL A   1      33.953  28.170  26.028  1.00  0.00     0.004 A 
ATOM     96  C   UNL A   1      33.452  28.615  27.251  1.00  0.00     0.000 A 
ENDBRANCH  90  91
ENDBRANCH  88  90
ENDBRANCH  79  84
ENDBRANCH  75  77
ENDBRANCH  74  75
ENDBRANCH  73  74
ENDBRANCH   1  73
TORSDOF 17
ENDMDL
