MODEL 1
REMARK VINA RESULT:     -11.2      0.000      0.000
REMARK SMILES Cc1c(C(=O)OCCOC(=O)c2ccc(-c3c4nc(c(-c5c(F)cc(S(=O)(=O)[O-])cc5F)c5ccc([nH]5)c(-c5c(F)cc(S(=O)(=O)[O-])cc5F)c5nc(c(-c6c(F)cc(S(=O)(=O)[O-])cc6F)c6ccc3[nH]6)C=C5)C=C4)cc2)cnn1[C@H]1CCS(=O)(=O)C1
REMARK SMILES IDX 8 1 7 2 6 3 4 4 5 5 3 6 1 7 2 8 80 9 78 10 79 11 81 12 82 13
REMARK SMILES IDX 87 14 83 15 84 16 85 17 86 18 9 19 10 20 11 21 12 22 13 23
REMARK SMILES IDX 77 24 14 25 76 26 15 27 16 28 17 29 70 30 18 31 75 32 69 33
REMARK SMILES IDX 71 34 19 35 74 36 68 37 67 38 20 40 54 41 33 42 53 43 34 44
REMARK SMILES IDX 37 45 52 46 72 47 35 48 36 49 51 51 73 52 38 53 21 54 22 55
REMARK SMILES IDX 31 56 23 57 24 58 30 59 32 60 25 61 26 62 27 63 28 64 29 65
REMARK SMILES IDX 55 66 56 67 65 68 57 69 58 70 64 71 66 72 59 73 60 74 61 75
REMARK SMILES IDX 62 76 63 77 39 78 40 79 49 80 41 81 42 82 48 83 50 84 43 85
REMARK SMILES IDX 44 86 45 87 46 88 47 89
REMARK H PARENT 71 39 37 50
REMARK Flexibility Score: inf
ROOT
ATOM      1  C   UNL A   1      40.667  20.292  26.656  1.00  0.00     0.275 C 
ENDROOT
BRANCH   1   2
ATOM      2  C   UNL A   1      42.155  19.956  26.616  1.00  0.00     0.275 C 
BRANCH   2   3
ATOM      3  O   UNL A   1      42.975  21.137  26.610  1.00  0.00    -0.458 OA
BRANCH   3   4
ATOM      4  C   UNL A   1      43.797  21.260  25.525  1.00  0.00     0.341 C 
ATOM      5  O   UNL A   1      43.753  20.513  24.549  1.00  0.00    -0.246 OA
BRANCH   4   6
ATOM      6  C   UNL A   1      44.703  22.393  25.610  1.00  0.00     0.100 A 
ATOM      7  C   UNL A   1      43.043  24.249  24.978  1.00  0.00     0.067 C 
ATOM      8  C   UNL A   1      44.396  23.723  25.311  1.00  0.00     0.050 A 
ATOM      9  N   UNL A   1      45.560  24.434  25.516  1.00  0.00    -0.265 N 
ATOM     10  C   UNL A   1      46.020  22.436  26.090  1.00  0.00     0.151 A 
ATOM     11  N   UNL A   1      46.559  23.650  25.993  1.00  0.00    -0.180 NA
BRANCH   9  12
ATOM     12  C   UNL A   1      45.928  25.828  25.298  1.00  0.00     0.123 C 
ATOM     13  C   UNL A   1      46.086  26.575  26.642  1.00  0.00     0.044 C 
ATOM     14  C   UNL A   1      47.212  26.128  24.544  1.00  0.00     0.164 C 
ATOM     15  C   UNL A   1      46.600  27.977  26.341  1.00  0.00     0.139 C 
ATOM     16  S   UNL A   1      47.507  27.854  24.816  1.00  0.00     0.152 S 
ATOM     17  O   UNL A   1      46.805  28.613  23.802  1.00  0.00    -0.229 OA
ATOM     18  O   UNL A   1      48.915  28.043  25.092  1.00  0.00    -0.229 OA
ENDBRANCH   9  12
ENDBRANCH   4   6
ENDBRANCH   3   4
ENDBRANCH   2   3
ENDBRANCH   1   2
BRANCH   1  19
ATOM     19  O   UNL A   1      40.381  21.461  27.428  1.00  0.00    -0.458 OA
BRANCH  19  20
ATOM     20  C   UNL A   1      39.642  22.383  26.771  1.00  0.00     0.338 C 
ATOM     21  O   UNL A   1      38.786  22.164  25.930  1.00  0.00    -0.246 OA
BRANCH  20  22
ATOM     22  C   UNL A   1      40.149  23.733  27.046  1.00  0.00     0.060 A 
ATOM     23  C   UNL A   1      41.243  23.832  27.911  1.00  0.00     0.016 A 
ATOM     24  C   UNL A   1      39.405  24.860  26.671  1.00  0.00     0.016 A 
ATOM     25  C   UNL A   1      41.510  25.044  28.508  1.00  0.00     0.010 A 
ATOM     26  C   UNL A   1      39.675  26.074  27.270  1.00  0.00     0.010 A 
ATOM     27  C   UNL A   1      40.680  26.137  28.234  1.00  0.00    -0.014 A 
BRANCH  27  28
ATOM     28  C   UNL A   1      40.931  27.357  28.977  1.00  0.00     0.031 A 
ATOM     29  C   UNL A   1      42.022  28.201  28.428  1.00  0.00     0.074 A 
ATOM     30  C   UNL A   1      40.177  27.730  30.028  1.00  0.00     0.049 A 
ATOM     31  N   UNL A   1      43.132  28.547  28.992  1.00  0.00    -0.248 NA
ATOM     32  C   UNL A   1      41.916  28.599  27.015  1.00  0.00     0.031 C 
ATOM     33  C   UNL A   1      38.913  27.150  30.491  1.00  0.00     0.029 A 
ATOM     34  N   UNL A   1      40.334  28.809  30.839  1.00  0.00    -0.354 N 
ATOM     35  C   UNL A   1      43.781  29.371  28.078  1.00  0.00     0.074 A 
ATOM     36  C   UNL A   1      43.069  29.241  26.833  1.00  0.00     0.031 C 
ATOM     37  C   UNL A   1      38.309  28.026  31.323  1.00  0.00     0.029 A 
ATOM     38  C   UNL A   1      39.192  29.162  31.537  1.00  0.00     0.049 A 
ATOM     39  H   UNL A   1      41.185  29.296  30.922  1.00  0.00     0.167 HD
ATOM     40  C   UNL A   1      44.735  30.263  28.461  1.00  0.00     0.037 A 
ATOM     41  C   UNL A   1      38.960  30.356  32.137  1.00  0.00     0.037 A 
ATOM     42  C   UNL A   1      45.282  29.936  29.752  1.00  0.00     0.049 A 
ATOM     43  C   UNL A   1      40.285  31.003  32.361  1.00  0.00     0.074 A 
ATOM     44  C   UNL A   1      45.927  28.828  30.269  1.00  0.00     0.029 A 
ATOM     45  N   UNL A   1      44.882  30.672  30.842  1.00  0.00    -0.354 N 
ATOM     46  N   UNL A   1      41.191  30.548  33.186  1.00  0.00    -0.248 NA
ATOM     47  C   UNL A   1      40.788  31.897  31.326  1.00  0.00     0.031 C 
ATOM     48  C   UNL A   1      45.438  28.705  31.602  1.00  0.00     0.029 A 
ATOM     49  C   UNL A   1      44.568  29.773  31.830  1.00  0.00     0.049 A 
ATOM     50  H   UNL A   1      44.831  31.654  30.902  1.00  0.00     0.167 HD
ATOM     51  C   UNL A   1      42.403  30.752  32.540  1.00  0.00     0.074 A 
ATOM     52  C   UNL A   1      42.099  31.664  31.441  1.00  0.00     0.031 C 
ATOM     53  C   UNL A   1      43.488  29.953  32.775  1.00  0.00     0.037 A 
BRANCH  40  54
ATOM     54  C   UNL A   1      44.927  31.610  27.810  1.00  0.00     0.058 A 
ATOM     55  C   UNL A   1      46.141  31.903  27.156  1.00  0.00     0.135 A 
ATOM     56  C   UNL A   1      44.079  32.715  28.047  1.00  0.00     0.135 A 
ATOM     57  F   UNL A   1      47.026  30.931  26.889  1.00  0.00    -0.206 F 
ATOM     58  C   UNL A   1      46.516  33.208  26.834  1.00  0.00     0.059 A 
ATOM     59  C   UNL A   1      44.407  34.014  27.682  1.00  0.00     0.059 A 
ATOM     60  F   UNL A   1      42.936  32.606  28.735  1.00  0.00    -0.206 F 
ATOM     61  C   UNL A   1      45.649  34.258  27.122  1.00  0.00     0.060 A 
BRANCH  61  62
ATOM     62  S   UNL A   1      46.183  35.956  26.842  1.00  0.00     0.124 S 
ATOM     63  O   UNL A   1      47.016  35.803  25.654  1.00  0.00    -0.237 OA
ATOM     64  O   UNL A   1      44.912  36.646  26.650  1.00  0.00    -0.237 OA
ATOM     65  O   UNL A   1      46.892  36.290  28.073  1.00  0.00    -0.744 OA
ENDBRANCH  61  62
ENDBRANCH  40  54
BRANCH  41  66
ATOM     66  C   UNL A   1      37.671  31.101  32.153  1.00  0.00     0.058 A 
ATOM     67  C   UNL A   1      37.099  31.551  33.355  1.00  0.00     0.135 A 
ATOM     68  C   UNL A   1      37.092  31.604  30.967  1.00  0.00     0.135 A 
ATOM     69  F   UNL A   1      37.604  31.155  34.532  1.00  0.00    -0.206 F 
ATOM     70  C   UNL A   1      36.038  32.466  33.379  1.00  0.00     0.059 A 
ATOM     71  C   UNL A   1      36.024  32.498  30.966  1.00  0.00     0.059 A 
ATOM     72  F   UNL A   1      37.602  31.314  29.761  1.00  0.00    -0.206 F 
ATOM     73  C   UNL A   1      35.516  32.944  32.177  1.00  0.00     0.060 A 
BRANCH  73  74
ATOM     74  S   UNL A   1      34.254  34.239  32.195  1.00  0.00     0.124 S 
ATOM     75  O   UNL A   1      33.276  33.692  33.129  1.00  0.00    -0.237 OA
ATOM     76  O   UNL A   1      35.007  35.396  32.663  1.00  0.00    -0.237 OA
ATOM     77  O   UNL A   1      33.816  34.304  30.803  1.00  0.00    -0.744 OA
ENDBRANCH  73  74
ENDBRANCH  41  66
BRANCH  53  78
ATOM     78  C   UNL A   1      43.449  28.998  33.942  1.00  0.00     0.058 A 
ATOM     79  C   UNL A   1      43.769  29.357  35.263  1.00  0.00     0.135 A 
ATOM     80  C   UNL A   1      42.898  27.722  33.743  1.00  0.00     0.135 A 
ATOM     81  F   UNL A   1      44.190  30.594  35.560  1.00  0.00    -0.206 F 
ATOM     82  C   UNL A   1      43.592  28.474  36.330  1.00  0.00     0.059 A 
ATOM     83  C   UNL A   1      42.682  26.836  34.797  1.00  0.00     0.059 A 
ATOM     84  F   UNL A   1      42.506  27.341  32.516  1.00  0.00    -0.206 F 
ATOM     85  C   UNL A   1      43.045  27.215  36.087  1.00  0.00     0.060 A 
BRANCH  85  86
ATOM     86  S   UNL A   1      42.739  26.109  37.482  1.00  0.00     0.124 S 
ATOM     87  O   UNL A   1      41.304  26.274  37.694  1.00  0.00    -0.237 OA
ATOM     88  O   UNL A   1      43.157  24.812  36.960  1.00  0.00    -0.237 OA
ATOM     89  O   UNL A   1      43.591  26.648  38.539  1.00  0.00    -0.744 OA
ENDBRANCH  85  86
ENDBRANCH  53  78
ENDBRANCH  27  28
ENDBRANCH  20  22
ENDBRANCH  19  20
ENDBRANCH   1  19
TORSDOF 15
ENDMDL
MODEL 2
REMARK VINA RESULT:     -11.0      2.619     11.395
REMARK SMILES Cc1c(C(=O)OCCOC(=O)c2ccc(-c3c4nc(c(-c5c(F)cc(S(=O)(=O)[O-])cc5F)c5ccc([nH]5)c(-c5c(F)cc(S(=O)(=O)[O-])cc5F)c5nc(c(-c6c(F)cc(S(=O)(=O)[O-])cc6F)c6ccc3[nH]6)C=C5)C=C4)cc2)cnn1[C@H]1CCS(=O)(=O)C1
REMARK SMILES IDX 8 1 7 2 6 3 4 4 5 5 3 6 1 7 2 8 80 9 78 10 79 11 81 12 82 13
REMARK SMILES IDX 87 14 83 15 84 16 85 17 86 18 9 19 10 20 11 21 12 22 13 23
REMARK SMILES IDX 77 24 14 25 76 26 15 27 16 28 17 29 70 30 18 31 75 32 69 33
REMARK SMILES IDX 71 34 19 35 74 36 68 37 67 38 20 40 54 41 33 42 53 43 34 44
REMARK SMILES IDX 37 45 52 46 72 47 35 48 36 49 51 51 73 52 38 53 21 54 22 55
REMARK SMILES IDX 31 56 23 57 24 58 30 59 32 60 25 61 26 62 27 63 28 64 29 65
REMARK SMILES IDX 55 66 56 67 65 68 57 69 58 70 64 71 66 72 59 73 60 74 61 75
REMARK SMILES IDX 62 76 63 77 39 78 40 79 49 80 41 81 42 82 48 83 50 84 43 85
REMARK SMILES IDX 44 86 45 87 46 88 47 89
REMARK H PARENT 71 39 37 50
REMARK Flexibility Score: inf
ROOT
ATOM      1  C   UNL A   1      33.466  33.440  27.889  1.00  0.00     0.275 C 
ENDROOT
BRANCH   1   2
ATOM      2  C   UNL A   1      33.334  34.765  28.634  1.00  0.00     0.275 C 
BRANCH   2   3
ATOM      3  O   UNL A   1      34.302  34.888  29.691  1.00  0.00    -0.458 OA
BRANCH   3   4
ATOM      4  C   UNL A   1      33.842  34.554  30.933  1.00  0.00     0.341 C 
ATOM      5  O   UNL A   1      32.745  34.900  31.369  1.00  0.00    -0.246 OA
BRANCH   4   6
ATOM      6  C   UNL A   1      34.754  33.703  31.679  1.00  0.00     0.100 A 
ATOM      7  C   UNL A   1      35.608  35.448  33.359  1.00  0.00     0.067 C 
ATOM      8  C   UNL A   1      35.592  34.101  32.723  1.00  0.00     0.050 A 
ATOM      9  N   UNL A   1      36.281  32.969  33.107  1.00  0.00    -0.265 N 
ATOM     10  C   UNL A   1      34.929  32.314  31.599  1.00  0.00     0.151 A 
ATOM     11  N   UNL A   1      35.879  31.870  32.421  1.00  0.00    -0.180 NA
BRANCH   9  12
ATOM     12  C   UNL A   1      37.353  32.733  34.066  1.00  0.00     0.123 C 
ATOM     13  C   UNL A   1      36.917  33.131  35.494  1.00  0.00     0.044 C 
ATOM     14  C   UNL A   1      37.892  31.320  34.214  1.00  0.00     0.164 C 
ATOM     15  C   UNL A   1      38.031  32.732  36.453  1.00  0.00     0.139 C 
ATOM     16  S   UNL A   1      38.867  31.358  35.694  1.00  0.00     0.152 S 
ATOM     17  O   UNL A   1      40.213  31.770  35.354  1.00  0.00    -0.229 OA
ATOM     18  O   UNL A   1      38.591  30.161  36.459  1.00  0.00    -0.229 OA
ENDBRANCH   9  12
ENDBRANCH   4   6
ENDBRANCH   3   4
ENDBRANCH   2   3
ENDBRANCH   1   2
BRANCH   1  19
ATOM     19  O   UNL A   1      34.789  32.902  27.939  1.00  0.00    -0.458 OA
BRANCH  19  20
ATOM     20  C   UNL A   1      34.845  31.565  27.750  1.00  0.00     0.338 C 
ATOM     21  O   UNL A   1      33.995  30.871  27.216  1.00  0.00    -0.246 OA
BRANCH  20  22
ATOM     22  C   UNL A   1      35.991  30.996  28.468  1.00  0.00     0.060 A 
ATOM     23  C   UNL A   1      37.001  31.884  28.850  1.00  0.00     0.016 A 
ATOM     24  C   UNL A   1      36.174  29.607  28.525  1.00  0.00     0.016 A 
ATOM     25  C   UNL A   1      38.246  31.381  29.160  1.00  0.00     0.010 A 
ATOM     26  C   UNL A   1      37.422  29.105  28.837  1.00  0.00     0.010 A 
ATOM     27  C   UNL A   1      38.462  30.000  29.083  1.00  0.00    -0.014 A 
BRANCH  27  28
ATOM     28  C   UNL A   1      39.817  29.533  29.305  1.00  0.00     0.031 A 
ATOM     29  C   UNL A   1      40.183  29.356  30.732  1.00  0.00     0.074 A 
ATOM     30  C   UNL A   1      40.642  29.206  28.292  1.00  0.00     0.049 A 
ATOM     31  N   UNL A   1      41.108  29.958  31.404  1.00  0.00    -0.248 NA
ATOM     32  C   UNL A   1      39.316  28.489  31.546  1.00  0.00     0.031 C 
ATOM     33  C   UNL A   1      40.320  29.059  26.870  1.00  0.00     0.029 A 
ATOM     34  N   UNL A   1      41.940  28.811  28.356  1.00  0.00    -0.354 N 
ATOM     35  C   UNL A   1      41.070  29.405  32.682  1.00  0.00     0.074 A 
ATOM     36  C   UNL A   1      39.859  28.630  32.754  1.00  0.00     0.031 C 
ATOM     37  C   UNL A   1      41.317  28.374  26.265  1.00  0.00     0.029 A 
ATOM     38  C   UNL A   1      42.383  28.143  27.226  1.00  0.00     0.049 A 
ATOM     39  H   UNL A   1      42.514  28.984  29.136  1.00  0.00     0.167 HD
ATOM     40  C   UNL A   1      42.140  29.453  33.521  1.00  0.00     0.037 A 
ATOM     41  C   UNL A   1      43.488  27.361  27.143  1.00  0.00     0.037 A 
ATOM     42  C   UNL A   1      43.072  30.481  33.137  1.00  0.00     0.049 A 
ATOM     43  C   UNL A   1      44.388  27.746  28.269  1.00  0.00     0.074 A 
ATOM     44  C   UNL A   1      42.977  31.850  32.969  1.00  0.00     0.029 A 
ATOM     45  N   UNL A   1      44.234  30.111  32.502  1.00  0.00    -0.354 N 
ATOM     46  N   UNL A   1      44.983  28.905  28.365  1.00  0.00    -0.248 NA
ATOM     47  C   UNL A   1      44.261  27.012  29.521  1.00  0.00     0.031 C 
ATOM     48  C   UNL A   1      43.793  32.141  31.837  1.00  0.00     0.029 A 
ATOM     49  C   UNL A   1      44.372  30.942  31.418  1.00  0.00     0.049 A 
ATOM     50  H   UNL A   1      44.849  29.391  32.773  1.00  0.00     0.167 HD
ATOM     51  C   UNL A   1      44.928  29.228  29.715  1.00  0.00     0.074 A 
ATOM     52  C   UNL A   1      44.552  27.988  30.386  1.00  0.00     0.031 C 
ATOM     53  C   UNL A   1      44.916  30.527  30.144  1.00  0.00     0.037 A 
BRANCH  40  54
ATOM     54  C   UNL A   1      42.492  28.350  34.487  1.00  0.00     0.058 A 
ATOM     55  C   UNL A   1      42.675  28.649  35.852  1.00  0.00     0.135 A 
ATOM     56  C   UNL A   1      42.933  27.071  34.078  1.00  0.00     0.135 A 
ATOM     57  F   UNL A   1      42.302  29.839  36.348  1.00  0.00    -0.206 F 
ATOM     58  C   UNL A   1      43.318  27.772  36.727  1.00  0.00     0.059 A 
ATOM     59  C   UNL A   1      43.522  26.160  34.944  1.00  0.00     0.059 A 
ATOM     60  F   UNL A   1      42.907  26.680  32.798  1.00  0.00    -0.206 F 
ATOM     61  C   UNL A   1      43.756  26.537  36.255  1.00  0.00     0.060 A 
BRANCH  61  62
ATOM     62  S   UNL A   1      44.713  25.460  37.337  1.00  0.00     0.124 S 
ATOM     63  O   UNL A   1      44.070  25.702  38.624  1.00  0.00    -0.237 OA
ATOM     64  O   UNL A   1      44.482  24.149  36.740  1.00  0.00    -0.237 OA
ATOM     65  O   UNL A   1      46.072  25.974  37.202  1.00  0.00    -0.744 OA
ENDBRANCH  61  62
ENDBRANCH  40  54
BRANCH  41  66
ATOM     66  C   UNL A   1      43.605  26.074  26.403  1.00  0.00     0.058 A 
ATOM     67  C   UNL A   1      44.623  25.862  25.459  1.00  0.00     0.135 A 
ATOM     68  C   UNL A   1      42.868  24.931  26.783  1.00  0.00     0.135 A 
ATOM     69  F   UNL A   1      45.398  26.882  25.063  1.00  0.00    -0.206 F 
ATOM     70  C   UNL A   1      44.912  24.590  24.945  1.00  0.00     0.059 A 
ATOM     71  C   UNL A   1      43.123  23.661  26.272  1.00  0.00     0.059 A 
ATOM     72  F   UNL A   1      41.928  24.990  27.738  1.00  0.00    -0.206 F 
ATOM     73  C   UNL A   1      44.163  23.492  25.370  1.00  0.00     0.060 A 
BRANCH  73  74
ATOM     74  S   UNL A   1      44.623  21.828  24.835  1.00  0.00     0.124 S 
ATOM     75  O   UNL A   1      45.915  21.648  25.488  1.00  0.00    -0.237 OA
ATOM     76  O   UNL A   1      43.524  21.023  25.358  1.00  0.00    -0.237 OA
ATOM     77  O   UNL A   1      44.670  21.941  23.379  1.00  0.00    -0.744 OA
ENDBRANCH  73  74
ENDBRANCH  41  66
BRANCH  53  78
ATOM     78  C   UNL A   1      45.229  31.623  29.157  1.00  0.00     0.058 A 
ATOM     79  C   UNL A   1      46.525  32.102  28.898  1.00  0.00     0.135 A 
ATOM     80  C   UNL A   1      44.201  32.079  28.316  1.00  0.00     0.135 A 
ATOM     81  F   UNL A   1      47.583  31.634  29.574  1.00  0.00    -0.206 F 
ATOM     82  C   UNL A   1      46.780  33.026  27.882  1.00  0.00     0.059 A 
ATOM     83  C   UNL A   1      44.437  32.974  27.275  1.00  0.00     0.059 A 
ATOM     84  F   UNL A   1      42.951  31.607  28.465  1.00  0.00    -0.206 F 
ATOM     85  C   UNL A   1      45.728  33.455  27.073  1.00  0.00     0.060 A 
BRANCH  85  86
ATOM     86  S   UNL A   1      46.078  34.582  25.706  1.00  0.00     0.124 S 
ATOM     87  O   UNL A   1      47.473  34.275  25.406  1.00  0.00    -0.237 OA
ATOM     88  O   UNL A   1      45.108  34.170  24.696  1.00  0.00    -0.237 OA
ATOM     89  O   UNL A   1      45.840  35.902  26.283  1.00  0.00    -0.744 OA
ENDBRANCH  85  86
ENDBRANCH  53  78
ENDBRANCH  27  28
ENDBRANCH  20  22
ENDBRANCH  19  20
ENDBRANCH   1  19
TORSDOF 15
ENDMDL
MODEL 3
REMARK VINA RESULT:     -10.8      3.570      5.719
REMARK SMILES Cc1c(C(=O)OCCOC(=O)c2ccc(-c3c4nc(c(-c5c(F)cc(S(=O)(=O)[O-])cc5F)c5ccc([nH]5)c(-c5c(F)cc(S(=O)(=O)[O-])cc5F)c5nc(c(-c6c(F)cc(S(=O)(=O)[O-])cc6F)c6ccc3[nH]6)C=C5)C=C4)cc2)cnn1[C@H]1CCS(=O)(=O)C1
REMARK SMILES IDX 8 1 7 2 6 3 4 4 5 5 3 6 1 7 2 8 80 9 78 10 79 11 81 12 82 13
REMARK SMILES IDX 87 14 83 15 84 16 85 17 86 18 9 19 10 20 11 21 12 22 13 23
REMARK SMILES IDX 77 24 14 25 76 26 15 27 16 28 17 29 70 30 18 31 75 32 69 33
REMARK SMILES IDX 71 34 19 35 74 36 68 37 67 38 20 40 54 41 33 42 53 43 34 44
REMARK SMILES IDX 37 45 52 46 72 47 35 48 36 49 51 51 73 52 38 53 21 54 22 55
REMARK SMILES IDX 31 56 23 57 24 58 30 59 32 60 25 61 26 62 27 63 28 64 29 65
REMARK SMILES IDX 55 66 56 67 65 68 57 69 58 70 64 71 66 72 59 73 60 74 61 75
REMARK SMILES IDX 62 76 63 77 39 78 40 79 49 80 41 81 42 82 48 83 50 84 43 85
REMARK SMILES IDX 44 86 45 87 46 88 47 89
REMARK H PARENT 71 39 37 50
REMARK Flexibility Score: inf
ROOT
ATOM      1  C   UNL A   1      38.315  21.136  25.219  1.00  0.00     0.275 C 
ENDROOT
BRANCH   1   2
ATOM      2  C   UNL A   1      36.828  20.817  25.101  1.00  0.00     0.275 C 
BRANCH   2   3
ATOM      3  O   UNL A   1      36.123  21.808  24.333  1.00  0.00    -0.458 OA
BRANCH   3   4
ATOM      4  C   UNL A   1      34.761  21.742  24.424  1.00  0.00     0.341 C 
ATOM      5  O   UNL A   1      34.159  20.820  24.972  1.00  0.00    -0.246 OA
BRANCH   4   6
ATOM      6  C   UNL A   1      34.086  22.895  23.853  1.00  0.00     0.100 A 
ATOM      7  C   UNL A   1      34.621  24.598  25.700  1.00  0.00     0.067 C 
ATOM      8  C   UNL A   1      33.964  24.158  24.438  1.00  0.00     0.050 A 
ATOM      9  N   UNL A   1      33.233  24.917  23.548  1.00  0.00    -0.265 N 
ATOM     10  C   UNL A   1      33.507  23.039  22.584  1.00  0.00     0.151 A 
ATOM     11  N   UNL A   1      32.950  24.236  22.409  1.00  0.00    -0.180 NA
BRANCH   9  12
ATOM     12  C   UNL A   1      32.694  26.270  23.601  1.00  0.00     0.123 C 
ATOM     13  C   UNL A   1      33.464  27.212  22.648  1.00  0.00     0.044 C 
ATOM     14  C   UNL A   1      31.233  26.481  23.243  1.00  0.00     0.164 C 
ATOM     15  C   UNL A   1      32.763  28.564  22.656  1.00  0.00     0.139 C 
ATOM     16  S   UNL A   1      31.060  28.235  23.049  1.00  0.00     0.152 S 
ATOM     17  O   UNL A   1      30.765  28.820  24.340  1.00  0.00    -0.229 OA
ATOM     18  O   UNL A   1      30.251  28.491  21.877  1.00  0.00    -0.229 OA
ENDBRANCH   9  12
ENDBRANCH   4   6
ENDBRANCH   3   4
ENDBRANCH   2   3
ENDBRANCH   1   2
BRANCH   1  19
ATOM     19  O   UNL A   1      38.567  22.395  25.848  1.00  0.00    -0.458 OA
BRANCH  19  20
ATOM     20  C   UNL A   1      39.614  22.380  26.704  1.00  0.00     0.338 C 
ATOM     21  O   UNL A   1      40.028  21.418  27.329  1.00  0.00    -0.246 OA
BRANCH  20  22
ATOM     22  C   UNL A   1      40.082  23.747  26.960  1.00  0.00     0.060 A 
ATOM     23  C   UNL A   1      41.252  23.883  27.714  1.00  0.00     0.016 A 
ATOM     24  C   UNL A   1      39.251  24.844  26.691  1.00  0.00     0.016 A 
ATOM     25  C   UNL A   1      41.520  25.095  28.313  1.00  0.00     0.010 A 
ATOM     26  C   UNL A   1      39.522  26.057  27.292  1.00  0.00     0.010 A 
ATOM     27  C   UNL A   1      40.615  26.150  28.151  1.00  0.00    -0.014 A 
BRANCH  27  28
ATOM     28  C   UNL A   1      40.882  27.365  28.897  1.00  0.00     0.031 A 
ATOM     29  C   UNL A   1      41.986  28.194  28.351  1.00  0.00     0.074 A 
ATOM     30  C   UNL A   1      40.131  27.748  29.946  1.00  0.00     0.049 A 
ATOM     31  N   UNL A   1      43.099  28.523  28.918  1.00  0.00    -0.248 NA
ATOM     32  C   UNL A   1      41.889  28.595  26.938  1.00  0.00     0.031 C 
ATOM     33  C   UNL A   1      38.858  27.185  30.405  1.00  0.00     0.029 A 
ATOM     34  N   UNL A   1      40.302  28.823  30.758  1.00  0.00    -0.354 N 
ATOM     35  C   UNL A   1      43.763  29.340  28.006  1.00  0.00     0.074 A 
ATOM     36  C   UNL A   1      43.052  29.221  26.760  1.00  0.00     0.031 C 
ATOM     37  C   UNL A   1      38.264  28.069  31.238  1.00  0.00     0.029 A 
ATOM     38  C   UNL A   1      39.163  29.191  31.455  1.00  0.00     0.049 A 
ATOM     39  H   UNL A   1      41.159  29.298  30.844  1.00  0.00     0.167 HD
ATOM     40  C   UNL A   1      44.728  30.218  28.393  1.00  0.00     0.037 A 
ATOM     41  C   UNL A   1      38.947  30.388  32.056  1.00  0.00     0.037 A 
ATOM     42  C   UNL A   1      45.267  29.881  29.684  1.00  0.00     0.049 A 
ATOM     43  C   UNL A   1      40.281  31.016  32.283  1.00  0.00     0.074 A 
ATOM     44  C   UNL A   1      45.895  28.763  30.202  1.00  0.00     0.029 A 
ATOM     45  N   UNL A   1      44.875  30.621  30.774  1.00  0.00    -0.354 N 
ATOM     46  N   UNL A   1      41.178  30.547  33.110  1.00  0.00    -0.248 NA
ATOM     47  C   UNL A   1      40.798  31.904  31.251  1.00  0.00     0.031 C 
ATOM     48  C   UNL A   1      45.402  28.646  31.533  1.00  0.00     0.029 A 
ATOM     49  C   UNL A   1      44.547  29.726  31.761  1.00  0.00     0.049 A 
ATOM     50  H   UNL A   1      44.838  31.604  30.836  1.00  0.00     0.167 HD
ATOM     51  C   UNL A   1      42.394  30.734  32.467  1.00  0.00     0.074 A 
ATOM     52  C   UNL A   1      42.105  31.652  31.369  1.00  0.00     0.031 C 
ATOM     53  C   UNL A   1      43.467  29.919  32.703  1.00  0.00     0.037 A 
BRANCH  40  54
ATOM     54  C   UNL A   1      44.940  31.562  27.743  1.00  0.00     0.058 A 
ATOM     55  C   UNL A   1      46.156  31.836  27.086  1.00  0.00     0.135 A 
ATOM     56  C   UNL A   1      44.112  32.682  27.986  1.00  0.00     0.135 A 
ATOM     57  F   UNL A   1      47.024  30.850  26.813  1.00  0.00    -0.206 F 
ATOM     58  C   UNL A   1      46.553  33.135  26.765  1.00  0.00     0.059 A 
ATOM     59  C   UNL A   1      44.461  33.975  27.623  1.00  0.00     0.059 A 
ATOM     60  F   UNL A   1      42.970  32.590  28.679  1.00  0.00    -0.206 F 
ATOM     61  C   UNL A   1      45.705  34.200  27.058  1.00  0.00     0.060 A 
BRANCH  61  62
ATOM     62  S   UNL A   1      46.267  35.888  26.780  1.00  0.00     0.124 S 
ATOM     63  O   UNL A   1      46.759  35.805  25.409  1.00  0.00    -0.237 OA
ATOM     64  O   UNL A   1      45.040  36.653  26.977  1.00  0.00    -0.237 OA
ATOM     65  O   UNL A   1      47.287  36.074  27.808  1.00  0.00    -0.744 OA
ENDBRANCH  61  62
ENDBRANCH  40  54
BRANCH  41  66
ATOM     66  C   UNL A   1      37.668  31.151  32.070  1.00  0.00     0.058 A 
ATOM     67  C   UNL A   1      37.066  31.551  33.275  1.00  0.00     0.135 A 
ATOM     68  C   UNL A   1      37.133  31.720  30.894  1.00  0.00     0.135 A 
ATOM     69  F   UNL A   1      37.530  31.090  34.445  1.00  0.00    -0.206 F 
ATOM     70  C   UNL A   1      36.018  32.480  33.313  1.00  0.00     0.059 A 
ATOM     71  C   UNL A   1      36.078  32.630  30.905  1.00  0.00     0.059 A 
ATOM     72  F   UNL A   1      37.676  31.481  29.691  1.00  0.00    -0.206 F 
ATOM     73  C   UNL A   1      35.540  33.024  32.120  1.00  0.00     0.060 A 
BRANCH  73  74
ATOM     74  S   UNL A   1      34.296  34.336  32.164  1.00  0.00     0.124 S 
ATOM     75  O   UNL A   1      35.082  35.482  32.607  1.00  0.00    -0.237 OA
ATOM     76  O   UNL A   1      33.837  34.371  30.780  1.00  0.00    -0.237 OA
ATOM     77  O   UNL A   1      33.317  33.841  33.130  1.00  0.00    -0.744 OA
ENDBRANCH  73  74
ENDBRANCH  41  66
BRANCH  53  78
ATOM     78  C   UNL A   1      43.412  28.964  33.869  1.00  0.00     0.058 A 
ATOM     79  C   UNL A   1      43.769  29.307  35.185  1.00  0.00     0.135 A 
ATOM     80  C   UNL A   1      42.808  27.711  33.678  1.00  0.00     0.135 A 
ATOM     81  F   UNL A   1      44.243  30.526  35.476  1.00  0.00    -0.206 F 
ATOM     82  C   UNL A   1      43.578  28.428  36.253  1.00  0.00     0.059 A 
ATOM     83  C   UNL A   1      42.576  26.832  34.734  1.00  0.00     0.059 A 
ATOM     84  F   UNL A   1      42.380  27.349  32.457  1.00  0.00    -0.206 F 
ATOM     85  C   UNL A   1      42.978  27.192  36.018  1.00  0.00     0.060 A 
BRANCH  85  86
ATOM     86  S   UNL A   1      42.654  26.095  37.416  1.00  0.00     0.124 S 
ATOM     87  O   UNL A   1      43.589  26.595  38.419  1.00  0.00    -0.237 OA
ATOM     88  O   UNL A   1      41.241  26.337  37.691  1.00  0.00    -0.237 OA
ATOM     89  O   UNL A   1      42.957  24.768  36.886  1.00  0.00    -0.744 OA
ENDBRANCH  85  86
ENDBRANCH  53  78
ENDBRANCH  27  28
ENDBRANCH  20  22
ENDBRANCH  19  20
ENDBRANCH   1  19
TORSDOF 15
ENDMDL
