MODEL 1
REMARK VINA RESULT:     -10.6      0.000      0.000
REMARK SMILES O=C(CCc1nc(-c2ccccc2)c(-c2ccccc2)o1)OCCOC(=O)c1ccc(-c2c3nc(c(-c4c(F)cc(S(=O)(=O)[O-])cc4F)c4ccc([nH]4)c(-c4c(F)cc(S(=O)(=O)[O-])cc4F)c4nc(c(-c5c(F)cc(S(=O)(=O)[O-])cc5F)c5ccc2[nH]5)C=C4)C=C3)cc1
REMARK SMILES IDX 23 1 22 2 2 3 1 4 3 5 4 6 5 7 6 8 21 9 7 10 14 11 8 12 9 13
REMARK SMILES IDX 13 14 10 15 12 16 11 17 15 18 16 19 20 20 17 21 19 22 18 23
REMARK SMILES IDX 24 24 25 25 26 26 27 27 28 28 29 29 93 30 30 31 92 32 31 33
REMARK SMILES IDX 32 34 33 35 86 36 34 37 91 38 85 39 87 40 35 41 90 42 84 43
REMARK SMILES IDX 83 44 36 46 70 47 49 48 69 49 50 50 53 51 68 52 88 53 51 54
REMARK SMILES IDX 52 55 67 57 89 58 54 59 37 60 38 61 47 62 39 63 40 64 46 65
REMARK SMILES IDX 48 66 41 67 42 68 43 69 44 70 45 71 71 72 72 73 81 74 73 75
REMARK SMILES IDX 74 76 80 77 82 78 75 79 76 80 77 81 78 82 79 83 55 84 56 85
REMARK SMILES IDX 65 86 57 87 58 88 64 89 66 90 59 91 60 92 61 93 62 94 63 95
REMARK H PARENT 87 45 53 56
REMARK Flexibility Score: inf
ROOT
ATOM      1  C   UNL A   1      43.528  22.604  24.793  1.00  0.00     0.274 C 
ENDROOT
BRANCH   1   2
ATOM      2  O   UNL A   1      43.766  21.619  25.813  1.00  0.00    -0.462 OA
BRANCH   2   3
ATOM      3  C   UNL A   1      43.274  20.355  25.728  1.00  0.00     0.306 C 
ATOM      4  O   UNL A   1      43.527  19.653  24.753  1.00  0.00    -0.252 OA
BRANCH   3   5
ATOM      5  C   UNL A   1      42.295  19.896  26.790  1.00  0.00     0.132 C 
BRANCH   5   6
ATOM      6  C   UNL A   1      40.859  19.819  26.282  1.00  0.00     0.109 C 
BRANCH   6   7
ATOM      7  C   UNL A   1      40.152  21.110  26.479  1.00  0.00     0.196 A 
ATOM      8  N   UNL A   1      40.659  22.241  26.917  1.00  0.00    -0.213 NA
ATOM      9  O   UNL A   1      38.878  21.212  25.969  1.00  0.00    -0.440 OA
ATOM     10  C   UNL A   1      39.674  23.160  26.670  1.00  0.00     0.117 A 
ATOM     11  C   UNL A   1      38.600  22.556  26.044  1.00  0.00     0.162 A 
BRANCH  10  12
ATOM     12  C   UNL A   1      39.823  24.573  26.908  1.00  0.00     0.004 A 
ATOM     13  C   UNL A   1      39.141  25.192  27.963  1.00  0.00     0.010 A 
ATOM     14  C   UNL A   1      40.628  25.337  26.057  1.00  0.00     0.010 A 
ATOM     15  C   UNL A   1      39.254  26.568  28.155  1.00  0.00     0.001 A 
ATOM     16  C   UNL A   1      40.729  26.715  26.244  1.00  0.00     0.001 A 
ATOM     17  C   UNL A   1      40.043  27.329  27.292  1.00  0.00     0.000 A 
ENDBRANCH  10  12
BRANCH  11  18
ATOM     18  C   UNL A   1      37.417  23.037  25.349  1.00  0.00     0.020 A 
ATOM     19  C   UNL A   1      37.147  22.685  24.024  1.00  0.00     0.012 A 
ATOM     20  C   UNL A   1      36.500  23.857  26.030  1.00  0.00     0.012 A 
ATOM     21  C   UNL A   1      35.963  23.107  23.410  1.00  0.00     0.001 A 
ATOM     22  C   UNL A   1      35.323  24.285  25.416  1.00  0.00     0.001 A 
ATOM     23  C   UNL A   1      35.050  23.899  24.108  1.00  0.00     0.000 A 
ENDBRANCH  11  18
ENDBRANCH   6   7
ENDBRANCH   5   6
ENDBRANCH   3   5
ENDBRANCH   2   3
ENDBRANCH   1   2
BRANCH   1  24
ATOM     24  C   UNL A   1      43.965  24.018  25.175  1.00  0.00     0.275 C 
BRANCH  24  25
ATOM     25  O   UNL A   1      43.827  24.236  26.585  1.00  0.00    -0.458 OA
BRANCH  25  26
ATOM     26  C   UNL A   1      44.595  25.253  27.050  1.00  0.00     0.338 C 
ATOM     27  O   UNL A   1      45.703  25.568  26.649  1.00  0.00    -0.246 OA
BRANCH  26  28
ATOM     28  C   UNL A   1      43.824  26.060  28.017  1.00  0.00     0.060 A 
ATOM     29  C   UNL A   1      44.009  27.445  27.980  1.00  0.00     0.016 A 
ATOM     30  C   UNL A   1      42.965  25.484  28.960  1.00  0.00     0.016 A 
ATOM     31  C   UNL A   1      43.390  28.253  28.930  1.00  0.00     0.010 A 
ATOM     32  C   UNL A   1      42.338  26.299  29.908  1.00  0.00     0.010 A 
ATOM     33  C   UNL A   1      42.583  27.683  29.924  1.00  0.00    -0.014 A 
BRANCH  33  34
ATOM     34  C   UNL A   1      42.121  28.538  31.044  1.00  0.00     0.031 A 
ATOM     35  C   UNL A   1      42.883  28.526  32.342  1.00  0.00     0.074 A 
ATOM     36  C   UNL A   1      41.082  29.378  30.878  1.00  0.00     0.049 A 
ATOM     37  N   UNL A   1      42.721  29.270  33.405  1.00  0.00    -0.248 NA
ATOM     38  C   UNL A   1      43.976  27.546  32.457  1.00  0.00     0.031 C 
ATOM     39  C   UNL A   1      40.265  29.483  29.670  1.00  0.00     0.029 A 
ATOM     40  N   UNL A   1      40.544  30.308  31.730  1.00  0.00    -0.354 N 
ATOM     41  C   UNL A   1      43.703  28.870  34.302  1.00  0.00     0.074 A 
ATOM     42  C   UNL A   1      44.419  27.776  33.684  1.00  0.00     0.031 C 
ATOM     43  C   UNL A   1      39.328  30.427  29.858  1.00  0.00     0.029 A 
ATOM     44  C   UNL A   1      39.474  30.988  31.200  1.00  0.00     0.049 A 
ATOM     45  H   UNL A   1      40.892  30.476  32.636  1.00  0.00     0.167 HD
ATOM     46  C   UNL A   1      44.001  29.384  35.520  1.00  0.00     0.037 A 
ATOM     47  C   UNL A   1      38.701  31.954  31.736  1.00  0.00     0.037 A 
ATOM     48  C   UNL A   1      43.279  30.464  36.141  1.00  0.00     0.049 A 
ATOM     49  C   UNL A   1      39.026  32.481  33.110  1.00  0.00     0.074 A 
ATOM     50  C   UNL A   1      43.506  31.056  37.372  1.00  0.00     0.029 A 
ATOM     51  N   UNL A   1      42.187  31.113  35.582  1.00  0.00    -0.354 N 
ATOM     52  N   UNL A   1      39.989  32.122  33.928  1.00  0.00    -0.248 NA
ATOM     53  C   UNL A   1      38.172  33.559  33.626  1.00  0.00     0.031 C 
ATOM     54  C   UNL A   1      42.526  32.036  37.575  1.00  0.00     0.029 A 
ATOM     55  C   UNL A   1      41.719  32.086  36.450  1.00  0.00     0.049 A 
ATOM     56  H   UNL A   1      41.803  30.911  34.699  1.00  0.00     0.167 HD
ATOM     57  C   UNL A   1      39.865  32.944  35.045  1.00  0.00     0.074 A 
ATOM     58  C   UNL A   1      38.753  33.833  34.786  1.00  0.00     0.031 C 
ATOM     59  C   UNL A   1      40.603  32.959  36.183  1.00  0.00     0.037 A 
BRANCH  46  60
ATOM     60  C   UNL A   1      45.165  28.784  36.261  1.00  0.00     0.058 A 
ATOM     61  C   UNL A   1      46.465  29.294  36.115  1.00  0.00     0.135 A 
ATOM     62  C   UNL A   1      44.974  27.721  37.157  1.00  0.00     0.135 A 
ATOM     63  F   UNL A   1      46.705  30.298  35.255  1.00  0.00    -0.206 F 
ATOM     64  C   UNL A   1      47.539  28.759  36.817  1.00  0.00     0.059 A 
ATOM     65  C   UNL A   1      46.031  27.186  37.889  1.00  0.00     0.059 A 
ATOM     66  F   UNL A   1      43.753  27.193  37.331  1.00  0.00    -0.206 F 
ATOM     67  C   UNL A   1      47.311  27.706  37.704  1.00  0.00     0.060 A 
BRANCH  67  68
ATOM     68  S   UNL A   1      48.714  27.034  38.621  1.00  0.00     0.124 S 
ATOM     69  O   UNL A   1      49.369  26.222  37.600  1.00  0.00    -0.237 OA
ATOM     70  O   UNL A   1      49.429  28.240  39.026  1.00  0.00    -0.237 OA
ATOM     71  O   UNL A   1      48.085  26.288  39.707  1.00  0.00    -0.744 OA
ENDBRANCH  67  68
ENDBRANCH  46  60
BRANCH  47  72
ATOM     72  C   UNL A   1      37.541  32.488  30.974  1.00  0.00     0.058 A 
ATOM     73  C   UNL A   1      37.703  33.474  29.989  1.00  0.00     0.135 A 
ATOM     74  C   UNL A   1      36.241  32.033  31.235  1.00  0.00     0.135 A 
ATOM     75  F   UNL A   1      38.926  33.949  29.710  1.00  0.00    -0.206 F 
ATOM     76  C   UNL A   1      36.613  34.011  29.311  1.00  0.00     0.059 A 
ATOM     77  C   UNL A   1      35.138  32.534  30.551  1.00  0.00     0.059 A 
ATOM     78  F   UNL A   1      36.034  31.079  32.158  1.00  0.00    -0.206 F 
ATOM     79  C   UNL A   1      35.332  33.535  29.602  1.00  0.00     0.060 A 
BRANCH  79  80
ATOM     80  S   UNL A   1      33.925  34.217  28.700  1.00  0.00     0.124 S 
ATOM     81  O   UNL A   1      33.496  33.066  27.913  1.00  0.00    -0.237 OA
ATOM     82  O   UNL A   1      33.032  34.621  29.780  1.00  0.00    -0.237 OA
ATOM     83  O   UNL A   1      34.516  35.316  27.940  1.00  0.00    -0.744 OA
ENDBRANCH  79  80
ENDBRANCH  47  72
BRANCH  59  84
ATOM     84  C   UNL A   1      40.238  33.982  37.225  1.00  0.00     0.058 A 
ATOM     85  C   UNL A   1      40.848  35.247  37.262  1.00  0.00     0.135 A 
ATOM     86  C   UNL A   1      39.258  33.700  38.191  1.00  0.00     0.135 A 
ATOM     87  F   UNL A   1      41.792  35.567  36.363  1.00  0.00    -0.206 F 
ATOM     88  C   UNL A   1      40.533  36.178  38.246  1.00  0.00     0.059 A 
ATOM     89  C   UNL A   1      38.906  34.628  39.167  1.00  0.00     0.059 A 
ATOM     90  F   UNL A   1      38.631  32.514  38.193  1.00  0.00    -0.206 F 
ATOM     91  C   UNL A   1      39.565  35.857  39.199  1.00  0.00     0.060 A 
BRANCH  91  92
ATOM     92  S   UNL A   1      39.170  37.070  40.478  1.00  0.00     0.124 S 
ATOM     93  O   UNL A   1      38.412  36.260  41.425  1.00  0.00    -0.237 OA
ATOM     94  O   UNL A   1      40.493  37.496  40.926  1.00  0.00    -0.237 OA
ATOM     95  O   UNL A   1      38.403  38.082  39.759  1.00  0.00    -0.744 OA
ENDBRANCH  91  92
ENDBRANCH  59  84
ENDBRANCH  33  34
ENDBRANCH  26  28
ENDBRANCH  25  26
ENDBRANCH  24  25
ENDBRANCH   1  24
TORSDOF 18
ENDMDL
MODEL 2
REMARK VINA RESULT:     -10.5      3.326     11.385
REMARK SMILES O=C(CCc1nc(-c2ccccc2)c(-c2ccccc2)o1)OCCOC(=O)c1ccc(-c2c3nc(c(-c4c(F)cc(S(=O)(=O)[O-])cc4F)c4ccc([nH]4)c(-c4c(F)cc(S(=O)(=O)[O-])cc4F)c4nc(c(-c5c(F)cc(S(=O)(=O)[O-])cc5F)c5ccc2[nH]5)C=C4)C=C3)cc1
REMARK SMILES IDX 23 1 22 2 2 3 1 4 3 5 4 6 5 7 6 8 21 9 7 10 14 11 8 12 9 13
REMARK SMILES IDX 13 14 10 15 12 16 11 17 15 18 16 19 20 20 17 21 19 22 18 23
REMARK SMILES IDX 24 24 25 25 26 26 27 27 28 28 29 29 93 30 30 31 92 32 31 33
REMARK SMILES IDX 32 34 33 35 86 36 34 37 91 38 85 39 87 40 35 41 90 42 84 43
REMARK SMILES IDX 83 44 36 46 70 47 49 48 69 49 50 50 53 51 68 52 88 53 51 54
REMARK SMILES IDX 52 55 67 57 89 58 54 59 37 60 38 61 47 62 39 63 40 64 46 65
REMARK SMILES IDX 48 66 41 67 42 68 43 69 44 70 45 71 71 72 72 73 81 74 73 75
REMARK SMILES IDX 74 76 80 77 82 78 75 79 76 80 77 81 78 82 79 83 55 84 56 85
REMARK SMILES IDX 65 86 57 87 58 88 64 89 66 90 59 91 60 92 61 93 62 94 63 95
REMARK H PARENT 87 45 53 56
REMARK Flexibility Score: inf
ROOT
ATOM      1  C   UNL A   1      34.219  33.997  29.088  1.00  0.00     0.274 C 
ENDROOT
BRANCH   1   2
ATOM      2  O   UNL A   1      33.193  34.483  29.972  1.00  0.00    -0.462 OA
BRANCH   2   3
ATOM      3  C   UNL A   1      32.929  35.808  30.116  1.00  0.00     0.306 C 
ATOM      4  O   UNL A   1      32.470  36.456  29.179  1.00  0.00    -0.252 OA
BRANCH   3   5
ATOM      5  C   UNL A   1      33.351  36.486  31.404  1.00  0.00     0.132 C 
BRANCH   5   6
ATOM      6  C   UNL A   1      33.277  35.562  32.614  1.00  0.00     0.109 C 
BRANCH   6   7
ATOM      7  C   UNL A   1      34.497  34.721  32.721  1.00  0.00     0.196 A 
ATOM      8  N   UNL A   1      34.561  33.438  32.999  1.00  0.00    -0.213 NA
ATOM      9  O   UNL A   1      35.682  35.275  32.296  1.00  0.00    -0.440 OA
ATOM     10  C   UNL A   1      35.862  33.107  32.726  1.00  0.00     0.117 A 
ATOM     11  C   UNL A   1      36.546  34.208  32.246  1.00  0.00     0.162 A 
BRANCH  10  12
ATOM     12  C   UNL A   1      36.376  31.763  32.800  1.00  0.00     0.004 A 
ATOM     13  C   UNL A   1      37.170  31.365  33.883  1.00  0.00     0.010 A 
ATOM     14  C   UNL A   1      36.110  30.862  31.764  1.00  0.00     0.010 A 
ATOM     15  C   UNL A   1      37.702  30.077  33.921  1.00  0.00     0.001 A 
ATOM     16  C   UNL A   1      36.654  29.579  31.799  1.00  0.00     0.001 A 
ATOM     17  C   UNL A   1      37.449  29.188  32.876  1.00  0.00     0.000 A 
ENDBRANCH  10  12
BRANCH  11  18
ATOM     18  C   UNL A   1      37.827  34.411  31.590  1.00  0.00     0.020 A 
ATOM     19  C   UNL A   1      39.012  34.551  32.316  1.00  0.00     0.012 A 
ATOM     20  C   UNL A   1      37.888  34.440  30.185  1.00  0.00     0.012 A 
ATOM     21  C   UNL A   1      40.236  34.673  31.651  1.00  0.00     0.001 A 
ATOM     22  C   UNL A   1      39.108  34.569  29.521  1.00  0.00     0.001 A 
ATOM     23  C   UNL A   1      40.284  34.674  30.256  1.00  0.00     0.000 A 
ENDBRANCH  11  18
ENDBRANCH   6   7
ENDBRANCH   5   6
ENDBRANCH   3   5
ENDBRANCH   2   3
ENDBRANCH   1   2
BRANCH   1  24
ATOM     24  C   UNL A   1      33.823  32.751  28.296  1.00  0.00     0.275 C 
BRANCH  24  25
ATOM     25  O   UNL A   1      34.924  32.265  27.518  1.00  0.00    -0.458 OA
BRANCH  25  26
ATOM     26  C   UNL A   1      35.042  30.913  27.537  1.00  0.00     0.338 C 
ATOM     27  O   UNL A   1      34.211  30.108  27.151  1.00  0.00    -0.246 OA
BRANCH  26  28
ATOM     28  C   UNL A   1      36.411  30.536  27.938  1.00  0.00     0.060 A 
ATOM     29  C   UNL A   1      36.707  29.170  27.983  1.00  0.00     0.016 A 
ATOM     30  C   UNL A   1      37.378  31.483  28.293  1.00  0.00     0.016 A 
ATOM     31  C   UNL A   1      37.947  28.744  28.450  1.00  0.00     0.010 A 
ATOM     32  C   UNL A   1      38.626  31.052  28.755  1.00  0.00     0.010 A 
ATOM     33  C   UNL A   1      38.900  29.678  28.877  1.00  0.00    -0.014 A 
BRANCH  33  34
ATOM     34  C   UNL A   1      40.117  29.190  29.570  1.00  0.00     0.031 A 
ATOM     35  C   UNL A   1      40.544  29.847  30.855  1.00  0.00     0.074 A 
ATOM     36  C   UNL A   1      40.786  28.120  29.102  1.00  0.00     0.049 A 
ATOM     37  N   UNL A   1      41.505  29.513  31.677  1.00  0.00    -0.248 NA
ATOM     38  C   UNL A   1      39.786  31.039  31.272  1.00  0.00     0.031 C 
ATOM     39  C   UNL A   1      40.471  27.399  27.870  1.00  0.00     0.029 A 
ATOM     40  N   UNL A   1      41.867  27.451  29.618  1.00  0.00    -0.354 N 
ATOM     41  C   UNL A   1      41.451  30.431  32.719  1.00  0.00     0.074 A 
ATOM     42  C   UNL A   1      40.403  31.374  32.396  1.00  0.00     0.031 C 
ATOM     43  C   UNL A   1      41.340  26.384  27.725  1.00  0.00     0.029 A 
ATOM     44  C   UNL A   1      42.275  26.388  28.848  1.00  0.00     0.049 A 
ATOM     45  H   UNL A   1      42.308  27.706  30.461  1.00  0.00     0.167 HD
ATOM     46  C   UNL A   1      42.188  30.470  33.854  1.00  0.00     0.037 A 
ATOM     47  C   UNL A   1      43.288  25.518  29.030  1.00  0.00     0.037 A 
ATOM     48  C   UNL A   1      43.240  29.539  34.169  1.00  0.00     0.049 A 
ATOM     49  C   UNL A   1      44.123  25.608  30.281  1.00  0.00     0.074 A 
ATOM     50  C   UNL A   1      44.044  29.496  35.296  1.00  0.00     0.029 A 
ATOM     51  N   UNL A   1      43.640  28.490  33.354  1.00  0.00    -0.354 N 
ATOM     52  N   UNL A   1      44.030  26.457  31.279  1.00  0.00    -0.248 NA
ATOM     53  C   UNL A   1      45.189  24.609  30.442  1.00  0.00     0.031 C 
ATOM     54  C   UNL A   1      44.957  28.444  35.144  1.00  0.00     0.029 A 
ATOM     55  C   UNL A   1      44.690  27.805  33.945  1.00  0.00     0.049 A 
ATOM     56  H   UNL A   1      43.237  28.265  32.485  1.00  0.00     0.167 HD
ATOM     57  C   UNL A   1      45.011  26.080  32.192  1.00  0.00     0.074 A 
ATOM     58  C   UNL A   1      45.667  24.914  31.640  1.00  0.00     0.031 C 
ATOM     59  C   UNL A   1      45.341  26.649  33.379  1.00  0.00     0.037 A 
BRANCH  46  60
ATOM     60  C   UNL A   1      41.878  31.558  34.846  1.00  0.00     0.058 A 
ATOM     61  C   UNL A   1      42.520  32.806  34.785  1.00  0.00     0.135 A 
ATOM     62  C   UNL A   1      40.903  31.370  35.837  1.00  0.00     0.135 A 
ATOM     63  F   UNL A   1      43.475  33.032  33.868  1.00  0.00    -0.206 F 
ATOM     64  C   UNL A   1      42.218  33.824  35.684  1.00  0.00     0.059 A 
ATOM     65  C   UNL A   1      40.567  32.382  36.731  1.00  0.00     0.059 A 
ATOM     66  F   UNL A   1      40.263  30.195  35.942  1.00  0.00    -0.206 F 
ATOM     67  C   UNL A   1      41.238  33.602  36.653  1.00  0.00     0.060 A 
BRANCH  67  68
ATOM     68  S   UNL A   1      40.846  34.939  37.801  1.00  0.00     0.124 S 
ATOM     69  O   UNL A   1      39.405  35.077  37.608  1.00  0.00    -0.237 OA
ATOM     70  O   UNL A   1      41.262  34.382  39.084  1.00  0.00    -0.237 OA
ATOM     71  O   UNL A   1      41.652  36.054  37.314  1.00  0.00    -0.744 OA
ENDBRANCH  67  68
ENDBRANCH  46  60
BRANCH  47  72
ATOM     72  C   UNL A   1      43.574  24.483  28.001  1.00  0.00     0.058 A 
ATOM     73  C   UNL A   1      44.494  24.711  26.967  1.00  0.00     0.135 A 
ATOM     74  C   UNL A   1      42.909  23.248  28.023  1.00  0.00     0.135 A 
ATOM     75  F   UNL A   1      45.148  25.881  26.897  1.00  0.00    -0.206 F 
ATOM     76  C   UNL A   1      44.725  23.764  25.975  1.00  0.00     0.059 A 
ATOM     77  C   UNL A   1      43.143  22.274  27.058  1.00  0.00     0.059 A 
ATOM     78  F   UNL A   1      42.030  22.974  29.000  1.00  0.00    -0.206 F 
ATOM     79  C   UNL A   1      44.041  22.546  26.028  1.00  0.00     0.060 A 
BRANCH  79  80
ATOM     80  S   UNL A   1      44.364  21.310  24.752  1.00  0.00     0.124 S 
ATOM     81  O   UNL A   1      44.190  22.095  23.535  1.00  0.00    -0.237 OA
ATOM     82  O   UNL A   1      45.729  20.900  25.060  1.00  0.00    -0.237 OA
ATOM     83  O   UNL A   1      43.341  20.298  25.002  1.00  0.00    -0.744 OA
ENDBRANCH  79  80
ENDBRANCH  47  72
BRANCH  59  84
ATOM     84  C   UNL A   1      46.452  26.005  34.164  1.00  0.00     0.058 A 
ATOM     85  C   UNL A   1      47.793  26.384  33.989  1.00  0.00     0.135 A 
ATOM     86  C   UNL A   1      46.173  25.006  35.111  1.00  0.00     0.135 A 
ATOM     87  F   UNL A   1      48.116  27.332  33.096  1.00  0.00    -0.206 F 
ATOM     88  C   UNL A   1      48.821  25.764  34.691  1.00  0.00     0.059 A 
ATOM     89  C   UNL A   1      47.183  24.393  35.846  1.00  0.00     0.059 A 
ATOM     90  F   UNL A   1      44.907  24.617  35.331  1.00  0.00    -0.206 F 
ATOM     91  C   UNL A   1      48.507  24.764  35.613  1.00  0.00     0.060 A 
BRANCH  91  92
ATOM     92  S   UNL A   1      49.850  23.959  36.514  1.00  0.00     0.124 S 
ATOM     93  O   UNL A   1      49.427  24.143  37.897  1.00  0.00    -0.237 OA
ATOM     94  O   UNL A   1      49.790  22.590  36.009  1.00  0.00    -0.237 OA
ATOM     95  O   UNL A   1      51.030  24.718  36.110  1.00  0.00    -0.744 OA
ENDBRANCH  91  92
ENDBRANCH  59  84
ENDBRANCH  33  34
ENDBRANCH  26  28
ENDBRANCH  25  26
ENDBRANCH  24  25
ENDBRANCH   1  24
TORSDOF 18
ENDMDL
MODEL 3
REMARK VINA RESULT:     -10.5      5.956     12.492
REMARK SMILES O=C(CCc1nc(-c2ccccc2)c(-c2ccccc2)o1)OCCOC(=O)c1ccc(-c2c3nc(c(-c4c(F)cc(S(=O)(=O)[O-])cc4F)c4ccc([nH]4)c(-c4c(F)cc(S(=O)(=O)[O-])cc4F)c4nc(c(-c5c(F)cc(S(=O)(=O)[O-])cc5F)c5ccc2[nH]5)C=C4)C=C3)cc1
REMARK SMILES IDX 23 1 22 2 2 3 1 4 3 5 4 6 5 7 6 8 21 9 7 10 14 11 8 12 9 13
REMARK SMILES IDX 13 14 10 15 12 16 11 17 15 18 16 19 20 20 17 21 19 22 18 23
REMARK SMILES IDX 24 24 25 25 26 26 27 27 28 28 29 29 93 30 30 31 92 32 31 33
REMARK SMILES IDX 32 34 33 35 86 36 34 37 91 38 85 39 87 40 35 41 90 42 84 43
REMARK SMILES IDX 83 44 36 46 70 47 49 48 69 49 50 50 53 51 68 52 88 53 51 54
REMARK SMILES IDX 52 55 67 57 89 58 54 59 37 60 38 61 47 62 39 63 40 64 46 65
REMARK SMILES IDX 48 66 41 67 42 68 43 69 44 70 45 71 71 72 72 73 81 74 73 75
REMARK SMILES IDX 74 76 80 77 82 78 75 79 76 80 77 81 78 82 79 83 55 84 56 85
REMARK SMILES IDX 65 86 57 87 58 88 64 89 66 90 59 91 60 92 61 93 62 94 63 95
REMARK H PARENT 87 45 53 56
REMARK Flexibility Score: inf
ROOT
ATOM      1  C   UNL A   1      34.597  33.080  32.415  1.00  0.00     0.274 C 
ENDROOT
BRANCH   1   2
ATOM      2  O   UNL A   1      34.876  34.237  31.606  1.00  0.00    -0.462 OA
BRANCH   2   3
ATOM      3  C   UNL A   1      33.940  34.795  30.793  1.00  0.00     0.306 C 
ATOM      4  O   UNL A   1      32.825  35.071  31.227  1.00  0.00    -0.252 OA
BRANCH   3   5
ATOM      5  C   UNL A   1      34.261  34.926  29.318  1.00  0.00     0.132 C 
BRANCH   5   6
ATOM      6  C   UNL A   1      33.409  34.017  28.440  1.00  0.00     0.109 C 
BRANCH   6   7
ATOM      7  C   UNL A   1      34.092  32.722  28.188  1.00  0.00     0.196 A 
ATOM      8  N   UNL A   1      35.193  32.277  28.749  1.00  0.00    -0.213 NA
ATOM      9  O   UNL A   1      33.412  31.789  27.439  1.00  0.00    -0.440 OA
ATOM     10  C   UNL A   1      35.247  30.962  28.370  1.00  0.00     0.117 A 
ATOM     11  C   UNL A   1      34.139  30.635  27.613  1.00  0.00     0.162 A 
BRANCH  10  12
ATOM     12  C   UNL A   1      36.253  30.039  28.831  1.00  0.00     0.004 A 
ATOM     13  C   UNL A   1      36.315  29.673  30.181  1.00  0.00     0.010 A 
ATOM     14  C   UNL A   1      37.196  29.535  27.930  1.00  0.00     0.010 A 
ATOM     15  C   UNL A   1      37.322  28.817  30.626  1.00  0.00     0.001 A 
ATOM     16  C   UNL A   1      38.208  28.689  28.380  1.00  0.00     0.001 A 
ATOM     17  C   UNL A   1      38.270  28.331  29.727  1.00  0.00     0.000 A 
ENDBRANCH  10  12
BRANCH  11  18
ATOM     18  C   UNL A   1      33.545  29.391  27.150  1.00  0.00     0.020 A 
ATOM     19  C   UNL A   1      32.280  28.977  27.575  1.00  0.00     0.012 A 
ATOM     20  C   UNL A   1      34.244  28.591  26.229  1.00  0.00     0.012 A 
ATOM     21  C   UNL A   1      31.709  27.812  27.053  1.00  0.00     0.001 A 
ATOM     22  C   UNL A   1      33.678  27.424  25.715  1.00  0.00     0.001 A 
ATOM     23  C   UNL A   1      32.404  27.041  26.120  1.00  0.00     0.000 A 
ENDBRANCH  11  18
ENDBRANCH   6   7
ENDBRANCH   5   6
ENDBRANCH   3   5
ENDBRANCH   2   3
ENDBRANCH   1   2
BRANCH   1  24
ATOM     24  C   UNL A   1      35.832  32.250  32.766  1.00  0.00     0.275 C 
BRANCH  24  25
ATOM     25  O   UNL A   1      36.904  32.512  31.851  1.00  0.00    -0.458 OA
BRANCH  25  26
ATOM     26  C   UNL A   1      38.123  32.543  32.446  1.00  0.00     0.338 C 
ATOM     27  O   UNL A   1      38.375  32.966  33.562  1.00  0.00    -0.246 OA
BRANCH  26  28
ATOM     28  C   UNL A   1      39.105  31.824  31.611  1.00  0.00     0.060 A 
ATOM     29  C   UNL A   1      39.965  30.935  32.264  1.00  0.00     0.016 A 
ATOM     30  C   UNL A   1      39.212  32.030  30.231  1.00  0.00     0.016 A 
ATOM     31  C   UNL A   1      40.980  30.302  31.551  1.00  0.00     0.010 A 
ATOM     32  C   UNL A   1      40.228  31.386  29.516  1.00  0.00     0.010 A 
ATOM     33  C   UNL A   1      41.144  30.553  30.182  1.00  0.00    -0.014 A 
BRANCH  33  34
ATOM     34  C   UNL A   1      42.359  30.040  29.504  1.00  0.00     0.031 A 
ATOM     35  C   UNL A   1      43.556  30.940  29.360  1.00  0.00     0.074 A 
ATOM     36  C   UNL A   1      42.422  28.759  29.094  1.00  0.00     0.049 A 
ATOM     37  N   UNL A   1      44.750  30.664  28.903  1.00  0.00    -0.248 NA
ATOM     38  C   UNL A   1      43.388  32.338  29.791  1.00  0.00     0.031 C 
ATOM     39  C   UNL A   1      41.330  27.790  29.178  1.00  0.00     0.029 A 
ATOM     40  N   UNL A   1      43.456  28.054  28.532  1.00  0.00    -0.354 N 
ATOM     41  C   UNL A   1      45.482  31.840  29.016  1.00  0.00     0.074 A 
ATOM     42  C   UNL A   1      44.581  32.850  29.527  1.00  0.00     0.031 C 
ATOM     43  C   UNL A   1      41.753  26.613  28.686  1.00  0.00     0.029 A 
ATOM     44  C   UNL A   1      43.141  26.748  28.246  1.00  0.00     0.049 A 
ATOM     45  H   UNL A   1      44.341  28.446  28.352  1.00  0.00     0.167 HD
ATOM     46  C   UNL A   1      46.791  32.054  28.744  1.00  0.00     0.037 A 
ATOM     47  C   UNL A   1      43.887  25.772  27.693  1.00  0.00     0.037 A 
ATOM     48  C   UNL A   1      47.684  31.052  28.222  1.00  0.00     0.049 A 
ATOM     49  C   UNL A   1      45.331  26.045  27.359  1.00  0.00     0.074 A 
ATOM     50  C   UNL A   1      49.029  31.172  27.916  1.00  0.00     0.029 A 
ATOM     51  N   UNL A   1      47.323  29.746  27.924  1.00  0.00    -0.354 N 
ATOM     52  N   UNL A   1      46.021  27.153  27.515  1.00  0.00    -0.248 NA
ATOM     53  C   UNL A   1      46.105  24.932  26.794  1.00  0.00     0.031 C 
ATOM     54  C   UNL A   1      49.471  29.950  27.394  1.00  0.00     0.029 A 
ATOM     55  C   UNL A   1      48.414  29.056  27.420  1.00  0.00     0.049 A 
ATOM     56  H   UNL A   1      46.424  29.367  28.052  1.00  0.00     0.167 HD
ATOM     57  C   UNL A   1      47.312  26.860  27.084  1.00  0.00     0.074 A 
ATOM     58  C   UNL A   1      47.312  25.467  26.687  1.00  0.00     0.031 C 
ATOM     59  C   UNL A   1      48.398  27.671  27.020  1.00  0.00     0.037 A 
BRANCH  46  60
ATOM     60  C   UNL A   1      47.340  33.429  29.012  1.00  0.00     0.058 A 
ATOM     61  C   UNL A   1      47.289  34.438  28.037  1.00  0.00     0.135 A 
ATOM     62  C   UNL A   1      47.880  33.755  30.265  1.00  0.00     0.135 A 
ATOM     63  F   UNL A   1      46.801  34.173  26.814  1.00  0.00    -0.206 F 
ATOM     64  C   UNL A   1      47.773  35.718  28.288  1.00  0.00     0.059 A 
ATOM     65  C   UNL A   1      48.347  35.035  30.548  1.00  0.00     0.059 A 
ATOM     66  F   UNL A   1      47.957  32.827  31.231  1.00  0.00    -0.206 F 
ATOM     67  C   UNL A   1      48.299  36.007  29.548  1.00  0.00     0.060 A 
BRANCH  67  68
ATOM     68  S   UNL A   1      48.905  37.678  29.865  1.00  0.00     0.124 S 
ATOM     69  O   UNL A   1      48.085  38.075  31.005  1.00  0.00    -0.237 OA
ATOM     70  O   UNL A   1      50.318  37.449  30.150  1.00  0.00    -0.237 OA
ATOM     71  O   UNL A   1      48.627  38.383  28.617  1.00  0.00    -0.744 OA
ENDBRANCH  67  68
ENDBRANCH  46  60
BRANCH  47  72
ATOM     72  C   UNL A   1      43.285  24.440  27.417  1.00  0.00     0.058 A 
ATOM     73  C   UNL A   1      43.178  23.462  28.417  1.00  0.00     0.135 A 
ATOM     74  C   UNL A   1      42.824  24.114  26.133  1.00  0.00     0.135 A 
ATOM     75  F   UNL A   1      43.614  23.723  29.659  1.00  0.00    -0.206 F 
ATOM     76  C   UNL A   1      42.661  22.199  28.148  1.00  0.00     0.059 A 
ATOM     77  C   UNL A   1      42.278  22.868  25.845  1.00  0.00     0.059 A 
ATOM     78  F   UNL A   1      42.890  25.020  25.144  1.00  0.00    -0.206 F 
ATOM     79  C   UNL A   1      42.215  21.910  26.856  1.00  0.00     0.060 A 
BRANCH  79  80
ATOM     80  S   UNL A   1      41.522  20.277  26.519  1.00  0.00     0.124 S 
ATOM     81  O   UNL A   1      40.137  20.607  26.203  1.00  0.00    -0.237 OA
ATOM     82  O   UNL A   1      42.341  19.819  25.402  1.00  0.00    -0.237 OA
ATOM     83  O   UNL A   1      41.730  19.561  27.775  1.00  0.00    -0.744 OA
ENDBRANCH  79  80
ENDBRANCH  47  72
BRANCH  59  84
ATOM     84  C   UNL A   1      49.680  27.063  26.516  1.00  0.00     0.058 A 
ATOM     85  C   UNL A   1      50.060  27.159  25.168  1.00  0.00     0.135 A 
ATOM     86  C   UNL A   1      50.544  26.388  27.394  1.00  0.00     0.135 A 
ATOM     87  F   UNL A   1      49.270  27.792  24.287  1.00  0.00    -0.206 F 
ATOM     88  C   UNL A   1      51.228  26.567  24.698  1.00  0.00     0.059 A 
ATOM     89  C   UNL A   1      51.733  25.814  26.951  1.00  0.00     0.059 A 
ATOM     90  F   UNL A   1      50.238  26.281  28.697  1.00  0.00    -0.206 F 
ATOM     91  C   UNL A   1      52.055  25.891  25.597  1.00  0.00     0.060 A 
BRANCH  91  92
ATOM     92  S   UNL A   1      53.566  25.119  24.975  1.00  0.00     0.124 S 
ATOM     93  O   UNL A   1      53.547  25.527  23.574  1.00  0.00    -0.237 OA
ATOM     94  O   UNL A   1      54.598  25.739  25.801  1.00  0.00    -0.237 OA
ATOM     95  O   UNL A   1      53.345  23.698  25.220  1.00  0.00    -0.744 OA
ENDBRANCH  91  92
ENDBRANCH  59  84
ENDBRANCH  33  34
ENDBRANCH  26  28
ENDBRANCH  25  26
ENDBRANCH  24  25
ENDBRANCH   1  24
TORSDOF 18
ENDMDL
