MODEL 1
REMARK VINA RESULT:     -10.3      0.000      0.000
REMARK SMILES O=C(NCC(=O)OCCOC(=O)c1ccc(-c2c3nc(c(-c4c(F)cc(S(=O)(=O)[O-])cc4F)c4ccc([nH]4)c(-c4c(F)cc(S(=O)(=O)[O-])cc4F)c4nc(c(-c5c(F)cc(S(=O)(=O)[O-])cc5F)c5ccc2[nH]5)C=C4)C=C3)cc1)Nc1cccc2c1CCCC2
REMARK SMILES IDX 9 1 8 2 7 3 5 4 6 5 4 6 3 7 1 8 2 9 79 10 80 13 81 14 85 15
REMARK SMILES IDX 82 16 84 17 86 18 83 19 89 20 87 21 88 22 10 23 11 24 12 25
REMARK SMILES IDX 13 26 14 27 78 28 15 29 77 30 16 31 17 32 18 33 71 34 19 35
REMARK SMILES IDX 76 36 70 37 72 38 20 39 75 40 69 41 68 42 21 44 55 45 34 46
REMARK SMILES IDX 54 47 35 48 38 49 53 50 73 51 36 52 37 53 52 55 74 56 39 57
REMARK SMILES IDX 22 58 23 59 32 60 24 61 25 62 31 63 33 64 26 65 27 66 28 67
REMARK SMILES IDX 29 68 30 69 56 70 57 71 66 72 58 73 59 74 65 75 67 76 60 77
REMARK SMILES IDX 61 78 62 79 63 80 64 81 40 82 41 83 50 84 42 85 43 86 49 87
REMARK SMILES IDX 51 88 44 89 45 90 46 91 47 92 48 93
REMARK H PARENT 3 11 79 12 72 43 38 54
REMARK Flexibility Score: inf
ROOT
ATOM      1  C   UNL A   1      39.894  20.843  25.988  1.00  0.00     0.275 C 
ENDROOT
BRANCH   1   2
ATOM      2  C   UNL A   1      40.847  19.751  26.485  1.00  0.00     0.274 C 
BRANCH   2   3
ATOM      3  O   UNL A   1      41.703  19.274  25.433  1.00  0.00    -0.461 OA
BRANCH   3   4
ATOM      4  C   UNL A   1      42.901  18.736  25.804  1.00  0.00     0.325 C 
ATOM      5  O   UNL A   1      43.035  17.737  26.500  1.00  0.00    -0.250 OA
BRANCH   4   6
ATOM      6  C   UNL A   1      44.085  19.509  25.222  1.00  0.00     0.240 C 
BRANCH   6   7
ATOM      7  N   UNL A   1      43.712  20.837  24.767  1.00  0.00    -0.327 N 
ATOM      8  O   UNL A   1      42.980  22.916  24.775  1.00  0.00    -0.248 OA
ATOM      9  C   UNL A   1      43.420  21.980  25.438  1.00  0.00     0.319 C 
ATOM     10  N   UNL A   1      43.740  22.005  26.781  1.00  0.00    -0.308 N 
ATOM     11  H   UNL A   1      43.658  20.924  23.788  1.00  0.00     0.166 HD
ATOM     12  H   UNL A   1      43.835  21.160  27.278  1.00  0.00     0.171 HD
BRANCH  10  13
ATOM     13  C   UNL A   1      43.934  23.244  27.451  1.00  0.00     0.046 A 
ATOM     14  C   UNL A   1      43.121  23.457  28.564  1.00  0.00     0.026 A 
ATOM     15  C   UNL A   1      45.111  23.984  27.320  1.00  0.00    -0.021 A 
ATOM     16  C   UNL A   1      43.647  24.134  29.663  1.00  0.00     0.002 A 
ATOM     17  C   UNL A   1      45.739  24.440  28.482  1.00  0.00    -0.043 A 
ATOM     18  C   UNL A   1      45.588  24.468  25.970  1.00  0.00     0.038 C 
ATOM     19  C   UNL A   1      44.989  24.524  29.658  1.00  0.00     0.004 A 
ATOM     20  C   UNL A   1      47.217  24.745  28.461  1.00  0.00     0.036 C 
ATOM     21  C   UNL A   1      46.914  25.239  26.030  1.00  0.00     0.005 C 
ATOM     22  C   UNL A   1      47.838  24.615  27.062  1.00  0.00     0.005 C 
ENDBRANCH  10  13
ENDBRANCH   6   7
ENDBRANCH   4   6
ENDBRANCH   3   4
ENDBRANCH   2   3
ENDBRANCH   1   2
BRANCH   1  23
ATOM     23  O   UNL A   1      39.886  21.996  26.850  1.00  0.00    -0.458 OA
BRANCH  23  24
ATOM     24  C   UNL A   1      39.082  23.007  26.455  1.00  0.00     0.338 C 
ATOM     25  O   UNL A   1      38.027  22.902  25.832  1.00  0.00    -0.246 OA
BRANCH  24  26
ATOM     26  C   UNL A   1      39.563  24.291  26.994  1.00  0.00     0.060 A 
ATOM     27  C   UNL A   1      40.191  25.168  26.105  1.00  0.00     0.016 A 
ATOM     28  C   UNL A   1      39.453  24.618  28.349  1.00  0.00     0.016 A 
ATOM     29  C   UNL A   1      40.720  26.370  26.569  1.00  0.00     0.010 A 
ATOM     30  C   UNL A   1      39.983  25.829  28.812  1.00  0.00     0.010 A 
ATOM     31  C   UNL A   1      40.628  26.707  27.927  1.00  0.00    -0.014 A 
BRANCH  31  32
ATOM     32  C   UNL A   1      41.226  27.983  28.394  1.00  0.00     0.031 A 
ATOM     33  C   UNL A   1      42.701  28.229  28.254  1.00  0.00     0.074 A 
ATOM     34  C   UNL A   1      40.425  28.944  28.893  1.00  0.00     0.049 A 
ATOM     35  N   UNL A   1      43.390  29.300  28.552  1.00  0.00    -0.248 NA
ATOM     36  C   UNL A   1      43.507  27.126  27.710  1.00  0.00     0.031 C 
ATOM     37  C   UNL A   1      38.976  28.823  29.068  1.00  0.00     0.029 A 
ATOM     38  N   UNL A   1      40.710  30.210  29.333  1.00  0.00    -0.354 N 
ATOM     39  C   UNL A   1      44.710  29.006  28.234  1.00  0.00     0.074 A 
ATOM     40  C   UNL A   1      44.730  27.642  27.747  1.00  0.00     0.031 C 
ATOM     41  C   UNL A   1      38.499  29.976  29.565  1.00  0.00     0.029 A 
ATOM     42  C   UNL A   1      39.608  30.905  29.768  1.00  0.00     0.049 A 
ATOM     43  H   UNL A   1      41.621  30.587  29.337  1.00  0.00     0.167 HD
ATOM     44  C   UNL A   1      45.802  29.802  28.331  1.00  0.00     0.037 A 
ATOM     45  C   UNL A   1      39.502  32.147  30.278  1.00  0.00     0.037 A 
ATOM     46  C   UNL A   1      45.777  31.160  28.812  1.00  0.00     0.049 A 
ATOM     47  C   UNL A   1      40.733  33.001  30.401  1.00  0.00     0.074 A 
ATOM     48  C   UNL A   1      46.828  32.055  28.918  1.00  0.00     0.029 A 
ATOM     49  N   UNL A   1      44.646  31.819  29.272  1.00  0.00    -0.354 N 
ATOM     50  N   UNL A   1      41.968  32.718  30.063  1.00  0.00    -0.248 NA
ATOM     51  C   UNL A   1      40.556  34.344  30.972  1.00  0.00     0.031 C 
ATOM     52  C   UNL A   1      46.340  33.241  29.479  1.00  0.00     0.029 A 
ATOM     53  C   UNL A   1      44.977  33.099  29.685  1.00  0.00     0.049 A 
ATOM     54  H   UNL A   1      43.742  31.432  29.302  1.00  0.00     0.167 HD
ATOM     55  C   UNL A   1      42.715  33.851  30.368  1.00  0.00     0.074 A 
ATOM     56  C   UNL A   1      41.787  34.830  30.901  1.00  0.00     0.031 C 
ATOM     57  C   UNL A   1      44.046  34.061  30.221  1.00  0.00     0.037 A 
BRANCH  44  58
ATOM     58  C   UNL A   1      47.126  29.217  27.924  1.00  0.00     0.058 A 
ATOM     59  C   UNL A   1      48.004  28.656  28.865  1.00  0.00     0.135 A 
ATOM     60  C   UNL A   1      47.506  29.188  26.573  1.00  0.00     0.135 A 
ATOM     61  F   UNL A   1      47.695  28.671  30.171  1.00  0.00    -0.206 F 
ATOM     62  C   UNL A   1      49.225  28.108  28.482  1.00  0.00     0.059 A 
ATOM     63  C   UNL A   1      48.712  28.625  26.166  1.00  0.00     0.059 A 
ATOM     64  F   UNL A   1      46.703  29.710  25.633  1.00  0.00    -0.206 F 
ATOM     65  C   UNL A   1      49.572  28.101  27.130  1.00  0.00     0.060 A 
BRANCH  65  66
ATOM     66  S   UNL A   1      51.160  27.390  26.648  1.00  0.00     0.124 S 
ATOM     67  O   UNL A   1      51.770  28.506  25.928  1.00  0.00    -0.237 OA
ATOM     68  O   UNL A   1      51.763  27.063  27.936  1.00  0.00    -0.237 OA
ATOM     69  O   UNL A   1      50.784  26.245  25.826  1.00  0.00    -0.744 OA
ENDBRANCH  65  66
ENDBRANCH  44  58
BRANCH  45  70
ATOM     70  C   UNL A   1      38.173  32.653  30.708  1.00  0.00     0.058 A 
ATOM     71  C   UNL A   1      37.731  32.501  32.029  1.00  0.00     0.135 A 
ATOM     72  C   UNL A   1      37.329  33.322  29.807  1.00  0.00     0.135 A 
ATOM     73  F   UNL A   1      38.498  31.861  32.925  1.00  0.00    -0.206 F 
ATOM     74  C   UNL A   1      36.496  32.989  32.444  1.00  0.00     0.059 A 
ATOM     75  C   UNL A   1      36.100  33.838  30.202  1.00  0.00     0.059 A 
ATOM     76  F   UNL A   1      37.714  33.503  28.534  1.00  0.00    -0.206 F 
ATOM     77  C   UNL A   1      35.688  33.660  31.522  1.00  0.00     0.060 A 
BRANCH  77  78
ATOM     78  S   UNL A   1      34.116  34.349  32.083  1.00  0.00     0.124 S 
ATOM     79  O   UNL A   1      33.617  33.281  32.940  1.00  0.00    -0.237 OA
ATOM     80  O   UNL A   1      34.538  35.570  32.764  1.00  0.00    -0.237 OA
ATOM     81  O   UNL A   1      33.381  34.558  30.838  1.00  0.00    -0.744 OA
ENDBRANCH  77  78
ENDBRANCH  45  70
BRANCH  57  82
ATOM     82  C   UNL A   1      44.578  35.405  30.633  1.00  0.00     0.058 A 
ATOM     83  C   UNL A   1      44.613  36.485  29.737  1.00  0.00     0.135 A 
ATOM     84  C   UNL A   1      45.029  35.625  31.944  1.00  0.00     0.135 A 
ATOM     85  F   UNL A   1      44.200  36.325  28.470  1.00  0.00    -0.206 F 
ATOM     86  C   UNL A   1      45.099  37.730  30.120  1.00  0.00     0.059 A 
ATOM     87  C   UNL A   1      45.499  36.868  32.355  1.00  0.00     0.059 A 
ATOM     88  F   UNL A   1      45.009  34.626  32.842  1.00  0.00    -0.206 F 
ATOM     89  C   UNL A   1      45.542  37.912  31.432  1.00  0.00     0.060 A 
BRANCH  89  90
ATOM     90  S   UNL A   1      46.154  39.538  31.926  1.00  0.00     0.124 S 
ATOM     91  O   UNL A   1      45.839  40.339  30.749  1.00  0.00    -0.237 OA
ATOM     92  O   UNL A   1      45.361  39.823  33.118  1.00  0.00    -0.237 OA
ATOM     93  O   UNL A   1      47.574  39.305  32.169  1.00  0.00    -0.744 OA
ENDBRANCH  89  90
ENDBRANCH  57  82
ENDBRANCH  31  32
ENDBRANCH  24  26
ENDBRANCH  23  24
ENDBRANCH   1  23
TORSDOF 16
ENDMDL
MODEL 2
REMARK VINA RESULT:     -10.2      5.263      7.559
REMARK SMILES O=C(NCC(=O)OCCOC(=O)c1ccc(-c2c3nc(c(-c4c(F)cc(S(=O)(=O)[O-])cc4F)c4ccc([nH]4)c(-c4c(F)cc(S(=O)(=O)[O-])cc4F)c4nc(c(-c5c(F)cc(S(=O)(=O)[O-])cc5F)c5ccc2[nH]5)C=C4)C=C3)cc1)Nc1cccc2c1CCCC2
REMARK SMILES IDX 9 1 8 2 7 3 5 4 6 5 4 6 3 7 1 8 2 9 79 10 80 13 81 14 85 15
REMARK SMILES IDX 82 16 84 17 86 18 83 19 89 20 87 21 88 22 10 23 11 24 12 25
REMARK SMILES IDX 13 26 14 27 78 28 15 29 77 30 16 31 17 32 18 33 71 34 19 35
REMARK SMILES IDX 76 36 70 37 72 38 20 39 75 40 69 41 68 42 21 44 55 45 34 46
REMARK SMILES IDX 54 47 35 48 38 49 53 50 73 51 36 52 37 53 52 55 74 56 39 57
REMARK SMILES IDX 22 58 23 59 32 60 24 61 25 62 31 63 33 64 26 65 27 66 28 67
REMARK SMILES IDX 29 68 30 69 56 70 57 71 66 72 58 73 59 74 65 75 67 76 60 77
REMARK SMILES IDX 61 78 62 79 63 80 64 81 40 82 41 83 50 84 42 85 43 86 49 87
REMARK SMILES IDX 51 88 44 89 45 90 46 91 47 92 48 93
REMARK H PARENT 3 11 79 12 72 43 38 54
REMARK Flexibility Score: inf
ROOT
ATOM      1  C   UNL A   1      42.954  23.210  25.391  1.00  0.00     0.275 C 
ENDROOT
BRANCH   1   2
ATOM      2  C   UNL A   1      42.761  21.756  25.834  1.00  0.00     0.274 C 
BRANCH   2   3
ATOM      3  O   UNL A   1      41.409  21.312  25.622  1.00  0.00    -0.461 OA
BRANCH   3   4
ATOM      4  C   UNL A   1      40.613  21.199  26.724  1.00  0.00     0.325 C 
ATOM      5  O   UNL A   1      40.824  20.446  27.667  1.00  0.00    -0.250 OA
BRANCH   4   6
ATOM      6  C   UNL A   1      39.421  22.156  26.674  1.00  0.00     0.240 C 
BRANCH   6   7
ATOM      7  N   UNL A   1      38.713  22.095  25.406  1.00  0.00    -0.327 N 
ATOM      8  O   UNL A   1      37.087  21.900  23.932  1.00  0.00    -0.248 OA
ATOM      9  C   UNL A   1      37.393  22.133  25.099  1.00  0.00     0.319 C 
ATOM     10  N   UNL A   1      36.535  22.526  26.108  1.00  0.00    -0.308 N 
ATOM     11  H   UNL A   1      39.304  22.009  24.623  1.00  0.00     0.166 HD
ATOM     12  H   UNL A   1      36.813  22.438  27.048  1.00  0.00     0.171 HD
BRANCH  10  13
ATOM     13  C   UNL A   1      35.253  23.056  25.797  1.00  0.00     0.046 A 
ATOM     14  C   UNL A   1      35.214  24.429  25.554  1.00  0.00     0.026 A 
ATOM     15  C   UNL A   1      34.213  22.254  25.323  1.00  0.00    -0.021 A 
ATOM     16  C   UNL A   1      34.344  24.916  24.580  1.00  0.00     0.002 A 
ATOM     17  C   UNL A   1      33.520  22.674  24.184  1.00  0.00    -0.043 A 
ATOM     18  C   UNL A   1      33.699  21.079  26.124  1.00  0.00     0.038 C 
ATOM     19  C   UNL A   1      33.581  24.022  23.824  1.00  0.00     0.004 A 
ATOM     20  C   UNL A   1      32.800  21.657  23.332  1.00  0.00     0.036 C 
ATOM     21  C   UNL A   1      32.574  20.306  25.423  1.00  0.00     0.005 C 
ATOM     22  C   UNL A   1      32.833  20.242  23.927  1.00  0.00     0.005 C 
ENDBRANCH  10  13
ENDBRANCH   6   7
ENDBRANCH   4   6
ENDBRANCH   3   4
ENDBRANCH   2   3
ENDBRANCH   1   2
BRANCH   1  23
ATOM     23  O   UNL A   1      42.109  24.121  26.119  1.00  0.00    -0.458 OA
BRANCH  23  24
ATOM     24  C   UNL A   1      42.328  25.431  25.877  1.00  0.00     0.338 C 
ATOM     25  O   UNL A   1      42.696  25.928  24.813  1.00  0.00    -0.246 OA
BRANCH  24  26
ATOM     26  C   UNL A   1      41.933  26.245  27.039  1.00  0.00     0.060 A 
ATOM     27  C   UNL A   1      42.575  27.475  27.214  1.00  0.00     0.016 A 
ATOM     28  C   UNL A   1      40.992  25.801  27.974  1.00  0.00     0.016 A 
ATOM     29  C   UNL A   1      42.286  28.260  28.327  1.00  0.00     0.010 A 
ATOM     30  C   UNL A   1      40.701  26.595  29.091  1.00  0.00     0.010 A 
ATOM     31  C   UNL A   1      41.354  27.823  29.279  1.00  0.00    -0.014 A 
BRANCH  31  32
ATOM     32  C   UNL A   1      41.089  28.672  30.468  1.00  0.00     0.031 A 
ATOM     33  C   UNL A   1      41.958  28.566  31.688  1.00  0.00     0.074 A 
ATOM     34  C   UNL A   1      40.094  29.579  30.424  1.00  0.00     0.049 A 
ATOM     35  N   UNL A   1      41.915  29.262  32.795  1.00  0.00    -0.248 NA
ATOM     36  C   UNL A   1      43.015  27.544  31.661  1.00  0.00     0.031 C 
ATOM     37  C   UNL A   1      39.189  29.779  29.290  1.00  0.00     0.029 A 
ATOM     38  N   UNL A   1      39.685  30.507  31.346  1.00  0.00    -0.354 N 
ATOM     39  C   UNL A   1      42.933  28.766  33.598  1.00  0.00     0.074 A 
ATOM     40  C   UNL A   1      43.561  27.688  32.862  1.00  0.00     0.031 C 
ATOM     41  C   UNL A   1      38.341  30.779  29.580  1.00  0.00     0.029 A 
ATOM     42  C   UNL A   1      38.624  31.271  30.926  1.00  0.00     0.049 A 
ATOM     43  H   UNL A   1      40.112  30.616  32.227  1.00  0.00     0.167 HD
ATOM     44  C   UNL A   1      43.316  29.178  34.832  1.00  0.00     0.037 A 
ATOM     45  C   UNL A   1      37.950  32.253  31.555  1.00  0.00     0.037 A 
ATOM     46  C   UNL A   1      42.691  30.254  35.558  1.00  0.00     0.049 A 
ATOM     47  C   UNL A   1      38.375  32.673  32.935  1.00  0.00     0.074 A 
ATOM     48  C   UNL A   1      43.028  30.762  36.801  1.00  0.00     0.029 A 
ATOM     49  N   UNL A   1      41.599  30.984  35.113  1.00  0.00    -0.354 N 
ATOM     50  N   UNL A   1      39.364  32.215  33.666  1.00  0.00    -0.248 NA
ATOM     51  C   UNL A   1      37.598  33.744  33.574  1.00  0.00     0.031 C 
ATOM     52  C   UNL A   1      42.116  31.774  37.124  1.00  0.00     0.029 A 
ATOM     53  C   UNL A   1      41.235  31.923  36.065  1.00  0.00     0.049 A 
ATOM     54  H   UNL A   1      41.149  30.854  34.248  1.00  0.00     0.167 HD
ATOM     55  C   UNL A   1      39.335  32.950  34.846  1.00  0.00     0.074 A 
ATOM     56  C   UNL A   1      38.242  33.895  34.722  1.00  0.00     0.031 C 
ATOM     57  C   UNL A   1      40.140  32.851  35.933  1.00  0.00     0.037 A 
BRANCH  44  58
ATOM     58  C   UNL A   1      44.456  28.447  35.485  1.00  0.00     0.058 A 
ATOM     59  C   UNL A   1      44.243  27.310  36.280  1.00  0.00     0.135 A 
ATOM     60  C   UNL A   1      45.779  28.871  35.287  1.00  0.00     0.135 A 
ATOM     61  F   UNL A   1      42.996  26.871  36.512  1.00  0.00    -0.206 F 
ATOM     62  C   UNL A   1      45.302  26.631  36.875  1.00  0.00     0.059 A 
ATOM     63  C   UNL A   1      46.855  28.195  35.855  1.00  0.00     0.059 A 
ATOM     64  F   UNL A   1      46.038  29.952  34.535  1.00  0.00    -0.206 F 
ATOM     65  C   UNL A   1      46.605  27.084  36.660  1.00  0.00     0.060 A 
BRANCH  65  66
ATOM     66  S   UNL A   1      47.970  26.198  37.442  1.00  0.00     0.124 S 
ATOM     67  O   UNL A   1      48.904  27.288  37.716  1.00  0.00    -0.237 OA
ATOM     68  O   UNL A   1      47.331  25.603  38.611  1.00  0.00    -0.237 OA
ATOM     69  O   UNL A   1      48.394  25.253  36.414  1.00  0.00    -0.744 OA
ENDBRANCH  65  66
ENDBRANCH  44  58
BRANCH  45  70
ATOM     70  C   UNL A   1      36.800  32.906  30.878  1.00  0.00     0.058 A 
ATOM     71  C   UNL A   1      35.480  32.535  31.168  1.00  0.00     0.135 A 
ATOM     72  C   UNL A   1      37.002  33.932  29.942  1.00  0.00     0.135 A 
ATOM     73  F   UNL A   1      35.237  31.552  32.049  1.00  0.00    -0.206 F 
ATOM     74  C   UNL A   1      34.398  33.154  30.551  1.00  0.00     0.059 A 
ATOM     75  C   UNL A   1      35.936  34.582  29.328  1.00  0.00     0.059 A 
ATOM     76  F   UNL A   1      38.247  34.330  29.640  1.00  0.00    -0.206 F 
ATOM     77  C   UNL A   1      34.637  34.181  29.635  1.00  0.00     0.060 A 
BRANCH  77  78
ATOM     78  S   UNL A   1      33.227  35.025  28.887  1.00  0.00     0.124 S 
ATOM     79  O   UNL A   1      32.405  35.315  30.056  1.00  0.00    -0.237 OA
ATOM     80  O   UNL A   1      33.858  36.177  28.249  1.00  0.00    -0.237 OA
ATOM     81  O   UNL A   1      32.690  34.027  27.966  1.00  0.00    -0.744 OA
ENDBRANCH  77  78
ENDBRANCH  45  70
BRANCH  57  82
ATOM     82  C   UNL A   1      39.875  33.796  37.071  1.00  0.00     0.058 A 
ATOM     83  C   UNL A   1      40.462  35.070  37.118  1.00  0.00     0.135 A 
ATOM     84  C   UNL A   1      39.000  33.438  38.109  1.00  0.00     0.135 A 
ATOM     85  F   UNL A   1      41.311  35.458  36.153  1.00  0.00    -0.206 F 
ATOM     86  C   UNL A   1      40.211  35.947  38.168  1.00  0.00     0.059 A 
ATOM     87  C   UNL A   1      38.717  34.307  39.158  1.00  0.00     0.059 A 
ATOM     88  F   UNL A   1      38.405  32.234  38.106  1.00  0.00    -0.206 F 
ATOM     89  C   UNL A   1      39.339  35.556  39.185  1.00  0.00     0.060 A 
BRANCH  89  90
ATOM     90  S   UNL A   1      39.003  36.708  40.535  1.00  0.00     0.124 S 
ATOM     91  O   UNL A   1      38.070  35.939  41.351  1.00  0.00    -0.237 OA
ATOM     92  O   UNL A   1      40.329  36.913  41.111  1.00  0.00    -0.237 OA
ATOM     93  O   UNL A   1      38.437  37.869  39.855  1.00  0.00    -0.744 OA
ENDBRANCH  89  90
ENDBRANCH  57  82
ENDBRANCH  31  32
ENDBRANCH  24  26
ENDBRANCH  23  24
ENDBRANCH   1  23
TORSDOF 16
ENDMDL
MODEL 3
REMARK VINA RESULT:     -10.0      5.223      7.401
REMARK SMILES O=C(NCC(=O)OCCOC(=O)c1ccc(-c2c3nc(c(-c4c(F)cc(S(=O)(=O)[O-])cc4F)c4ccc([nH]4)c(-c4c(F)cc(S(=O)(=O)[O-])cc4F)c4nc(c(-c5c(F)cc(S(=O)(=O)[O-])cc5F)c5ccc2[nH]5)C=C4)C=C3)cc1)Nc1cccc2c1CCCC2
REMARK SMILES IDX 9 1 8 2 7 3 5 4 6 5 4 6 3 7 1 8 2 9 79 10 80 13 81 14 85 15
REMARK SMILES IDX 82 16 84 17 86 18 83 19 89 20 87 21 88 22 10 23 11 24 12 25
REMARK SMILES IDX 13 26 14 27 78 28 15 29 77 30 16 31 17 32 18 33 71 34 19 35
REMARK SMILES IDX 76 36 70 37 72 38 20 39 75 40 69 41 68 42 21 44 55 45 34 46
REMARK SMILES IDX 54 47 35 48 38 49 53 50 73 51 36 52 37 53 52 55 74 56 39 57
REMARK SMILES IDX 22 58 23 59 32 60 24 61 25 62 31 63 33 64 26 65 27 66 28 67
REMARK SMILES IDX 29 68 30 69 56 70 57 71 66 72 58 73 59 74 65 75 67 76 60 77
REMARK SMILES IDX 61 78 62 79 63 80 64 81 40 82 41 83 50 84 42 85 43 86 49 87
REMARK SMILES IDX 51 88 44 89 45 90 46 91 47 92 48 93
REMARK H PARENT 3 11 79 12 72 43 38 54
REMARK Flexibility Score: inf
ROOT
ATOM      1  C   UNL A   1      42.241  23.029  26.714  1.00  0.00     0.275 C 
ENDROOT
BRANCH   1   2
ATOM      2  C   UNL A   1      41.990  21.898  27.717  1.00  0.00     0.274 C 
BRANCH   2   3
ATOM      3  O   UNL A   1      40.684  21.319  27.549  1.00  0.00    -0.461 OA
BRANCH   3   4
ATOM      4  C   UNL A   1      40.530  20.422  26.533  1.00  0.00     0.325 C 
ATOM      5  O   UNL A   1      41.244  19.444  26.347  1.00  0.00    -0.250 OA
BRANCH   4   6
ATOM      6  C   UNL A   1      39.327  20.754  25.649  1.00  0.00     0.240 C 
BRANCH   6   7
ATOM      7  N   UNL A   1      38.746  22.047  25.965  1.00  0.00    -0.327 N 
ATOM      8  O   UNL A   1      37.361  23.762  25.992  1.00  0.00    -0.248 OA
ATOM      9  C   UNL A   1      37.511  22.566  25.750  1.00  0.00     0.319 C 
ATOM     10  N   UNL A   1      36.524  21.676  25.375  1.00  0.00    -0.308 N 
ATOM     11  H   UNL A   1      39.366  22.664  26.418  1.00  0.00     0.166 HD
ATOM     12  H   UNL A   1      36.771  20.820  24.957  1.00  0.00     0.171 HD
BRANCH  10  13
ATOM     13  C   UNL A   1      35.154  21.989  25.589  1.00  0.00     0.046 A 
ATOM     14  C   UNL A   1      34.612  21.525  26.787  1.00  0.00     0.026 A 
ATOM     15  C   UNL A   1      34.518  23.035  24.917  1.00  0.00    -0.021 A 
ATOM     16  C   UNL A   1      33.671  22.311  27.450  1.00  0.00     0.002 A 
ATOM     17  C   UNL A   1      33.774  23.949  25.669  1.00  0.00    -0.043 A 
ATOM     18  C   UNL A   1      34.446  23.071  23.408  1.00  0.00     0.038 C 
ATOM     19  C   UNL A   1      33.340  23.570  26.942  1.00  0.00     0.004 A 
ATOM     20  C   UNL A   1      33.533  25.337  25.130  1.00  0.00     0.036 C 
ATOM     21  C   UNL A   1      33.731  24.313  22.858  1.00  0.00     0.005 C 
ATOM     22  C   UNL A   1      34.069  25.530  23.703  1.00  0.00     0.005 C 
ENDBRANCH  10  13
ENDBRANCH   6   7
ENDBRANCH   4   6
ENDBRANCH   3   4
ENDBRANCH   2   3
ENDBRANCH   1   2
BRANCH   1  23
ATOM     23  O   UNL A   1      41.080  23.858  26.522  1.00  0.00    -0.458 OA
BRANCH  23  24
ATOM     24  C   UNL A   1      41.334  25.138  26.177  1.00  0.00     0.338 C 
ATOM     25  O   UNL A   1      41.660  25.545  25.062  1.00  0.00    -0.246 OA
BRANCH  24  26
ATOM     26  C   UNL A   1      41.035  26.046  27.297  1.00  0.00     0.060 A 
ATOM     27  C   UNL A   1      41.791  27.218  27.397  1.00  0.00     0.016 A 
ATOM     28  C   UNL A   1      40.073  25.741  28.266  1.00  0.00     0.016 A 
ATOM     29  C   UNL A   1      41.594  28.085  28.470  1.00  0.00     0.010 A 
ATOM     30  C   UNL A   1      39.875  26.616  29.342  1.00  0.00     0.010 A 
ATOM     31  C   UNL A   1      40.642  27.788  29.455  1.00  0.00    -0.014 A 
BRANCH  31  32
ATOM     32  C   UNL A   1      40.476  28.719  30.599  1.00  0.00     0.031 A 
ATOM     33  C   UNL A   1      41.373  28.618  31.799  1.00  0.00     0.074 A 
ATOM     34  C   UNL A   1      39.549  29.693  30.529  1.00  0.00     0.049 A 
ATOM     35  N   UNL A   1      41.415  29.376  32.864  1.00  0.00    -0.248 NA
ATOM     36  C   UNL A   1      42.352  27.520  31.804  1.00  0.00     0.031 C 
ATOM     37  C   UNL A   1      38.626  29.896  29.410  1.00  0.00     0.029 A 
ATOM     38  N   UNL A   1      39.237  30.700  31.406  1.00  0.00    -0.354 N 
ATOM     39  C   UNL A   1      42.419  28.852  33.668  1.00  0.00     0.074 A 
ATOM     40  C   UNL A   1      42.944  27.691  32.979  1.00  0.00     0.031 C 
ATOM     41  C   UNL A   1      37.862  30.971  29.663  1.00  0.00     0.029 A 
ATOM     42  C   UNL A   1      38.222  31.515  30.971  1.00  0.00     0.049 A 
ATOM     43  H   UNL A   1      39.698  30.826  32.268  1.00  0.00     0.167 HD
ATOM     44  C   UNL A   1      42.869  29.303  34.864  1.00  0.00     0.037 A 
ATOM     45  C   UNL A   1      37.640  32.578  31.559  1.00  0.00     0.037 A 
ATOM     46  C   UNL A   1      42.347  30.462  35.543  1.00  0.00     0.049 A 
ATOM     47  C   UNL A   1      38.138  33.042  32.900  1.00  0.00     0.074 A 
ATOM     48  C   UNL A   1      42.758  31.013  36.745  1.00  0.00     0.029 A 
ATOM     49  N   UNL A   1      41.297  31.245  35.085  1.00  0.00    -0.354 N 
ATOM     50  N   UNL A   1      39.113  32.555  33.630  1.00  0.00    -0.248 NA
ATOM     51  C   UNL A   1      37.461  34.203  33.496  1.00  0.00     0.031 C 
ATOM     52  C   UNL A   1      41.932  32.105  37.032  1.00  0.00     0.029 A 
ATOM     53  C   UNL A   1      41.032  32.260  35.991  1.00  0.00     0.049 A 
ATOM     54  H   UNL A   1      40.812  31.099  34.242  1.00  0.00     0.167 HD
ATOM     55  C   UNL A   1      39.175  33.355  34.765  1.00  0.00     0.074 A 
ATOM     56  C   UNL A   1      38.150  34.370  34.616  1.00  0.00     0.031 C 
ATOM     57  C   UNL A   1      40.003  33.257  35.834  1.00  0.00     0.037 A 
BRANCH  44  58
ATOM     58  C   UNL A   1      43.972  28.527  35.528  1.00  0.00     0.058 A 
ATOM     59  C   UNL A   1      45.324  28.794  35.261  1.00  0.00     0.135 A 
ATOM     60  C   UNL A   1      43.674  27.527  36.466  1.00  0.00     0.135 A 
ATOM     61  F   UNL A   1      45.663  29.731  34.362  1.00  0.00    -0.206 F 
ATOM     62  C   UNL A   1      46.343  28.080  35.884  1.00  0.00     0.059 A 
ATOM     63  C   UNL A   1      44.677  26.815  37.118  1.00  0.00     0.059 A 
ATOM     64  F   UNL A   1      42.398  27.231  36.758  1.00  0.00    -0.206 F 
ATOM     65  C   UNL A   1      46.009  27.088  36.809  1.00  0.00     0.060 A 
BRANCH  65  66
ATOM     66  S   UNL A   1      47.339  26.166  37.608  1.00  0.00     0.124 S 
ATOM     67  O   UNL A   1      47.945  25.485  36.466  1.00  0.00    -0.237 OA
ATOM     68  O   UNL A   1      48.141  27.227  38.210  1.00  0.00    -0.237 OA
ATOM     69  O   UNL A   1      46.635  25.303  38.551  1.00  0.00    -0.744 OA
ENDBRANCH  65  66
ENDBRANCH  44  58
BRANCH  45  70
ATOM     70  C   UNL A   1      36.520  33.276  30.876  1.00  0.00     0.058 A 
ATOM     71  C   UNL A   1      35.188  33.042  31.243  1.00  0.00     0.135 A 
ATOM     72  C   UNL A   1      36.766  34.209  29.857  1.00  0.00     0.135 A 
ATOM     73  F   UNL A   1      34.903  32.153  32.206  1.00  0.00    -0.206 F 
ATOM     74  C   UNL A   1      34.135  33.705  30.620  1.00  0.00     0.059 A 
ATOM     75  C   UNL A   1      35.733  34.900  29.234  1.00  0.00     0.059 A 
ATOM     76  F   UNL A   1      38.026  34.475  29.478  1.00  0.00    -0.206 F 
ATOM     77  C   UNL A   1      34.419  34.636  29.618  1.00  0.00     0.060 A 
BRANCH  77  78
ATOM     78  S   UNL A   1      33.053  35.542  28.860  1.00  0.00     0.124 S 
ATOM     79  O   UNL A   1      32.429  34.505  28.047  1.00  0.00    -0.237 OA
ATOM     80  O   UNL A   1      32.291  35.984  30.024  1.00  0.00    -0.237 OA
ATOM     81  O   UNL A   1      33.727  36.606  28.122  1.00  0.00    -0.744 OA
ENDBRANCH  77  78
ENDBRANCH  45  70
BRANCH  57  82
ATOM     82  C   UNL A   1      39.843  34.282  36.922  1.00  0.00     0.058 A 
ATOM     83  C   UNL A   1      40.547  35.497  36.895  1.00  0.00     0.135 A 
ATOM     84  C   UNL A   1      38.953  34.063  37.986  1.00  0.00     0.135 A 
ATOM     85  F   UNL A   1      41.415  35.752  35.903  1.00  0.00    -0.206 F 
ATOM     86  C   UNL A   1      40.393  36.447  37.898  1.00  0.00     0.059 A 
ATOM     87  C   UNL A   1      38.767  35.009  38.988  1.00  0.00     0.059 A 
ATOM     88  F   UNL A   1      38.249  32.921  38.053  1.00  0.00    -0.206 F 
ATOM     89  C   UNL A   1      39.503  36.194  38.943  1.00  0.00     0.060 A 
BRANCH  89  90
ATOM     90  S   UNL A   1      39.294  37.442  40.231  1.00  0.00     0.124 S 
ATOM     91  O   UNL A   1      40.646  37.980  40.338  1.00  0.00    -0.237 OA
ATOM     92  O   UNL A   1      38.301  38.336  39.645  1.00  0.00    -0.237 OA
ATOM     93  O   UNL A   1      38.831  36.669  41.379  1.00  0.00    -0.744 OA
ENDBRANCH  89  90
ENDBRANCH  57  82
ENDBRANCH  31  32
ENDBRANCH  24  26
ENDBRANCH  23  24
ENDBRANCH   1  23
TORSDOF 16
ENDMDL
