MODEL 1
REMARK VINA RESULT:     -11.1      0.000      0.000
REMARK SMILES C[C@H](C(=O)OCCOC(=O)c1ccc(-c2c3nc(c(-c4c(F)cc(S(=O)(=O)[O-])cc4F)c4ccc([nH]4)c(-c4c(F)cc(S(=O)(=O)[O-])cc4F)c4nc(c(-c5c(F)cc(S(=O)(=O)[O-])cc5F)c5ccc2[nH]5)C=C4)C=C3)cc1)c1ccc(-c2ccccc2)c(F)c1
REMARK SMILES IDX 7 1 6 2 5 3 3 4 4 5 2 6 1 7 77 8 78 9 89 10 79 11 87 12
REMARK SMILES IDX 80 13 88 14 81 15 82 16 86 17 83 18 85 19 84 20 8 21 9 22
REMARK SMILES IDX 10 23 11 24 12 25 76 26 13 27 75 28 14 29 15 30 16 31 69 32
REMARK SMILES IDX 17 33 74 34 68 35 70 36 18 37 73 38 67 39 66 40 19 42 53 43
REMARK SMILES IDX 32 44 52 45 33 46 36 47 51 48 71 49 34 50 35 51 50 53 72 54
REMARK SMILES IDX 37 55 20 56 21 57 30 58 22 59 23 60 29 61 31 62 24 63 25 64
REMARK SMILES IDX 26 65 27 66 28 67 54 68 55 69 64 70 56 71 57 72 63 73 65 74
REMARK SMILES IDX 58 75 59 76 60 77 61 78 62 79 38 80 39 81 48 82 40 83 41 84
REMARK SMILES IDX 47 85 49 86 42 87 43 88 44 89 45 90 46 91
REMARK H PARENT 70 41 36 52
REMARK Flexibility Score: inf
ROOT
ATOM      1  C   UNL A   1      32.314  30.191  27.218  1.00  0.00     0.275 C 
ENDROOT
BRANCH   1   2
ATOM      2  C   UNL A   1      31.931  29.908  25.770  1.00  0.00     0.274 C 
BRANCH   2   3
ATOM      3  O   UNL A   1      32.333  28.571  25.400  1.00  0.00    -0.462 OA
BRANCH   3   4
ATOM      4  C   UNL A   1      31.692  28.008  24.342  1.00  0.00     0.313 C 
ATOM      5  O   UNL A   1      31.401  28.609  23.312  1.00  0.00    -0.252 OA
BRANCH   4   6
ATOM      6  C   UNL A   1      31.369  26.526  24.536  1.00  0.00     0.126 C 
ATOM      7  C   UNL A   1      30.371  26.101  23.454  1.00  0.00     0.025 C 
BRANCH   6   8
ATOM      8  C   UNL A   1      32.565  25.593  24.715  1.00  0.00    -0.031 A 
ATOM      9  C   UNL A   1      33.525  25.481  23.698  1.00  0.00     0.005 A 
ATOM     10  C   UNL A   1      32.808  24.906  25.912  1.00  0.00     0.044 A 
ATOM     11  C   UNL A   1      34.664  24.684  23.858  1.00  0.00     0.012 A 
ATOM     12  C   UNL A   1      33.960  24.132  26.074  1.00  0.00     0.131 A 
ATOM     13  C   UNL A   1      34.914  24.000  25.059  1.00  0.00     0.017 A 
ATOM     14  F   UNL A   1      34.146  23.534  27.262  1.00  0.00    -0.206 F 
BRANCH  13  15
ATOM     15  C   UNL A   1      36.138  23.199  25.234  1.00  0.00    -0.015 A 
ATOM     16  C   UNL A   1      36.219  21.887  24.734  1.00  0.00     0.009 A 
ATOM     17  C   UNL A   1      37.260  23.715  25.903  1.00  0.00     0.009 A 
ATOM     18  C   UNL A   1      37.376  21.120  24.899  1.00  0.00     0.001 A 
ATOM     19  C   UNL A   1      38.419  22.951  26.065  1.00  0.00     0.001 A 
ATOM     20  C   UNL A   1      38.476  21.653  25.565  1.00  0.00     0.000 A 
ENDBRANCH  13  15
ENDBRANCH   6   8
ENDBRANCH   4   6
ENDBRANCH   3   4
ENDBRANCH   2   3
ENDBRANCH   1   2
BRANCH   1  21
ATOM     21  O   UNL A   1      33.691  29.830  27.399  1.00  0.00    -0.458 OA
BRANCH  21  22
ATOM     22  C   UNL A   1      34.421  30.680  28.155  1.00  0.00     0.338 C 
ATOM     23  O   UNL A   1      34.055  31.708  28.694  1.00  0.00    -0.246 OA
BRANCH  22  24
ATOM     24  C   UNL A   1      35.772  30.125  28.295  1.00  0.00     0.060 A 
ATOM     25  C   UNL A   1      36.194  29.700  29.554  1.00  0.00     0.016 A 
ATOM     26  C   UNL A   1      36.647  30.123  27.212  1.00  0.00     0.016 A 
ATOM     27  C   UNL A   1      37.527  29.357  29.758  1.00  0.00     0.010 A 
ATOM     28  C   UNL A   1      37.960  29.687  27.401  1.00  0.00     0.010 A 
ATOM     29  C   UNL A   1      38.427  29.336  28.683  1.00  0.00    -0.014 A 
BRANCH  29  30
ATOM     30  C   UNL A   1      39.859  28.990  28.894  1.00  0.00     0.031 A 
ATOM     31  C   UNL A   1      40.806  30.023  29.446  1.00  0.00     0.074 A 
ATOM     32  C   UNL A   1      40.318  27.760  28.590  1.00  0.00     0.049 A 
ATOM     33  N   UNL A   1      42.112  29.999  29.510  1.00  0.00    -0.248 NA
ATOM     34  C   UNL A   1      40.204  31.256  29.980  1.00  0.00     0.031 C 
ATOM     35  C   UNL A   1      39.506  26.648  28.091  1.00  0.00     0.029 A 
ATOM     36  N   UNL A   1      41.585  27.236  28.659  1.00  0.00    -0.354 N 
ATOM     37  C   UNL A   1      42.491  31.232  30.027  1.00  0.00     0.074 A 
ATOM     38  C   UNL A   1      41.276  31.980  30.269  1.00  0.00     0.031 C 
ATOM     39  C   UNL A   1      40.286  25.568  27.930  1.00  0.00     0.029 A 
ATOM     40  C   UNL A   1      41.666  25.931  28.233  1.00  0.00     0.049 A 
ATOM     41  H   UNL A   1      42.363  27.746  28.982  1.00  0.00     0.167 HD
ATOM     42  C   UNL A   1      43.740  31.699  30.270  1.00  0.00     0.037 A 
ATOM     43  C   UNL A   1      42.733  25.126  28.065  1.00  0.00     0.037 A 
ATOM     44  C   UNL A   1      44.941  30.925  30.090  1.00  0.00     0.049 A 
ATOM     45  C   UNL A   1      44.107  25.664  28.342  1.00  0.00     0.074 A 
ATOM     46  C   UNL A   1      46.253  31.300  30.328  1.00  0.00     0.029 A 
ATOM     47  N   UNL A   1      44.976  29.610  29.649  1.00  0.00    -0.354 N 
ATOM     48  N   UNL A   1      44.455  26.856  28.765  1.00  0.00    -0.248 NA
ATOM     49  C   UNL A   1      45.238  24.757  28.095  1.00  0.00     0.031 C 
ATOM     50  C   UNL A   1      47.081  30.218  30.009  1.00  0.00     0.029 A 
ATOM     51  C   UNL A   1      46.284  29.161  29.601  1.00  0.00     0.049 A 
ATOM     52  H   UNL A   1      44.186  29.076  29.405  1.00  0.00     0.167 HD
ATOM     53  C   UNL A   1      45.843  26.842  28.837  1.00  0.00     0.074 A 
ATOM     54  C   UNL A   1      46.270  25.517  28.433  1.00  0.00     0.031 C 
ATOM     55  C   UNL A   1      46.688  27.838  29.198  1.00  0.00     0.037 A 
BRANCH  42  56
ATOM     56  C   UNL A   1      43.874  33.125  30.723  1.00  0.00     0.058 A 
ATOM     57  C   UNL A   1      43.987  33.471  32.078  1.00  0.00     0.135 A 
ATOM     58  C   UNL A   1      43.913  34.163  29.776  1.00  0.00     0.135 A 
ATOM     59  F   UNL A   1      43.937  32.519  33.023  1.00  0.00    -0.206 F 
ATOM     60  C   UNL A   1      44.112  34.797  32.481  1.00  0.00     0.059 A 
ATOM     61  C   UNL A   1      44.058  35.494  30.155  1.00  0.00     0.059 A 
ATOM     62  F   UNL A   1      43.807  33.887  28.467  1.00  0.00    -0.206 F 
ATOM     63  C   UNL A   1      44.141  35.803  31.512  1.00  0.00     0.060 A 
BRANCH  63  64
ATOM     64  S   UNL A   1      44.301  37.521  32.044  1.00  0.00     0.124 S 
ATOM     65  O   UNL A   1      45.713  37.581  32.409  1.00  0.00    -0.237 OA
ATOM     66  O   UNL A   1      43.927  38.260  30.842  1.00  0.00    -0.237 OA
ATOM     67  O   UNL A   1      43.359  37.620  33.155  1.00  0.00    -0.744 OA
ENDBRANCH  63  64
ENDBRANCH  42  56
BRANCH  43  68
ATOM     68  C   UNL A   1      42.539  23.737  27.575  1.00  0.00     0.058 A 
ATOM     69  C   UNL A   1      42.446  23.464  26.203  1.00  0.00     0.135 A 
ATOM     70  C   UNL A   1      42.476  22.653  28.466  1.00  0.00     0.135 A 
ATOM     71  F   UNL A   1      42.490  24.469  25.316  1.00  0.00    -0.206 F 
ATOM     72  C   UNL A   1      42.300  22.165  25.729  1.00  0.00     0.059 A 
ATOM     73  C   UNL A   1      42.353  21.344  28.014  1.00  0.00     0.059 A 
ATOM     74  F   UNL A   1      42.571  22.863  29.788  1.00  0.00    -0.206 F 
ATOM     75  C   UNL A   1      42.259  21.110  26.642  1.00  0.00     0.060 A 
BRANCH  75  76
ATOM     76  S   UNL A   1      42.145  19.418  26.020  1.00  0.00     0.124 S 
ATOM     77  O   UNL A   1      42.646  18.654  27.155  1.00  0.00    -0.237 OA
ATOM     78  O   UNL A   1      40.719  19.285  25.740  1.00  0.00    -0.237 OA
ATOM     79  O   UNL A   1      43.005  19.439  24.841  1.00  0.00    -0.744 OA
ENDBRANCH  75  76
ENDBRANCH  43  68
BRANCH  55  80
ATOM     80  C   UNL A   1      48.155  27.526  29.191  1.00  0.00     0.058 A 
ATOM     81  C   UNL A   1      48.952  27.787  28.067  1.00  0.00     0.135 A 
ATOM     82  C   UNL A   1      48.775  26.992  30.331  1.00  0.00     0.135 A 
ATOM     83  F   UNL A   1      48.402  28.289  26.950  1.00  0.00    -0.206 F 
ATOM     84  C   UNL A   1      50.316  27.513  28.067  1.00  0.00     0.059 A 
ATOM     85  C   UNL A   1      50.140  26.728  30.360  1.00  0.00     0.059 A 
ATOM     86  F   UNL A   1      48.054  26.731  31.434  1.00  0.00    -0.206 F 
ATOM     87  C   UNL A   1      50.900  26.981  29.218  1.00  0.00     0.060 A 
BRANCH  87  88
ATOM     88  S   UNL A   1      52.676  26.653  29.220  1.00  0.00     0.124 S 
ATOM     89  O   UNL A   1      53.223  28.005  29.219  1.00  0.00    -0.237 OA
ATOM     90  O   UNL A   1      52.858  25.896  30.454  1.00  0.00    -0.237 OA
ATOM     91  O   UNL A   1      52.878  25.891  27.991  1.00  0.00    -0.744 OA
ENDBRANCH  87  88
ENDBRANCH  55  80
ENDBRANCH  29  30
ENDBRANCH  22  24
ENDBRANCH  21  22
ENDBRANCH   1  21
TORSDOF 16
ENDMDL
MODEL 2
REMARK VINA RESULT:     -11.0      1.935      2.724
REMARK SMILES C[C@H](C(=O)OCCOC(=O)c1ccc(-c2c3nc(c(-c4c(F)cc(S(=O)(=O)[O-])cc4F)c4ccc([nH]4)c(-c4c(F)cc(S(=O)(=O)[O-])cc4F)c4nc(c(-c5c(F)cc(S(=O)(=O)[O-])cc5F)c5ccc2[nH]5)C=C4)C=C3)cc1)c1ccc(-c2ccccc2)c(F)c1
REMARK SMILES IDX 7 1 6 2 5 3 3 4 4 5 2 6 1 7 77 8 78 9 89 10 79 11 87 12
REMARK SMILES IDX 80 13 88 14 81 15 82 16 86 17 83 18 85 19 84 20 8 21 9 22
REMARK SMILES IDX 10 23 11 24 12 25 76 26 13 27 75 28 14 29 15 30 16 31 69 32
REMARK SMILES IDX 17 33 74 34 68 35 70 36 18 37 73 38 67 39 66 40 19 42 53 43
REMARK SMILES IDX 32 44 52 45 33 46 36 47 51 48 71 49 34 50 35 51 50 53 72 54
REMARK SMILES IDX 37 55 20 56 21 57 30 58 22 59 23 60 29 61 31 62 24 63 25 64
REMARK SMILES IDX 26 65 27 66 28 67 54 68 55 69 64 70 56 71 57 72 63 73 65 74
REMARK SMILES IDX 58 75 59 76 60 77 61 78 62 79 38 80 39 81 48 82 40 83 41 84
REMARK SMILES IDX 47 85 49 86 42 87 43 88 44 89 45 90 46 91
REMARK H PARENT 70 41 36 52
REMARK Flexibility Score: inf
ROOT
ATOM      1  C   UNL A   1      34.098  30.851  27.413  1.00  0.00     0.275 C 
ENDROOT
BRANCH   1   2
ATOM      2  C   UNL A   1      32.779  30.112  27.216  1.00  0.00     0.274 C 
BRANCH   2   3
ATOM      3  O   UNL A   1      32.901  29.151  26.146  1.00  0.00    -0.462 OA
BRANCH   3   4
ATOM      4  C   UNL A   1      31.822  28.993  25.335  1.00  0.00     0.313 C 
ATOM      5  O   UNL A   1      31.280  29.909  24.723  1.00  0.00    -0.252 OA
BRANCH   4   6
ATOM      6  C   UNL A   1      31.334  27.548  25.233  1.00  0.00     0.126 C 
ATOM      7  C   UNL A   1      30.288  27.466  24.117  1.00  0.00     0.025 C 
BRANCH   6   8
ATOM      8  C   UNL A   1      32.418  26.473  25.182  1.00  0.00    -0.031 A 
ATOM      9  C   UNL A   1      33.386  26.500  24.167  1.00  0.00     0.005 A 
ATOM     10  C   UNL A   1      32.555  25.498  26.180  1.00  0.00     0.044 A 
ATOM     11  C   UNL A   1      34.429  25.567  24.131  1.00  0.00     0.012 A 
ATOM     12  C   UNL A   1      33.612  24.585  26.151  1.00  0.00     0.131 A 
ATOM     13  C   UNL A   1      34.572  24.594  25.133  1.00  0.00     0.017 A 
ATOM     14  F   UNL A   1      33.703  23.705  27.161  1.00  0.00    -0.206 F 
BRANCH  13  15
ATOM     15  C   UNL A   1      35.699  23.644  25.111  1.00  0.00    -0.015 A 
ATOM     16  C   UNL A   1      35.656  22.494  24.302  1.00  0.00     0.009 A 
ATOM     17  C   UNL A   1      36.847  23.853  25.891  1.00  0.00     0.009 A 
ATOM     18  C   UNL A   1      36.719  21.587  24.278  1.00  0.00     0.001 A 
ATOM     19  C   UNL A   1      37.913  22.949  25.865  1.00  0.00     0.001 A 
ATOM     20  C   UNL A   1      37.847  21.815  25.060  1.00  0.00     0.000 A 
ENDBRANCH  13  15
ENDBRANCH   6   8
ENDBRANCH   4   6
ENDBRANCH   3   4
ENDBRANCH   2   3
ENDBRANCH   1   2
BRANCH   1  21
ATOM     21  O   UNL A   1      35.012  29.971  28.086  1.00  0.00    -0.458 OA
BRANCH  21  22
ATOM     22  C   UNL A   1      35.889  30.571  28.919  1.00  0.00     0.338 C 
ATOM     23  O   UNL A   1      35.669  31.443  29.740  1.00  0.00    -0.246 OA
BRANCH  22  24
ATOM     24  C   UNL A   1      37.202  29.944  28.731  1.00  0.00     0.060 A 
ATOM     25  C   UNL A   1      37.921  29.542  29.856  1.00  0.00     0.016 A 
ATOM     26  C   UNL A   1      37.762  29.852  27.459  1.00  0.00     0.016 A 
ATOM     27  C   UNL A   1      39.243  29.131  29.724  1.00  0.00     0.010 A 
ATOM     28  C   UNL A   1      39.057  29.348  27.322  1.00  0.00     0.010 A 
ATOM     29  C   UNL A   1      39.827  29.019  28.454  1.00  0.00    -0.014 A 
BRANCH  29  30
ATOM     30  C   UNL A   1      41.247  28.599  28.302  1.00  0.00     0.031 A 
ATOM     31  C   UNL A   1      42.349  29.616  28.449  1.00  0.00     0.074 A 
ATOM     32  C   UNL A   1      41.556  27.316  28.030  1.00  0.00     0.049 A 
ATOM     33  N   UNL A   1      43.618  29.508  28.154  1.00  0.00    -0.248 NA
ATOM     34  C   UNL A   1      41.968  30.934  28.980  1.00  0.00     0.031 C 
ATOM     35  C   UNL A   1      40.595  26.217  27.906  1.00  0.00     0.029 A 
ATOM     36  N   UNL A   1      42.771  26.715  27.809  1.00  0.00    -0.354 N 
ATOM     37  C   UNL A   1      44.173  30.759  28.399  1.00  0.00     0.074 A 
ATOM     38  C   UNL A   1      43.104  31.608  28.876  1.00  0.00     0.031 C 
ATOM     39  C   UNL A   1      41.258  25.075  27.665  1.00  0.00     0.029 A 
ATOM     40  C   UNL A   1      42.680  25.372  27.533  1.00  0.00     0.049 A 
ATOM     41  H   UNL A   1      43.627  27.202  27.844  1.00  0.00     0.167 HD
ATOM     42  C   UNL A   1      45.457  31.161  28.233  1.00  0.00     0.037 A 
ATOM     43  C   UNL A   1      43.626  24.482  27.173  1.00  0.00     0.037 A 
ATOM     44  C   UNL A   1      46.529  30.292  27.822  1.00  0.00     0.049 A 
ATOM     45  C   UNL A   1      45.042  24.950  26.997  1.00  0.00     0.074 A 
ATOM     46  C   UNL A   1      47.868  30.599  27.645  1.00  0.00     0.029 A 
ATOM     47  N   UNL A   1      46.390  28.940  27.545  1.00  0.00    -0.354 N 
ATOM     48  N   UNL A   1      45.539  26.153  27.166  1.00  0.00    -0.248 NA
ATOM     49  C   UNL A   1      46.023  23.948  26.557  1.00  0.00     0.031 C 
ATOM     50  C   UNL A   1      48.533  29.436  27.240  1.00  0.00     0.029 A 
ATOM     51  C   UNL A   1      47.614  28.400  27.193  1.00  0.00     0.049 A 
ATOM     52  H   UNL A   1      45.543  28.440  27.591  1.00  0.00     0.167 HD
ATOM     53  C   UNL A   1      46.889  26.051  26.855  1.00  0.00     0.074 A 
ATOM     54  C   UNL A   1      47.136  24.666  26.507  1.00  0.00     0.031 C 
ATOM     55  C   UNL A   1      47.839  27.018  26.851  1.00  0.00     0.037 A 
BRANCH  42  56
ATOM     56  C   UNL A   1      45.765  32.614  28.463  1.00  0.00     0.058 A 
ATOM     57  C   UNL A   1      45.713  33.560  27.429  1.00  0.00     0.135 A 
ATOM     58  C   UNL A   1      46.096  33.067  29.751  1.00  0.00     0.135 A 
ATOM     59  F   UNL A   1      45.420  33.176  26.176  1.00  0.00    -0.206 F 
ATOM     60  C   UNL A   1      45.999  34.903  27.658  1.00  0.00     0.059 A 
ATOM     61  C   UNL A   1      46.366  34.408  30.008  1.00  0.00     0.059 A 
ATOM     62  F   UNL A   1      46.162  32.203  30.775  1.00  0.00    -0.206 F 
ATOM     63  C   UNL A   1      46.330  35.316  28.951  1.00  0.00     0.060 A 
BRANCH  63  64
ATOM     64  S   UNL A   1      46.703  37.059  29.239  1.00  0.00     0.124 S 
ATOM     65  O   UNL A   1      45.927  37.701  28.182  1.00  0.00    -0.237 OA
ATOM     66  O   UNL A   1      46.212  37.267  30.598  1.00  0.00    -0.237 OA
ATOM     67  O   UNL A   1      48.153  37.126  29.084  1.00  0.00    -0.744 OA
ENDBRANCH  63  64
ENDBRANCH  42  56
BRANCH  43  68
ATOM     68  C   UNL A   1      43.250  23.068  26.921  1.00  0.00     0.058 A 
ATOM     69  C   UNL A   1      43.195  22.559  25.616  1.00  0.00     0.135 A 
ATOM     70  C   UNL A   1      42.973  22.188  27.980  1.00  0.00     0.135 A 
ATOM     71  F   UNL A   1      43.442  23.365  24.572  1.00  0.00    -0.206 F 
ATOM     72  C   UNL A   1      42.879  21.228  25.367  1.00  0.00     0.059 A 
ATOM     73  C   UNL A   1      42.676  20.848  27.758  1.00  0.00     0.059 A 
ATOM     74  F   UNL A   1      43.024  22.626  29.248  1.00  0.00    -0.206 F 
ATOM     75  C   UNL A   1      42.626  20.378  26.445  1.00  0.00     0.060 A 
BRANCH  75  76
ATOM     76  S   UNL A   1      42.290  18.633  26.124  1.00  0.00     0.124 S 
ATOM     77  O   UNL A   1      40.884  18.670  25.745  1.00  0.00    -0.237 OA
ATOM     78  O   UNL A   1      43.233  18.327  25.052  1.00  0.00    -0.237 OA
ATOM     79  O   UNL A   1      42.586  17.997  27.404  1.00  0.00    -0.744 OA
ENDBRANCH  75  76
ENDBRANCH  43  68
BRANCH  55  80
ATOM     80  C   UNL A   1      49.232  26.607  26.479  1.00  0.00     0.058 A 
ATOM     81  C   UNL A   1      50.106  26.046  27.422  1.00  0.00     0.135 A 
ATOM     82  C   UNL A   1      49.686  26.743  25.158  1.00  0.00     0.135 A 
ATOM     83  F   UNL A   1      49.719  25.904  28.700  1.00  0.00    -0.206 F 
ATOM     84  C   UNL A   1      51.391  25.649  27.073  1.00  0.00     0.059 A 
ATOM     85  C   UNL A   1      50.961  26.336  24.781  1.00  0.00     0.059 A 
ATOM     86  F   UNL A   1      48.883  27.268  24.218  1.00  0.00    -0.206 F 
ATOM     87  C   UNL A   1      51.811  25.801  25.749  1.00  0.00     0.060 A 
BRANCH  87  88
ATOM     88  S   UNL A   1      53.473  25.259  25.296  1.00  0.00     0.124 S 
ATOM     89  O   UNL A   1      53.599  25.798  23.947  1.00  0.00    -0.237 OA
ATOM     90  O   UNL A   1      54.303  25.895  26.314  1.00  0.00    -0.237 OA
ATOM     91  O   UNL A   1      53.388  23.804  25.387  1.00  0.00    -0.744 OA
ENDBRANCH  87  88
ENDBRANCH  55  80
ENDBRANCH  29  30
ENDBRANCH  22  24
ENDBRANCH  21  22
ENDBRANCH   1  21
TORSDOF 16
ENDMDL
MODEL 3
REMARK VINA RESULT:     -10.9      3.867      6.511
REMARK SMILES C[C@H](C(=O)OCCOC(=O)c1ccc(-c2c3nc(c(-c4c(F)cc(S(=O)(=O)[O-])cc4F)c4ccc([nH]4)c(-c4c(F)cc(S(=O)(=O)[O-])cc4F)c4nc(c(-c5c(F)cc(S(=O)(=O)[O-])cc5F)c5ccc2[nH]5)C=C4)C=C3)cc1)c1ccc(-c2ccccc2)c(F)c1
REMARK SMILES IDX 7 1 6 2 5 3 3 4 4 5 2 6 1 7 77 8 78 9 89 10 79 11 87 12
REMARK SMILES IDX 80 13 88 14 81 15 82 16 86 17 83 18 85 19 84 20 8 21 9 22
REMARK SMILES IDX 10 23 11 24 12 25 76 26 13 27 75 28 14 29 15 30 16 31 69 32
REMARK SMILES IDX 17 33 74 34 68 35 70 36 18 37 73 38 67 39 66 40 19 42 53 43
REMARK SMILES IDX 32 44 52 45 33 46 36 47 51 48 71 49 34 50 35 51 50 53 72 54
REMARK SMILES IDX 37 55 20 56 21 57 30 58 22 59 23 60 29 61 31 62 24 63 25 64
REMARK SMILES IDX 26 65 27 66 28 67 54 68 55 69 64 70 56 71 57 72 63 73 65 74
REMARK SMILES IDX 58 75 59 76 60 77 61 78 62 79 38 80 39 81 48 82 40 83 41 84
REMARK SMILES IDX 47 85 49 86 42 87 43 88 44 89 45 90 46 91
REMARK H PARENT 70 41 36 52
REMARK Flexibility Score: inf
ROOT
ATOM      1  C   UNL A   1      34.008  33.258  27.855  1.00  0.00     0.275 C 
ENDROOT
BRANCH   1   2
ATOM      2  C   UNL A   1      33.638  34.366  28.835  1.00  0.00     0.274 C 
BRANCH   2   3
ATOM      3  O   UNL A   1      33.612  33.850  30.184  1.00  0.00    -0.462 OA
BRANCH   3   4
ATOM      4  C   UNL A   1      34.272  34.570  31.130  1.00  0.00     0.313 C 
ATOM      5  O   UNL A   1      34.063  35.757  31.362  1.00  0.00    -0.252 OA
BRANCH   4   6
ATOM      6  C   UNL A   1      35.308  33.760  31.909  1.00  0.00     0.126 C 
ATOM      7  C   UNL A   1      34.765  32.342  32.108  1.00  0.00     0.025 C 
BRANCH   6   8
ATOM      8  C   UNL A   1      36.746  33.837  31.400  1.00  0.00    -0.031 A 
ATOM      9  C   UNL A   1      37.042  33.476  30.077  1.00  0.00     0.005 A 
ATOM     10  C   UNL A   1      37.790  34.359  32.177  1.00  0.00     0.044 A 
ATOM     11  C   UNL A   1      38.338  33.596  29.563  1.00  0.00     0.012 A 
ATOM     12  C   UNL A   1      39.076  34.499  31.649  1.00  0.00     0.131 A 
ATOM     13  C   UNL A   1      39.384  34.124  30.336  1.00  0.00     0.017 A 
ATOM     14  F   UNL A   1      40.016  35.043  32.438  1.00  0.00    -0.206 F 
BRANCH  13  15
ATOM     15  C   UNL A   1      40.735  34.288  29.772  1.00  0.00    -0.015 A 
ATOM     16  C   UNL A   1      41.038  35.373  28.929  1.00  0.00     0.009 A 
ATOM     17  C   UNL A   1      41.762  33.374  30.055  1.00  0.00     0.009 A 
ATOM     18  C   UNL A   1      42.316  35.534  28.387  1.00  0.00     0.001 A 
ATOM     19  C   UNL A   1      43.042  33.535  29.517  1.00  0.00     0.001 A 
ATOM     20  C   UNL A   1      43.318  34.613  28.682  1.00  0.00     0.000 A 
ENDBRANCH  13  15
ENDBRANCH   6   8
ENDBRANCH   4   6
ENDBRANCH   3   4
ENDBRANCH   2   3
ENDBRANCH   1   2
BRANCH   1  21
ATOM     21  O   UNL A   1      34.233  32.052  28.600  1.00  0.00    -0.458 OA
BRANCH  21  22
ATOM     22  C   UNL A   1      34.508  30.955  27.862  1.00  0.00     0.338 C 
ATOM     23  O   UNL A   1      33.879  30.507  26.921  1.00  0.00    -0.246 OA
BRANCH  22  24
ATOM     24  C   UNL A   1      35.774  30.388  28.339  1.00  0.00     0.060 A 
ATOM     25  C   UNL A   1      35.785  29.697  29.550  1.00  0.00     0.016 A 
ATOM     26  C   UNL A   1      36.958  30.628  27.646  1.00  0.00     0.016 A 
ATOM     27  C   UNL A   1      36.996  29.323  30.123  1.00  0.00     0.010 A 
ATOM     28  C   UNL A   1      38.163  30.167  28.179  1.00  0.00     0.010 A 
ATOM     29  C   UNL A   1      38.202  29.544  29.441  1.00  0.00    -0.014 A 
BRANCH  29  30
ATOM     30  C   UNL A   1      39.504  29.165  30.055  1.00  0.00     0.031 A 
ATOM     31  C   UNL A   1      40.006  29.906  31.267  1.00  0.00     0.074 A 
ATOM     32  C   UNL A   1      40.243  28.167  29.531  1.00  0.00     0.049 A 
ATOM     33  N   UNL A   1      41.189  29.879  31.822  1.00  0.00    -0.248 NA
ATOM     34  C   UNL A   1      39.054  30.811  31.930  1.00  0.00     0.031 C 
ATOM     35  C   UNL A   1      39.861  27.335  28.387  1.00  0.00     0.029 A 
ATOM     36  N   UNL A   1      41.474  27.680  29.894  1.00  0.00    -0.354 N 
ATOM     37  C   UNL A   1      41.146  30.808  32.855  1.00  0.00     0.074 A 
ATOM     38  C   UNL A   1      39.816  31.377  32.856  1.00  0.00     0.031 C 
ATOM     39  C   UNL A   1      40.819  26.422  28.165  1.00  0.00     0.029 A 
ATOM     40  C   UNL A   1      41.920  26.655  29.093  1.00  0.00     0.049 A 
ATOM     41  H   UNL A   1      41.990  28.030  30.657  1.00  0.00     0.167 HD
ATOM     42  C   UNL A   1      42.130  31.159  33.719  1.00  0.00     0.037 A 
ATOM     43  C   UNL A   1      43.099  26.002  29.076  1.00  0.00     0.037 A 
ATOM     44  C   UNL A   1      43.430  30.541  33.755  1.00  0.00     0.049 A 
ATOM     45  C   UNL A   1      44.175  26.407  30.042  1.00  0.00     0.074 A 
ATOM     46  C   UNL A   1      44.490  30.811  34.605  1.00  0.00     0.029 A 
ATOM     47  N   UNL A   1      43.842  29.513  32.919  1.00  0.00    -0.354 N 
ATOM     48  N   UNL A   1      44.143  27.336  30.968  1.00  0.00    -0.248 NA
ATOM     49  C   UNL A   1      45.456  25.693  29.946  1.00  0.00     0.031 C 
ATOM     50  C   UNL A   1      45.549  29.960  34.267  1.00  0.00     0.029 A 
ATOM     51  C   UNL A   1      45.139  29.142  33.227  1.00  0.00     0.049 A 
ATOM     52  H   UNL A   1      43.292  29.109  32.209  1.00  0.00     0.167 HD
ATOM     53  C   UNL A   1      45.396  27.316  31.567  1.00  0.00     0.074 A 
ATOM     54  C   UNL A   1      46.157  26.271  30.912  1.00  0.00     0.031 C 
ATOM     55  C   UNL A   1      45.878  28.097  32.564  1.00  0.00     0.037 A 
BRANCH  42  56
ATOM     56  C   UNL A   1      41.851  32.286  34.671  1.00  0.00     0.058 A 
ATOM     57  C   UNL A   1      42.132  33.622  34.350  1.00  0.00     0.135 A 
ATOM     58  C   UNL A   1      41.265  32.022  35.921  1.00  0.00     0.135 A 
ATOM     59  F   UNL A   1      42.708  33.927  33.176  1.00  0.00    -0.206 F 
ATOM     60  C   UNL A   1      41.866  34.656  35.243  1.00  0.00     0.059 A 
ATOM     61  C   UNL A   1      40.971  33.041  36.821  1.00  0.00     0.059 A 
ATOM     62  F   UNL A   1      40.977  30.761  36.278  1.00  0.00    -0.206 F 
ATOM     63  C   UNL A   1      41.289  34.355  36.479  1.00  0.00     0.060 A 
BRANCH  63  64
ATOM     64  S   UNL A   1      40.948  35.701  37.633  1.00  0.00     0.124 S 
ATOM     65  O   UNL A   1      40.001  36.506  36.867  1.00  0.00    -0.237 OA
ATOM     66  O   UNL A   1      40.392  34.997  38.785  1.00  0.00    -0.237 OA
ATOM     67  O   UNL A   1      42.260  36.305  37.846  1.00  0.00    -0.744 OA
ENDBRANCH  63  64
ENDBRANCH  42  56
BRANCH  43  68
ATOM     68  C   UNL A   1      43.329  24.923  28.081  1.00  0.00     0.058 A 
ATOM     69  C   UNL A   1      43.965  25.191  26.862  1.00  0.00     0.135 A 
ATOM     70  C   UNL A   1      42.949  23.597  28.346  1.00  0.00     0.135 A 
ATOM     71  F   UNL A   1      44.336  26.445  26.561  1.00  0.00    -0.206 F 
ATOM     72  C   UNL A   1      44.219  24.184  25.936  1.00  0.00     0.059 A 
ATOM     73  C   UNL A   1      43.212  22.570  27.446  1.00  0.00     0.059 A 
ATOM     74  F   UNL A   1      42.346  23.289  29.504  1.00  0.00    -0.206 F 
ATOM     75  C   UNL A   1      43.843  22.875  26.240  1.00  0.00     0.060 A 
BRANCH  75  76
ATOM     76  S   UNL A   1      44.241  21.557  25.071  1.00  0.00     0.124 S 
ATOM     77  O   UNL A   1      43.188  20.589  25.350  1.00  0.00    -0.237 OA
ATOM     78  O   UNL A   1      44.153  22.244  23.786  1.00  0.00    -0.237 OA
ATOM     79  O   UNL A   1      45.589  21.159  25.466  1.00  0.00    -0.744 OA
ENDBRANCH  75  76
ENDBRANCH  43  68
BRANCH  55  80
ATOM     80  C   UNL A   1      47.283  27.838  33.019  1.00  0.00     0.058 A 
ATOM     81  C   UNL A   1      48.371  28.520  32.454  1.00  0.00     0.135 A 
ATOM     82  C   UNL A   1      47.540  26.924  34.052  1.00  0.00     0.135 A 
ATOM     83  F   UNL A   1      48.175  29.397  31.457  1.00  0.00    -0.206 F 
ATOM     84  C   UNL A   1      49.673  28.291  32.887  1.00  0.00     0.059 A 
ATOM     85  C   UNL A   1      48.832  26.693  34.514  1.00  0.00     0.059 A 
ATOM     86  F   UNL A   1      46.530  26.252  34.627  1.00  0.00    -0.206 F 
ATOM     87  C   UNL A   1      49.893  27.373  33.917  1.00  0.00     0.060 A 
BRANCH  87  88
ATOM     88  S   UNL A   1      51.583  27.101  34.492  1.00  0.00     0.124 S 
ATOM     89  O   UNL A   1      51.608  25.651  34.652  1.00  0.00    -0.237 OA
ATOM     90  O   UNL A   1      52.382  27.632  33.393  1.00  0.00    -0.237 OA
ATOM     91  O   UNL A   1      51.644  27.872  35.731  1.00  0.00    -0.744 OA
ENDBRANCH  87  88
ENDBRANCH  55  80
ENDBRANCH  29  30
ENDBRANCH  22  24
ENDBRANCH  21  22
ENDBRANCH   1  21
TORSDOF 16
ENDMDL
