MODEL 1
REMARK VINA RESULT:     -13.6      0.000      0.000
REMARK SMILES Cc1ccc(NC(=O)N2CCCC[C@@H]2C(=O)OCCOC(=O)c2ccc(-c3c4nc(c(-c5c(F)cc(S(=O)(=O)[O-])cc5F)c5ccc([nH]5)c(-c5c(F)cc(S(=O)(=O)[O-])cc5F)c5nc(c(-c6c(F)cc(S(=O)(=O)[O-])cc6F)c6ccc3[nH]6)C=C5)C=C4)cc2)cc1
REMARK SMILES IDX 19 1 18 2 17 3 15 4 16 5 14 6 9 7 10 8 11 9 13 10 12 11 7 12
REMARK SMILES IDX 6 13 8 15 5 16 1 17 2 18 3 19 90 20 4 21 89 22 20 23 21 24
REMARK SMILES IDX 22 25 23 26 24 27 88 28 25 29 87 30 26 31 27 32 28 33 81 34
REMARK SMILES IDX 29 35 86 36 80 37 82 38 30 39 85 40 79 41 78 42 31 44 65 45
REMARK SMILES IDX 44 46 64 47 45 48 48 49 63 50 83 51 46 52 47 53 62 55 84 56
REMARK SMILES IDX 49 57 32 58 33 59 42 60 34 61 35 62 41 63 43 64 36 65 37 66
REMARK SMILES IDX 38 67 39 68 40 69 66 70 67 71 76 72 68 73 69 74 75 75 77 76
REMARK SMILES IDX 70 77 71 78 72 79 73 80 74 81 50 82 51 83 60 84 52 85 53 86
REMARK SMILES IDX 59 87 61 88 54 89 55 90 56 91 57 92 58 93
REMARK H PARENT 6 14 82 43 48 54
REMARK Flexibility Score: inf
ROOT
ATOM      1  C   UNL A   1      34.364  30.759  27.479  1.00  0.00     0.275 C 
ENDROOT
BRANCH   1   2
ATOM      2  C   UNL A   1      34.177  29.222  27.507  1.00  0.00     0.274 C 
BRANCH   2   3
ATOM      3  O   UNL A   1      32.875  28.795  27.090  1.00  0.00    -0.461 OA
BRANCH   3   4
ATOM      4  C   UNL A   1      32.758  28.312  25.807  1.00  0.00     0.329 C 
ATOM      5  O   UNL A   1      33.701  28.217  25.035  1.00  0.00    -0.250 OA
BRANCH   4   6
ATOM      6  C   UNL A   1      31.252  28.174  25.446  1.00  0.00     0.196 C 
ATOM      7  N   UNL A   1      30.725  26.852  24.981  1.00  0.00    -0.311 N 
ATOM      8  C   UNL A   1      30.163  26.660  23.658  1.00  0.00     0.122 C 
ATOM      9  C   UNL A   1      30.454  27.766  22.675  1.00  0.00     0.022 C 
ATOM     10  C   UNL A   1      31.078  29.343  24.450  1.00  0.00     0.037 C 
ATOM     11  C   UNL A   1      30.111  29.095  23.317  1.00  0.00     0.005 C 
BRANCH   7  12
ATOM     12  C   UNL A   1      30.712  25.713  25.732  1.00  0.00     0.322 C 
ATOM     13  N   UNL A   1      31.775  24.870  25.797  1.00  0.00    -0.308 N 
ATOM     14  H   UNL A   1      31.670  24.221  26.530  1.00  0.00     0.171 HD
ATOM     15  O   UNL A   1      29.809  25.530  26.552  1.00  0.00    -0.248 OA
BRANCH  13  16
ATOM     16  C   UNL A   1      32.983  24.668  25.106  1.00  0.00     0.042 A 
ATOM     17  C   UNL A   1      36.547  22.934  23.409  1.00  0.00     0.044 C 
ATOM     18  C   UNL A   1      35.385  23.700  23.978  1.00  0.00    -0.051 A 
ATOM     19  C   UNL A   1      34.305  24.070  23.169  1.00  0.00     0.005 A 
ATOM     20  C   UNL A   1      35.317  23.970  25.344  1.00  0.00     0.005 A 
ATOM     21  C   UNL A   1      33.118  24.569  23.729  1.00  0.00     0.026 A 
ATOM     22  C   UNL A   1      34.123  24.444  25.900  1.00  0.00     0.026 A 
ENDBRANCH  13  16
ENDBRANCH   7  12
ENDBRANCH   4   6
ENDBRANCH   3   4
ENDBRANCH   2   3
ENDBRANCH   1   2
BRANCH   1  23
ATOM     23  O   UNL A   1      35.535  31.361  28.095  1.00  0.00    -0.458 OA
BRANCH  23  24
ATOM     24  C   UNL A   1      36.190  30.903  29.203  1.00  0.00     0.338 C 
ATOM     25  O   UNL A   1      35.854  31.272  30.313  1.00  0.00    -0.246 OA
BRANCH  24  26
ATOM     26  C   UNL A   1      37.165  29.811  28.948  1.00  0.00     0.060 A 
ATOM     27  C   UNL A   1      37.970  29.889  27.809  1.00  0.00     0.016 A 
ATOM     28  C   UNL A   1      37.479  28.918  29.965  1.00  0.00     0.016 A 
ATOM     29  C   UNL A   1      39.219  29.266  27.800  1.00  0.00     0.010 A 
ATOM     30  C   UNL A   1      38.750  28.380  29.998  1.00  0.00     0.010 A 
ATOM     31  C   UNL A   1      39.646  28.580  28.933  1.00  0.00    -0.014 A 
BRANCH  31  32
ATOM     32  C   UNL A   1      40.891  27.813  29.005  1.00  0.00     0.031 A 
ATOM     33  C   UNL A   1      41.061  26.387  28.625  1.00  0.00     0.074 A 
ATOM     34  C   UNL A   1      41.932  28.555  29.435  1.00  0.00     0.049 A 
ATOM     35  N   UNL A   1      42.112  25.690  28.904  1.00  0.00    -0.248 NA
ATOM     36  C   UNL A   1      40.069  25.603  27.911  1.00  0.00     0.031 C 
ATOM     37  C   UNL A   1      43.349  28.261  29.455  1.00  0.00     0.029 A 
ATOM     38  N   UNL A   1      41.818  29.727  30.176  1.00  0.00    -0.354 N 
ATOM     39  C   UNL A   1      42.042  24.482  28.231  1.00  0.00     0.074 A 
ATOM     40  C   UNL A   1      40.716  24.454  27.674  1.00  0.00     0.031 C 
ATOM     41  C   UNL A   1      43.930  29.053  30.376  1.00  0.00     0.029 A 
ATOM     42  C   UNL A   1      42.871  29.769  31.083  1.00  0.00     0.049 A 
ATOM     43  H   UNL A   1      41.116  30.409  30.074  1.00  0.00     0.167 HD
ATOM     44  C   UNL A   1      43.170  23.713  28.155  1.00  0.00     0.037 A 
ATOM     45  C   UNL A   1      42.552  29.611  32.405  1.00  0.00     0.037 A 
ATOM     46  C   UNL A   1      44.172  24.222  29.090  1.00  0.00     0.049 A 
ATOM     47  C   UNL A   1      43.002  28.270  32.967  1.00  0.00     0.074 A 
ATOM     48  C   UNL A   1      45.236  25.101  28.973  1.00  0.00     0.029 A 
ATOM     49  N   UNL A   1      43.909  24.112  30.443  1.00  0.00    -0.354 N 
ATOM     50  N   UNL A   1      43.467  27.282  32.250  1.00  0.00    -0.248 NA
ATOM     51  C   UNL A   1      42.936  27.930  34.388  1.00  0.00     0.031 C 
ATOM     52  C   UNL A   1      45.536  25.596  30.276  1.00  0.00     0.029 A 
ATOM     53  C   UNL A   1      44.674  24.998  31.177  1.00  0.00     0.049 A 
ATOM     54  H   UNL A   1      43.260  23.483  30.833  1.00  0.00     0.167 HD
ATOM     55  C   UNL A   1      43.823  26.244  33.063  1.00  0.00     0.074 A 
ATOM     56  C   UNL A   1      43.435  26.681  34.394  1.00  0.00     0.031 C 
ATOM     57  C   UNL A   1      44.437  25.115  32.605  1.00  0.00     0.037 A 
BRANCH  44  58
ATOM     58  C   UNL A   1      43.472  22.664  27.094  1.00  0.00     0.058 A 
ATOM     59  C   UNL A   1      42.743  21.449  27.091  1.00  0.00     0.135 A 
ATOM     60  C   UNL A   1      44.491  22.727  26.123  1.00  0.00     0.135 A 
ATOM     61  F   UNL A   1      41.697  21.255  27.907  1.00  0.00    -0.206 F 
ATOM     62  C   UNL A   1      43.061  20.360  26.276  1.00  0.00     0.059 A 
ATOM     63  C   UNL A   1      44.846  21.637  25.309  1.00  0.00     0.059 A 
ATOM     64  F   UNL A   1      45.171  23.856  25.896  1.00  0.00    -0.206 F 
ATOM     65  C   UNL A   1      44.139  20.447  25.410  1.00  0.00     0.060 A 
BRANCH  65  66
ATOM     66  S   UNL A   1      44.586  18.988  24.445  1.00  0.00     0.124 S 
ATOM     67  O   UNL A   1      45.939  18.713  24.919  1.00  0.00    -0.237 OA
ATOM     68  O   UNL A   1      43.566  18.025  24.848  1.00  0.00    -0.237 OA
ATOM     69  O   UNL A   1      44.496  19.450  23.063  1.00  0.00    -0.744 OA
ENDBRANCH  65  66
ENDBRANCH  44  58
BRANCH  45  70
ATOM     70  C   UNL A   1      41.275  30.313  32.771  1.00  0.00     0.058 A 
ATOM     71  C   UNL A   1      40.137  29.551  33.118  1.00  0.00     0.135 A 
ATOM     72  C   UNL A   1      41.276  31.654  33.166  1.00  0.00     0.135 A 
ATOM     73  F   UNL A   1      40.079  28.250  32.791  1.00  0.00    -0.206 F 
ATOM     74  C   UNL A   1      39.103  30.064  33.905  1.00  0.00     0.059 A 
ATOM     75  C   UNL A   1      40.252  32.183  33.957  1.00  0.00     0.059 A 
ATOM     76  F   UNL A   1      42.339  32.429  32.901  1.00  0.00    -0.206 F 
ATOM     77  C   UNL A   1      39.189  31.377  34.354  1.00  0.00     0.060 A 
BRANCH  77  78
ATOM     78  S   UNL A   1      37.985  31.962  35.574  1.00  0.00     0.124 S 
ATOM     79  O   UNL A   1      38.691  33.088  36.176  1.00  0.00    -0.237 OA
ATOM     80  O   UNL A   1      36.847  32.304  34.723  1.00  0.00    -0.237 OA
ATOM     81  O   UNL A   1      37.795  30.810  36.446  1.00  0.00    -0.744 OA
ENDBRANCH  77  78
ENDBRANCH  45  70
BRANCH  57  82
ATOM     82  C   UNL A   1      44.953  24.038  33.509  1.00  0.00     0.058 A 
ATOM     83  C   UNL A   1      46.317  23.928  33.818  1.00  0.00     0.135 A 
ATOM     84  C   UNL A   1      44.120  22.985  33.942  1.00  0.00     0.135 A 
ATOM     85  F   UNL A   1      47.193  24.854  33.397  1.00  0.00    -0.206 F 
ATOM     86  C   UNL A   1      46.822  22.856  34.547  1.00  0.00     0.059 A 
ATOM     87  C   UNL A   1      44.612  21.876  34.622  1.00  0.00     0.059 A 
ATOM     88  F   UNL A   1      42.794  23.015  33.733  1.00  0.00    -0.206 F 
ATOM     89  C   UNL A   1      45.963  21.832  34.940  1.00  0.00     0.060 A 
BRANCH  89  90
ATOM     90  S   UNL A   1      46.626  20.429  35.854  1.00  0.00     0.124 S 
ATOM     91  O   UNL A   1      48.058  20.719  35.889  1.00  0.00    -0.237 OA
ATOM     92  O   UNL A   1      45.925  20.559  37.128  1.00  0.00    -0.237 OA
ATOM     93  O   UNL A   1      46.245  19.281  35.037  1.00  0.00    -0.744 OA
ENDBRANCH  89  90
ENDBRANCH  57  82
ENDBRANCH  31  32
ENDBRANCH  24  26
ENDBRANCH  23  24
ENDBRANCH   1  23
TORSDOF 16
ENDMDL
MODEL 2
REMARK VINA RESULT:     -13.5      1.314      2.928
REMARK SMILES Cc1ccc(NC(=O)N2CCCC[C@@H]2C(=O)OCCOC(=O)c2ccc(-c3c4nc(c(-c5c(F)cc(S(=O)(=O)[O-])cc5F)c5ccc([nH]5)c(-c5c(F)cc(S(=O)(=O)[O-])cc5F)c5nc(c(-c6c(F)cc(S(=O)(=O)[O-])cc6F)c6ccc3[nH]6)C=C5)C=C4)cc2)cc1
REMARK SMILES IDX 19 1 18 2 17 3 15 4 16 5 14 6 9 7 10 8 11 9 13 10 12 11 7 12
REMARK SMILES IDX 6 13 8 15 5 16 1 17 2 18 3 19 90 20 4 21 89 22 20 23 21 24
REMARK SMILES IDX 22 25 23 26 24 27 88 28 25 29 87 30 26 31 27 32 28 33 81 34
REMARK SMILES IDX 29 35 86 36 80 37 82 38 30 39 85 40 79 41 78 42 31 44 65 45
REMARK SMILES IDX 44 46 64 47 45 48 48 49 63 50 83 51 46 52 47 53 62 55 84 56
REMARK SMILES IDX 49 57 32 58 33 59 42 60 34 61 35 62 41 63 43 64 36 65 37 66
REMARK SMILES IDX 38 67 39 68 40 69 66 70 67 71 76 72 68 73 69 74 75 75 77 76
REMARK SMILES IDX 70 77 71 78 72 79 73 80 74 81 50 82 51 83 60 84 52 85 53 86
REMARK SMILES IDX 59 87 61 88 54 89 55 90 56 91 57 92 58 93
REMARK H PARENT 6 14 82 43 48 54
REMARK Flexibility Score: inf
ROOT
ATOM      1  C   UNL A   1      34.128  30.879  27.693  1.00  0.00     0.275 C 
ENDROOT
BRANCH   1   2
ATOM      2  C   UNL A   1      33.919  29.580  26.876  1.00  0.00     0.274 C 
BRANCH   2   3
ATOM      3  O   UNL A   1      32.716  29.580  26.098  1.00  0.00    -0.461 OA
BRANCH   3   4
ATOM      4  C   UNL A   1      32.297  28.368  25.598  1.00  0.00     0.329 C 
ATOM      5  O   UNL A   1      32.335  27.327  26.237  1.00  0.00    -0.250 OA
BRANCH   4   6
ATOM      6  C   UNL A   1      32.040  28.504  24.070  1.00  0.00     0.196 C 
ATOM      7  N   UNL A   1      31.336  27.401  23.342  1.00  0.00    -0.311 N 
ATOM      8  C   UNL A   1      31.969  26.640  22.283  1.00  0.00     0.122 C 
ATOM      9  C   UNL A   1      33.468  26.791  22.198  1.00  0.00     0.022 C 
ATOM     10  C   UNL A   1      33.459  28.834  23.559  1.00  0.00     0.037 C 
ATOM     11  C   UNL A   1      33.812  28.266  22.205  1.00  0.00     0.005 C 
BRANCH   7  12
ATOM     12  C   UNL A   1      30.053  27.005  23.586  1.00  0.00     0.322 C 
ATOM     13  N   UNL A   1      28.979  27.768  23.258  1.00  0.00    -0.308 N 
ATOM     14  H   UNL A   1      28.143  27.250  23.316  1.00  0.00     0.171 HD
ATOM     15  O   UNL A   1      29.825  25.838  23.914  1.00  0.00    -0.248 OA
BRANCH  13  16
ATOM     16  C   UNL A   1      28.731  29.093  22.857  1.00  0.00     0.042 A 
ATOM     17  C   UNL A   1      28.441  33.392  22.709  1.00  0.00     0.044 C 
ATOM     18  C   UNL A   1      28.416  31.891  22.631  1.00  0.00    -0.051 A 
ATOM     19  C   UNL A   1      29.330  31.200  21.828  1.00  0.00     0.005 A 
ATOM     20  C   UNL A   1      27.543  31.155  23.432  1.00  0.00     0.005 A 
ATOM     21  C   UNL A   1      29.473  29.806  21.927  1.00  0.00     0.026 A 
ATOM     22  C   UNL A   1      27.707  29.770  23.546  1.00  0.00     0.026 A 
ENDBRANCH  13  16
ENDBRANCH   7  12
ENDBRANCH   4   6
ENDBRANCH   3   4
ENDBRANCH   2   3
ENDBRANCH   1   2
BRANCH   1  23
ATOM     23  O   UNL A   1      35.471  31.306  28.050  1.00  0.00    -0.458 OA
BRANCH  23  24
ATOM     24  C   UNL A   1      36.180  30.907  29.147  1.00  0.00     0.338 C 
ATOM     25  O   UNL A   1      35.887  31.324  30.254  1.00  0.00    -0.246 OA
BRANCH  24  26
ATOM     26  C   UNL A   1      37.158  29.816  28.900  1.00  0.00     0.060 A 
ATOM     27  C   UNL A   1      37.965  29.891  27.763  1.00  0.00     0.016 A 
ATOM     28  C   UNL A   1      37.470  28.928  29.922  1.00  0.00     0.016 A 
ATOM     29  C   UNL A   1      39.216  29.270  27.761  1.00  0.00     0.010 A 
ATOM     30  C   UNL A   1      38.743  28.394  29.962  1.00  0.00     0.010 A 
ATOM     31  C   UNL A   1      39.642  28.590  28.898  1.00  0.00    -0.014 A 
BRANCH  31  32
ATOM     32  C   UNL A   1      40.887  27.827  28.976  1.00  0.00     0.031 A 
ATOM     33  C   UNL A   1      41.063  26.400  28.601  1.00  0.00     0.074 A 
ATOM     34  C   UNL A   1      41.925  28.572  29.410  1.00  0.00     0.049 A 
ATOM     35  N   UNL A   1      42.114  25.707  28.885  1.00  0.00    -0.248 NA
ATOM     36  C   UNL A   1      40.075  25.612  27.884  1.00  0.00     0.031 C 
ATOM     37  C   UNL A   1      43.343  28.281  29.436  1.00  0.00     0.029 A 
ATOM     38  N   UNL A   1      41.806  29.746  30.147  1.00  0.00    -0.354 N 
ATOM     39  C   UNL A   1      42.050  24.496  28.215  1.00  0.00     0.074 A 
ATOM     40  C   UNL A   1      40.726  24.464  27.653  1.00  0.00     0.031 C 
ATOM     41  C   UNL A   1      43.918  29.076  30.358  1.00  0.00     0.029 A 
ATOM     42  C   UNL A   1      42.855  29.791  31.058  1.00  0.00     0.049 A 
ATOM     43  H   UNL A   1      41.102  30.426  30.042  1.00  0.00     0.167 HD
ATOM     44  C   UNL A   1      43.180  23.729  28.145  1.00  0.00     0.037 A 
ATOM     45  C   UNL A   1      42.530  29.635  32.380  1.00  0.00     0.037 A 
ATOM     46  C   UNL A   1      44.177  24.244  29.083  1.00  0.00     0.049 A 
ATOM     47  C   UNL A   1      42.981  28.297  32.946  1.00  0.00     0.074 A 
ATOM     48  C   UNL A   1      45.239  25.124  28.969  1.00  0.00     0.029 A 
ATOM     49  N   UNL A   1      43.908  24.135  30.435  1.00  0.00    -0.354 N 
ATOM     50  N   UNL A   1      43.452  27.309  32.234  1.00  0.00    -0.248 NA
ATOM     51  C   UNL A   1      42.910  27.960  34.368  1.00  0.00     0.031 C 
ATOM     52  C   UNL A   1      45.533  25.623  30.272  1.00  0.00     0.029 A 
ATOM     53  C   UNL A   1      44.668  25.025  31.171  1.00  0.00     0.049 A 
ATOM     54  H   UNL A   1      43.259  23.506  30.824  1.00  0.00     0.167 HD
ATOM     55  C   UNL A   1      43.806  26.273  33.051  1.00  0.00     0.074 A 
ATOM     56  C   UNL A   1      43.412  26.712  34.379  1.00  0.00     0.031 C 
ATOM     57  C   UNL A   1      44.425  25.144  32.598  1.00  0.00     0.037 A 
BRANCH  44  58
ATOM     58  C   UNL A   1      43.488  22.680  27.088  1.00  0.00     0.058 A 
ATOM     59  C   UNL A   1      42.734  21.480  27.059  1.00  0.00     0.135 A 
ATOM     60  C   UNL A   1      44.535  22.725  26.145  1.00  0.00     0.135 A 
ATOM     61  F   UNL A   1      41.663  21.305  27.845  1.00  0.00    -0.206 F 
ATOM     62  C   UNL A   1      43.052  20.388  26.248  1.00  0.00     0.059 A 
ATOM     63  C   UNL A   1      44.889  21.631  25.336  1.00  0.00     0.059 A 
ATOM     64  F   UNL A   1      45.245  23.840  25.942  1.00  0.00    -0.206 F 
ATOM     65  C   UNL A   1      44.154  20.456  25.412  1.00  0.00     0.060 A 
BRANCH  65  66
ATOM     66  S   UNL A   1      44.597  18.992  24.453  1.00  0.00     0.124 S 
ATOM     67  O   UNL A   1      43.601  18.022  24.900  1.00  0.00    -0.237 OA
ATOM     68  O   UNL A   1      44.447  19.464  23.080  1.00  0.00    -0.237 OA
ATOM     69  O   UNL A   1      45.968  18.710  24.869  1.00  0.00    -0.744 OA
ENDBRANCH  65  66
ENDBRANCH  44  58
BRANCH  45  70
ATOM     70  C   UNL A   1      41.250  30.336  32.739  1.00  0.00     0.058 A 
ATOM     71  C   UNL A   1      40.116  29.572  33.096  1.00  0.00     0.135 A 
ATOM     72  C   UNL A   1      41.245  31.681  33.119  1.00  0.00     0.135 A 
ATOM     73  F   UNL A   1      40.065  28.268  32.782  1.00  0.00    -0.206 F 
ATOM     74  C   UNL A   1      39.080  30.089  33.877  1.00  0.00     0.059 A 
ATOM     75  C   UNL A   1      40.219  32.214  33.904  1.00  0.00     0.059 A 
ATOM     76  F   UNL A   1      42.304  32.458  32.845  1.00  0.00    -0.206 F 
ATOM     77  C   UNL A   1      39.160  31.408  34.312  1.00  0.00     0.060 A 
BRANCH  77  78
ATOM     78  S   UNL A   1      37.954  32.000  35.525  1.00  0.00     0.124 S 
ATOM     79  O   UNL A   1      36.810  32.320  34.679  1.00  0.00    -0.237 OA
ATOM     80  O   UNL A   1      37.803  30.828  36.386  1.00  0.00    -0.237 OA
ATOM     81  O   UNL A   1      38.616  33.147  36.134  1.00  0.00    -0.744 OA
ENDBRANCH  77  78
ENDBRANCH  45  70
BRANCH  57  82
ATOM     82  C   UNL A   1      44.939  24.071  33.506  1.00  0.00     0.058 A 
ATOM     83  C   UNL A   1      46.293  23.997  33.864  1.00  0.00     0.135 A 
ATOM     84  C   UNL A   1      44.123  22.988  33.895  1.00  0.00     0.135 A 
ATOM     85  F   UNL A   1      47.157  24.954  33.488  1.00  0.00    -0.206 F 
ATOM     86  C   UNL A   1      46.804  22.930  34.597  1.00  0.00     0.059 A 
ATOM     87  C   UNL A   1      44.623  21.884  34.578  1.00  0.00     0.059 A 
ATOM     88  F   UNL A   1      42.806  22.982  33.636  1.00  0.00    -0.206 F 
ATOM     89  C   UNL A   1      45.962  21.876  34.945  1.00  0.00     0.060 A 
BRANCH  89  90
ATOM     90  S   UNL A   1      46.633  20.480  35.865  1.00  0.00     0.124 S 
ATOM     91  O   UNL A   1      48.056  20.539  35.540  1.00  0.00    -0.237 OA
ATOM     92  O   UNL A   1      46.284  20.845  37.235  1.00  0.00    -0.237 OA
ATOM     93  O   UNL A   1      45.918  19.335  35.314  1.00  0.00    -0.744 OA
ENDBRANCH  89  90
ENDBRANCH  57  82
ENDBRANCH  31  32
ENDBRANCH  24  26
ENDBRANCH  23  24
ENDBRANCH   1  23
TORSDOF 16
ENDMDL
MODEL 3
REMARK VINA RESULT:     -13.4      1.116      1.750
REMARK SMILES Cc1ccc(NC(=O)N2CCCC[C@@H]2C(=O)OCCOC(=O)c2ccc(-c3c4nc(c(-c5c(F)cc(S(=O)(=O)[O-])cc5F)c5ccc([nH]5)c(-c5c(F)cc(S(=O)(=O)[O-])cc5F)c5nc(c(-c6c(F)cc(S(=O)(=O)[O-])cc6F)c6ccc3[nH]6)C=C5)C=C4)cc2)cc1
REMARK SMILES IDX 19 1 18 2 17 3 15 4 16 5 14 6 9 7 10 8 11 9 13 10 12 11 7 12
REMARK SMILES IDX 6 13 8 15 5 16 1 17 2 18 3 19 90 20 4 21 89 22 20 23 21 24
REMARK SMILES IDX 22 25 23 26 24 27 88 28 25 29 87 30 26 31 27 32 28 33 81 34
REMARK SMILES IDX 29 35 86 36 80 37 82 38 30 39 85 40 79 41 78 42 31 44 65 45
REMARK SMILES IDX 44 46 64 47 45 48 48 49 63 50 83 51 46 52 47 53 62 55 84 56
REMARK SMILES IDX 49 57 32 58 33 59 42 60 34 61 35 62 41 63 43 64 36 65 37 66
REMARK SMILES IDX 38 67 39 68 40 69 66 70 67 71 76 72 68 73 69 74 75 75 77 76
REMARK SMILES IDX 70 77 71 78 72 79 73 80 74 81 50 82 51 83 60 84 52 85 53 86
REMARK SMILES IDX 59 87 61 88 54 89 55 90 56 91 57 92 58 93
REMARK H PARENT 6 14 82 43 48 54
REMARK Flexibility Score: inf
ROOT
ATOM      1  C   UNL A   1      34.159  30.358  27.550  1.00  0.00     0.275 C 
ENDROOT
BRANCH   1   2
ATOM      2  C   UNL A   1      34.372  28.980  26.875  1.00  0.00     0.274 C 
BRANCH   2   3
ATOM      3  O   UNL A   1      33.193  28.461  26.249  1.00  0.00    -0.461 OA
BRANCH   3   4
ATOM      4  C   UNL A   1      33.316  28.034  24.946  1.00  0.00     0.329 C 
ATOM      5  O   UNL A   1      33.709  28.751  24.038  1.00  0.00    -0.250 OA
BRANCH   4   6
ATOM      6  C   UNL A   1      32.643  26.640  24.798  1.00  0.00     0.196 C 
ATOM      7  N   UNL A   1      32.291  26.136  23.433  1.00  0.00    -0.311 N 
ATOM      8  C   UNL A   1      30.923  25.869  23.031  1.00  0.00     0.122 C 
ATOM      9  C   UNL A   1      29.867  26.451  23.938  1.00  0.00     0.022 C 
ATOM     10  C   UNL A   1      31.458  26.776  25.779  1.00  0.00     0.037 C 
ATOM     11  C   UNL A   1      30.188  26.070  25.369  1.00  0.00     0.005 C 
BRANCH   7  12
ATOM     12  C   UNL A   1      33.194  25.874  22.444  1.00  0.00     0.322 C 
ATOM     13  N   UNL A   1      33.635  24.619  22.172  1.00  0.00    -0.308 N 
ATOM     14  H   UNL A   1      34.116  24.588  21.314  1.00  0.00     0.171 HD
ATOM     15  O   UNL A   1      33.471  26.749  21.620  1.00  0.00    -0.248 OA
BRANCH  13  16
ATOM     16  C   UNL A   1      33.594  23.350  22.779  1.00  0.00     0.042 A 
ATOM     17  C   UNL A   1      33.233  20.123  25.615  1.00  0.00     0.044 C 
ATOM     18  C   UNL A   1      33.450  21.132  24.522  1.00  0.00    -0.051 A 
ATOM     19  C   UNL A   1      32.480  21.338  23.534  1.00  0.00     0.005 A 
ATOM     20  C   UNL A   1      34.580  21.949  24.528  1.00  0.00     0.005 A 
ATOM     21  C   UNL A   1      32.562  22.431  22.655  1.00  0.00     0.026 A 
ATOM     22  C   UNL A   1      34.644  23.051  23.667  1.00  0.00     0.026 A 
ENDBRANCH  13  16
ENDBRANCH   7  12
ENDBRANCH   4   6
ENDBRANCH   3   4
ENDBRANCH   2   3
ENDBRANCH   1   2
BRANCH   1  23
ATOM     23  O   UNL A   1      35.306  31.143  27.979  1.00  0.00    -0.458 OA
BRANCH  23  24
ATOM     24  C   UNL A   1      36.132  30.858  29.029  1.00  0.00     0.338 C 
ATOM     25  O   UNL A   1      35.935  31.360  30.121  1.00  0.00    -0.246 OA
BRANCH  24  26
ATOM     26  C   UNL A   1      37.118  29.776  28.775  1.00  0.00     0.060 A 
ATOM     27  C   UNL A   1      37.934  29.870  27.646  1.00  0.00     0.016 A 
ATOM     28  C   UNL A   1      37.427  28.876  29.789  1.00  0.00     0.016 A 
ATOM     29  C   UNL A   1      39.188  29.256  27.646  1.00  0.00     0.010 A 
ATOM     30  C   UNL A   1      38.702  28.348  29.831  1.00  0.00     0.010 A 
ATOM     31  C   UNL A   1      39.608  28.563  28.777  1.00  0.00    -0.014 A 
BRANCH  31  32
ATOM     32  C   UNL A   1      40.857  27.805  28.856  1.00  0.00     0.031 A 
ATOM     33  C   UNL A   1      41.041  26.382  28.474  1.00  0.00     0.074 A 
ATOM     34  C   UNL A   1      41.890  28.553  29.297  1.00  0.00     0.049 A 
ATOM     35  N   UNL A   1      42.094  25.692  28.759  1.00  0.00    -0.248 NA
ATOM     36  C   UNL A   1      40.059  25.592  27.750  1.00  0.00     0.031 C 
ATOM     37  C   UNL A   1      43.309  28.270  29.326  1.00  0.00     0.029 A 
ATOM     38  N   UNL A   1      41.762  29.723  30.039  1.00  0.00    -0.354 N 
ATOM     39  C   UNL A   1      42.038  24.485  28.083  1.00  0.00     0.074 A 
ATOM     40  C   UNL A   1      40.717  24.448  27.515  1.00  0.00     0.031 C 
ATOM     41  C   UNL A   1      43.877  29.063  30.254  1.00  0.00     0.029 A 
ATOM     42  C   UNL A   1      42.808  29.769  30.954  1.00  0.00     0.049 A 
ATOM     43  H   UNL A   1      41.056  30.400  29.935  1.00  0.00     0.167 HD
ATOM     44  C   UNL A   1      43.172  23.723  28.012  1.00  0.00     0.037 A 
ATOM     45  C   UNL A   1      42.480  29.605  32.274  1.00  0.00     0.037 A 
ATOM     46  C   UNL A   1      44.164  24.238  28.956  1.00  0.00     0.049 A 
ATOM     47  C   UNL A   1      42.936  28.266  32.835  1.00  0.00     0.074 A 
ATOM     48  C   UNL A   1      45.222  25.124  28.850  1.00  0.00     0.029 A 
ATOM     49  N   UNL A   1      43.891  24.121  30.307  1.00  0.00    -0.354 N 
ATOM     50  N   UNL A   1      43.413  27.284  32.119  1.00  0.00    -0.248 NA
ATOM     51  C   UNL A   1      42.861  27.921  34.255  1.00  0.00     0.031 C 
ATOM     52  C   UNL A   1      45.509  25.618  30.156  1.00  0.00     0.029 A 
ATOM     53  C   UNL A   1      44.644  25.011  31.049  1.00  0.00     0.049 A 
ATOM     54  H   UNL A   1      43.244  23.487  30.690  1.00  0.00     0.167 HD
ATOM     55  C   UNL A   1      43.771  26.246  32.933  1.00  0.00     0.074 A 
ATOM     56  C   UNL A   1      43.369  26.676  34.261  1.00  0.00     0.031 C 
ATOM     57  C   UNL A   1      44.396  25.122  32.476  1.00  0.00     0.037 A 
BRANCH  44  58
ATOM     58  C   UNL A   1      43.489  22.680  26.951  1.00  0.00     0.058 A 
ATOM     59  C   UNL A   1      42.765  21.463  26.935  1.00  0.00     0.135 A 
ATOM     60  C   UNL A   1      44.519  22.750  25.991  1.00  0.00     0.135 A 
ATOM     61  F   UNL A   1      41.712  21.261  27.740  1.00  0.00    -0.206 F 
ATOM     62  C   UNL A   1      43.096  20.377  26.120  1.00  0.00     0.059 A 
ATOM     63  C   UNL A   1      44.886  21.665  25.176  1.00  0.00     0.059 A 
ATOM     64  F   UNL A   1      45.197  23.883  25.775  1.00  0.00    -0.206 F 
ATOM     65  C   UNL A   1      44.182  20.472  25.266  1.00  0.00     0.060 A 
BRANCH  65  66
ATOM     66  S   UNL A   1      44.646  19.019  24.300  1.00  0.00     0.124 S 
ATOM     67  O   UNL A   1      46.035  18.818  24.700  1.00  0.00    -0.237 OA
ATOM     68  O   UNL A   1      43.699  18.015  24.777  1.00  0.00    -0.237 OA
ATOM     69  O   UNL A   1      44.454  19.449  22.918  1.00  0.00    -0.744 OA
ENDBRANCH  65  66
ENDBRANCH  44  58
BRANCH  45  70
ATOM     70  C   UNL A   1      41.195  30.298  32.633  1.00  0.00     0.058 A 
ATOM     71  C   UNL A   1      40.086  29.530  33.054  1.00  0.00     0.135 A 
ATOM     72  C   UNL A   1      41.173  31.659  32.949  1.00  0.00     0.135 A 
ATOM     73  F   UNL A   1      40.053  28.211  32.804  1.00  0.00    -0.206 F 
ATOM     74  C   UNL A   1      39.060  30.065  33.836  1.00  0.00     0.059 A 
ATOM     75  C   UNL A   1      40.156  32.209  33.734  1.00  0.00     0.059 A 
ATOM     76  F   UNL A   1      42.209  32.442  32.611  1.00  0.00    -0.206 F 
ATOM     77  C   UNL A   1      39.124  31.403  34.206  1.00  0.00     0.060 A 
BRANCH  77  78
ATOM     78  S   UNL A   1      37.937  32.030  35.421  1.00  0.00     0.124 S 
ATOM     79  O   UNL A   1      38.630  33.204  35.939  1.00  0.00    -0.237 OA
ATOM     80  O   UNL A   1      36.770  32.297  34.582  1.00  0.00    -0.237 OA
ATOM     81  O   UNL A   1      37.797  30.926  36.363  1.00  0.00    -0.744 OA
ENDBRANCH  77  78
ENDBRANCH  45  70
BRANCH  57  82
ATOM     82  C   UNL A   1      44.913  24.046  33.381  1.00  0.00     0.058 A 
ATOM     83  C   UNL A   1      44.117  22.952  33.750  1.00  0.00     0.135 A 
ATOM     84  C   UNL A   1      46.152  24.179  34.041  1.00  0.00     0.135 A 
ATOM     85  F   UNL A   1      42.898  22.778  33.216  1.00  0.00    -0.206 F 
ATOM     86  C   UNL A   1      44.540  22.019  34.692  1.00  0.00     0.059 A 
ATOM     87  C   UNL A   1      46.570  23.291  35.027  1.00  0.00     0.059 A 
ATOM     88  F   UNL A   1      47.005  25.168  33.730  1.00  0.00    -0.206 F 
ATOM     89  C   UNL A   1      45.766  22.200  35.329  1.00  0.00     0.060 A 
BRANCH  89  90
ATOM     90  S   UNL A   1      46.295  21.010  36.573  1.00  0.00     0.124 S 
ATOM     91  O   UNL A   1      45.775  21.588  37.810  1.00  0.00    -0.237 OA
ATOM     92  O   UNL A   1      45.625  19.797  36.113  1.00  0.00    -0.237 OA
ATOM     93  O   UNL A   1      47.749  21.014  36.450  1.00  0.00    -0.744 OA
ENDBRANCH  89  90
ENDBRANCH  57  82
ENDBRANCH  31  32
ENDBRANCH  24  26
ENDBRANCH  23  24
ENDBRANCH   1  23
TORSDOF 16
ENDMDL
