MODEL 1
REMARK VINA RESULT:     -12.7      0.000      0.000
REMARK SMILES Cc1cccc(-c2ccc(Cl)c(C(=O)OCCOC(=O)c3ccc(-c4c5nc(c(-c6c(F)cc(S(=O)(=O)[O-])cc6F)c6ccc([nH]6)c(-c6c(F)cc(S(=O)(=O)[O-])cc6F)c6nc(c(-c7c(F)cc(S(=O)(=O)[O-])cc7F)c7ccc4[nH]7)C=C6)C=C5)cc3)c2)c1
REMARK SMILES IDX 17 1 16 2 15 3 13 4 14 5 12 6 7 7 8 8 87 9 9 10 10 11 11 12
REMARK SMILES IDX 6 13 1 14 2 15 3 16 88 17 4 18 5 19 18 20 19 21 20 22 21 23
REMARK SMILES IDX 22 24 86 25 23 26 85 27 24 28 25 29 26 30 79 31 27 32 84 33
REMARK SMILES IDX 78 34 80 35 28 36 83 37 77 38 76 39 29 41 63 42 42 43 62 44
REMARK SMILES IDX 43 45 46 46 61 47 81 48 44 49 45 50 60 52 82 53 47 54 30 55
REMARK SMILES IDX 31 56 40 57 32 58 33 59 39 60 41 61 34 62 35 63 36 64 37 65
REMARK SMILES IDX 38 66 64 67 65 68 74 69 66 70 67 71 73 72 75 73 68 74 69 75
REMARK SMILES IDX 70 76 71 77 72 78 48 79 49 80 58 81 50 82 51 83 57 84 59 85
REMARK SMILES IDX 52 86 53 87 54 88 55 89 56 90
REMARK H PARENT 80 40 46 51
REMARK Flexibility Score: inf
ROOT
ATOM      1  C   UNL A   1      33.596  28.229  25.489  1.00  0.00     0.275 C 
ENDROOT
BRANCH   1   2
ATOM      2  C   UNL A   1      33.726  27.018  24.547  1.00  0.00     0.275 C 
BRANCH   2   3
ATOM      3  O   UNL A   1      34.047  27.296  23.171  1.00  0.00    -0.458 OA
BRANCH   3   4
ATOM      4  C   UNL A   1      33.161  26.688  22.329  1.00  0.00     0.339 C 
ATOM      5  O   UNL A   1      33.472  26.003  21.362  1.00  0.00    -0.246 OA
BRANCH   4   6
ATOM      6  C   UNL A   1      31.737  27.017  22.561  1.00  0.00     0.079 A 
ATOM      7  C   UNL A   1      29.910  28.631  22.861  1.00  0.00    -0.017 A 
ATOM      8  C   UNL A   1      29.151  27.602  23.445  1.00  0.00     0.010 A 
ATOM      9  C   UNL A   1      31.220  28.323  22.418  1.00  0.00     0.026 A 
ATOM     10  C   UNL A   1      29.649  26.308  23.568  1.00  0.00     0.022 A 
ATOM     11  C   UNL A   1      30.933  26.010  23.121  1.00  0.00     0.055 A 
ATOM     12  Cl  UNL A   1      31.430  24.356  23.255  1.00  0.00    -0.083 Cl
BRANCH   7  13
ATOM     13  C   UNL A   1      29.275  29.961  22.708  1.00  0.00    -0.018 A 
ATOM     14  C   UNL A   1      27.889  32.216  19.924  1.00  0.00     0.044 C 
ATOM     15  C   UNL A   1      28.329  31.727  21.273  1.00  0.00    -0.051 A 
ATOM     16  C   UNL A   1      28.306  32.599  22.364  1.00  0.00     0.003 A 
ATOM     17  C   UNL A   1      28.804  30.416  21.456  1.00  0.00     0.012 A 
ATOM     18  C   UNL A   1      28.739  32.162  23.613  1.00  0.00     0.001 A 
ATOM     19  C   UNL A   1      29.226  30.862  23.777  1.00  0.00     0.009 A 
ENDBRANCH   7  13
ENDBRANCH   4   6
ENDBRANCH   3   4
ENDBRANCH   2   3
ENDBRANCH   1   2
BRANCH   1  20
ATOM     20  O   UNL A   1      34.370  28.270  26.709  1.00  0.00    -0.458 OA
BRANCH  20  21
ATOM     21  C   UNL A   1      34.510  29.427  27.401  1.00  0.00     0.338 C 
ATOM     22  O   UNL A   1      33.656  30.279  27.568  1.00  0.00    -0.246 OA
BRANCH  21  23
ATOM     23  C   UNL A   1      35.868  29.595  27.890  1.00  0.00     0.060 A 
ATOM     24  C   UNL A   1      36.886  29.939  26.991  1.00  0.00     0.016 A 
ATOM     25  C   UNL A   1      36.054  29.515  29.269  1.00  0.00     0.016 A 
ATOM     26  C   UNL A   1      38.168  30.121  27.466  1.00  0.00     0.010 A 
ATOM     27  C   UNL A   1      37.296  29.818  29.760  1.00  0.00     0.010 A 
ATOM     28  C   UNL A   1      38.351  29.996  28.841  1.00  0.00    -0.014 A 
BRANCH  28  29
ATOM     29  C   UNL A   1      39.600  29.484  29.366  1.00  0.00     0.031 A 
ATOM     30  C   UNL A   1      39.965  28.084  29.178  1.00  0.00     0.074 A 
ATOM     31  C   UNL A   1      40.386  30.535  29.697  1.00  0.00     0.049 A 
ATOM     32  N   UNL A   1      41.010  27.531  29.676  1.00  0.00    -0.248 NA
ATOM     33  C   UNL A   1      39.126  27.142  28.444  1.00  0.00     0.031 C 
ATOM     34  C   UNL A   1      41.820  30.698  29.772  1.00  0.00     0.029 A 
ATOM     35  N   UNL A   1      39.887  31.758  30.186  1.00  0.00    -0.354 N 
ATOM     36  C   UNL A   1      41.185  26.334  29.007  1.00  0.00     0.074 A 
ATOM     37  C   UNL A   1      39.901  26.054  28.422  1.00  0.00     0.031 C 
ATOM     38  C   UNL A   1      42.082  31.772  30.547  1.00  0.00     0.029 A 
ATOM     39  C   UNL A   1      40.809  32.212  31.120  1.00  0.00     0.049 A 
ATOM     40  H   UNL A   1      39.052  32.203  29.917  1.00  0.00     0.167 HD
ATOM     41  C   UNL A   1      42.462  25.875  28.846  1.00  0.00     0.037 A 
ATOM     42  C   UNL A   1      40.453  32.093  32.438  1.00  0.00     0.037 A 
ATOM     43  C   UNL A   1      43.371  26.748  29.602  1.00  0.00     0.049 A 
ATOM     44  C   UNL A   1      41.350  31.060  33.093  1.00  0.00     0.074 A 
ATOM     45  C   UNL A   1      44.150  27.827  29.211  1.00  0.00     0.029 A 
ATOM     46  N   UNL A   1      43.219  26.857  30.985  1.00  0.00    -0.354 N 
ATOM     47  N   UNL A   1      41.762  29.954  32.524  1.00  0.00    -0.248 NA
ATOM     48  C   UNL A   1      42.018  31.331  34.361  1.00  0.00     0.031 C 
ATOM     49  C   UNL A   1      44.348  28.654  30.353  1.00  0.00     0.029 A 
ATOM     50  C   UNL A   1      43.688  28.082  31.431  1.00  0.00     0.049 A 
ATOM     51  H   UNL A   1      42.832  26.161  31.562  1.00  0.00     0.167 HD
ATOM     52  C   UNL A   1      42.820  29.451  33.244  1.00  0.00     0.074 A 
ATOM     53  C   UNL A   1      42.909  30.327  34.404  1.00  0.00     0.031 C 
ATOM     54  C   UNL A   1      43.629  28.420  32.846  1.00  0.00     0.037 A 
BRANCH  41  55
ATOM     55  C   UNL A   1      42.924  24.906  27.760  1.00  0.00     0.058 A 
ATOM     56  C   UNL A   1      42.806  23.508  27.954  1.00  0.00     0.135 A 
ATOM     57  C   UNL A   1      43.542  25.258  26.541  1.00  0.00     0.135 A 
ATOM     58  F   UNL A   1      42.180  23.003  29.028  1.00  0.00    -0.206 F 
ATOM     59  C   UNL A   1      43.319  22.557  27.064  1.00  0.00     0.059 A 
ATOM     60  C   UNL A   1      44.093  24.327  25.649  1.00  0.00     0.059 A 
ATOM     61  F   UNL A   1      43.605  26.522  26.117  1.00  0.00    -0.206 F 
ATOM     62  C   UNL A   1      43.981  22.975  25.919  1.00  0.00     0.060 A 
BRANCH  62  63
ATOM     63  S   UNL A   1      44.635  21.743  24.777  1.00  0.00     0.124 S 
ATOM     64  O   UNL A   1      46.021  21.622  25.216  1.00  0.00    -0.237 OA
ATOM     65  O   UNL A   1      43.780  20.591  25.046  1.00  0.00    -0.237 OA
ATOM     66  O   UNL A   1      44.451  22.359  23.465  1.00  0.00    -0.744 OA
ENDBRANCH  62  63
ENDBRANCH  41  55
BRANCH  42  67
ATOM     67  C   UNL A   1      38.996  32.376  32.721  1.00  0.00     0.058 A 
ATOM     68  C   UNL A   1      38.546  33.720  32.634  1.00  0.00     0.135 A 
ATOM     69  C   UNL A   1      37.989  31.404  32.821  1.00  0.00     0.135 A 
ATOM     70  F   UNL A   1      39.441  34.720  32.563  1.00  0.00    -0.206 F 
ATOM     71  C   UNL A   1      37.197  34.071  32.531  1.00  0.00     0.059 A 
ATOM     72  C   UNL A   1      36.619  31.736  32.742  1.00  0.00     0.059 A 
ATOM     73  F   UNL A   1      38.311  30.107  32.923  1.00  0.00    -0.206 F 
ATOM     74  C   UNL A   1      36.234  33.070  32.565  1.00  0.00     0.060 A 
BRANCH  74  75
ATOM     75  S   UNL A   1      34.516  33.509  32.165  1.00  0.00     0.124 S 
ATOM     76  O   UNL A   1      34.246  32.695  30.988  1.00  0.00    -0.237 OA
ATOM     77  O   UNL A   1      33.794  33.137  33.376  1.00  0.00    -0.237 OA
ATOM     78  O   UNL A   1      34.591  34.949  31.947  1.00  0.00    -0.744 OA
ENDBRANCH  74  75
ENDBRANCH  42  67
BRANCH  54  79
ATOM     79  C   UNL A   1      44.534  27.639  33.771  1.00  0.00     0.058 A 
ATOM     80  C   UNL A   1      44.090  26.544  34.528  1.00  0.00     0.135 A 
ATOM     81  C   UNL A   1      45.938  27.836  33.739  1.00  0.00     0.135 A 
ATOM     82  F   UNL A   1      42.797  26.189  34.560  1.00  0.00    -0.206 F 
ATOM     83  C   UNL A   1      44.965  25.728  35.239  1.00  0.00     0.059 A 
ATOM     84  C   UNL A   1      46.833  26.988  34.378  1.00  0.00     0.059 A 
ATOM     85  F   UNL A   1      46.498  28.846  33.057  1.00  0.00    -0.206 F 
ATOM     86  C   UNL A   1      46.336  25.948  35.145  1.00  0.00     0.060 A 
BRANCH  86  87
ATOM     87  S   UNL A   1      47.473  24.830  35.974  1.00  0.00     0.124 S 
ATOM     88  O   UNL A   1      48.475  25.763  36.478  1.00  0.00    -0.237 OA
ATOM     89  O   UNL A   1      46.628  24.204  36.988  1.00  0.00    -0.237 OA
ATOM     90  O   UNL A   1      47.912  23.944  34.902  1.00  0.00    -0.744 OA
ENDBRANCH  86  87
ENDBRANCH  54  79
ENDBRANCH  28  29
ENDBRANCH  21  23
ENDBRANCH  20  21
ENDBRANCH   1  20
TORSDOF 15
ENDMDL
MODEL 2
REMARK VINA RESULT:     -12.7      2.461      4.724
REMARK SMILES Cc1cccc(-c2ccc(Cl)c(C(=O)OCCOC(=O)c3ccc(-c4c5nc(c(-c6c(F)cc(S(=O)(=O)[O-])cc6F)c6ccc([nH]6)c(-c6c(F)cc(S(=O)(=O)[O-])cc6F)c6nc(c(-c7c(F)cc(S(=O)(=O)[O-])cc7F)c7ccc4[nH]7)C=C6)C=C5)cc3)c2)c1
REMARK SMILES IDX 17 1 16 2 15 3 13 4 14 5 12 6 7 7 8 8 87 9 9 10 10 11 11 12
REMARK SMILES IDX 6 13 1 14 2 15 3 16 88 17 4 18 5 19 18 20 19 21 20 22 21 23
REMARK SMILES IDX 22 24 86 25 23 26 85 27 24 28 25 29 26 30 79 31 27 32 84 33
REMARK SMILES IDX 78 34 80 35 28 36 83 37 77 38 76 39 29 41 63 42 42 43 62 44
REMARK SMILES IDX 43 45 46 46 61 47 81 48 44 49 45 50 60 52 82 53 47 54 30 55
REMARK SMILES IDX 31 56 40 57 32 58 33 59 39 60 41 61 34 62 35 63 36 64 37 65
REMARK SMILES IDX 38 66 64 67 65 68 74 69 66 70 67 71 73 72 75 73 68 74 69 75
REMARK SMILES IDX 70 76 71 77 72 78 48 79 49 80 58 81 50 82 51 83 57 84 59 85
REMARK SMILES IDX 52 86 53 87 54 88 55 89 56 90
REMARK H PARENT 80 40 46 51
REMARK Flexibility Score: inf
ROOT
ATOM      1  C   UNL A   1      33.533  27.791  25.989  1.00  0.00     0.275 C 
ENDROOT
BRANCH   1   2
ATOM      2  C   UNL A   1      33.610  26.310  25.578  1.00  0.00     0.275 C 
BRANCH   2   3
ATOM      3  O   UNL A   1      32.986  25.947  24.332  1.00  0.00    -0.458 OA
BRANCH   3   4
ATOM      4  C   UNL A   1      33.839  25.218  23.553  1.00  0.00     0.339 C 
ATOM      5  O   UNL A   1      34.035  25.414  22.359  1.00  0.00    -0.246 OA
BRANCH   4   6
ATOM      6  C   UNL A   1      34.444  24.037  24.206  1.00  0.00     0.079 A 
ATOM      7  C   UNL A   1      36.378  22.801  25.079  1.00  0.00    -0.017 A 
ATOM      8  C   UNL A   1      35.607  21.627  25.015  1.00  0.00     0.010 A 
ATOM      9  C   UNL A   1      35.779  24.016  24.665  1.00  0.00     0.026 A 
ATOM     10  C   UNL A   1      34.283  21.647  24.584  1.00  0.00     0.022 A 
ATOM     11  C   UNL A   1      33.698  22.846  24.189  1.00  0.00     0.055 A 
ATOM     12  Cl  UNL A   1      32.026  22.775  23.737  1.00  0.00    -0.083 Cl
BRANCH   7  13
ATOM     13  C   UNL A   1      37.756  22.697  25.616  1.00  0.00    -0.018 A 
ATOM     14  C   UNL A   1      40.449  20.023  26.207  1.00  0.00     0.044 C 
ATOM     15  C   UNL A   1      39.724  21.337  26.206  1.00  0.00    -0.051 A 
ATOM     16  C   UNL A   1      40.277  22.430  26.877  1.00  0.00     0.003 A 
ATOM     17  C   UNL A   1      38.475  21.482  25.575  1.00  0.00     0.012 A 
ATOM     18  C   UNL A   1      39.597  23.645  26.905  1.00  0.00     0.001 A 
ATOM     19  C   UNL A   1      38.348  23.771  26.290  1.00  0.00     0.009 A 
ENDBRANCH   7  13
ENDBRANCH   4   6
ENDBRANCH   3   4
ENDBRANCH   2   3
ENDBRANCH   1   2
BRANCH   1  20
ATOM     20  O   UNL A   1      34.129  28.219  27.234  1.00  0.00    -0.458 OA
BRANCH  20  21
ATOM     21  C   UNL A   1      34.382  29.531  27.465  1.00  0.00     0.338 C 
ATOM     22  O   UNL A   1      33.639  30.465  27.227  1.00  0.00    -0.246 OA
BRANCH  21  23
ATOM     23  C   UNL A   1      35.723  29.731  27.986  1.00  0.00     0.060 A 
ATOM     24  C   UNL A   1      36.747  30.133  27.119  1.00  0.00     0.016 A 
ATOM     25  C   UNL A   1      35.885  29.618  29.366  1.00  0.00     0.016 A 
ATOM     26  C   UNL A   1      38.012  30.345  27.625  1.00  0.00     0.010 A 
ATOM     27  C   UNL A   1      37.106  29.950  29.891  1.00  0.00     0.010 A 
ATOM     28  C   UNL A   1      38.173  30.189  28.999  1.00  0.00    -0.014 A 
BRANCH  28  29
ATOM     29  C   UNL A   1      39.428  29.705  29.536  1.00  0.00     0.031 A 
ATOM     30  C   UNL A   1      39.823  28.311  29.356  1.00  0.00     0.074 A 
ATOM     31  C   UNL A   1      40.189  30.772  29.869  1.00  0.00     0.049 A 
ATOM     32  N   UNL A   1      40.875  27.782  29.865  1.00  0.00    -0.248 NA
ATOM     33  C   UNL A   1      39.009  27.350  28.620  1.00  0.00     0.031 C 
ATOM     34  C   UNL A   1      41.619  30.966  29.954  1.00  0.00     0.029 A 
ATOM     35  N   UNL A   1      39.661  31.987  30.349  1.00  0.00    -0.354 N 
ATOM     36  C   UNL A   1      41.080  26.586  29.202  1.00  0.00     0.074 A 
ATOM     37  C   UNL A   1      39.807  26.278  28.608  1.00  0.00     0.031 C 
ATOM     38  C   UNL A   1      41.853  32.048  30.728  1.00  0.00     0.029 A 
ATOM     39  C   UNL A   1      40.566  32.463  31.289  1.00  0.00     0.049 A 
ATOM     40  H   UNL A   1      38.819  32.414  30.072  1.00  0.00     0.167 HD
ATOM     41  C   UNL A   1      42.367  26.153  29.053  1.00  0.00     0.037 A 
ATOM     42  C   UNL A   1      40.202  32.342  32.604  1.00  0.00     0.037 A 
ATOM     43  C   UNL A   1      43.252  27.048  29.813  1.00  0.00     0.049 A 
ATOM     44  C   UNL A   1      41.115  31.331  33.270  1.00  0.00     0.074 A 
ATOM     45  C   UNL A   1      44.012  28.141  29.424  1.00  0.00     0.029 A 
ATOM     46  N   UNL A   1      43.087  27.160  31.194  1.00  0.00    -0.354 N 
ATOM     47  N   UNL A   1      41.555  30.231  32.708  1.00  0.00    -0.248 NA
ATOM     48  C   UNL A   1      41.767  31.621  34.542  1.00  0.00     0.031 C 
ATOM     49  C   UNL A   1      44.184  28.977  30.563  1.00  0.00     0.029 A 
ATOM     50  C   UNL A   1      43.527  28.395  31.639  1.00  0.00     0.049 A 
ATOM     51  H   UNL A   1      42.710  26.457  31.771  1.00  0.00     0.167 HD
ATOM     52  C   UNL A   1      42.617  29.753  33.439  1.00  0.00     0.074 A 
ATOM     53  C   UNL A   1      42.679  30.635  34.597  1.00  0.00     0.031 C 
ATOM     54  C   UNL A   1      43.450  28.737  33.052  1.00  0.00     0.037 A 
BRANCH  41  55
ATOM     55  C   UNL A   1      42.858  25.190  27.975  1.00  0.00     0.058 A 
ATOM     56  C   UNL A   1      43.389  23.927  28.335  1.00  0.00     0.135 A 
ATOM     57  C   UNL A   1      42.899  25.447  26.588  1.00  0.00     0.135 A 
ATOM     58  F   UNL A   1      43.362  23.495  29.604  1.00  0.00    -0.206 F 
ATOM     59  C   UNL A   1      43.971  23.043  27.419  1.00  0.00     0.059 A 
ATOM     60  C   UNL A   1      43.506  24.594  25.655  1.00  0.00     0.059 A 
ATOM     61  F   UNL A   1      42.310  26.515  26.046  1.00  0.00    -0.206 F 
ATOM     62  C   UNL A   1      44.045  23.392  26.078  1.00  0.00     0.060 A 
BRANCH  62  63
ATOM     63  S   UNL A   1      44.794  22.246  24.906  1.00  0.00     0.124 S 
ATOM     64  O   UNL A   1      46.051  21.910  25.565  1.00  0.00    -0.237 OA
ATOM     65  O   UNL A   1      43.803  21.176  24.847  1.00  0.00    -0.237 OA
ATOM     66  O   UNL A   1      44.925  23.039  23.687  1.00  0.00    -0.744 OA
ENDBRANCH  62  63
ENDBRANCH  41  55
BRANCH  42  67
ATOM     67  C   UNL A   1      38.737  32.597  32.875  1.00  0.00     0.058 A 
ATOM     68  C   UNL A   1      38.276  33.939  32.856  1.00  0.00     0.135 A 
ATOM     69  C   UNL A   1      37.738  31.612  32.899  1.00  0.00     0.135 A 
ATOM     70  F   UNL A   1      39.163  34.949  32.859  1.00  0.00    -0.206 F 
ATOM     71  C   UNL A   1      36.926  34.284  32.746  1.00  0.00     0.059 A 
ATOM     72  C   UNL A   1      36.367  31.936  32.813  1.00  0.00     0.059 A 
ATOM     73  F   UNL A   1      38.070  30.314  32.934  1.00  0.00    -0.206 F 
ATOM     74  C   UNL A   1      35.972  33.274  32.705  1.00  0.00     0.060 A 
BRANCH  74  75
ATOM     75  S   UNL A   1      34.258  33.721  32.298  1.00  0.00     0.124 S 
ATOM     76  O   UNL A   1      33.493  32.989  33.298  1.00  0.00    -0.237 OA
ATOM     77  O   UNL A   1      34.259  35.173  32.434  1.00  0.00    -0.237 OA
ATOM     78  O   UNL A   1      34.120  33.263  30.921  1.00  0.00    -0.744 OA
ENDBRANCH  74  75
ENDBRANCH  42  67
BRANCH  54  79
ATOM     79  C   UNL A   1      44.364  27.979  33.987  1.00  0.00     0.058 A 
ATOM     80  C   UNL A   1      45.668  28.402  34.288  1.00  0.00     0.135 A 
ATOM     81  C   UNL A   1      43.859  26.923  34.787  1.00  0.00     0.135 A 
ATOM     82  F   UNL A   1      46.226  29.455  33.673  1.00  0.00    -0.206 F 
ATOM     83  C   UNL A   1      46.435  27.796  35.279  1.00  0.00     0.059 A 
ATOM     84  C   UNL A   1      44.579  26.359  35.832  1.00  0.00     0.059 A 
ATOM     85  F   UNL A   1      42.629  26.420  34.605  1.00  0.00    -0.206 F 
ATOM     86  C   UNL A   1      45.877  26.787  36.056  1.00  0.00     0.060 A 
BRANCH  86  87
ATOM     87  S   UNL A   1      46.828  26.078  37.407  1.00  0.00     0.124 S 
ATOM     88  O   UNL A   1      47.910  27.049  37.534  1.00  0.00    -0.237 OA
ATOM     89  O   UNL A   1      45.865  26.060  38.504  1.00  0.00    -0.237 OA
ATOM     90  O   UNL A   1      47.209  24.766  36.895  1.00  0.00    -0.744 OA
ENDBRANCH  86  87
ENDBRANCH  54  79
ENDBRANCH  28  29
ENDBRANCH  21  23
ENDBRANCH  20  21
ENDBRANCH   1  20
TORSDOF 15
ENDMDL
MODEL 3
REMARK VINA RESULT:     -12.6      1.992      4.172
REMARK SMILES Cc1cccc(-c2ccc(Cl)c(C(=O)OCCOC(=O)c3ccc(-c4c5nc(c(-c6c(F)cc(S(=O)(=O)[O-])cc6F)c6ccc([nH]6)c(-c6c(F)cc(S(=O)(=O)[O-])cc6F)c6nc(c(-c7c(F)cc(S(=O)(=O)[O-])cc7F)c7ccc4[nH]7)C=C6)C=C5)cc3)c2)c1
REMARK SMILES IDX 17 1 16 2 15 3 13 4 14 5 12 6 7 7 8 8 87 9 9 10 10 11 11 12
REMARK SMILES IDX 6 13 1 14 2 15 3 16 88 17 4 18 5 19 18 20 19 21 20 22 21 23
REMARK SMILES IDX 22 24 86 25 23 26 85 27 24 28 25 29 26 30 79 31 27 32 84 33
REMARK SMILES IDX 78 34 80 35 28 36 83 37 77 38 76 39 29 41 63 42 42 43 62 44
REMARK SMILES IDX 43 45 46 46 61 47 81 48 44 49 45 50 60 52 82 53 47 54 30 55
REMARK SMILES IDX 31 56 40 57 32 58 33 59 39 60 41 61 34 62 35 63 36 64 37 65
REMARK SMILES IDX 38 66 64 67 65 68 74 69 66 70 67 71 73 72 75 73 68 74 69 75
REMARK SMILES IDX 70 76 71 77 72 78 48 79 49 80 58 81 50 82 51 83 57 84 59 85
REMARK SMILES IDX 52 86 53 87 54 88 55 89 56 90
REMARK H PARENT 80 40 46 51
REMARK Flexibility Score: inf
ROOT
ATOM      1  C   UNL A   1      33.423  28.891  25.293  1.00  0.00     0.275 C 
ENDROOT
BRANCH   1   2
ATOM      2  C   UNL A   1      33.614  28.329  23.872  1.00  0.00     0.275 C 
BRANCH   2   3
ATOM      3  O   UNL A   1      32.734  27.261  23.472  1.00  0.00    -0.458 OA
BRANCH   3   4
ATOM      4  C   UNL A   1      33.401  26.333  22.725  1.00  0.00     0.339 C 
ATOM      5  O   UNL A   1      33.680  26.460  21.538  1.00  0.00    -0.246 OA
BRANCH   4   6
ATOM      6  C   UNL A   1      33.666  25.045  23.401  1.00  0.00     0.079 A 
ATOM      7  C   UNL A   1      35.198  23.343  24.291  1.00  0.00    -0.017 A 
ATOM      8  C   UNL A   1      34.133  22.426  24.260  1.00  0.00     0.010 A 
ATOM      9  C   UNL A   1      34.951  24.667  23.852  1.00  0.00     0.026 A 
ATOM     10  C   UNL A   1      32.861  22.800  23.838  1.00  0.00     0.022 A 
ATOM     11  C   UNL A   1      32.622  24.105  23.418  1.00  0.00     0.055 A 
ATOM     12  Cl  UNL A   1      30.989  24.487  22.980  1.00  0.00    -0.083 Cl
BRANCH   7  13
ATOM     13  C   UNL A   1      36.501  22.875  24.821  1.00  0.00    -0.018 A 
ATOM     14  C   UNL A   1      38.521  19.622  25.107  1.00  0.00     0.044 C 
ATOM     15  C   UNL A   1      38.102  21.054  25.258  1.00  0.00    -0.051 A 
ATOM     16  C   UNL A   1      38.860  21.914  26.057  1.00  0.00     0.003 A 
ATOM     17  C   UNL A   1      36.937  21.544  24.641  1.00  0.00     0.012 A 
ATOM     18  C   UNL A   1      38.463  23.238  26.225  1.00  0.00     0.001 A 
ATOM     19  C   UNL A   1      37.292  23.707  25.621  1.00  0.00     0.009 A 
ENDBRANCH   7  13
ENDBRANCH   4   6
ENDBRANCH   3   4
ENDBRANCH   2   3
ENDBRANCH   1   2
BRANCH   1  20
ATOM     20  O   UNL A   1      34.471  28.723  26.274  1.00  0.00    -0.458 OA
BRANCH  20  21
ATOM     21  C   UNL A   1      34.530  29.524  27.367  1.00  0.00     0.338 C 
ATOM     22  O   UNL A   1      33.603  30.129  27.872  1.00  0.00    -0.246 OA
BRANCH  21  23
ATOM     23  C   UNL A   1      35.891  29.652  27.860  1.00  0.00     0.060 A 
ATOM     24  C   UNL A   1      36.928  29.920  26.957  1.00  0.00     0.016 A 
ATOM     25  C   UNL A   1      36.065  29.614  29.241  1.00  0.00     0.016 A 
ATOM     26  C   UNL A   1      38.213  30.066  27.435  1.00  0.00     0.010 A 
ATOM     27  C   UNL A   1      37.316  29.883  29.731  1.00  0.00     0.010 A 
ATOM     28  C   UNL A   1      38.383  29.984  28.814  1.00  0.00    -0.014 A 
BRANCH  28  29
ATOM     29  C   UNL A   1      39.606  29.439  29.367  1.00  0.00     0.031 A 
ATOM     30  C   UNL A   1      39.954  28.037  29.159  1.00  0.00     0.074 A 
ATOM     31  C   UNL A   1      40.398  30.469  29.746  1.00  0.00     0.049 A 
ATOM     32  N   UNL A   1      40.974  27.456  29.678  1.00  0.00    -0.248 NA
ATOM     33  C   UNL A   1      39.124  27.126  28.379  1.00  0.00     0.031 C 
ATOM     34  C   UNL A   1      41.832  30.606  29.869  1.00  0.00     0.029 A 
ATOM     35  N   UNL A   1      39.904  31.690  30.246  1.00  0.00    -0.354 N 
ATOM     36  C   UNL A   1      41.150  26.271  28.988  1.00  0.00     0.074 A 
ATOM     37  C   UNL A   1      39.881  26.025  28.358  1.00  0.00     0.031 C 
ATOM     38  C   UNL A   1      42.086  31.659  30.677  1.00  0.00     0.029 A 
ATOM     39  C   UNL A   1      40.803  32.107  31.219  1.00  0.00     0.049 A 
ATOM     40  H   UNL A   1      39.085  32.155  29.961  1.00  0.00     0.167 HD
ATOM     41  C   UNL A   1      42.424  25.794  28.858  1.00  0.00     0.037 A 
ATOM     42  C   UNL A   1      40.403  31.966  32.521  1.00  0.00     0.037 A 
ATOM     43  C   UNL A   1      43.322  26.635  29.661  1.00  0.00     0.049 A 
ATOM     44  C   UNL A   1      41.261  30.904  33.181  1.00  0.00     0.074 A 
ATOM     45  C   UNL A   1      44.131  27.709  29.319  1.00  0.00     0.029 A 
ATOM     46  N   UNL A   1      43.128  26.717  31.041  1.00  0.00    -0.354 N 
ATOM     47  N   UNL A   1      41.674  29.804  32.601  1.00  0.00    -0.248 NA
ATOM     48  C   UNL A   1      41.893  31.137  34.475  1.00  0.00     0.031 C 
ATOM     49  C   UNL A   1      44.306  28.508  30.484  1.00  0.00     0.029 A 
ATOM     50  C   UNL A   1      43.603  27.924  31.529  1.00  0.00     0.049 A 
ATOM     51  H   UNL A   1      42.712  26.015  31.590  1.00  0.00     0.167 HD
ATOM     52  C   UNL A   1      42.700  29.268  33.343  1.00  0.00     0.074 A 
ATOM     53  C   UNL A   1      42.766  30.117  34.525  1.00  0.00     0.031 C 
ATOM     54  C   UNL A   1      43.504  28.232  32.948  1.00  0.00     0.037 A 
BRANCH  41  55
ATOM     55  C   UNL A   1      42.905  24.841  27.766  1.00  0.00     0.058 A 
ATOM     56  C   UNL A   1      42.676  23.448  27.884  1.00  0.00     0.135 A 
ATOM     57  C   UNL A   1      43.642  25.199  26.617  1.00  0.00     0.135 A 
ATOM     58  F   UNL A   1      41.933  22.944  28.880  1.00  0.00    -0.206 F 
ATOM     59  C   UNL A   1      43.193  22.501  26.991  1.00  0.00     0.059 A 
ATOM     60  C   UNL A   1      44.197  24.269  25.726  1.00  0.00     0.059 A 
ATOM     61  F   UNL A   1      43.824  26.472  26.259  1.00  0.00    -0.206 F 
ATOM     62  C   UNL A   1      43.972  22.919  25.922  1.00  0.00     0.060 A 
BRANCH  62  63
ATOM     63  S   UNL A   1      44.630  21.692  24.776  1.00  0.00     0.124 S 
ATOM     64  O   UNL A   1      46.021  21.587  25.204  1.00  0.00    -0.237 OA
ATOM     65  O   UNL A   1      43.791  20.531  25.055  1.00  0.00    -0.237 OA
ATOM     66  O   UNL A   1      44.428  22.304  23.466  1.00  0.00    -0.744 OA
ENDBRANCH  62  63
ENDBRANCH  41  55
BRANCH  42  67
ATOM     67  C   UNL A   1      38.942  32.268  32.765  1.00  0.00     0.058 A 
ATOM     68  C   UNL A   1      38.511  33.616  32.661  1.00  0.00     0.135 A 
ATOM     69  C   UNL A   1      37.921  31.308  32.841  1.00  0.00     0.135 A 
ATOM     70  F   UNL A   1      39.420  34.605  32.610  1.00  0.00    -0.206 F 
ATOM     71  C   UNL A   1      37.169  33.983  32.520  1.00  0.00     0.059 A 
ATOM     72  C   UNL A   1      36.558  31.657  32.725  1.00  0.00     0.059 A 
ATOM     73  F   UNL A   1      38.225  30.008  32.957  1.00  0.00    -0.206 F 
ATOM     74  C   UNL A   1      36.194  32.994  32.533  1.00  0.00     0.060 A 
BRANCH  74  75
ATOM     75  S   UNL A   1      34.493  33.453  32.086  1.00  0.00     0.124 S 
ATOM     76  O   UNL A   1      34.248  32.644  30.899  1.00  0.00    -0.237 OA
ATOM     77  O   UNL A   1      33.733  33.085  33.275  1.00  0.00    -0.237 OA
ATOM     78  O   UNL A   1      34.589  34.892  31.874  1.00  0.00    -0.744 OA
ENDBRANCH  74  75
ENDBRANCH  42  67
BRANCH  54  79
ATOM     79  C   UNL A   1      44.367  27.416  33.884  1.00  0.00     0.058 A 
ATOM     80  C   UNL A   1      43.867  26.348  34.645  1.00  0.00     0.135 A 
ATOM     81  C   UNL A   1      45.778  27.547  33.859  1.00  0.00     0.135 A 
ATOM     82  F   UNL A   1      42.559  26.055  34.673  1.00  0.00    -0.206 F 
ATOM     83  C   UNL A   1      44.699  25.497  35.367  1.00  0.00     0.059 A 
ATOM     84  C   UNL A   1      46.629  26.662  34.508  1.00  0.00     0.059 A 
ATOM     85  F   UNL A   1      46.388  28.525  33.173  1.00  0.00    -0.206 F 
ATOM     86  C   UNL A   1      46.079  25.652  35.279  1.00  0.00     0.060 A 
BRANCH  86  87
ATOM     87  S   UNL A   1      47.158  24.487  36.123  1.00  0.00     0.124 S 
ATOM     88  O   UNL A   1      47.365  23.486  35.083  1.00  0.00    -0.237 OA
ATOM     89  O   UNL A   1      48.321  25.306  36.452  1.00  0.00    -0.237 OA
ATOM     90  O   UNL A   1      46.358  24.060  37.266  1.00  0.00    -0.744 OA
ENDBRANCH  86  87
ENDBRANCH  54  79
ENDBRANCH  28  29
ENDBRANCH  21  23
ENDBRANCH  20  21
ENDBRANCH   1  20
TORSDOF 15
ENDMDL
