MODEL 1
REMARK VINA RESULT:     -12.7      0.000      0.000
REMARK SMILES Cc1cccc(NS(=O)(=O)c2ccc(Br)c(C(=O)OCCOC(=O)c3ccc(-c4c5nc(c(-c6c(F)cc(S(=O)(=O)[O-])cc6F)c6ccc([nH]6)c(-c6c(F)cc(S(=O)(=O)[O-])cc6F)c6nc(c(-c7c(F)cc(S(=O)(=O)[O-])cc7F)c7ccc4[nH]7)C=C6)C=C5)cc3)c2)c1
REMARK SMILES IDX 20 1 19 2 17 3 18 4 16 5 11 6 12 7 91 8 13 9 14 10 15 11
REMARK SMILES IDX 8 12 9 13 10 14 7 15 6 17 1 18 2 19 3 20 92 21 4 22 5 23
REMARK SMILES IDX 21 24 22 25 23 26 24 27 25 28 26 29 90 30 27 31 89 32 28 33
REMARK SMILES IDX 29 34 30 35 83 36 31 37 88 38 82 39 84 40 32 41 87 42 81 43
REMARK SMILES IDX 80 44 33 46 67 47 46 48 66 49 47 50 50 51 65 52 85 53 48 54
REMARK SMILES IDX 49 55 64 57 86 58 51 59 34 60 35 61 44 62 36 63 37 64 43 65
REMARK SMILES IDX 45 66 38 67 39 68 40 69 41 70 42 71 68 72 69 73 78 74 70 75
REMARK SMILES IDX 71 76 77 77 79 78 72 79 73 80 74 81 75 82 76 83 52 84 53 85
REMARK SMILES IDX 62 86 54 87 55 88 61 89 63 90 56 91 57 92 58 93 59 94 60 95
REMARK H PARENT 7 16 84 45 50 56
REMARK Flexibility Score: inf
ROOT
ATOM      1  C   UNL A   1      33.543  30.377  26.842  1.00  0.00     0.275 C 
ENDROOT
BRANCH   1   2
ATOM      2  O   UNL A   1      33.640  29.194  26.028  1.00  0.00    -0.458 OA
BRANCH   2   3
ATOM      3  C   UNL A   1      32.455  28.667  25.664  1.00  0.00     0.339 C 
ATOM      4  O   UNL A   1      31.396  29.268  25.577  1.00  0.00    -0.246 OA
BRANCH   3   5
ATOM      5  C   UNL A   1      32.608  27.291  25.167  1.00  0.00     0.075 A 
ATOM      6  C   UNL A   1      31.961  24.951  25.229  1.00  0.00     0.088 A 
ATOM      7  C   UNL A   1      32.133  24.903  23.848  1.00  0.00     0.023 A 
ATOM      8  C   UNL A   1      32.110  26.183  25.880  1.00  0.00     0.039 A 
ATOM      9  C   UNL A   1      32.750  25.958  23.175  1.00  0.00     0.018 A 
ATOM     10  C   UNL A   1      33.031  27.141  23.846  1.00  0.00     0.032 A 
ATOM     11  Br  UNL A   1      33.977  28.492  22.907  1.00  0.00    -0.050 Br
BRANCH   6  12
ATOM     12  S   UNL A   1      31.739  23.467  26.216  1.00  0.00     0.261 S 
ATOM     13  O   UNL A   1      31.347  22.410  25.302  1.00  0.00    -0.201 OA
ATOM     14  O   UNL A   1      30.931  23.838  27.352  1.00  0.00    -0.201 OA
BRANCH  12  15
ATOM     15  N   UNL A   1      33.233  22.954  26.794  1.00  0.00    -0.280 N 
ATOM     16  H   UNL A   1      33.323  22.882  27.772  1.00  0.00     0.180 HD
BRANCH  15  17
ATOM     17  C   UNL A   1      34.380  22.612  26.026  1.00  0.00     0.049 A 
ATOM     18  C   UNL A   1      37.960  23.922  25.906  1.00  0.00     0.044 C 
ATOM     19  C   UNL A   1      36.762  23.032  25.749  1.00  0.00    -0.049 A 
ATOM     20  C   UNL A   1      36.920  21.718  25.300  1.00  0.00     0.003 A 
ATOM     21  C   UNL A   1      35.486  23.468  26.131  1.00  0.00     0.030 A 
ATOM     22  C   UNL A   1      35.802  20.919  25.069  1.00  0.00     0.002 A 
ATOM     23  C   UNL A   1      34.522  21.393  25.365  1.00  0.00     0.027 A 
ENDBRANCH  15  17
ENDBRANCH  12  15
ENDBRANCH   6  12
ENDBRANCH   3   5
ENDBRANCH   2   3
ENDBRANCH   1   2
BRANCH   1  24
ATOM     24  C   UNL A   1      34.749  30.658  27.780  1.00  0.00     0.275 C 
BRANCH  24  25
ATOM     25  O   UNL A   1      35.635  29.570  28.127  1.00  0.00    -0.458 OA
BRANCH  25  26
ATOM     26  C   UNL A   1      36.575  29.789  29.095  1.00  0.00     0.338 C 
ATOM     27  O   UNL A   1      36.331  30.225  30.207  1.00  0.00    -0.246 OA
BRANCH  26  28
ATOM     28  C   UNL A   1      37.791  29.005  28.732  1.00  0.00     0.060 A 
ATOM     29  C   UNL A   1      38.725  29.471  27.788  1.00  0.00     0.016 A 
ATOM     30  C   UNL A   1      38.168  28.069  29.684  1.00  0.00     0.016 A 
ATOM     31  C   UNL A   1      40.055  29.068  27.885  1.00  0.00     0.010 A 
ATOM     32  C   UNL A   1      39.487  27.992  29.998  1.00  0.00     0.010 A 
ATOM     33  C   UNL A   1      40.417  28.359  29.026  1.00  0.00    -0.014 A 
BRANCH  33  34
ATOM     34  C   UNL A   1      41.605  27.549  29.199  1.00  0.00     0.031 A 
ATOM     35  C   UNL A   1      41.670  26.190  28.672  1.00  0.00     0.074 A 
ATOM     36  C   UNL A   1      42.652  28.340  29.553  1.00  0.00     0.049 A 
ATOM     37  N   UNL A   1      42.461  25.296  29.136  1.00  0.00    -0.248 NA
ATOM     38  C   UNL A   1      40.844  25.701  27.566  1.00  0.00     0.031 C 
ATOM     39  C   UNL A   1      44.088  28.192  29.477  1.00  0.00     0.029 A 
ATOM     40  N   UNL A   1      42.502  29.610  30.136  1.00  0.00    -0.354 N 
ATOM     41  C   UNL A   1      42.538  24.298  28.188  1.00  0.00     0.074 A 
ATOM     42  C   UNL A   1      41.388  24.496  27.336  1.00  0.00     0.031 C 
ATOM     43  C   UNL A   1      44.647  29.120  30.290  1.00  0.00     0.029 A 
ATOM     44  C   UNL A   1      43.575  29.840  30.982  1.00  0.00     0.049 A 
ATOM     45  H   UNL A   1      41.758  30.232  29.972  1.00  0.00     0.167 HD
ATOM     46  C   UNL A   1      43.689  23.569  28.112  1.00  0.00     0.037 A 
ATOM     47  C   UNL A   1      43.231  29.797  32.306  1.00  0.00     0.037 A 
ATOM     48  C   UNL A   1      44.680  24.146  29.031  1.00  0.00     0.049 A 
ATOM     49  C   UNL A   1      43.581  28.436  32.889  1.00  0.00     0.074 A 
ATOM     50  C   UNL A   1      45.718  25.050  28.876  1.00  0.00     0.029 A 
ATOM     51  N   UNL A   1      44.410  24.123  30.382  1.00  0.00    -0.354 N 
ATOM     52  N   UNL A   1      44.094  27.456  32.189  1.00  0.00    -0.248 NA
ATOM     53  C   UNL A   1      43.389  28.060  34.284  1.00  0.00     0.031 C 
ATOM     54  C   UNL A   1      46.013  25.610  30.162  1.00  0.00     0.029 A 
ATOM     55  C   UNL A   1      45.146  25.055  31.087  1.00  0.00     0.049 A 
ATOM     56  H   UNL A   1      43.762  23.510  30.799  1.00  0.00     0.167 HD
ATOM     57  C   UNL A   1      44.303  26.366  32.971  1.00  0.00     0.074 A 
ATOM     58  C   UNL A   1      43.831  26.788  34.283  1.00  0.00     0.031 C 
ATOM     59  C   UNL A   1      44.852  25.204  32.507  1.00  0.00     0.037 A 
BRANCH  46  60
ATOM     60  C   UNL A   1      44.044  22.519  27.082  1.00  0.00     0.058 A 
ATOM     61  C   UNL A   1      43.187  21.414  26.881  1.00  0.00     0.135 A 
ATOM     62  C   UNL A   1      45.159  22.563  26.217  1.00  0.00     0.135 A 
ATOM     63  F   UNL A   1      42.061  21.260  27.590  1.00  0.00    -0.206 F 
ATOM     64  C   UNL A   1      43.430  20.415  25.941  1.00  0.00     0.059 A 
ATOM     65  C   UNL A   1      45.440  21.553  25.283  1.00  0.00     0.059 A 
ATOM     66  F   UNL A   1      45.995  23.610  26.208  1.00  0.00    -0.206 F 
ATOM     67  C   UNL A   1      44.566  20.482  25.150  1.00  0.00     0.060 A 
BRANCH  67  68
ATOM     68  S   UNL A   1      44.840  19.171  23.944  1.00  0.00     0.124 S 
ATOM     69  O   UNL A   1      46.268  18.908  24.101  1.00  0.00    -0.237 OA
ATOM     70  O   UNL A   1      43.947  18.122  24.422  1.00  0.00    -0.237 OA
ATOM     71  O   UNL A   1      44.459  19.788  22.676  1.00  0.00    -0.744 OA
ENDBRANCH  67  68
ENDBRANCH  46  60
BRANCH  47  72
ATOM     72  C   UNL A   1      41.987  30.635  32.575  1.00  0.00     0.058 A 
ATOM     73  C   UNL A   1      42.090  32.040  32.389  1.00  0.00     0.135 A 
ATOM     74  C   UNL A   1      40.681  30.127  32.652  1.00  0.00     0.135 A 
ATOM     75  F   UNL A   1      43.302  32.616  32.303  1.00  0.00    -0.206 F 
ATOM     76  C   UNL A   1      40.986  32.861  32.157  1.00  0.00     0.059 A 
ATOM     77  C   UNL A   1      39.549  30.945  32.458  1.00  0.00     0.059 A 
ATOM     78  F   UNL A   1      40.474  28.813  32.822  1.00  0.00    -0.206 F 
ATOM     79  C   UNL A   1      39.715  32.300  32.165  1.00  0.00     0.060 A 
BRANCH  79  80
ATOM     80  S   UNL A   1      38.328  33.325  31.593  1.00  0.00     0.124 S 
ATOM     81  O   UNL A   1      38.214  32.927  30.195  1.00  0.00    -0.237 OA
ATOM     82  O   UNL A   1      37.244  32.882  32.467  1.00  0.00    -0.237 OA
ATOM     83  O   UNL A   1      38.802  34.683  31.831  1.00  0.00    -0.744 OA
ENDBRANCH  79  80
ENDBRANCH  47  72
BRANCH  59  84
ATOM     84  C   UNL A   1      45.158  24.064  33.427  1.00  0.00     0.058 A 
ATOM     85  C   UNL A   1      46.425  23.925  34.007  1.00  0.00     0.135 A 
ATOM     86  C   UNL A   1      44.237  23.018  33.660  1.00  0.00     0.135 A 
ATOM     87  F   UNL A   1      47.393  24.824  33.770  1.00  0.00    -0.206 F 
ATOM     88  C   UNL A   1      46.731  22.861  34.846  1.00  0.00     0.059 A 
ATOM     89  C   UNL A   1      44.550  21.907  34.423  1.00  0.00     0.059 A 
ATOM     90  F   UNL A   1      42.981  23.053  33.193  1.00  0.00    -0.206 F 
ATOM     91  C   UNL A   1      45.783  21.861  35.051  1.00  0.00     0.060 A 
BRANCH  91  92
ATOM     92  S   UNL A   1      46.158  20.507  36.167  1.00  0.00     0.124 S 
ATOM     93  O   UNL A   1      47.602  20.365  36.018  1.00  0.00    -0.237 OA
ATOM     94  O   UNL A   1      45.702  21.056  37.441  1.00  0.00    -0.237 OA
ATOM     95  O   UNL A   1      45.365  19.401  35.637  1.00  0.00    -0.744 OA
ENDBRANCH  91  92
ENDBRANCH  59  84
ENDBRANCH  33  34
ENDBRANCH  26  28
ENDBRANCH  25  26
ENDBRANCH  24  25
ENDBRANCH   1  24
TORSDOF 17
ENDMDL
MODEL 2
REMARK VINA RESULT:     -12.6      1.814      2.716
REMARK SMILES Cc1cccc(NS(=O)(=O)c2ccc(Br)c(C(=O)OCCOC(=O)c3ccc(-c4c5nc(c(-c6c(F)cc(S(=O)(=O)[O-])cc6F)c6ccc([nH]6)c(-c6c(F)cc(S(=O)(=O)[O-])cc6F)c6nc(c(-c7c(F)cc(S(=O)(=O)[O-])cc7F)c7ccc4[nH]7)C=C6)C=C5)cc3)c2)c1
REMARK SMILES IDX 20 1 19 2 17 3 18 4 16 5 11 6 12 7 91 8 13 9 14 10 15 11
REMARK SMILES IDX 8 12 9 13 10 14 7 15 6 17 1 18 2 19 3 20 92 21 4 22 5 23
REMARK SMILES IDX 21 24 22 25 23 26 24 27 25 28 26 29 90 30 27 31 89 32 28 33
REMARK SMILES IDX 29 34 30 35 83 36 31 37 88 38 82 39 84 40 32 41 87 42 81 43
REMARK SMILES IDX 80 44 33 46 67 47 46 48 66 49 47 50 50 51 65 52 85 53 48 54
REMARK SMILES IDX 49 55 64 57 86 58 51 59 34 60 35 61 44 62 36 63 37 64 43 65
REMARK SMILES IDX 45 66 38 67 39 68 40 69 41 70 42 71 68 72 69 73 78 74 70 75
REMARK SMILES IDX 71 76 77 77 79 78 72 79 73 80 74 81 75 82 76 83 52 84 53 85
REMARK SMILES IDX 62 86 54 87 55 88 61 89 63 90 56 91 57 92 58 93 59 94 60 95
REMARK H PARENT 7 16 84 45 50 56
REMARK Flexibility Score: inf
ROOT
ATOM      1  C   UNL A   1      33.685  28.389  26.323  1.00  0.00     0.275 C 
ENDROOT
BRANCH   1   2
ATOM      2  O   UNL A   1      33.876  26.962  26.331  1.00  0.00    -0.458 OA
BRANCH   2   3
ATOM      3  C   UNL A   1      32.858  26.258  25.799  1.00  0.00     0.339 C 
ATOM      4  O   UNL A   1      31.705  26.640  25.677  1.00  0.00    -0.246 OA
BRANCH   3   5
ATOM      5  C   UNL A   1      33.334  25.016  25.171  1.00  0.00     0.075 A 
ATOM      6  C   UNL A   1      33.619  22.605  25.234  1.00  0.00     0.088 A 
ATOM      7  C   UNL A   1      33.367  22.574  23.865  1.00  0.00     0.023 A 
ATOM      8  C   UNL A   1      33.509  23.830  25.908  1.00  0.00     0.039 A 
ATOM      9  C   UNL A   1      33.327  23.757  23.127  1.00  0.00     0.018 A 
ATOM     10  C   UNL A   1      33.357  24.984  23.776  1.00  0.00     0.032 A 
ATOM     11  Br  UNL A   1      33.422  26.552  22.710  1.00  0.00    -0.050 Br
BRANCH   6  12
ATOM     12  S   UNL A   1      34.257  21.179  26.121  1.00  0.00     0.261 S 
ATOM     13  O   UNL A   1      34.310  21.547  27.524  1.00  0.00    -0.201 OA
ATOM     14  O   UNL A   1      35.422  20.727  25.402  1.00  0.00    -0.201 OA
BRANCH  12  15
ATOM     15  N   UNL A   1      33.116  19.944  26.081  1.00  0.00    -0.280 N 
ATOM     16  H   UNL A   1      32.387  19.999  26.741  1.00  0.00     0.180 HD
BRANCH  15  17
ATOM     17  C   UNL A   1      33.090  18.828  25.200  1.00  0.00     0.049 A 
ATOM     18  C   UNL A   1      32.124  18.382  21.537  1.00  0.00     0.044 C 
ATOM     19  C   UNL A   1      32.735  18.152  22.888  1.00  0.00    -0.049 A 
ATOM     20  C   UNL A   1      33.645  17.108  23.076  1.00  0.00     0.003 A 
ATOM     21  C   UNL A   1      32.476  19.023  23.954  1.00  0.00     0.030 A 
ATOM     22  C   UNL A   1      34.146  16.836  24.348  1.00  0.00     0.002 A 
ATOM     23  C   UNL A   1      33.810  17.656  25.428  1.00  0.00     0.027 A 
ENDBRANCH  15  17
ENDBRANCH  12  15
ENDBRANCH   6  12
ENDBRANCH   3   5
ENDBRANCH   2   3
ENDBRANCH   1   2
BRANCH   1  24
ATOM     24  C   UNL A   1      34.434  29.182  27.428  1.00  0.00     0.275 C 
BRANCH  24  25
ATOM     25  O   UNL A   1      35.875  29.280  27.365  1.00  0.00    -0.458 OA
BRANCH  25  26
ATOM     26  C   UNL A   1      36.480  30.305  28.038  1.00  0.00     0.338 C 
ATOM     27  O   UNL A   1      35.922  31.336  28.372  1.00  0.00    -0.246 OA
BRANCH  26  28
ATOM     28  C   UNL A   1      37.724  29.766  28.661  1.00  0.00     0.060 A 
ATOM     29  C   UNL A   1      37.695  28.984  29.829  1.00  0.00     0.016 A 
ATOM     30  C   UNL A   1      38.804  29.686  27.792  1.00  0.00     0.016 A 
ATOM     31  C   UNL A   1      38.705  28.049  30.054  1.00  0.00     0.010 A 
ATOM     32  C   UNL A   1      39.544  28.548  27.819  1.00  0.00     0.010 A 
ATOM     33  C   UNL A   1      39.596  27.824  29.010  1.00  0.00    -0.014 A 
BRANCH  33  34
ATOM     34  C   UNL A   1      40.896  27.192  29.105  1.00  0.00     0.031 A 
ATOM     35  C   UNL A   1      41.108  25.835  28.613  1.00  0.00     0.074 A 
ATOM     36  C   UNL A   1      41.847  28.132  29.344  1.00  0.00     0.049 A 
ATOM     37  N   UNL A   1      42.051  25.077  29.033  1.00  0.00    -0.248 NA
ATOM     38  C   UNL A   1      40.271  25.193  27.596  1.00  0.00     0.031 C 
ATOM     39  C   UNL A   1      43.280  28.180  29.150  1.00  0.00     0.029 A 
ATOM     40  N   UNL A   1      41.570  29.392  29.901  1.00  0.00    -0.354 N 
ATOM     41  C   UNL A   1      42.190  24.061  28.111  1.00  0.00     0.074 A 
ATOM     42  C   UNL A   1      40.959  24.065  27.355  1.00  0.00     0.031 C 
ATOM     43  C   UNL A   1      43.767  29.208  29.885  1.00  0.00     0.029 A 
ATOM     44  C   UNL A   1      42.665  29.801  30.645  1.00  0.00     0.049 A 
ATOM     45  H   UNL A   1      40.735  29.900  29.784  1.00  0.00     0.167 HD
ATOM     46  C   UNL A   1      43.421  23.494  27.958  1.00  0.00     0.037 A 
ATOM     47  C   UNL A   1      42.438  29.765  31.995  1.00  0.00     0.037 A 
ATOM     48  C   UNL A   1      44.393  24.238  28.772  1.00  0.00     0.049 A 
ATOM     49  C   UNL A   1      43.020  28.489  32.584  1.00  0.00     0.074 A 
ATOM     50  C   UNL A   1      45.279  25.268  28.502  1.00  0.00     0.029 A 
ATOM     51  N   UNL A   1      44.239  24.233  30.141  1.00  0.00    -0.354 N 
ATOM     52  N   UNL A   1      43.607  27.562  31.871  1.00  0.00    -0.248 NA
ATOM     53  C   UNL A   1      42.996  28.147  34.001  1.00  0.00     0.031 C 
ATOM     54  C   UNL A   1      45.596  25.915  29.742  1.00  0.00     0.029 A 
ATOM     55  C   UNL A   1      44.892  25.284  30.753  1.00  0.00     0.049 A 
ATOM     56  H   UNL A   1      43.719  23.554  30.629  1.00  0.00     0.167 HD
ATOM     57  C   UNL A   1      44.029  26.543  32.664  1.00  0.00     0.074 A 
ATOM     58  C   UNL A   1      43.611  26.949  33.999  1.00  0.00     0.031 C 
ATOM     59  C   UNL A   1      44.696  25.449  32.188  1.00  0.00     0.037 A 
BRANCH  46  60
ATOM     60  C   UNL A   1      43.835  22.462  26.932  1.00  0.00     0.058 A 
ATOM     61  C   UNL A   1      43.098  21.263  26.805  1.00  0.00     0.135 A 
ATOM     62  C   UNL A   1      44.889  22.605  26.004  1.00  0.00     0.135 A 
ATOM     63  F   UNL A   1      42.037  21.005  27.580  1.00  0.00    -0.206 F 
ATOM     64  C   UNL A   1      43.400  20.271  25.874  1.00  0.00     0.059 A 
ATOM     65  C   UNL A   1      45.230  21.607  25.076  1.00  0.00     0.059 A 
ATOM     66  F   UNL A   1      45.600  23.738  25.924  1.00  0.00    -0.206 F 
ATOM     67  C   UNL A   1      44.476  20.443  25.017  1.00  0.00     0.060 A 
BRANCH  67  68
ATOM     68  S   UNL A   1      44.830  19.137  23.826  1.00  0.00     0.124 S 
ATOM     69  O   UNL A   1      44.429  19.759  22.567  1.00  0.00    -0.237 OA
ATOM     70  O   UNL A   1      46.263  18.937  24.006  1.00  0.00    -0.237 OA
ATOM     71  O   UNL A   1      43.984  18.032  24.269  1.00  0.00    -0.744 OA
ENDBRANCH  67  68
ENDBRANCH  46  60
BRANCH  47  72
ATOM     72  C   UNL A   1      41.115  30.435  32.345  1.00  0.00     0.058 A 
ATOM     73  C   UNL A   1      40.109  29.627  32.940  1.00  0.00     0.135 A 
ATOM     74  C   UNL A   1      40.923  31.822  32.453  1.00  0.00     0.135 A 
ATOM     75  F   UNL A   1      40.208  28.287  32.887  1.00  0.00    -0.206 F 
ATOM     76  C   UNL A   1      39.065  30.150  33.704  1.00  0.00     0.059 A 
ATOM     77  C   UNL A   1      39.854  32.372  33.188  1.00  0.00     0.059 A 
ATOM     78  F   UNL A   1      41.818  32.672  31.929  1.00  0.00    -0.206 F 
ATOM     79  C   UNL A   1      38.958  31.528  33.848  1.00  0.00     0.060 A 
BRANCH  79  80
ATOM     80  S   UNL A   1      37.768  32.168  35.060  1.00  0.00     0.124 S 
ATOM     81  O   UNL A   1      36.558  32.303  34.257  1.00  0.00    -0.237 OA
ATOM     82  O   UNL A   1      37.748  31.102  36.059  1.00  0.00    -0.237 OA
ATOM     83  O   UNL A   1      38.382  33.417  35.498  1.00  0.00    -0.744 OA
ENDBRANCH  79  80
ENDBRANCH  47  72
BRANCH  59  84
ATOM     84  C   UNL A   1      45.231  24.399  33.111  1.00  0.00     0.058 A 
ATOM     85  C   UNL A   1      44.442  23.308  33.496  1.00  0.00     0.135 A 
ATOM     86  C   UNL A   1      46.497  24.514  33.727  1.00  0.00     0.135 A 
ATOM     87  F   UNL A   1      43.191  23.163  33.031  1.00  0.00    -0.206 F 
ATOM     88  C   UNL A   1      44.917  22.336  34.368  1.00  0.00     0.059 A 
ATOM     89  C   UNL A   1      46.955  23.603  34.661  1.00  0.00     0.059 A 
ATOM     90  F   UNL A   1      47.359  25.490  33.412  1.00  0.00    -0.206 F 
ATOM     91  C   UNL A   1      46.178  22.492  34.940  1.00  0.00     0.060 A 
BRANCH  91  92
ATOM     92  S   UNL A   1      46.813  21.219  36.033  1.00  0.00     0.124 S 
ATOM     93  O   UNL A   1      47.818  21.939  36.807  1.00  0.00    -0.237 OA
ATOM     94  O   UNL A   1      45.604  20.841  36.760  1.00  0.00    -0.237 OA
ATOM     95  O   UNL A   1      47.336  20.212  35.115  1.00  0.00    -0.744 OA
ENDBRANCH  91  92
ENDBRANCH  59  84
ENDBRANCH  33  34
ENDBRANCH  26  28
ENDBRANCH  25  26
ENDBRANCH  24  25
ENDBRANCH   1  24
TORSDOF 17
ENDMDL
MODEL 3
REMARK VINA RESULT:     -12.5      1.337      1.976
REMARK SMILES Cc1cccc(NS(=O)(=O)c2ccc(Br)c(C(=O)OCCOC(=O)c3ccc(-c4c5nc(c(-c6c(F)cc(S(=O)(=O)[O-])cc6F)c6ccc([nH]6)c(-c6c(F)cc(S(=O)(=O)[O-])cc6F)c6nc(c(-c7c(F)cc(S(=O)(=O)[O-])cc7F)c7ccc4[nH]7)C=C6)C=C5)cc3)c2)c1
REMARK SMILES IDX 20 1 19 2 17 3 18 4 16 5 11 6 12 7 91 8 13 9 14 10 15 11
REMARK SMILES IDX 8 12 9 13 10 14 7 15 6 17 1 18 2 19 3 20 92 21 4 22 5 23
REMARK SMILES IDX 21 24 22 25 23 26 24 27 25 28 26 29 90 30 27 31 89 32 28 33
REMARK SMILES IDX 29 34 30 35 83 36 31 37 88 38 82 39 84 40 32 41 87 42 81 43
REMARK SMILES IDX 80 44 33 46 67 47 46 48 66 49 47 50 50 51 65 52 85 53 48 54
REMARK SMILES IDX 49 55 64 57 86 58 51 59 34 60 35 61 44 62 36 63 37 64 43 65
REMARK SMILES IDX 45 66 38 67 39 68 40 69 41 70 42 71 68 72 69 73 78 74 70 75
REMARK SMILES IDX 71 76 77 77 79 78 72 79 73 80 74 81 75 82 76 83 52 84 53 85
REMARK SMILES IDX 62 86 54 87 55 88 61 89 63 90 56 91 57 92 58 93 59 94 60 95
REMARK H PARENT 7 16 84 45 50 56
REMARK Flexibility Score: inf
ROOT
ATOM      1  C   UNL A   1      33.408  29.436  25.999  1.00  0.00     0.275 C 
ENDROOT
BRANCH   1   2
ATOM      2  O   UNL A   1      32.973  28.106  25.662  1.00  0.00    -0.458 OA
BRANCH   2   3
ATOM      3  C   UNL A   1      33.241  27.734  24.395  1.00  0.00     0.339 C 
ATOM      4  O   UNL A   1      34.112  28.199  23.676  1.00  0.00    -0.246 OA
BRANCH   3   5
ATOM      5  C   UNL A   1      32.487  26.530  24.016  1.00  0.00     0.075 A 
ATOM      6  C   UNL A   1      32.092  24.143  24.234  1.00  0.00     0.088 A 
ATOM      7  C   UNL A   1      30.728  24.392  24.102  1.00  0.00     0.023 A 
ATOM      8  C   UNL A   1      32.970  25.235  24.284  1.00  0.00     0.039 A 
ATOM      9  C   UNL A   1      30.274  25.650  23.707  1.00  0.00     0.018 A 
ATOM     10  C   UNL A   1      31.163  26.715  23.618  1.00  0.00     0.032 A 
ATOM     11  Br  UNL A   1      30.505  28.368  22.960  1.00  0.00    -0.050 Br
BRANCH   6  12
ATOM     12  S   UNL A   1      32.772  22.483  24.155  1.00  0.00     0.261 S 
ATOM     13  O   UNL A   1      32.172  21.838  23.001  1.00  0.00    -0.201 OA
ATOM     14  O   UNL A   1      32.672  21.927  25.482  1.00  0.00    -0.201 OA
BRANCH  12  15
ATOM     15  N   UNL A   1      34.403  22.568  23.755  1.00  0.00    -0.280 N 
ATOM     16  H   UNL A   1      34.614  22.753  22.810  1.00  0.00     0.180 HD
BRANCH  15  17
ATOM     17  C   UNL A   1      35.512  22.401  24.630  1.00  0.00     0.049 A 
ATOM     18  C   UNL A   1      38.173  19.698  25.031  1.00  0.00     0.044 C 
ATOM     19  C   UNL A   1      37.456  21.014  25.104  1.00  0.00    -0.049 A 
ATOM     20  C   UNL A   1      38.114  22.143  25.599  1.00  0.00     0.003 A 
ATOM     21  C   UNL A   1      36.156  21.156  24.601  1.00  0.00     0.030 A 
ATOM     22  C   UNL A   1      37.424  23.345  25.751  1.00  0.00     0.002 A 
ATOM     23  C   UNL A   1      36.097  23.454  25.331  1.00  0.00     0.027 A 
ENDBRANCH  15  17
ENDBRANCH  12  15
ENDBRANCH   6  12
ENDBRANCH   3   5
ENDBRANCH   2   3
ENDBRANCH   1   2
BRANCH   1  24
ATOM     24  C   UNL A   1      33.972  29.623  27.435  1.00  0.00     0.275 C 
BRANCH  24  25
ATOM     25  O   UNL A   1      35.366  29.330  27.683  1.00  0.00    -0.458 OA
BRANCH  25  26
ATOM     26  C   UNL A   1      36.232  30.380  27.808  1.00  0.00     0.338 C 
ATOM     27  O   UNL A   1      35.908  31.553  27.742  1.00  0.00    -0.246 OA
BRANCH  26  28
ATOM     28  C   UNL A   1      37.470  29.871  28.467  1.00  0.00     0.060 A 
ATOM     29  C   UNL A   1      37.430  29.149  29.674  1.00  0.00     0.016 A 
ATOM     30  C   UNL A   1      38.556  29.744  27.612  1.00  0.00     0.016 A 
ATOM     31  C   UNL A   1      38.435  28.225  29.953  1.00  0.00     0.010 A 
ATOM     32  C   UNL A   1      39.294  28.608  27.702  1.00  0.00     0.010 A 
ATOM     33  C   UNL A   1      39.335  27.945  28.929  1.00  0.00    -0.014 A 
BRANCH  33  34
ATOM     34  C   UNL A   1      40.632  27.316  29.066  1.00  0.00     0.031 A 
ATOM     35  C   UNL A   1      40.851  25.943  28.622  1.00  0.00     0.074 A 
ATOM     36  C   UNL A   1      41.580  28.263  29.291  1.00  0.00     0.049 A 
ATOM     37  N   UNL A   1      41.786  25.199  29.082  1.00  0.00    -0.248 NA
ATOM     38  C   UNL A   1      40.031  25.269  27.613  1.00  0.00     0.031 C 
ATOM     39  C   UNL A   1      43.015  28.304  29.120  1.00  0.00     0.029 A 
ATOM     40  N   UNL A   1      41.294  29.541  29.802  1.00  0.00    -0.354 N 
ATOM     41  C   UNL A   1      41.939  24.154  28.196  1.00  0.00     0.074 A 
ATOM     42  C   UNL A   1      40.721  24.134  27.420  1.00  0.00     0.031 C 
ATOM     43  C   UNL A   1      43.491  29.354  29.829  1.00  0.00     0.029 A 
ATOM     44  C   UNL A   1      42.377  29.973  30.551  1.00  0.00     0.049 A 
ATOM     45  H   UNL A   1      40.462  30.045  29.654  1.00  0.00     0.167 HD
ATOM     46  C   UNL A   1      43.172  23.582  28.083  1.00  0.00     0.037 A 
ATOM     47  C   UNL A   1      42.127  29.981  31.897  1.00  0.00     0.037 A 
ATOM     48  C   UNL A   1      44.131  24.351  28.888  1.00  0.00     0.049 A 
ATOM     49  C   UNL A   1      42.699  28.724  32.537  1.00  0.00     0.074 A 
ATOM     50  C   UNL A   1      45.022  25.372  28.600  1.00  0.00     0.029 A 
ATOM     51  N   UNL A   1      43.954  24.391  30.254  1.00  0.00    -0.354 N 
ATOM     52  N   UNL A   1      43.296  27.774  31.865  1.00  0.00    -0.248 NA
ATOM     53  C   UNL A   1      42.650  28.428  33.964  1.00  0.00     0.031 C 
ATOM     54  C   UNL A   1      45.319  26.058  29.823  1.00  0.00     0.029 A 
ATOM     55  C   UNL A   1      44.598  25.461  30.843  1.00  0.00     0.049 A 
ATOM     56  H   UNL A   1      43.425  23.728  30.755  1.00  0.00     0.167 HD
ATOM     57  C   UNL A   1      43.704  26.781  32.697  1.00  0.00     0.074 A 
ATOM     58  C   UNL A   1      43.263  27.231  34.011  1.00  0.00     0.031 C 
ATOM     59  C   UNL A   1      44.377  25.672  32.268  1.00  0.00     0.037 A 
BRANCH  46  60
ATOM     60  C   UNL A   1      43.603  22.517  27.098  1.00  0.00     0.058 A 
ATOM     61  C   UNL A   1      42.880  21.305  27.014  1.00  0.00     0.135 A 
ATOM     62  C   UNL A   1      44.658  22.638  26.168  1.00  0.00     0.135 A 
ATOM     63  F   UNL A   1      41.820  21.063  27.795  1.00  0.00    -0.206 F 
ATOM     64  C   UNL A   1      43.197  20.282  26.122  1.00  0.00     0.059 A 
ATOM     65  C   UNL A   1      45.014  21.610  25.280  1.00  0.00     0.059 A 
ATOM     66  F   UNL A   1      45.356  23.775  26.048  1.00  0.00    -0.206 F 
ATOM     67  C   UNL A   1      44.275  20.435  25.263  1.00  0.00     0.060 A 
BRANCH  67  68
ATOM     68  S   UNL A   1      44.648  19.089  24.123  1.00  0.00     0.124 S 
ATOM     69  O   UNL A   1      46.048  18.811  24.431  1.00  0.00    -0.237 OA
ATOM     70  O   UNL A   1      43.694  18.065  24.533  1.00  0.00    -0.237 OA
ATOM     71  O   UNL A   1      44.407  19.679  22.809  1.00  0.00    -0.744 OA
ENDBRANCH  67  68
ENDBRANCH  46  60
BRANCH  47  72
ATOM     72  C   UNL A   1      40.799  30.662  32.203  1.00  0.00     0.058 A 
ATOM     73  C   UNL A   1      39.787  29.878  32.818  1.00  0.00     0.135 A 
ATOM     74  C   UNL A   1      40.605  32.052  32.251  1.00  0.00     0.135 A 
ATOM     75  F   UNL A   1      39.889  28.537  32.821  1.00  0.00    -0.206 F 
ATOM     76  C   UNL A   1      38.733  30.430  33.547  1.00  0.00     0.059 A 
ATOM     77  C   UNL A   1      39.526  32.630  32.950  1.00  0.00     0.059 A 
ATOM     78  F   UNL A   1      41.504  32.881  31.704  1.00  0.00    -0.206 F 
ATOM     79  C   UNL A   1      38.623  31.812  33.633  1.00  0.00     0.060 A 
BRANCH  79  80
ATOM     80  S   UNL A   1      37.416  32.500  34.803  1.00  0.00     0.124 S 
ATOM     81  O   UNL A   1      37.907  33.862  34.980  1.00  0.00    -0.237 OA
ATOM     82  O   UNL A   1      36.165  32.369  34.061  1.00  0.00    -0.237 OA
ATOM     83  O   UNL A   1      37.545  31.623  35.962  1.00  0.00    -0.744 OA
ENDBRANCH  79  80
ENDBRANCH  47  72
BRANCH  59  84
ATOM     84  C   UNL A   1      44.896  24.652  33.233  1.00  0.00     0.058 A 
ATOM     85  C   UNL A   1      46.261  24.579  33.539  1.00  0.00     0.135 A 
ATOM     86  C   UNL A   1      44.068  23.650  33.785  1.00  0.00     0.135 A 
ATOM     87  F   UNL A   1      47.138  25.435  32.992  1.00  0.00    -0.206 F 
ATOM     88  C   UNL A   1      46.762  23.625  34.417  1.00  0.00     0.059 A 
ATOM     89  C   UNL A   1      44.560  22.640  34.593  1.00  0.00     0.059 A 
ATOM     90  F   UNL A   1      42.741  23.635  33.599  1.00  0.00    -0.206 F 
ATOM     91  C   UNL A   1      45.899  22.664  34.942  1.00  0.00     0.060 A 
BRANCH  91  92
ATOM     92  S   UNL A   1      46.532  21.457  36.109  1.00  0.00     0.124 S 
ATOM     93  O   UNL A   1      47.973  21.532  35.892  1.00  0.00    -0.237 OA
ATOM     94  O   UNL A   1      46.051  22.006  37.373  1.00  0.00    -0.237 OA
ATOM     95  O   UNL A   1      45.902  20.211  35.682  1.00  0.00    -0.744 OA
ENDBRANCH  91  92
ENDBRANCH  59  84
ENDBRANCH  33  34
ENDBRANCH  26  28
ENDBRANCH  25  26
ENDBRANCH  24  25
ENDBRANCH   1  24
TORSDOF 17
ENDMDL
