MODEL 1
REMARK VINA RESULT:     -10.5      0.000      0.000
REMARK SMILES CC[NH2+][C@]1(C(=O)OCCOC(=O)c2ccc(-c3c4nc(c(-c5c(F)cc(S(=O)(=O)[O-])cc5F)c5ccc([nH]5)c(-c5c(F)cc(S(=O)(=O)[O-])cc5F)c5nc(c(-c6c(F)cc(S(=O)(=O)[O-])cc6F)c6ccc3[nH]6)C=C5)C=C4)cc2)CCC[C@H]1CCSc1ccc(Cl)cc1
REMARK SMILES IDX 8 1 7 2 5 3 6 4 4 5 79 6 82 7 80 8 81 9 3 10 2 13 1 14 83 15
REMARK SMILES IDX 84 16 85 17 86 18 87 19 92 20 88 21 91 22 89 23 90 24 9 25
REMARK SMILES IDX 10 26 11 27 12 28 13 29 14 30 78 31 15 32 77 33 16 34 17 35
REMARK SMILES IDX 18 36 71 37 19 38 76 39 70 40 72 41 20 42 75 43 69 44 68 45
REMARK SMILES IDX 21 47 55 48 34 49 54 50 35 51 38 52 53 53 73 54 36 55 37 56
REMARK SMILES IDX 52 58 74 59 39 60 22 61 23 62 32 63 24 64 25 65 31 66 33 67
REMARK SMILES IDX 26 68 27 69 28 70 29 71 30 72 56 73 57 74 66 75 58 76 59 77
REMARK SMILES IDX 65 78 67 79 60 80 61 81 62 82 63 83 64 84 40 85 41 86 50 87
REMARK SMILES IDX 42 88 43 89 49 90 51 91 44 92 45 93 46 94 47 95 48 96
REMARK H PARENT 3 11 3 12 72 46 38 57
REMARK Flexibility Score: inf
ROOT
ATOM      1  C   UNL A   1      31.791  28.247  27.465  1.00  0.00     0.274 C 
ENDROOT
BRANCH   1   2
ATOM      2  O   UNL A   1      32.264  27.290  26.490  1.00  0.00    -0.457 OA
BRANCH   2   3
ATOM      3  C   UNL A   1      31.341  26.666  25.730  1.00  0.00     0.368 C 
ATOM      4  O   UNL A   1      30.380  26.080  26.223  1.00  0.00    -0.245 OA
BRANCH   3   5
ATOM      5  C   UNL A   1      31.609  26.777  24.188  1.00  0.00     0.197 C 
ATOM      6  C   UNL A   1      33.100  26.594  23.838  1.00  0.00     0.081 C 
ATOM      7  C   UNL A   1      30.954  25.757  23.191  1.00  0.00     0.063 C 
ATOM      8  C   UNL A   1      33.156  26.411  22.317  1.00  0.00     0.008 C 
ATOM      9  C   UNL A   1      31.725  26.094  21.880  1.00  0.00     0.011 C 
BRANCH   5  10
ATOM     10  N   UNL A   1      31.320  28.205  23.821  1.00  0.00    -0.332 N 
ATOM     11  H   UNL A   1      31.722  28.801  24.543  1.00  0.00     0.347 HD
ATOM     12  H   UNL A   1      31.727  28.339  22.896  1.00  0.00     0.347 HD
BRANCH  10  13
ATOM     13  C   UNL A   1      29.915  28.554  23.687  1.00  0.00     0.257 C 
ATOM     14  C   UNL A   1      29.790  29.837  22.881  1.00  0.00     0.071 C 
ENDBRANCH  10  13
ENDBRANCH   5  10
BRANCH   7  15
ATOM     15  C   UNL A   1      31.119  24.213  23.374  1.00  0.00     0.022 C 
BRANCH  15  16
ATOM     16  C   UNL A   1      32.091  23.540  24.354  1.00  0.00     0.075 C 
BRANCH  16  17
ATOM     17  S   UNL A   1      33.082  22.077  23.884  1.00  0.00    -0.126 SA
BRANCH  17  18
ATOM     18  C   UNL A   1      34.679  22.362  24.597  1.00  0.00     0.007 A 
ATOM     19  C   UNL A   1      35.400  21.245  25.037  1.00  0.00     0.016 A 
ATOM     20  C   UNL A   1      35.278  23.625  24.642  1.00  0.00     0.016 A 
ATOM     21  C   UNL A   1      36.686  21.387  25.557  1.00  0.00     0.021 A 
ATOM     22  C   UNL A   1      36.580  23.766  25.141  1.00  0.00     0.021 A 
ATOM     23  C   UNL A   1      37.274  22.647  25.603  1.00  0.00     0.041 A 
ATOM     24  Cl  UNL A   1      38.854  22.822  26.257  1.00  0.00    -0.084 Cl
ENDBRANCH  17  18
ENDBRANCH  16  17
ENDBRANCH  15  16
ENDBRANCH   7  15
ENDBRANCH   3   5
ENDBRANCH   2   3
ENDBRANCH   1   2
BRANCH   1  25
ATOM     25  C   UNL A   1      32.400  29.622  27.207  1.00  0.00     0.275 C 
BRANCH  25  26
ATOM     26  O   UNL A   1      33.829  29.514  27.150  1.00  0.00    -0.458 OA
BRANCH  26  27
ATOM     27  C   UNL A   1      34.500  30.469  27.833  1.00  0.00     0.338 C 
ATOM     28  O   UNL A   1      34.064  31.514  28.282  1.00  0.00    -0.246 OA
BRANCH  27  29
ATOM     29  C   UNL A   1      35.867  29.992  28.063  1.00  0.00     0.060 A 
ATOM     30  C   UNL A   1      36.207  29.543  29.338  1.00  0.00     0.016 A 
ATOM     31  C   UNL A   1      36.824  30.069  27.059  1.00  0.00     0.016 A 
ATOM     32  C   UNL A   1      37.521  29.241  29.651  1.00  0.00     0.010 A 
ATOM     33  C   UNL A   1      38.133  29.677  27.348  1.00  0.00     0.010 A 
ATOM     34  C   UNL A   1      38.492  29.278  28.650  1.00  0.00    -0.014 A 
BRANCH  34  35
ATOM     35  C   UNL A   1      39.892  28.917  28.959  1.00  0.00     0.031 A 
ATOM     36  C   UNL A   1      40.808  29.967  29.507  1.00  0.00     0.074 A 
ATOM     37  C   UNL A   1      40.331  27.665  28.727  1.00  0.00     0.049 A 
ATOM     38  N   UNL A   1      42.112  29.980  29.556  1.00  0.00    -0.248 NA
ATOM     39  C   UNL A   1      40.168  31.173  30.060  1.00  0.00     0.031 C 
ATOM     40  C   UNL A   1      39.501  26.538  28.293  1.00  0.00     0.029 A 
ATOM     41  N   UNL A   1      41.592  27.134  28.808  1.00  0.00    -0.354 N 
ATOM     42  C   UNL A   1      42.454  31.216  30.091  1.00  0.00     0.074 A 
ATOM     43  C   UNL A   1      41.220  31.921  30.362  1.00  0.00     0.031 C 
ATOM     44  C   UNL A   1      40.274  25.452  28.144  1.00  0.00     0.029 A 
ATOM     45  C   UNL A   1      41.662  25.831  28.377  1.00  0.00     0.049 A 
ATOM     46  H   UNL A   1      42.370  27.636  29.143  1.00  0.00     0.167 HD
ATOM     47  C   UNL A   1      43.693  31.710  30.315  1.00  0.00     0.037 A 
ATOM     48  C   UNL A   1      42.732  25.053  28.126  1.00  0.00     0.037 A 
ATOM     49  C   UNL A   1      44.898  30.964  30.058  1.00  0.00     0.049 A 
ATOM     50  C   UNL A   1      44.100  25.642  28.316  1.00  0.00     0.074 A 
ATOM     51  C   UNL A   1      46.212  31.365  30.204  1.00  0.00     0.029 A 
ATOM     52  N   UNL A   1      44.926  29.648  29.613  1.00  0.00    -0.354 N 
ATOM     53  N   UNL A   1      44.427  26.847  28.723  1.00  0.00    -0.248 NA
ATOM     54  C   UNL A   1      45.246  24.785  27.988  1.00  0.00     0.031 C 
ATOM     55  C   UNL A   1      47.035  30.299  29.825  1.00  0.00     0.029 A 
ATOM     56  C   UNL A   1      46.234  29.221  29.480  1.00  0.00     0.049 A 
ATOM     57  H   UNL A   1      44.130  29.100  29.421  1.00  0.00     0.167 HD
ATOM     58  C   UNL A   1      45.815  26.886  28.722  1.00  0.00     0.074 A 
ATOM     59  C   UNL A   1      46.267  25.582  28.276  1.00  0.00     0.031 C 
ATOM     60  C   UNL A   1      46.643  27.904  29.059  1.00  0.00     0.037 A 
BRANCH  47  61
ATOM     61  C   UNL A   1      43.803  33.123  30.810  1.00  0.00     0.058 A 
ATOM     62  C   UNL A   1      43.907  34.213  29.934  1.00  0.00     0.135 A 
ATOM     63  C   UNL A   1      43.795  33.391  32.189  1.00  0.00     0.135 A 
ATOM     64  F   UNL A   1      43.943  34.013  28.606  1.00  0.00    -0.206 F 
ATOM     65  C   UNL A   1      44.022  35.517  30.406  1.00  0.00     0.059 A 
ATOM     66  C   UNL A   1      43.887  34.688  32.684  1.00  0.00     0.059 A 
ATOM     67  F   UNL A   1      43.706  32.384  33.072  1.00  0.00    -0.206 F 
ATOM     68  C   UNL A   1      44.016  35.744  31.784  1.00  0.00     0.060 A 
BRANCH  68  69
ATOM     69  S   UNL A   1      44.174  37.440  32.385  1.00  0.00     0.124 S 
ATOM     70  O   UNL A   1      43.182  37.462  33.456  1.00  0.00    -0.237 OA
ATOM     71  O   UNL A   1      45.568  37.494  32.811  1.00  0.00    -0.237 OA
ATOM     72  O   UNL A   1      43.849  38.247  31.212  1.00  0.00    -0.744 OA
ENDBRANCH  68  69
ENDBRANCH  47  61
BRANCH  48  73
ATOM     73  C   UNL A   1      42.544  23.670  27.615  1.00  0.00     0.058 A 
ATOM     74  C   UNL A   1      42.516  23.407  26.238  1.00  0.00     0.135 A 
ATOM     75  C   UNL A   1      42.421  22.578  28.491  1.00  0.00     0.135 A 
ATOM     76  F   UNL A   1      42.623  24.417  25.361  1.00  0.00    -0.206 F 
ATOM     77  C   UNL A   1      42.362  22.114  25.746  1.00  0.00     0.059 A 
ATOM     78  C   UNL A   1      42.293  21.274  28.023  1.00  0.00     0.059 A 
ATOM     79  F   UNL A   1      42.457  22.773  29.819  1.00  0.00    -0.206 F 
ATOM     80  C   UNL A   1      42.254  21.054  26.647  1.00  0.00     0.060 A 
BRANCH  80  81
ATOM     81  S   UNL A   1      42.102  19.373  26.001  1.00  0.00     0.124 S 
ATOM     82  O   UNL A   1      42.941  19.441  24.810  1.00  0.00    -0.237 OA
ATOM     83  O   UNL A   1      42.621  18.569  27.102  1.00  0.00    -0.237 OA
ATOM     84  O   UNL A   1      40.669  19.237  25.757  1.00  0.00    -0.744 OA
ENDBRANCH  80  81
ENDBRANCH  48  73
BRANCH  60  85
ATOM     85  C   UNL A   1      48.115  27.634  29.014  1.00  0.00     0.058 A 
ATOM     86  C   UNL A   1      48.882  27.930  27.879  1.00  0.00     0.135 A 
ATOM     87  C   UNL A   1      48.777  27.159  30.158  1.00  0.00     0.135 A 
ATOM     88  F   UNL A   1      48.290  28.377  26.761  1.00  0.00    -0.206 F 
ATOM     89  C   UNL A   1      50.263  27.767  27.879  1.00  0.00     0.059 A 
ATOM     90  C   UNL A   1      50.157  27.008  30.187  1.00  0.00     0.059 A 
ATOM     91  F   UNL A   1      48.082  26.868  31.269  1.00  0.00    -0.206 F 
ATOM     92  C   UNL A   1      50.892  27.313  29.042  1.00  0.00     0.060 A 
BRANCH  92  93
ATOM     93  S   UNL A   1      52.692  27.182  29.057  1.00  0.00     0.124 S 
ATOM     94  O   UNL A   1      52.946  26.493  27.797  1.00  0.00    -0.237 OA
ATOM     95  O   UNL A   1      53.108  28.580  29.110  1.00  0.00    -0.237 OA
ATOM     96  O   UNL A   1      52.965  26.407  30.264  1.00  0.00    -0.744 OA
ENDBRANCH  92  93
ENDBRANCH  60  85
ENDBRANCH  34  35
ENDBRANCH  27  29
ENDBRANCH  26  27
ENDBRANCH  25  26
ENDBRANCH   1  25
TORSDOF 20
ENDMDL
MODEL 2
REMARK VINA RESULT:     -10.3      3.846      9.651
REMARK SMILES CC[NH2+][C@]1(C(=O)OCCOC(=O)c2ccc(-c3c4nc(c(-c5c(F)cc(S(=O)(=O)[O-])cc5F)c5ccc([nH]5)c(-c5c(F)cc(S(=O)(=O)[O-])cc5F)c5nc(c(-c6c(F)cc(S(=O)(=O)[O-])cc6F)c6ccc3[nH]6)C=C5)C=C4)cc2)CCC[C@H]1CCSc1ccc(Cl)cc1
REMARK SMILES IDX 8 1 7 2 5 3 6 4 4 5 79 6 82 7 80 8 81 9 3 10 2 13 1 14 83 15
REMARK SMILES IDX 84 16 85 17 86 18 87 19 92 20 88 21 91 22 89 23 90 24 9 25
REMARK SMILES IDX 10 26 11 27 12 28 13 29 14 30 78 31 15 32 77 33 16 34 17 35
REMARK SMILES IDX 18 36 71 37 19 38 76 39 70 40 72 41 20 42 75 43 69 44 68 45
REMARK SMILES IDX 21 47 55 48 34 49 54 50 35 51 38 52 53 53 73 54 36 55 37 56
REMARK SMILES IDX 52 58 74 59 39 60 22 61 23 62 32 63 24 64 25 65 31 66 33 67
REMARK SMILES IDX 26 68 27 69 28 70 29 71 30 72 56 73 57 74 66 75 58 76 59 77
REMARK SMILES IDX 65 78 67 79 60 80 61 81 62 82 63 83 64 84 40 85 41 86 50 87
REMARK SMILES IDX 42 88 43 89 49 90 51 91 44 92 45 93 46 94 47 95 48 96
REMARK H PARENT 3 11 3 12 72 46 38 57
REMARK Flexibility Score: inf
ROOT
ATOM      1  C   UNL A   1      36.211  23.244  23.402  1.00  0.00     0.274 C 
ENDROOT
BRANCH   1   2
ATOM      2  O   UNL A   1      34.956  23.871  23.753  1.00  0.00    -0.457 OA
BRANCH   2   3
ATOM      3  C   UNL A   1      33.837  23.390  23.178  1.00  0.00     0.368 C 
ATOM      4  O   UNL A   1      33.685  23.374  21.959  1.00  0.00    -0.245 OA
BRANCH   3   5
ATOM      5  C   UNL A   1      32.776  22.853  24.203  1.00  0.00     0.197 C 
ATOM      6  C   UNL A   1      33.236  23.026  25.665  1.00  0.00     0.081 C 
ATOM      7  C   UNL A   1      31.345  23.491  24.275  1.00  0.00     0.063 C 
ATOM      8  C   UNL A   1      31.998  22.760  26.530  1.00  0.00     0.008 C 
ATOM      9  C   UNL A   1      30.800  22.838  25.582  1.00  0.00     0.011 C 
BRANCH   5  10
ATOM     10  N   UNL A   1      32.732  21.364  24.007  1.00  0.00    -0.332 N 
ATOM     11  H   UNL A   1      31.861  21.021  24.414  1.00  0.00     0.347 HD
ATOM     12  H   UNL A   1      32.809  21.216  23.002  1.00  0.00     0.347 HD
BRANCH  10  13
ATOM     13  C   UNL A   1      33.826  20.612  24.600  1.00  0.00     0.257 C 
ATOM     14  C   UNL A   1      33.413  19.157  24.750  1.00  0.00     0.071 C 
ENDBRANCH  10  13
ENDBRANCH   5  10
BRANCH   7  15
ATOM     15  C   UNL A   1      31.143  25.028  24.475  1.00  0.00     0.022 C 
BRANCH  15  16
ATOM     16  C   UNL A   1      31.460  26.103  23.426  1.00  0.00     0.075 C 
BRANCH  16  17
ATOM     17  S   UNL A   1      30.801  27.804  23.552  1.00  0.00    -0.126 SA
BRANCH  17  18
ATOM     18  C   UNL A   1      31.819  28.598  24.764  1.00  0.00     0.007 A 
ATOM     19  C   UNL A   1      33.052  28.004  25.063  1.00  0.00     0.016 A 
ATOM     20  C   UNL A   1      31.493  29.827  25.347  1.00  0.00     0.016 A 
ATOM     21  C   UNL A   1      33.931  28.602  25.965  1.00  0.00     0.021 A 
ATOM     22  C   UNL A   1      32.386  30.442  26.234  1.00  0.00     0.021 A 
ATOM     23  C   UNL A   1      33.597  29.823  26.545  1.00  0.00     0.041 A 
ATOM     24  Cl  UNL A   1      34.676  30.552  27.667  1.00  0.00    -0.084 Cl
ENDBRANCH  17  18
ENDBRANCH  16  17
ENDBRANCH  15  16
ENDBRANCH   7  15
ENDBRANCH   3   5
ENDBRANCH   2   3
ENDBRANCH   1   2
BRANCH   1  25
ATOM     25  C   UNL A   1      36.895  22.678  24.642  1.00  0.00     0.275 C 
BRANCH  25  26
ATOM     26  O   UNL A   1      37.723  23.686  25.240  1.00  0.00    -0.458 OA
BRANCH  26  27
ATOM     27  C   UNL A   1      38.770  23.214  25.952  1.00  0.00     0.338 C 
ATOM     28  O   UNL A   1      39.270  22.105  25.903  1.00  0.00    -0.246 OA
BRANCH  27  29
ATOM     29  C   UNL A   1      39.313  24.317  26.752  1.00  0.00     0.060 A 
ATOM     30  C   UNL A   1      38.899  24.441  28.077  1.00  0.00     0.016 A 
ATOM     31  C   UNL A   1      40.149  25.266  26.178  1.00  0.00     0.016 A 
ATOM     32  C   UNL A   1      39.248  25.553  28.823  1.00  0.00     0.010 A 
ATOM     33  C   UNL A   1      40.577  26.343  26.958  1.00  0.00     0.010 A 
ATOM     34  C   UNL A   1      40.114  26.502  28.279  1.00  0.00    -0.014 A 
BRANCH  34  35
ATOM     35  C   UNL A   1      40.530  27.674  29.078  1.00  0.00     0.031 A 
ATOM     36  C   UNL A   1      41.814  27.611  29.844  1.00  0.00     0.074 A 
ATOM     37  C   UNL A   1      39.746  28.768  29.126  1.00  0.00     0.049 A 
ATOM     38  N   UNL A   1      42.223  28.359  30.832  1.00  0.00    -0.248 NA
ATOM     39  C   UNL A   1      42.761  26.553  29.454  1.00  0.00     0.031 C 
ATOM     40  C   UNL A   1      38.527  28.977  28.339  1.00  0.00     0.029 A 
ATOM     41  N   UNL A   1      39.849  29.906  29.882  1.00  0.00    -0.354 N 
ATOM     42  C   UNL A   1      43.446  27.828  31.223  1.00  0.00     0.074 A 
ATOM     43  C   UNL A   1      43.720  26.703  30.356  1.00  0.00     0.031 C 
ATOM     44  C   UNL A   1      37.995  30.167  28.656  1.00  0.00     0.029 A 
ATOM     45  C   UNL A   1      38.780  30.757  29.734  1.00  0.00     0.049 A 
ATOM     46  H   UNL A   1      40.613  30.095  30.473  1.00  0.00     0.167 HD
ATOM     47  C   UNL A   1      44.249  28.245  32.228  1.00  0.00     0.037 A 
ATOM     48  C   UNL A   1      38.434  31.850  30.438  1.00  0.00     0.037 A 
ATOM     49  C   UNL A   1      43.954  29.390  33.051  1.00  0.00     0.049 A 
ATOM     50  C   UNL A   1      39.302  32.258  31.594  1.00  0.00     0.074 A 
ATOM     51  C   UNL A   1      44.665  29.890  34.125  1.00  0.00     0.029 A 
ATOM     52  N   UNL A   1      42.856  30.221  32.872  1.00  0.00    -0.354 N 
ATOM     53  N   UNL A   1      40.405  31.696  32.030  1.00  0.00    -0.248 NA
ATOM     54  C   UNL A   1      38.871  33.426  32.372  1.00  0.00     0.031 C 
ATOM     55  C   UNL A   1      43.984  31.011  34.611  1.00  0.00     0.029 A 
ATOM     56  C   UNL A   1      42.870  31.232  33.816  1.00  0.00     0.049 A 
ATOM     57  H   UNL A   1      42.169  30.108  32.176  1.00  0.00     0.167 HD
ATOM     58  C   UNL A   1      40.814  32.454  33.119  1.00  0.00     0.074 A 
ATOM     59  C   UNL A   1      39.840  33.517  33.275  1.00  0.00     0.031 C 
ATOM     60  C   UNL A   1      41.895  32.290  33.920  1.00  0.00     0.037 A 
BRANCH  47  61
ATOM     61  C   UNL A   1      45.481  27.438  32.519  1.00  0.00     0.058 A 
ATOM     62  C   UNL A   1      45.441  26.273  33.298  1.00  0.00     0.135 A 
ATOM     63  C   UNL A   1      46.724  27.834  31.998  1.00  0.00     0.135 A 
ATOM     64  F   UNL A   1      44.283  25.862  33.841  1.00  0.00    -0.206 F 
ATOM     65  C   UNL A   1      46.593  25.540  33.572  1.00  0.00     0.059 A 
ATOM     66  C   UNL A   1      47.885  27.105  32.239  1.00  0.00     0.059 A 
ATOM     67  F   UNL A   1      46.821  28.945  31.251  1.00  0.00    -0.206 F 
ATOM     68  C   UNL A   1      47.812  25.968  33.041  1.00  0.00     0.060 A 
BRANCH  68  69
ATOM     69  S   UNL A   1      49.300  25.014  33.410  1.00  0.00     0.124 S 
ATOM     70  O   UNL A   1      48.742  23.870  34.125  1.00  0.00    -0.237 OA
ATOM     71  O   UNL A   1      49.830  24.731  32.080  1.00  0.00    -0.237 OA
ATOM     72  O   UNL A   1      50.100  25.930  34.217  1.00  0.00    -0.744 OA
ENDBRANCH  68  69
ENDBRANCH  47  61
BRANCH  48  73
ATOM     73  C   UNL A   1      37.185  32.586  30.106  1.00  0.00     0.058 A 
ATOM     74  C   UNL A   1      37.186  33.619  29.159  1.00  0.00     0.135 A 
ATOM     75  C   UNL A   1      35.959  32.251  30.706  1.00  0.00     0.135 A 
ATOM     76  F   UNL A   1      38.333  33.981  28.563  1.00  0.00    -0.206 F 
ATOM     77  C   UNL A   1      36.021  34.302  28.824  1.00  0.00     0.059 A 
ATOM     78  C   UNL A   1      34.776  32.901  30.368  1.00  0.00     0.059 A 
ATOM     79  F   UNL A   1      35.900  31.259  31.609  1.00  0.00    -0.206 F 
ATOM     80  C   UNL A   1      34.820  33.933  29.433  1.00  0.00     0.060 A 
BRANCH  80  81
ATOM     81  S   UNL A   1      33.303  34.793  28.957  1.00  0.00     0.124 S 
ATOM     82  O   UNL A   1      33.832  36.020  28.376  1.00  0.00    -0.237 OA
ATOM     83  O   UNL A   1      32.695  33.853  28.020  1.00  0.00    -0.237 OA
ATOM     84  O   UNL A   1      32.595  34.947  30.225  1.00  0.00    -0.744 OA
ENDBRANCH  80  81
ENDBRANCH  48  73
BRANCH  60  85
ATOM     85  C   UNL A   1      42.113  33.309  34.995  1.00  0.00     0.058 A 
ATOM     86  C   UNL A   1      41.596  33.136  36.287  1.00  0.00     0.135 A 
ATOM     87  C   UNL A   1      42.929  34.424  34.749  1.00  0.00     0.135 A 
ATOM     88  F   UNL A   1      40.803  32.090  36.563  1.00  0.00    -0.206 F 
ATOM     89  C   UNL A   1      41.884  34.038  37.305  1.00  0.00     0.059 A 
ATOM     90  C   UNL A   1      43.246  35.327  35.757  1.00  0.00     0.059 A 
ATOM     91  F   UNL A   1      43.450  34.625  33.528  1.00  0.00    -0.206 F 
ATOM     92  C   UNL A   1      42.717  35.126  37.031  1.00  0.00     0.060 A 
BRANCH  92  93
ATOM     93  S   UNL A   1      43.150  36.246  38.379  1.00  0.00     0.124 S 
ATOM     94  O   UNL A   1      44.388  36.837  37.883  1.00  0.00    -0.237 OA
ATOM     95  O   UNL A   1      41.996  37.139  38.427  1.00  0.00    -0.237 OA
ATOM     96  O   UNL A   1      43.293  35.355  39.527  1.00  0.00    -0.744 OA
ENDBRANCH  92  93
ENDBRANCH  60  85
ENDBRANCH  34  35
ENDBRANCH  27  29
ENDBRANCH  26  27
ENDBRANCH  25  26
ENDBRANCH   1  25
TORSDOF 20
ENDMDL
MODEL 3
REMARK VINA RESULT:     -10.2      1.433      2.250
REMARK SMILES CC[NH2+][C@]1(C(=O)OCCOC(=O)c2ccc(-c3c4nc(c(-c5c(F)cc(S(=O)(=O)[O-])cc5F)c5ccc([nH]5)c(-c5c(F)cc(S(=O)(=O)[O-])cc5F)c5nc(c(-c6c(F)cc(S(=O)(=O)[O-])cc6F)c6ccc3[nH]6)C=C5)C=C4)cc2)CCC[C@H]1CCSc1ccc(Cl)cc1
REMARK SMILES IDX 8 1 7 2 5 3 6 4 4 5 79 6 82 7 80 8 81 9 3 10 2 13 1 14 83 15
REMARK SMILES IDX 84 16 85 17 86 18 87 19 92 20 88 21 91 22 89 23 90 24 9 25
REMARK SMILES IDX 10 26 11 27 12 28 13 29 14 30 78 31 15 32 77 33 16 34 17 35
REMARK SMILES IDX 18 36 71 37 19 38 76 39 70 40 72 41 20 42 75 43 69 44 68 45
REMARK SMILES IDX 21 47 55 48 34 49 54 50 35 51 38 52 53 53 73 54 36 55 37 56
REMARK SMILES IDX 52 58 74 59 39 60 22 61 23 62 32 63 24 64 25 65 31 66 33 67
REMARK SMILES IDX 26 68 27 69 28 70 29 71 30 72 56 73 57 74 66 75 58 76 59 77
REMARK SMILES IDX 65 78 67 79 60 80 61 81 62 82 63 83 64 84 40 85 41 86 50 87
REMARK SMILES IDX 42 88 43 89 49 90 51 91 44 92 45 93 46 94 47 95 48 96
REMARK H PARENT 3 11 3 12 72 46 38 57
REMARK Flexibility Score: inf
ROOT
ATOM      1  C   UNL A   1      32.045  29.191  27.238  1.00  0.00     0.274 C 
ENDROOT
BRANCH   1   2
ATOM      2  O   UNL A   1      32.753  28.108  26.592  1.00  0.00    -0.457 OA
BRANCH   2   3
ATOM      3  C   UNL A   1      32.018  27.137  26.017  1.00  0.00     0.368 C 
ATOM      4  O   UNL A   1      31.240  26.439  26.663  1.00  0.00    -0.245 OA
BRANCH   3   5
ATOM      5  C   UNL A   1      32.242  27.003  24.469  1.00  0.00     0.197 C 
ATOM      6  C   UNL A   1      33.313  27.981  23.946  1.00  0.00     0.081 C 
ATOM      7  C   UNL A   1      32.760  25.655  23.854  1.00  0.00     0.063 C 
ATOM      8  C   UNL A   1      33.643  27.523  22.521  1.00  0.00     0.008 C 
ATOM      9  C   UNL A   1      33.082  26.105  22.397  1.00  0.00     0.011 C 
BRANCH   5  10
ATOM     10  N   UNL A   1      30.969  27.475  23.826  1.00  0.00    -0.332 N 
ATOM     11  H   UNL A   1      30.961  27.136  22.864  1.00  0.00     0.347 HD
ATOM     12  H   UNL A   1      30.215  27.107  24.404  1.00  0.00     0.347 HD
BRANCH  10  13
ATOM     13  C   UNL A   1      30.771  28.915  23.792  1.00  0.00     0.257 C 
ATOM     14  C   UNL A   1      30.236  29.317  22.427  1.00  0.00     0.071 C 
ENDBRANCH  10  13
ENDBRANCH   5  10
BRANCH   7  15
ATOM     15  C   UNL A   1      34.070  24.972  24.366  1.00  0.00     0.022 C 
BRANCH  15  16
ATOM     16  C   UNL A   1      34.185  24.140  25.651  1.00  0.00     0.075 C 
BRANCH  16  17
ATOM     17  S   UNL A   1      35.377  22.762  25.809  1.00  0.00    -0.126 SA
BRANCH  17  18
ATOM     18  C   UNL A   1      34.554  21.366  25.092  1.00  0.00     0.007 A 
ATOM     19  C   UNL A   1      35.259  20.157  25.036  1.00  0.00     0.016 A 
ATOM     20  C   UNL A   1      33.217  21.397  24.682  1.00  0.00     0.016 A 
ATOM     21  C   UNL A   1      34.657  19.003  24.537  1.00  0.00     0.021 A 
ATOM     22  C   UNL A   1      32.602  20.233  24.204  1.00  0.00     0.021 A 
ATOM     23  C   UNL A   1      33.328  19.043  24.127  1.00  0.00     0.041 A 
ATOM     24  Cl  UNL A   1      32.591  17.623  23.499  1.00  0.00    -0.084 Cl
ENDBRANCH  17  18
ENDBRANCH  16  17
ENDBRANCH  15  16
ENDBRANCH   7  15
ENDBRANCH   3   5
ENDBRANCH   2   3
ENDBRANCH   1   2
BRANCH   1  25
ATOM     25  C   UNL A   1      32.903  30.451  27.269  1.00  0.00     0.275 C 
BRANCH  25  26
ATOM     26  O   UNL A   1      34.281  30.093  27.446  1.00  0.00    -0.458 OA
BRANCH  26  27
ATOM     27  C   UNL A   1      34.915  30.745  28.447  1.00  0.00     0.338 C 
ATOM     28  O   UNL A   1      34.447  31.554  29.227  1.00  0.00    -0.246 OA
BRANCH  27  29
ATOM     29  C   UNL A   1      36.285  30.230  28.531  1.00  0.00     0.060 A 
ATOM     30  C   UNL A   1      36.796  29.909  29.788  1.00  0.00     0.016 A 
ATOM     31  C   UNL A   1      37.085  30.149  27.399  1.00  0.00     0.016 A 
ATOM     32  C   UNL A   1      38.132  29.580  29.942  1.00  0.00     0.010 A 
ATOM     33  C   UNL A   1      38.409  29.728  27.541  1.00  0.00     0.010 A 
ATOM     34  C   UNL A   1      38.945  29.459  28.815  1.00  0.00    -0.014 A 
BRANCH  34  35
ATOM     35  C   UNL A   1      40.362  29.067  28.960  1.00  0.00     0.031 A 
ATOM     36  C   UNL A   1      41.366  30.106  29.356  1.00  0.00     0.074 A 
ATOM     37  C   UNL A   1      40.738  27.797  28.716  1.00  0.00     0.049 A 
ATOM     38  N   UNL A   1      42.665  30.082  29.243  1.00  0.00    -0.248 NA
ATOM     39  C   UNL A   1      40.830  31.345  29.944  1.00  0.00     0.031 C 
ATOM     40  C   UNL A   1      39.832  26.682  28.425  1.00  0.00     0.029 A 
ATOM     41  N   UNL A   1      41.985  27.232  28.657  1.00  0.00    -0.354 N 
ATOM     42  C   UNL A   1      43.102  31.323  29.691  1.00  0.00     0.074 A 
ATOM     43  C   UNL A   1      41.930  32.070  30.090  1.00  0.00     0.031 C 
ATOM     44  C   UNL A   1      40.553  25.570  28.216  1.00  0.00     0.029 A 
ATOM     45  C   UNL A   1      41.968  25.915  28.263  1.00  0.00     0.049 A 
ATOM     46  H   UNL A   1      42.811  27.721  28.876  1.00  0.00     0.167 HD
ATOM     47  C   UNL A   1      44.372  31.787  29.743  1.00  0.00     0.037 A 
ATOM     48  C   UNL A   1      42.979  25.100  27.907  1.00  0.00     0.037 A 
ATOM     49  C   UNL A   1      45.516  30.999  29.364  1.00  0.00     0.049 A 
ATOM     50  C   UNL A   1      44.375  25.655  27.907  1.00  0.00     0.074 A 
ATOM     51  C   UNL A   1      46.848  31.367  29.333  1.00  0.00     0.029 A 
ATOM     52  N   UNL A   1      45.455  29.671  28.962  1.00  0.00    -0.354 N 
ATOM     53  N   UNL A   1      44.779  26.861  28.231  1.00  0.00    -0.248 NA
ATOM     54  C   UNL A   1      45.449  24.755  27.468  1.00  0.00     0.031 C 
ATOM     55  C   UNL A   1      47.590  30.266  28.890  1.00  0.00     0.029 A 
ATOM     56  C   UNL A   1      46.725  29.203  28.681  1.00  0.00     0.049 A 
ATOM     57  H   UNL A   1      44.629  29.141  28.887  1.00  0.00     0.167 HD
ATOM     58  C   UNL A   1      46.157  26.860  28.058  1.00  0.00     0.074 A 
ATOM     59  C   UNL A   1      46.517  25.531  27.600  1.00  0.00     0.031 C 
ATOM     60  C   UNL A   1      47.046  27.863  28.256  1.00  0.00     0.037 A 
BRANCH  47  61
ATOM     61  C   UNL A   1      44.578  33.210  30.175  1.00  0.00     0.058 A 
ATOM     62  C   UNL A   1      44.842  33.553  31.509  1.00  0.00     0.135 A 
ATOM     63  C   UNL A   1      44.520  34.250  29.232  1.00  0.00     0.135 A 
ATOM     64  F   UNL A   1      44.885  32.601  32.456  1.00  0.00    -0.206 F 
ATOM     65  C   UNL A   1      45.018  34.877  31.899  1.00  0.00     0.059 A 
ATOM     66  C   UNL A   1      44.715  35.579  29.595  1.00  0.00     0.059 A 
ATOM     67  F   UNL A   1      44.264  33.979  27.943  1.00  0.00    -0.206 F 
ATOM     68  C   UNL A   1      44.947  35.885  30.935  1.00  0.00     0.060 A 
BRANCH  68  69
ATOM     69  S   UNL A   1      45.169  37.600  31.454  1.00  0.00     0.124 S 
ATOM     70  O   UNL A   1      45.715  38.202  30.241  1.00  0.00    -0.237 OA
ATOM     71  O   UNL A   1      43.811  38.001  31.803  1.00  0.00    -0.237 OA
ATOM     72  O   UNL A   1      46.097  37.497  32.576  1.00  0.00    -0.744 OA
ENDBRANCH  68  69
ENDBRANCH  47  61
BRANCH  48  73
ATOM     73  C   UNL A   1      42.695  23.708  27.468  1.00  0.00     0.058 A 
ATOM     74  C   UNL A   1      42.582  23.390  26.107  1.00  0.00     0.135 A 
ATOM     75  C   UNL A   1      42.561  22.663  28.397  1.00  0.00     0.135 A 
ATOM     76  F   UNL A   1      42.694  24.355  25.182  1.00  0.00    -0.206 F 
ATOM     77  C   UNL A   1      42.336  22.088  25.682  1.00  0.00     0.059 A 
ATOM     78  C   UNL A   1      42.343  21.349  27.995  1.00  0.00     0.059 A 
ATOM     79  F   UNL A   1      42.676  22.911  29.711  1.00  0.00    -0.206 F 
ATOM     80  C   UNL A   1      42.221  21.073  26.634  1.00  0.00     0.060 A 
BRANCH  80  81
ATOM     81  S   UNL A   1      41.950  19.378  26.071  1.00  0.00     0.124 S 
ATOM     82  O   UNL A   1      40.528  19.400  25.751  1.00  0.00    -0.237 OA
ATOM     83  O   UNL A   1      42.859  19.280  24.933  1.00  0.00    -0.237 OA
ATOM     84  O   UNL A   1      42.325  18.577  27.232  1.00  0.00    -0.744 OA
ENDBRANCH  80  81
ENDBRANCH  48  73
BRANCH  60  85
ATOM     85  C   UNL A   1      48.494  27.549  28.038  1.00  0.00     0.058 A 
ATOM     86  C   UNL A   1      49.271  26.938  29.032  1.00  0.00     0.135 A 
ATOM     87  C   UNL A   1      49.081  27.781  26.784  1.00  0.00     0.135 A 
ATOM     88  F   UNL A   1      48.753  26.707  30.248  1.00  0.00    -0.206 F 
ATOM     89  C   UNL A   1      50.587  26.562  28.788  1.00  0.00     0.059 A 
ATOM     90  C   UNL A   1      50.388  27.396  26.513  1.00  0.00     0.059 A 
ATOM     91  F   UNL A   1      48.372  28.359  25.801  1.00  0.00    -0.206 F 
ATOM     92  C   UNL A   1      51.133  26.788  27.522  1.00  0.00     0.060 A 
BRANCH  92  93
ATOM     93  S   UNL A   1      52.816  26.224  27.192  1.00  0.00     0.124 S 
ATOM     94  O   UNL A   1      53.394  26.227  28.532  1.00  0.00    -0.237 OA
ATOM     95  O   UNL A   1      52.595  24.907  26.601  1.00  0.00    -0.237 OA
ATOM     96  O   UNL A   1      53.339  27.234  26.278  1.00  0.00    -0.744 OA
ENDBRANCH  92  93
ENDBRANCH  60  85
ENDBRANCH  34  35
ENDBRANCH  27  29
ENDBRANCH  26  27
ENDBRANCH  25  26
ENDBRANCH   1  25
TORSDOF 20
ENDMDL
