MODEL 1
REMARK VINA RESULT:     -10.8      0.000      0.000
REMARK SMILES CCSc1cccc(-c2ccc([C@@H](C)C(=O)OCCOC(=O)c3ccc(-c4c5nc(c(-c6c(F)cc(S(=O)(=O)[O-])cc6F)c6ccc([nH]6)c(-c6c(F)cc(S(=O)(=O)[O-])cc6F)c6nc(c(-c7c(F)cc(S(=O)(=O)[O-])cc7F)c7ccc4[nH]7)C=C6)C=C5)cc3)cc2)c1
REMARK SMILES IDX 18 1 17 2 15 3 16 4 13 5 14 6 12 7 9 8 10 9 90 10 11 11
REMARK SMILES IDX 89 12 8 13 4 14 5 15 91 16 6 17 7 18 3 19 2 20 1 21 19 22
REMARK SMILES IDX 20 23 21 24 22 25 23 26 24 27 88 28 25 29 87 30 26 31 27 32
REMARK SMILES IDX 28 33 81 34 29 35 86 36 80 37 82 38 30 39 85 40 79 41 78 42
REMARK SMILES IDX 31 44 65 45 44 46 64 47 45 48 48 49 63 50 83 51 46 52 47 53
REMARK SMILES IDX 62 55 84 56 49 57 32 58 33 59 42 60 34 61 35 62 41 63 43 64
REMARK SMILES IDX 36 65 37 66 38 67 39 68 40 69 66 70 67 71 76 72 68 73 69 74
REMARK SMILES IDX 75 75 77 76 70 77 71 78 72 79 73 80 74 81 50 82 51 83 60 84
REMARK SMILES IDX 52 85 53 86 59 87 61 88 54 89 55 90 56 91 57 92 58 93
REMARK H PARENT 82 43 48 54
REMARK Flexibility Score: inf
ROOT
ATOM      1  C   UNL A   1      44.137  22.339  25.592  1.00  0.00     0.274 C 
ENDROOT
BRANCH   1   2
ATOM      2  O   UNL A   1      42.810  22.001  25.141  1.00  0.00    -0.462 OA
BRANCH   2   3
ATOM      3  C   UNL A   1      42.012  21.353  26.029  1.00  0.00     0.313 C 
ATOM      4  O   UNL A   1      41.964  20.132  26.147  1.00  0.00    -0.252 OA
BRANCH   3   5
ATOM      5  C   UNL A   1      41.106  22.279  26.835  1.00  0.00     0.126 C 
ATOM      6  C   UNL A   1      41.158  21.890  28.312  1.00  0.00     0.025 C 
BRANCH   5   7
ATOM      7  C   UNL A   1      39.681  22.432  26.324  1.00  0.00    -0.034 A 
ATOM      8  C   UNL A   1      36.994  22.747  25.444  1.00  0.00    -0.018 A 
ATOM      9  C   UNL A   1      37.713  21.572  25.179  1.00  0.00     0.009 A 
ATOM     10  C   UNL A   1      37.648  23.770  26.141  1.00  0.00     0.009 A 
ATOM     11  C   UNL A   1      39.034  21.413  25.612  1.00  0.00     0.005 A 
ATOM     12  C   UNL A   1      38.966  23.611  26.583  1.00  0.00     0.005 A 
BRANCH   8  13
ATOM     13  C   UNL A   1      35.585  22.879  25.042  1.00  0.00    -0.017 A 
ATOM     14  C   UNL A   1      33.462  21.896  24.334  1.00  0.00     0.008 A 
ATOM     15  C   UNL A   1      32.900  23.174  24.259  1.00  0.00     0.015 A 
ATOM     16  C   UNL A   1      34.797  21.755  24.736  1.00  0.00     0.023 A 
ATOM     17  C   UNL A   1      33.665  24.300  24.554  1.00  0.00     0.002 A 
ATOM     18  C   UNL A   1      34.996  24.150  24.939  1.00  0.00     0.009 A 
BRANCH  14  19
ATOM     19  S   UNL A   1      32.430  20.493  23.951  1.00  0.00    -0.126 SA
BRANCH  19  20
ATOM     20  C   UNL A   1      33.435  19.117  24.614  1.00  0.00     0.071 C 
ATOM     21  C   UNL A   1      32.581  17.960  25.103  1.00  0.00     0.016 C 
ENDBRANCH  19  20
ENDBRANCH  14  19
ENDBRANCH   8  13
ENDBRANCH   5   7
ENDBRANCH   3   5
ENDBRANCH   2   3
ENDBRANCH   1   2
BRANCH   1  22
ATOM     22  C   UNL A   1      44.390  23.844  25.498  1.00  0.00     0.275 C 
BRANCH  22  23
ATOM     23  O   UNL A   1      43.636  24.559  26.492  1.00  0.00    -0.458 OA
BRANCH  23  24
ATOM     24  C   UNL A   1      42.713  25.417  26.001  1.00  0.00     0.338 C 
ATOM     25  O   UNL A   1      42.270  25.460  24.866  1.00  0.00    -0.246 OA
BRANCH  24  26
ATOM     26  C   UNL A   1      42.197  26.262  27.089  1.00  0.00     0.060 A 
ATOM     27  C   UNL A   1      42.716  27.551  27.209  1.00  0.00     0.016 A 
ATOM     28  C   UNL A   1      41.300  25.766  28.034  1.00  0.00     0.016 A 
ATOM     29  C   UNL A   1      42.368  28.346  28.295  1.00  0.00     0.010 A 
ATOM     30  C   UNL A   1      40.936  26.573  29.120  1.00  0.00     0.010 A 
ATOM     31  C   UNL A   1      41.486  27.859  29.268  1.00  0.00    -0.014 A 
BRANCH  31  32
ATOM     32  C   UNL A   1      41.198  28.693  30.460  1.00  0.00     0.031 A 
ATOM     33  C   UNL A   1      42.067  28.582  31.682  1.00  0.00     0.074 A 
ATOM     34  C   UNL A   1      40.196  29.590  30.421  1.00  0.00     0.049 A 
ATOM     35  N   UNL A   1      41.987  29.233  32.814  1.00  0.00    -0.248 NA
ATOM     36  C   UNL A   1      43.174  27.615  31.621  1.00  0.00     0.031 C 
ATOM     37  C   UNL A   1      39.304  29.807  29.280  1.00  0.00     0.029 A 
ATOM     38  N   UNL A   1      39.768  30.494  31.358  1.00  0.00    -0.354 N 
ATOM     39  C   UNL A   1      43.019  28.748  33.606  1.00  0.00     0.074 A 
ATOM     40  C   UNL A   1      43.703  27.733  32.832  1.00  0.00     0.031 C 
ATOM     41  C   UNL A   1      38.443  30.794  29.580  1.00  0.00     0.029 A 
ATOM     42  C   UNL A   1      38.702  31.256  30.941  1.00  0.00     0.049 A 
ATOM     43  H   UNL A   1      40.185  30.590  32.244  1.00  0.00     0.167 HD
ATOM     44  C   UNL A   1      43.370  29.118  34.861  1.00  0.00     0.037 A 
ATOM     45  C   UNL A   1      38.008  32.211  31.588  1.00  0.00     0.037 A 
ATOM     46  C   UNL A   1      42.697  30.136  35.625  1.00  0.00     0.049 A 
ATOM     47  C   UNL A   1      38.405  32.591  32.987  1.00  0.00     0.074 A 
ATOM     48  C   UNL A   1      42.979  30.584  36.904  1.00  0.00     0.029 A 
ATOM     49  N   UNL A   1      41.608  30.870  35.178  1.00  0.00    -0.354 N 
ATOM     50  N   UNL A   1      39.381  32.117  33.724  1.00  0.00    -0.248 NA
ATOM     51  C   UNL A   1      37.607  33.636  33.643  1.00  0.00     0.031 C 
ATOM     52  C   UNL A   1      42.043  31.570  37.241  1.00  0.00     0.029 A 
ATOM     53  C   UNL A   1      41.199  31.759  36.159  1.00  0.00     0.049 A 
ATOM     54  H   UNL A   1      41.186  30.773  34.294  1.00  0.00     0.167 HD
ATOM     55  C   UNL A   1      39.321  32.814  34.926  1.00  0.00     0.074 A 
ATOM     56  C   UNL A   1      38.225  33.754  34.809  1.00  0.00     0.031 C 
ATOM     57  C   UNL A   1      40.102  32.685  36.028  1.00  0.00     0.037 A 
BRANCH  44  58
ATOM     58  C   UNL A   1      44.524  28.396  35.495  1.00  0.00     0.058 A 
ATOM     59  C   UNL A   1      44.342  27.208  36.220  1.00  0.00     0.135 A 
ATOM     60  C   UNL A   1      45.833  28.887  35.360  1.00  0.00     0.135 A 
ATOM     61  F   UNL A   1      43.109  26.706  36.396  1.00  0.00    -0.206 F 
ATOM     62  C   UNL A   1      45.412  26.548  36.814  1.00  0.00     0.059 A 
ATOM     63  C   UNL A   1      46.921  28.231  35.927  1.00  0.00     0.059 A 
ATOM     64  F   UNL A   1      46.061  30.020  34.677  1.00  0.00    -0.206 F 
ATOM     65  C   UNL A   1      46.699  27.070  36.665  1.00  0.00     0.060 A 
BRANCH  65  66
ATOM     66  S   UNL A   1      48.080  26.210  37.447  1.00  0.00     0.124 S 
ATOM     67  O   UNL A   1      47.987  24.891  36.826  1.00  0.00    -0.237 OA
ATOM     68  O   UNL A   1      49.225  27.019  37.044  1.00  0.00    -0.237 OA
ATOM     69  O   UNL A   1      47.750  26.260  38.868  1.00  0.00    -0.744 OA
ENDBRANCH  65  66
ENDBRANCH  44  58
BRANCH  45  70
ATOM     70  C   UNL A   1      36.862  32.875  30.914  1.00  0.00     0.058 A 
ATOM     71  C   UNL A   1      35.542  32.491  31.184  1.00  0.00     0.135 A 
ATOM     72  C   UNL A   1      37.068  33.919  29.999  1.00  0.00     0.135 A 
ATOM     73  F   UNL A   1      35.297  31.491  32.046  1.00  0.00    -0.206 F 
ATOM     74  C   UNL A   1      34.462  33.111  30.564  1.00  0.00     0.059 A 
ATOM     75  C   UNL A   1      36.004  34.569  29.383  1.00  0.00     0.059 A 
ATOM     76  F   UNL A   1      38.314  34.330  29.717  1.00  0.00    -0.206 F 
ATOM     77  C   UNL A   1      34.703  34.151  29.665  1.00  0.00     0.060 A 
BRANCH  77  78
ATOM     78  S   UNL A   1      33.297  34.994  28.908  1.00  0.00     0.124 S 
ATOM     79  O   UNL A   1      32.481  35.308  30.075  1.00  0.00    -0.237 OA
ATOM     80  O   UNL A   1      33.934  36.131  28.249  1.00  0.00    -0.237 OA
ATOM     81  O   UNL A   1      32.751  33.984  28.006  1.00  0.00    -0.744 OA
ENDBRANCH  77  78
ENDBRANCH  45  70
BRANCH  57  82
ATOM     82  C   UNL A   1      39.803  33.595  37.184  1.00  0.00     0.058 A 
ATOM     83  C   UNL A   1      40.464  34.823  37.340  1.00  0.00     0.135 A 
ATOM     84  C   UNL A   1      38.837  33.242  38.139  1.00  0.00     0.135 A 
ATOM     85  F   UNL A   1      41.400  35.203  36.455  1.00  0.00    -0.206 F 
ATOM     86  C   UNL A   1      40.201  35.657  38.421  1.00  0.00     0.059 A 
ATOM     87  C   UNL A   1      38.542  34.071  39.218  1.00  0.00     0.059 A 
ATOM     88  F   UNL A   1      38.170  32.082  38.030  1.00  0.00    -0.206 F 
ATOM     89  C   UNL A   1      39.243  35.268  39.359  1.00  0.00     0.060 A 
BRANCH  89  90
ATOM     90  S   UNL A   1      38.902  36.355  40.760  1.00  0.00     0.124 S 
ATOM     91  O   UNL A   1      38.535  37.596  40.086  1.00  0.00    -0.237 OA
ATOM     92  O   UNL A   1      37.814  35.661  41.444  1.00  0.00    -0.237 OA
ATOM     93  O   UNL A   1      40.170  36.381  41.483  1.00  0.00    -0.744 OA
ENDBRANCH  89  90
ENDBRANCH  57  82
ENDBRANCH  31  32
ENDBRANCH  24  26
ENDBRANCH  23  24
ENDBRANCH  22  23
ENDBRANCH   1  22
TORSDOF 18
ENDMDL
MODEL 2
REMARK VINA RESULT:     -10.7      3.996     11.595
REMARK SMILES CCSc1cccc(-c2ccc([C@@H](C)C(=O)OCCOC(=O)c3ccc(-c4c5nc(c(-c6c(F)cc(S(=O)(=O)[O-])cc6F)c6ccc([nH]6)c(-c6c(F)cc(S(=O)(=O)[O-])cc6F)c6nc(c(-c7c(F)cc(S(=O)(=O)[O-])cc7F)c7ccc4[nH]7)C=C6)C=C5)cc3)cc2)c1
REMARK SMILES IDX 18 1 17 2 15 3 16 4 13 5 14 6 12 7 9 8 10 9 90 10 11 11
REMARK SMILES IDX 89 12 8 13 4 14 5 15 91 16 6 17 7 18 3 19 2 20 1 21 19 22
REMARK SMILES IDX 20 23 21 24 22 25 23 26 24 27 88 28 25 29 87 30 26 31 27 32
REMARK SMILES IDX 28 33 81 34 29 35 86 36 80 37 82 38 30 39 85 40 79 41 78 42
REMARK SMILES IDX 31 44 65 45 44 46 64 47 45 48 48 49 63 50 83 51 46 52 47 53
REMARK SMILES IDX 62 55 84 56 49 57 32 58 33 59 42 60 34 61 35 62 41 63 43 64
REMARK SMILES IDX 36 65 37 66 38 67 39 68 40 69 66 70 67 71 76 72 68 73 69 74
REMARK SMILES IDX 75 75 77 76 70 77 71 78 72 79 73 80 74 81 50 82 51 83 60 84
REMARK SMILES IDX 52 85 53 86 59 87 61 88 54 89 55 90 56 91 57 92 58 93
REMARK H PARENT 82 43 48 54
REMARK Flexibility Score: inf
ROOT
ATOM      1  C   UNL A   1      33.659  34.127  28.485  1.00  0.00     0.274 C 
ENDROOT
BRANCH   1   2
ATOM      2  O   UNL A   1      33.252  33.961  29.857  1.00  0.00    -0.462 OA
BRANCH   2   3
ATOM      3  C   UNL A   1      34.075  34.482  30.804  1.00  0.00     0.313 C 
ATOM      4  O   UNL A   1      34.040  35.652  31.177  1.00  0.00    -0.252 OA
BRANCH   3   5
ATOM      5  C   UNL A   1      35.118  33.499  31.325  1.00  0.00     0.126 C 
ATOM      6  C   UNL A   1      35.009  33.394  32.845  1.00  0.00     0.025 C 
BRANCH   5   7
ATOM      7  C   UNL A   1      36.548  33.730  30.859  1.00  0.00    -0.034 A 
ATOM      8  C   UNL A   1      39.218  34.239  30.020  1.00  0.00    -0.018 A 
ATOM      9  C   UNL A   1      38.290  33.628  29.163  1.00  0.00     0.009 A 
ATOM     10  C   UNL A   1      38.793  34.575  31.310  1.00  0.00     0.009 A 
ATOM     11  C   UNL A   1      36.976  33.378  29.572  1.00  0.00     0.005 A 
ATOM     12  C   UNL A   1      37.477  34.334  31.720  1.00  0.00     0.005 A 
BRANCH   8  13
ATOM     13  C   UNL A   1      40.579  34.556  29.558  1.00  0.00    -0.017 A 
ATOM     14  C   UNL A   1      42.998  34.227  29.649  1.00  0.00     0.008 A 
ATOM     15  C   UNL A   1      43.165  35.204  28.663  1.00  0.00     0.015 A 
ATOM     16  C   UNL A   1      41.707  33.900  30.082  1.00  0.00     0.023 A 
ATOM     17  C   UNL A   1      42.061  35.868  28.134  1.00  0.00     0.002 A 
ATOM     18  C   UNL A   1      40.780  35.547  28.583  1.00  0.00     0.009 A 
BRANCH  14  19
ATOM     19  S   UNL A   1      44.451  33.406  30.281  1.00  0.00    -0.126 SA
BRANCH  19  20
ATOM     20  C   UNL A   1      43.750  31.807  30.825  1.00  0.00     0.071 C 
ATOM     21  C   UNL A   1      43.604  30.821  29.678  1.00  0.00     0.016 C 
ENDBRANCH  19  20
ENDBRANCH  14  19
ENDBRANCH   8  13
ENDBRANCH   5   7
ENDBRANCH   3   5
ENDBRANCH   2   3
ENDBRANCH   1   2
BRANCH   1  22
ATOM     22  C   UNL A   1      33.322  32.891  27.650  1.00  0.00     0.275 C 
BRANCH  22  23
ATOM     23  O   UNL A   1      34.504  32.119  27.371  1.00  0.00    -0.458 OA
BRANCH  23  24
ATOM     24  C   UNL A   1      34.394  30.795  27.625  1.00  0.00     0.338 C 
ATOM     25  O   UNL A   1      33.431  30.078  27.418  1.00  0.00    -0.246 OA
BRANCH  24  26
ATOM     26  C   UNL A   1      35.685  30.276  28.099  1.00  0.00     0.060 A 
ATOM     27  C   UNL A   1      35.732  29.730  29.382  1.00  0.00     0.016 A 
ATOM     28  C   UNL A   1      36.849  30.414  27.343  1.00  0.00     0.016 A 
ATOM     29  C   UNL A   1      36.949  29.348  29.935  1.00  0.00     0.010 A 
ATOM     30  C   UNL A   1      38.073  30.014  27.893  1.00  0.00     0.010 A 
ATOM     31  C   UNL A   1      38.133  29.500  29.201  1.00  0.00    -0.014 A 
BRANCH  31  32
ATOM     32  C   UNL A   1      39.426  29.165  29.845  1.00  0.00     0.031 A 
ATOM     33  C   UNL A   1      39.853  29.886  31.093  1.00  0.00     0.074 A 
ATOM     34  C   UNL A   1      40.185  28.173  29.343  1.00  0.00     0.049 A 
ATOM     35  N   UNL A   1      40.936  29.728  31.809  1.00  0.00    -0.248 NA
ATOM     36  C   UNL A   1      38.939  30.919  31.605  1.00  0.00     0.031 C 
ATOM     37  C   UNL A   1      39.859  27.383  28.154  1.00  0.00     0.029 A 
ATOM     38  N   UNL A   1      41.376  27.652  29.776  1.00  0.00    -0.354 N 
ATOM     39  C   UNL A   1      40.845  30.647  32.846  1.00  0.00     0.074 A 
ATOM     40  C   UNL A   1      39.607  31.374  32.657  1.00  0.00     0.031 C 
ATOM     41  C   UNL A   1      40.823  26.467  27.962  1.00  0.00     0.029 A 
ATOM     42  C   UNL A   1      41.845  26.625  28.993  1.00  0.00     0.049 A 
ATOM     43  H   UNL A   1      41.850  27.982  30.574  1.00  0.00     0.167 HD
ATOM     44  C   UNL A   1      41.710  30.862  33.866  1.00  0.00     0.037 A 
ATOM     45  C   UNL A   1      42.975  25.900  29.090  1.00  0.00     0.037 A 
ATOM     46  C   UNL A   1      42.934  30.130  34.060  1.00  0.00     0.049 A 
ATOM     47  C   UNL A   1      43.928  26.170  30.221  1.00  0.00     0.074 A 
ATOM     48  C   UNL A   1      43.876  30.273  35.065  1.00  0.00     0.029 A 
ATOM     49  N   UNL A   1      43.387  29.112  33.233  1.00  0.00    -0.354 N 
ATOM     50  N   UNL A   1      43.829  27.048  31.190  1.00  0.00    -0.248 NA
ATOM     51  C   UNL A   1      45.147  25.350  30.272  1.00  0.00     0.031 C 
ATOM     52  C   UNL A   1      44.911  29.358  34.830  1.00  0.00     0.029 A 
ATOM     53  C   UNL A   1      44.598  28.625  33.697  1.00  0.00     0.049 A 
ATOM     54  H   UNL A   1      42.917  28.784  32.432  1.00  0.00     0.167 HD
ATOM     55  C   UNL A   1      44.966  26.879  31.973  1.00  0.00     0.074 A 
ATOM     56  C   UNL A   1      45.729  25.802  31.374  1.00  0.00     0.031 C 
ATOM     57  C   UNL A   1      45.346  27.555  33.085  1.00  0.00     0.037 A 
BRANCH  44  58
ATOM     58  C   UNL A   1      41.369  31.953  34.840  1.00  0.00     0.058 A 
ATOM     59  C   UNL A   1      40.603  31.703  35.989  1.00  0.00     0.135 A 
ATOM     60  C   UNL A   1      41.828  33.264  34.630  1.00  0.00     0.135 A 
ATOM     61  F   UNL A   1      40.123  30.472  36.226  1.00  0.00    -0.206 F 
ATOM     62  C   UNL A   1      40.282  32.719  36.883  1.00  0.00     0.059 A 
ATOM     63  C   UNL A   1      41.537  34.291  35.523  1.00  0.00     0.059 A 
ATOM     64  F   UNL A   1      42.563  33.557  33.545  1.00  0.00    -0.206 F 
ATOM     65  C   UNL A   1      40.749  34.012  36.639  1.00  0.00     0.060 A 
BRANCH  65  66
ATOM     66  S   UNL A   1      40.319  35.324  37.801  1.00  0.00     0.124 S 
ATOM     67  O   UNL A   1      39.441  34.614  38.727  1.00  0.00    -0.237 OA
ATOM     68  O   UNL A   1      41.619  35.712  38.335  1.00  0.00    -0.237 OA
ATOM     69  O   UNL A   1      39.668  36.322  36.958  1.00  0.00    -0.744 OA
ENDBRANCH  65  66
ENDBRANCH  44  58
BRANCH  45  70
ATOM     70  C   UNL A   1      43.267  24.848  28.083  1.00  0.00     0.058 A 
ATOM     71  C   UNL A   1      43.983  25.141  26.915  1.00  0.00     0.135 A 
ATOM     72  C   UNL A   1      42.847  23.523  28.280  1.00  0.00     0.135 A 
ATOM     73  F   UNL A   1      44.398  26.396  26.680  1.00  0.00    -0.206 F 
ATOM     74  C   UNL A   1      44.268  24.161  25.969  1.00  0.00     0.059 A 
ATOM     75  C   UNL A   1      43.138  22.521  27.360  1.00  0.00     0.059 A 
ATOM     76  F   UNL A   1      42.168  23.191  29.389  1.00  0.00    -0.206 F 
ATOM     77  C   UNL A   1      43.841  22.852  26.202  1.00  0.00     0.060 A 
BRANCH  77  78
ATOM     78  S   UNL A   1      44.264  21.570  25.002  1.00  0.00     0.124 S 
ATOM     79  O   UNL A   1      44.101  22.285  23.742  1.00  0.00    -0.237 OA
ATOM     80  O   UNL A   1      45.635  21.235  25.375  1.00  0.00    -0.237 OA
ATOM     81  O   UNL A   1      43.278  20.526  25.271  1.00  0.00    -0.744 OA
ENDBRANCH  77  78
ENDBRANCH  45  70
BRANCH  57  82
ATOM     82  C   UNL A   1      46.636  27.136  33.730  1.00  0.00     0.058 A 
ATOM     83  C   UNL A   1      46.672  26.135  34.713  1.00  0.00     0.135 A 
ATOM     84  C   UNL A   1      47.850  27.732  33.352  1.00  0.00     0.135 A 
ATOM     85  F   UNL A   1      45.536  25.540  35.112  1.00  0.00    -0.206 F 
ATOM     86  C   UNL A   1      47.864  25.761  35.324  1.00  0.00     0.059 A 
ATOM     87  C   UNL A   1      49.057  27.358  33.935  1.00  0.00     0.059 A 
ATOM     88  F   UNL A   1      47.869  28.687  32.410  1.00  0.00    -0.206 F 
ATOM     89  C   UNL A   1      49.051  26.384  34.933  1.00  0.00     0.060 A 
BRANCH  89  90
ATOM     90  S   UNL A   1      50.596  25.892  35.726  1.00  0.00     0.124 S 
ATOM     91  O   UNL A   1      50.109  25.136  36.875  1.00  0.00    -0.237 OA
ATOM     92  O   UNL A   1      51.253  25.108  34.684  1.00  0.00    -0.237 OA
ATOM     93  O   UNL A   1      51.236  27.167  36.036  1.00  0.00    -0.744 OA
ENDBRANCH  89  90
ENDBRANCH  57  82
ENDBRANCH  31  32
ENDBRANCH  24  26
ENDBRANCH  23  24
ENDBRANCH  22  23
ENDBRANCH   1  22
TORSDOF 18
ENDMDL
MODEL 3
REMARK VINA RESULT:     -10.7      3.434      5.754
REMARK SMILES CCSc1cccc(-c2ccc([C@@H](C)C(=O)OCCOC(=O)c3ccc(-c4c5nc(c(-c6c(F)cc(S(=O)(=O)[O-])cc6F)c6ccc([nH]6)c(-c6c(F)cc(S(=O)(=O)[O-])cc6F)c6nc(c(-c7c(F)cc(S(=O)(=O)[O-])cc7F)c7ccc4[nH]7)C=C6)C=C5)cc3)cc2)c1
REMARK SMILES IDX 18 1 17 2 15 3 16 4 13 5 14 6 12 7 9 8 10 9 90 10 11 11
REMARK SMILES IDX 89 12 8 13 4 14 5 15 91 16 6 17 7 18 3 19 2 20 1 21 19 22
REMARK SMILES IDX 20 23 21 24 22 25 23 26 24 27 88 28 25 29 87 30 26 31 27 32
REMARK SMILES IDX 28 33 81 34 29 35 86 36 80 37 82 38 30 39 85 40 79 41 78 42
REMARK SMILES IDX 31 44 65 45 44 46 64 47 45 48 48 49 63 50 83 51 46 52 47 53
REMARK SMILES IDX 62 55 84 56 49 57 32 58 33 59 42 60 34 61 35 62 41 63 43 64
REMARK SMILES IDX 36 65 37 66 38 67 39 68 40 69 66 70 67 71 76 72 68 73 69 74
REMARK SMILES IDX 75 75 77 76 70 77 71 78 72 79 73 80 74 81 50 82 51 83 60 84
REMARK SMILES IDX 52 85 53 86 59 87 61 88 54 89 55 90 56 91 57 92 58 93
REMARK H PARENT 82 43 48 54
REMARK Flexibility Score: inf
ROOT
ATOM      1  C   UNL A   1      44.338  22.822  26.045  1.00  0.00     0.274 C 
ENDROOT
BRANCH   1   2
ATOM      2  O   UNL A   1      45.264  23.884  25.739  1.00  0.00    -0.462 OA
BRANCH   2   3
ATOM      3  C   UNL A   1      46.014  24.353  26.770  1.00  0.00     0.313 C 
ATOM      4  O   UNL A   1      47.133  23.933  27.053  1.00  0.00    -0.252 OA
BRANCH   3   5
ATOM      5  C   UNL A   1      45.312  25.413  27.612  1.00  0.00     0.126 C 
ATOM      6  C   UNL A   1      46.035  26.751  27.458  1.00  0.00     0.025 C 
BRANCH   5   7
ATOM      7  C   UNL A   1      45.060  25.053  29.069  1.00  0.00    -0.034 A 
ATOM      8  C   UNL A   1      44.670  24.370  31.802  1.00  0.00    -0.018 A 
ATOM      9  C   UNL A   1      43.868  23.816  30.793  1.00  0.00     0.009 A 
ATOM     10  C   UNL A   1      45.658  25.286  31.424  1.00  0.00     0.009 A 
ATOM     11  C   UNL A   1      44.059  24.149  29.447  1.00  0.00     0.005 A 
ATOM     12  C   UNL A   1      45.856  25.615  30.078  1.00  0.00     0.005 A 
BRANCH   8  13
ATOM     13  C   UNL A   1      44.504  23.965  33.207  1.00  0.00    -0.017 A 
ATOM     14  C   UNL A   1      44.986  22.456  35.068  1.00  0.00     0.008 A 
ATOM     15  C   UNL A   1      44.149  23.212  35.894  1.00  0.00     0.015 A 
ATOM     16  C   UNL A   1      45.168  22.842  33.734  1.00  0.00     0.023 A 
ATOM     17  C   UNL A   1      43.479  24.325  35.390  1.00  0.00     0.002 A 
ATOM     18  C   UNL A   1      43.656  24.693  34.057  1.00  0.00     0.009 A 
BRANCH  14  19
ATOM     19  S   UNL A   1      45.821  21.046  35.774  1.00  0.00    -0.126 SA
BRANCH  19  20
ATOM     20  C   UNL A   1      46.243  21.676  37.437  1.00  0.00     0.071 C 
ATOM     21  C   UNL A   1      46.487  20.556  38.435  1.00  0.00     0.016 C 
ENDBRANCH  19  20
ENDBRANCH  14  19
ENDBRANCH   8  13
ENDBRANCH   5   7
ENDBRANCH   3   5
ENDBRANCH   2   3
ENDBRANCH   1   2
BRANCH   1  22
ATOM     22  C   UNL A   1      42.938  23.132  25.513  1.00  0.00     0.275 C 
BRANCH  22  23
ATOM     23  O   UNL A   1      42.262  24.078  26.360  1.00  0.00    -0.458 OA
BRANCH  23  24
ATOM     24  C   UNL A   1      42.255  25.351  25.904  1.00  0.00     0.338 C 
ATOM     25  O   UNL A   1      42.480  25.733  24.769  1.00  0.00    -0.246 OA
BRANCH  24  26
ATOM     26  C   UNL A   1      41.807  26.255  26.974  1.00  0.00     0.060 A 
ATOM     27  C   UNL A   1      42.344  27.542  27.002  1.00  0.00     0.016 A 
ATOM     28  C   UNL A   1      40.957  25.818  27.990  1.00  0.00     0.016 A 
ATOM     29  C   UNL A   1      42.063  28.394  28.064  1.00  0.00     0.010 A 
ATOM     30  C   UNL A   1      40.660  26.682  29.051  1.00  0.00     0.010 A 
ATOM     31  C   UNL A   1      41.230  27.967  29.106  1.00  0.00    -0.014 A 
BRANCH  31  32
ATOM     32  C   UNL A   1      41.015  28.863  30.267  1.00  0.00     0.031 A 
ATOM     33  C   UNL A   1      41.955  28.812  31.439  1.00  0.00     0.074 A 
ATOM     34  C   UNL A   1      40.013  29.761  30.242  1.00  0.00     0.049 A 
ATOM     35  N   UNL A   1      41.944  29.521  32.539  1.00  0.00    -0.248 NA
ATOM     36  C   UNL A   1      43.056  27.838  31.363  1.00  0.00     0.031 C 
ATOM     37  C   UNL A   1      39.055  29.923  29.147  1.00  0.00     0.029 A 
ATOM     38  N   UNL A   1      39.643  30.714  31.154  1.00  0.00    -0.354 N 
ATOM     39  C   UNL A   1      43.021  29.072  33.292  1.00  0.00     0.074 A 
ATOM     40  C   UNL A   1      43.656  28.016  32.532  1.00  0.00     0.031 C 
ATOM     41  C   UNL A   1      38.215  30.927  29.446  1.00  0.00     0.029 A 
ATOM     42  C   UNL A   1      38.555  31.458  30.763  1.00  0.00     0.049 A 
ATOM     43  H   UNL A   1      40.113  30.854  32.009  1.00  0.00     0.167 HD
ATOM     44  C   UNL A   1      43.447  29.505  34.503  1.00  0.00     0.037 A 
ATOM     45  C   UNL A   1      37.902  32.448  31.400  1.00  0.00     0.037 A 
ATOM     46  C   UNL A   1      42.821  30.565  35.252  1.00  0.00     0.049 A 
ATOM     47  C   UNL A   1      38.382  32.898  32.751  1.00  0.00     0.074 A 
ATOM     48  C   UNL A   1      43.180  31.077  36.488  1.00  0.00     0.029 A 
ATOM     49  N   UNL A   1      41.708  31.279  34.834  1.00  0.00    -0.354 N 
ATOM     50  N   UNL A   1      39.400  32.459  33.452  1.00  0.00    -0.248 NA
ATOM     51  C   UNL A   1      37.626  33.979  33.399  1.00  0.00     0.031 C 
ATOM     52  C   UNL A   1      42.267  32.083  36.828  1.00  0.00     0.029 A 
ATOM     53  C   UNL A   1      41.360  32.219  35.790  1.00  0.00     0.049 A 
ATOM     54  H   UNL A   1      41.234  31.138  33.983  1.00  0.00     0.167 HD
ATOM     55  C   UNL A   1      39.413  33.217  34.618  1.00  0.00     0.074 A 
ATOM     56  C   UNL A   1      38.313  34.155  34.518  1.00  0.00     0.031 C 
ATOM     57  C   UNL A   1      40.258  33.142  35.676  1.00  0.00     0.037 A 
BRANCH  44  58
ATOM     58  C   UNL A   1      44.636  28.812  35.103  1.00  0.00     0.058 A 
ATOM     59  C   UNL A   1      45.948  29.157  34.747  1.00  0.00     0.135 A 
ATOM     60  C   UNL A   1      44.462  27.800  36.062  1.00  0.00     0.135 A 
ATOM     61  F   UNL A   1      46.170  30.104  33.820  1.00  0.00    -0.206 F 
ATOM     62  C   UNL A   1      47.047  28.506  35.298  1.00  0.00     0.059 A 
ATOM     63  C   UNL A   1      45.546  27.150  36.642  1.00  0.00     0.059 A 
ATOM     64  F   UNL A   1      43.226  27.431  36.437  1.00  0.00    -0.206 F 
ATOM     65  C   UNL A   1      46.836  27.499  36.242  1.00  0.00     0.060 A 
BRANCH  65  66
ATOM     66  S   UNL A   1      48.268  26.654  36.945  1.00  0.00     0.124 S 
ATOM     67  O   UNL A   1      47.695  25.356  37.291  1.00  0.00    -0.237 OA
ATOM     68  O   UNL A   1      49.211  26.653  35.832  1.00  0.00    -0.237 OA
ATOM     69  O   UNL A   1      48.638  27.500  38.075  1.00  0.00    -0.744 OA
ENDBRANCH  65  66
ENDBRANCH  44  58
BRANCH  45  70
ATOM     70  C   UNL A   1      36.718  33.081  30.763  1.00  0.00     0.058 A 
ATOM     71  C   UNL A   1      35.419  32.802  31.209  1.00  0.00     0.135 A 
ATOM     72  C   UNL A   1      36.868  33.991  29.705  1.00  0.00     0.135 A 
ATOM     73  F   UNL A   1      35.228  31.931  32.212  1.00  0.00    -0.206 F 
ATOM     74  C   UNL A   1      34.305  33.394  30.623  1.00  0.00     0.059 A 
ATOM     75  C   UNL A   1      35.771  34.613  29.118  1.00  0.00     0.059 A 
ATOM     76  F   UNL A   1      38.093  34.299  29.251  1.00  0.00    -0.206 F 
ATOM     77  C   UNL A   1      34.492  34.301  29.578  1.00  0.00     0.060 A 
BRANCH  77  78
ATOM     78  S   UNL A   1      33.048  35.115  28.860  1.00  0.00     0.124 S 
ATOM     79  O   UNL A   1      32.176  35.241  30.022  1.00  0.00    -0.237 OA
ATOM     80  O   UNL A   1      33.615  36.359  28.348  1.00  0.00    -0.237 OA
ATOM     81  O   UNL A   1      32.608  34.169  27.838  1.00  0.00    -0.744 OA
ENDBRANCH  77  78
ENDBRANCH  45  70
BRANCH  57  82
ATOM     82  C   UNL A   1      40.030  34.112  36.800  1.00  0.00     0.058 A 
ATOM     83  C   UNL A   1      39.309  33.748  37.947  1.00  0.00     0.135 A 
ATOM     84  C   UNL A   1      40.549  35.415  36.734  1.00  0.00     0.135 A 
ATOM     85  F   UNL A   1      38.788  32.515  38.054  1.00  0.00    -0.206 F 
ATOM     86  C   UNL A   1      39.081  34.653  38.978  1.00  0.00     0.059 A 
ATOM     87  C   UNL A   1      40.351  36.330  37.763  1.00  0.00     0.059 A 
ATOM     88  F   UNL A   1      41.254  35.809  35.661  1.00  0.00    -0.206 F 
ATOM     89  C   UNL A   1      39.601  35.945  38.874  1.00  0.00     0.060 A 
BRANCH  89  90
ATOM     90  S   UNL A   1      39.306  37.116  40.216  1.00  0.00     0.124 S 
ATOM     91  O   UNL A   1      40.665  37.384  40.674  1.00  0.00    -0.237 OA
ATOM     92  O   UNL A   1      38.638  38.220  39.534  1.00  0.00    -0.237 OA
ATOM     93  O   UNL A   1      38.466  36.362  41.142  1.00  0.00    -0.744 OA
ENDBRANCH  89  90
ENDBRANCH  57  82
ENDBRANCH  31  32
ENDBRANCH  24  26
ENDBRANCH  23  24
ENDBRANCH  22  23
ENDBRANCH   1  22
TORSDOF 18
ENDMDL
