MODEL 1
REMARK VINA RESULT:     -10.6      0.000      0.000
REMARK SMILES O=C(OCCOC(=O)[C@@H]1CS[C@@H](C2CC2)N1C(=O)Cc1ccn[nH]1)c1ccc(-c2c3nc(c(-c4c(F)cc(S(=O)(=O)[O-])cc4F)c4ccc([nH]4)c(-c4c(F)cc(S(=O)(=O)[O-])cc4F)c4nc(c(-c5c(F)cc(S(=O)(=O)[O-])cc5F)c5ccc2[nH]5)C=C4)C=C3)cc1
REMARK SMILES IDX 4 1 3 2 2 3 1 4 25 5 26 6 90 7 27 8 89 9 28 10 29 11 30 12
REMARK SMILES IDX 83 13 31 14 88 15 82 16 84 17 32 18 87 19 81 20 80 21 33 23
REMARK SMILES IDX 67 24 46 25 66 26 47 27 50 28 65 29 85 30 48 31 49 32 64 34
REMARK SMILES IDX 86 35 51 36 34 37 35 38 44 39 36 40 37 41 43 42 45 43 38 44
REMARK SMILES IDX 39 45 40 46 41 47 42 48 68 49 69 50 78 51 70 52 71 53 77 54
REMARK SMILES IDX 79 55 72 56 73 57 74 58 75 59 76 60 52 61 53 62 62 63 54 64
REMARK SMILES IDX 55 65 61 66 63 67 56 68 57 69 58 70 59 71 60 72 5 73 6 74
REMARK SMILES IDX 7 75 8 76 9 77 10 78 16 79 11 80 12 81 17 82 18 83 19 84
REMARK SMILES IDX 20 85 21 86 24 87 22 88 23 89 13 91 14 92 15 93
REMARK H PARENT 84 22 50 33 24 90
REMARK Flexibility Score: inf
ROOT
ATOM      1  C   UNL A   1      37.426  20.901  24.920  1.00  0.00     0.275 C 
ENDROOT
BRANCH   1   2
ATOM      2  O   UNL A   1      38.224  21.984  25.422  1.00  0.00    -0.458 OA
BRANCH   2   3
ATOM      3  C   UNL A   1      39.274  21.968  26.277  1.00  0.00     0.338 C 
ATOM      4  O   UNL A   1      39.721  20.876  26.628  1.00  0.00    -0.246 OA
BRANCH   3   5
ATOM      5  C   UNL A   1      39.811  23.194  26.962  1.00  0.00     0.060 A 
ATOM      6  C   UNL A   1      40.756  23.223  27.987  1.00  0.00     0.016 A 
ATOM      7  C   UNL A   1      39.389  24.430  26.433  1.00  0.00     0.016 A 
ATOM      8  C   UNL A   1      41.354  24.419  28.388  1.00  0.00     0.010 A 
ATOM      9  C   UNL A   1      40.015  25.627  26.801  1.00  0.00     0.010 A 
ATOM     10  C   UNL A   1      41.016  25.626  27.779  1.00  0.00    -0.014 A 
BRANCH  10  11
ATOM     11  C   UNL A   1      41.598  26.876  28.319  1.00  0.00     0.031 A 
ATOM     12  C   UNL A   1      43.050  27.135  28.042  1.00  0.00     0.074 A 
ATOM     13  C   UNL A   1      40.824  27.804  28.922  1.00  0.00     0.049 A 
ATOM     14  N   UNL A   1      43.760  28.200  28.289  1.00  0.00    -0.248 NA
ATOM     15  C   UNL A   1      43.805  26.047  27.392  1.00  0.00     0.031 C 
ATOM     16  C   UNL A   1      39.399  27.652  29.229  1.00  0.00     0.029 A 
ATOM     17  N   UNL A   1      41.114  29.072  29.360  1.00  0.00    -0.354 N 
ATOM     18  C   UNL A   1      45.029  27.916  27.804  1.00  0.00     0.074 A 
ATOM     19  C   UNL A   1      45.024  26.550  27.341  1.00  0.00     0.031 C 
ATOM     20  C   UNL A   1      38.937  28.786  29.785  1.00  0.00     0.029 A 
ATOM     21  C   UNL A   1      40.029  29.749  29.880  1.00  0.00     0.049 A 
ATOM     22  H   UNL A   1      42.016  29.465  29.307  1.00  0.00     0.167 HD
ATOM     23  C   UNL A   1      46.093  28.740  27.694  1.00  0.00     0.037 A 
ATOM     24  C   UNL A   1      39.935  31.005  30.362  1.00  0.00     0.037 A 
ATOM     25  C   UNL A   1      46.088  30.098  28.151  1.00  0.00     0.049 A 
ATOM     26  C   UNL A   1      41.164  31.881  30.295  1.00  0.00     0.074 A 
ATOM     27  C   UNL A   1      47.118  31.016  28.136  1.00  0.00     0.029 A 
ATOM     28  N   UNL A   1      44.984  30.732  28.704  1.00  0.00    -0.354 N 
ATOM     29  N   UNL A   1      42.351  31.601  29.805  1.00  0.00    -0.248 NA
ATOM     30  C   UNL A   1      41.042  33.244  30.829  1.00  0.00     0.031 C 
ATOM     31  C   UNL A   1      46.647  32.198  28.717  1.00  0.00     0.029 A 
ATOM     32  C   UNL A   1      45.310  32.030  29.046  1.00  0.00     0.049 A 
ATOM     33  H   UNL A   1      44.100  30.318  28.834  1.00  0.00     0.167 HD
ATOM     34  C   UNL A   1      43.106  32.759  29.947  1.00  0.00     0.074 A 
ATOM     35  C   UNL A   1      42.233  33.751  30.543  1.00  0.00     0.031 C 
ATOM     36  C   UNL A   1      44.403  32.990  29.625  1.00  0.00     0.037 A 
BRANCH  23  37
ATOM     37  C   UNL A   1      47.322  28.170  27.053  1.00  0.00     0.058 A 
ATOM     38  C   UNL A   1      48.354  27.608  27.826  1.00  0.00     0.135 A 
ATOM     39  C   UNL A   1      47.499  28.228  25.664  1.00  0.00     0.135 A 
ATOM     40  F   UNL A   1      48.252  27.570  29.165  1.00  0.00    -0.206 F 
ATOM     41  C   UNL A   1      49.528  27.148  27.245  1.00  0.00     0.059 A 
ATOM     42  C   UNL A   1      48.654  27.747  25.057  1.00  0.00     0.059 A 
ATOM     43  F   UNL A   1      46.553  28.776  24.885  1.00  0.00    -0.206 F 
ATOM     44  C   UNL A   1      49.669  27.221  25.858  1.00  0.00     0.060 A 
BRANCH  44  45
ATOM     45  S   UNL A   1      51.198  26.612  25.119  1.00  0.00     0.124 S 
ATOM     46  O   UNL A   1      52.162  27.605  25.584  1.00  0.00    -0.237 OA
ATOM     47  O   UNL A   1      51.320  25.284  25.711  1.00  0.00    -0.237 OA
ATOM     48  O   UNL A   1      50.915  26.634  23.687  1.00  0.00    -0.744 OA
ENDBRANCH  44  45
ENDBRANCH  23  37
BRANCH  24  49
ATOM     49  C   UNL A   1      38.660  31.522  30.947  1.00  0.00     0.058 A 
ATOM     50  C   UNL A   1      37.737  32.255  30.181  1.00  0.00     0.135 A 
ATOM     51  C   UNL A   1      38.370  31.351  32.311  1.00  0.00     0.135 A 
ATOM     52  F   UNL A   1      37.960  32.455  28.874  1.00  0.00    -0.206 F 
ATOM     53  C   UNL A   1      36.606  32.837  30.752  1.00  0.00     0.059 A 
ATOM     54  C   UNL A   1      37.231  31.898  32.898  1.00  0.00     0.059 A 
ATOM     55  F   UNL A   1      39.205  30.650  33.092  1.00  0.00    -0.206 F 
ATOM     56  C   UNL A   1      36.365  32.659  32.115  1.00  0.00     0.060 A 
BRANCH  56  57
ATOM     57  S   UNL A   1      34.905  33.429  32.853  1.00  0.00     0.124 S 
ATOM     58  O   UNL A   1      35.118  33.166  34.271  1.00  0.00    -0.237 OA
ATOM     59  O   UNL A   1      35.045  34.820  32.433  1.00  0.00    -0.237 OA
ATOM     60  O   UNL A   1      33.795  32.705  32.237  1.00  0.00    -0.744 OA
ENDBRANCH  56  57
ENDBRANCH  24  49
BRANCH  36  61
ATOM     61  C   UNL A   1      44.942  34.368  29.884  1.00  0.00     0.058 A 
ATOM     62  C   UNL A   1      44.775  35.407  28.957  1.00  0.00     0.135 A 
ATOM     63  C   UNL A   1      45.578  34.661  31.101  1.00  0.00     0.135 A 
ATOM     64  F   UNL A   1      44.173  35.175  27.781  1.00  0.00    -0.206 F 
ATOM     65  C   UNL A   1      45.252  36.687  29.215  1.00  0.00     0.059 A 
ATOM     66  C   UNL A   1      46.031  35.942  31.392  1.00  0.00     0.059 A 
ATOM     67  F   UNL A   1      45.744  33.704  32.028  1.00  0.00    -0.206 F 
ATOM     68  C   UNL A   1      45.878  36.944  30.436  1.00  0.00     0.060 A 
BRANCH  68  69
ATOM     69  S   UNL A   1      46.469  38.616  30.767  1.00  0.00     0.124 S 
ATOM     70  O   UNL A   1      46.689  38.567  32.209  1.00  0.00    -0.237 OA
ATOM     71  O   UNL A   1      47.673  38.691  29.944  1.00  0.00    -0.237 OA
ATOM     72  O   UNL A   1      45.363  39.460  30.327  1.00  0.00    -0.744 OA
ENDBRANCH  68  69
ENDBRANCH  36  61
ENDBRANCH  10  11
ENDBRANCH   3   5
ENDBRANCH   2   3
ENDBRANCH   1   2
BRANCH   1  73
ATOM     73  C   UNL A   1      35.926  21.047  25.198  1.00  0.00     0.274 C 
BRANCH  73  74
ATOM     74  O   UNL A   1      35.599  21.486  26.530  1.00  0.00    -0.461 OA
BRANCH  74  75
ATOM     75  C   UNL A   1      34.577  22.386  26.630  1.00  0.00     0.329 C 
ATOM     76  O   UNL A   1      33.963  22.614  27.671  1.00  0.00    -0.250 OA
BRANCH  75  77
ATOM     77  C   UNL A   1      34.315  23.117  25.293  1.00  0.00     0.206 C 
ATOM     78  C   UNL A   1      35.137  24.379  25.289  1.00  0.00     0.109 C 
ATOM     79  N   UNL A   1      32.874  23.421  25.135  1.00  0.00    -0.315 N 
ATOM     80  S   UNL A   1      34.044  25.772  25.357  1.00  0.00    -0.134 SA
ATOM     81  C   UNL A   1      32.527  24.741  25.696  1.00  0.00     0.147 C 
BRANCH  79  82
ATOM     82  C   UNL A   1      32.143  22.268  24.890  1.00  0.00     0.230 C 
ATOM     83  O   UNL A   1      31.122  22.040  25.561  1.00  0.00    -0.274 OA
BRANCH  82  84
ATOM     84  C   UNL A   1      32.464  21.276  23.799  1.00  0.00     0.155 C 
BRANCH  84  85
ATOM     85  C   UNL A   1      32.464  19.873  24.287  1.00  0.00     0.044 A 
ATOM     86  C   UNL A   1      32.432  18.650  23.655  1.00  0.00     0.045 A 
ATOM     87  N   UNL A   1      32.476  19.590  25.626  1.00  0.00    -0.282 N 
ATOM     88  C   UNL A   1      32.577  17.711  24.688  1.00  0.00     0.135 A 
ATOM     89  N   UNL A   1      32.615  18.282  25.894  1.00  0.00    -0.184 NA
ATOM     90  H   UNL A   1      32.390  20.278  26.324  1.00  0.00     0.190 HD
ENDBRANCH  84  85
ENDBRANCH  82  84
ENDBRANCH  79  82
BRANCH  81  91
ATOM     91  C   UNL A   1      31.498  25.702  25.135  1.00  0.00     0.022 C 
ATOM     92  C   UNL A   1      30.261  25.393  24.340  1.00  0.00     0.007 C 
ATOM     93  C   UNL A   1      30.148  25.802  25.785  1.00  0.00     0.007 C 
ENDBRANCH  81  91
ENDBRANCH  75  77
ENDBRANCH  74  75
ENDBRANCH  73  74
ENDBRANCH   1  73
TORSDOF 18
ENDMDL
MODEL 2
REMARK VINA RESULT:     -10.5      4.774     10.055
REMARK SMILES O=C(OCCOC(=O)[C@@H]1CS[C@@H](C2CC2)N1C(=O)Cc1ccn[nH]1)c1ccc(-c2c3nc(c(-c4c(F)cc(S(=O)(=O)[O-])cc4F)c4ccc([nH]4)c(-c4c(F)cc(S(=O)(=O)[O-])cc4F)c4nc(c(-c5c(F)cc(S(=O)(=O)[O-])cc5F)c5ccc2[nH]5)C=C4)C=C3)cc1
REMARK SMILES IDX 4 1 3 2 2 3 1 4 25 5 26 6 90 7 27 8 89 9 28 10 29 11 30 12
REMARK SMILES IDX 83 13 31 14 88 15 82 16 84 17 32 18 87 19 81 20 80 21 33 23
REMARK SMILES IDX 67 24 46 25 66 26 47 27 50 28 65 29 85 30 48 31 49 32 64 34
REMARK SMILES IDX 86 35 51 36 34 37 35 38 44 39 36 40 37 41 43 42 45 43 38 44
REMARK SMILES IDX 39 45 40 46 41 47 42 48 68 49 69 50 78 51 70 52 71 53 77 54
REMARK SMILES IDX 79 55 72 56 73 57 74 58 75 59 76 60 52 61 53 62 62 63 54 64
REMARK SMILES IDX 55 65 61 66 63 67 56 68 57 69 58 70 59 71 60 72 5 73 6 74
REMARK SMILES IDX 7 75 8 76 9 77 10 78 16 79 11 80 12 81 17 82 18 83 19 84
REMARK SMILES IDX 20 85 21 86 24 87 22 88 23 89 13 91 14 92 15 93
REMARK H PARENT 84 22 50 33 24 90
REMARK Flexibility Score: inf
ROOT
ATOM      1  C   UNL A   1      33.567  27.987  26.478  1.00  0.00     0.275 C 
ENDROOT
BRANCH   1   2
ATOM      2  O   UNL A   1      33.919  29.378  26.424  1.00  0.00    -0.458 OA
BRANCH   2   3
ATOM      3  C   UNL A   1      34.383  30.196  27.398  1.00  0.00     0.338 C 
ATOM      4  O   UNL A   1      33.760  31.231  27.633  1.00  0.00    -0.246 OA
BRANCH   3   5
ATOM      5  C   UNL A   1      35.706  30.008  28.086  1.00  0.00     0.060 A 
ATOM      6  C   UNL A   1      35.913  29.446  29.347  1.00  0.00     0.016 A 
ATOM      7  C   UNL A   1      36.848  30.337  27.328  1.00  0.00     0.016 A 
ATOM      8  C   UNL A   1      37.192  29.107  29.788  1.00  0.00     0.010 A 
ATOM      9  C   UNL A   1      38.129  29.961  27.748  1.00  0.00     0.010 A 
ATOM     10  C   UNL A   1      38.309  29.330  28.984  1.00  0.00    -0.014 A 
BRANCH  10  11
ATOM     11  C   UNL A   1      39.650  29.055  29.546  1.00  0.00     0.031 A 
ATOM     12  C   UNL A   1      40.078  29.868  30.733  1.00  0.00     0.074 A 
ATOM     13  C   UNL A   1      40.402  28.029  29.091  1.00  0.00     0.049 A 
ATOM     14  N   UNL A   1      41.138  29.738  31.482  1.00  0.00    -0.248 NA
ATOM     15  C   UNL A   1      39.189  30.973  31.134  1.00  0.00     0.031 C 
ATOM     16  C   UNL A   1      40.070  27.174  27.949  1.00  0.00     0.029 A 
ATOM     17  N   UNL A   1      41.587  27.509  29.549  1.00  0.00    -0.354 N 
ATOM     18  C   UNL A   1      41.025  30.726  32.450  1.00  0.00     0.074 A 
ATOM     19  C   UNL A   1      39.855  31.510  32.140  1.00  0.00     0.031 C 
ATOM     20  C   UNL A   1      41.014  26.226  27.809  1.00  0.00     0.029 A 
ATOM     21  C   UNL A   1      42.025  26.405  28.846  1.00  0.00     0.049 A 
ATOM     22  H   UNL A   1      42.081  27.889  30.312  1.00  0.00     0.167 HD
ATOM     23  C   UNL A   1      41.793  30.928  33.542  1.00  0.00     0.037 A 
ATOM     24  C   UNL A   1      43.109  25.626  29.034  1.00  0.00     0.037 A 
ATOM     25  C   UNL A   1      42.951  30.141  33.846  1.00  0.00     0.049 A 
ATOM     26  C   UNL A   1      43.994  25.922  30.222  1.00  0.00     0.074 A 
ATOM     27  C   UNL A   1      43.835  30.278  34.898  1.00  0.00     0.029 A 
ATOM     28  N   UNL A   1      43.380  29.058  33.091  1.00  0.00    -0.354 N 
ATOM     29  N   UNL A   1      43.853  26.847  31.145  1.00  0.00    -0.248 NA
ATOM     30  C   UNL A   1      45.173  25.065  30.407  1.00  0.00     0.031 C 
ATOM     31  C   UNL A   1      44.824  29.299  34.757  1.00  0.00     0.029 A 
ATOM     32  C   UNL A   1      44.525  28.522  33.647  1.00  0.00     0.049 A 
ATOM     33  H   UNL A   1      42.935  28.722  32.280  1.00  0.00     0.167 HD
ATOM     34  C   UNL A   1      44.908  26.665  32.032  1.00  0.00     0.074 A 
ATOM     35  C   UNL A   1      45.662  25.525  31.551  1.00  0.00     0.031 C 
ATOM     36  C   UNL A   1      45.237  27.375  33.140  1.00  0.00     0.037 A 
BRANCH  23  37
ATOM     37  C   UNL A   1      41.380  32.039  34.460  1.00  0.00     0.058 A 
ATOM     38  C   UNL A   1      40.484  31.813  35.521  1.00  0.00     0.135 A 
ATOM     39  C   UNL A   1      41.839  33.347  34.254  1.00  0.00     0.135 A 
ATOM     40  F   UNL A   1      39.981  30.586  35.731  1.00  0.00    -0.206 F 
ATOM     41  C   UNL A   1      40.038  32.852  36.327  1.00  0.00     0.059 A 
ATOM     42  C   UNL A   1      41.428  34.397  35.067  1.00  0.00     0.059 A 
ATOM     43  F   UNL A   1      42.677  33.617  33.241  1.00  0.00    -0.206 F 
ATOM     44  C   UNL A   1      40.517  34.142  36.093  1.00  0.00     0.060 A 
BRANCH  44  45
ATOM     45  S   UNL A   1      39.933  35.478  37.155  1.00  0.00     0.124 S 
ATOM     46  O   UNL A   1      41.100  35.706  38.004  1.00  0.00    -0.237 OA
ATOM     47  O   UNL A   1      39.636  36.532  36.192  1.00  0.00    -0.237 OA
ATOM     48  O   UNL A   1      38.774  34.898  37.825  1.00  0.00    -0.744 OA
ENDBRANCH  44  45
ENDBRANCH  23  37
BRANCH  24  49
ATOM     49  C   UNL A   1      43.435  24.504  28.101  1.00  0.00     0.058 A 
ATOM     50  C   UNL A   1      44.143  24.715  26.906  1.00  0.00     0.135 A 
ATOM     51  C   UNL A   1      42.979  23.199  28.354  1.00  0.00     0.135 A 
ATOM     52  F   UNL A   1      44.600  25.940  26.605  1.00  0.00    -0.206 F 
ATOM     53  C   UNL A   1      44.345  23.692  25.979  1.00  0.00     0.059 A 
ATOM     54  C   UNL A   1      43.195  22.154  27.458  1.00  0.00     0.059 A 
ATOM     55  F   UNL A   1      42.309  22.930  29.484  1.00  0.00    -0.206 F 
ATOM     56  C   UNL A   1      43.860  22.415  26.262  1.00  0.00     0.060 A 
BRANCH  56  57
ATOM     57  S   UNL A   1      44.112  21.097  25.051  1.00  0.00     0.124 S 
ATOM     58  O   UNL A   1      42.954  20.245  25.296  1.00  0.00    -0.237 OA
ATOM     59  O   UNL A   1      44.108  21.832  23.790  1.00  0.00    -0.237 OA
ATOM     60  O   UNL A   1      45.403  20.531  25.433  1.00  0.00    -0.744 OA
ENDBRANCH  56  57
ENDBRANCH  24  49
BRANCH  36  61
ATOM     61  C   UNL A   1      46.440  26.920  33.916  1.00  0.00     0.058 A 
ATOM     62  C   UNL A   1      47.717  27.439  33.660  1.00  0.00     0.135 A 
ATOM     63  C   UNL A   1      46.297  25.998  34.966  1.00  0.00     0.135 A 
ATOM     64  F   UNL A   1      47.903  28.323  32.668  1.00  0.00    -0.206 F 
ATOM     65  C   UNL A   1      48.822  27.034  34.400  1.00  0.00     0.059 A 
ATOM     66  C   UNL A   1      47.383  25.605  35.739  1.00  0.00     0.059 A 
ATOM     67  F   UNL A   1      45.092  25.486  35.260  1.00  0.00    -0.206 F 
ATOM     68  C   UNL A   1      48.644  26.117  35.437  1.00  0.00     0.060 A 
BRANCH  68  69
ATOM     69  S   UNL A   1      50.083  25.619  36.405  1.00  0.00     0.124 S 
ATOM     70  O   UNL A   1      49.853  26.332  37.658  1.00  0.00    -0.237 OA
ATOM     71  O   UNL A   1      49.933  24.168  36.464  1.00  0.00    -0.237 OA
ATOM     72  O   UNL A   1      51.209  26.095  35.608  1.00  0.00    -0.744 OA
ENDBRANCH  68  69
ENDBRANCH  36  61
ENDBRANCH  10  11
ENDBRANCH   3   5
ENDBRANCH   2   3
ENDBRANCH   1   2
BRANCH   1  73
ATOM     73  C   UNL A   1      32.104  27.725  26.853  1.00  0.00     0.274 C 
BRANCH  73  74
ATOM     74  O   UNL A   1      31.727  26.336  26.879  1.00  0.00    -0.461 OA
BRANCH  74  75
ATOM     75  C   UNL A   1      31.054  25.877  25.783  1.00  0.00     0.329 C 
ATOM     76  O   UNL A   1      30.194  26.522  25.186  1.00  0.00    -0.250 OA
BRANCH  75  77
ATOM     77  C   UNL A   1      31.536  24.471  25.354  1.00  0.00     0.206 C 
ATOM     78  C   UNL A   1      31.721  23.647  26.600  1.00  0.00     0.109 C 
ATOM     79  N   UNL A   1      32.798  24.562  24.583  1.00  0.00    -0.315 N 
ATOM     80  S   UNL A   1      33.449  23.310  26.809  1.00  0.00    -0.134 SA
ATOM     81  C   UNL A   1      33.982  24.482  25.460  1.00  0.00     0.147 C 
BRANCH  79  82
ATOM     82  C   UNL A   1      32.578  25.102  23.324  1.00  0.00     0.230 C 
ATOM     83  O   UNL A   1      31.790  24.536  22.548  1.00  0.00    -0.274 OA
BRANCH  82  84
ATOM     84  C   UNL A   1      33.188  26.395  22.837  1.00  0.00     0.155 C 
BRANCH  84  85
ATOM     85  C   UNL A   1      32.189  27.488  22.723  1.00  0.00     0.044 A 
ATOM     86  C   UNL A   1      32.181  28.808  23.112  1.00  0.00     0.045 A 
ATOM     87  N   UNL A   1      30.966  27.271  22.149  1.00  0.00    -0.282 N 
ATOM     88  C   UNL A   1      30.981  29.325  22.597  1.00  0.00     0.135 A 
ATOM     89  N   UNL A   1      30.240  28.390  21.999  1.00  0.00    -0.184 NA
ATOM     90  H   UNL A   1      30.649  26.381  21.874  1.00  0.00     0.190 HD
ENDBRANCH  84  85
ENDBRANCH  82  84
ENDBRANCH  79  82
BRANCH  81  91
ATOM     91  C   UNL A   1      35.298  23.812  25.115  1.00  0.00     0.022 C 
ATOM     92  C   UNL A   1      36.651  24.031  25.728  1.00  0.00     0.007 C 
ATOM     93  C   UNL A   1      35.870  22.784  26.047  1.00  0.00     0.007 C 
ENDBRANCH  81  91
ENDBRANCH  75  77
ENDBRANCH  74  75
ENDBRANCH  73  74
ENDBRANCH   1  73
TORSDOF 18
ENDMDL
MODEL 3
REMARK VINA RESULT:     -10.5      4.726     10.025
REMARK SMILES O=C(OCCOC(=O)[C@@H]1CS[C@@H](C2CC2)N1C(=O)Cc1ccn[nH]1)c1ccc(-c2c3nc(c(-c4c(F)cc(S(=O)(=O)[O-])cc4F)c4ccc([nH]4)c(-c4c(F)cc(S(=O)(=O)[O-])cc4F)c4nc(c(-c5c(F)cc(S(=O)(=O)[O-])cc5F)c5ccc2[nH]5)C=C4)C=C3)cc1
REMARK SMILES IDX 4 1 3 2 2 3 1 4 25 5 26 6 90 7 27 8 89 9 28 10 29 11 30 12
REMARK SMILES IDX 83 13 31 14 88 15 82 16 84 17 32 18 87 19 81 20 80 21 33 23
REMARK SMILES IDX 67 24 46 25 66 26 47 27 50 28 65 29 85 30 48 31 49 32 64 34
REMARK SMILES IDX 86 35 51 36 34 37 35 38 44 39 36 40 37 41 43 42 45 43 38 44
REMARK SMILES IDX 39 45 40 46 41 47 42 48 68 49 69 50 78 51 70 52 71 53 77 54
REMARK SMILES IDX 79 55 72 56 73 57 74 58 75 59 76 60 52 61 53 62 62 63 54 64
REMARK SMILES IDX 55 65 61 66 63 67 56 68 57 69 58 70 59 71 60 72 5 73 6 74
REMARK SMILES IDX 7 75 8 76 9 77 10 78 16 79 11 80 12 81 17 82 18 83 19 84
REMARK SMILES IDX 20 85 21 86 24 87 22 88 23 89 13 91 14 92 15 93
REMARK H PARENT 84 22 50 33 24 90
REMARK Flexibility Score: inf
ROOT
ATOM      1  C   UNL A   1      33.660  28.682  25.771  1.00  0.00     0.275 C 
ENDROOT
BRANCH   1   2
ATOM      2  O   UNL A   1      33.429  29.561  26.882  1.00  0.00    -0.458 OA
BRANCH   2   3
ATOM      3  C   UNL A   1      34.287  30.377  27.539  1.00  0.00     0.338 C 
ATOM      4  O   UNL A   1      33.979  31.562  27.668  1.00  0.00    -0.246 OA
BRANCH   3   5
ATOM      5  C   UNL A   1      35.670  29.967  27.963  1.00  0.00     0.060 A 
ATOM      6  C   UNL A   1      36.846  30.137  27.232  1.00  0.00     0.016 A 
ATOM      7  C   UNL A   1      35.788  29.460  29.273  1.00  0.00     0.016 A 
ATOM      8  C   UNL A   1      38.097  29.934  27.815  1.00  0.00     0.010 A 
ATOM      9  C   UNL A   1      37.041  29.296  29.875  1.00  0.00     0.010 A 
ATOM     10  C   UNL A   1      38.210  29.544  29.148  1.00  0.00    -0.014 A 
BRANCH  10  11
ATOM     11  C   UNL A   1      39.556  29.235  29.682  1.00  0.00     0.031 A 
ATOM     12  C   UNL A   1      39.999  29.981  30.906  1.00  0.00     0.074 A 
ATOM     13  C   UNL A   1      40.300  28.233  29.165  1.00  0.00     0.049 A 
ATOM     14  N   UNL A   1      41.064  29.808  31.637  1.00  0.00    -0.248 NA
ATOM     15  C   UNL A   1      39.117  31.067  31.375  1.00  0.00     0.031 C 
ATOM     16  C   UNL A   1      39.953  27.441  27.982  1.00  0.00     0.029 A 
ATOM     17  N   UNL A   1      41.487  27.685  29.583  1.00  0.00    -0.354 N 
ATOM     18  C   UNL A   1      40.965  30.743  32.658  1.00  0.00     0.074 A 
ATOM     19  C   UNL A   1      39.795  31.546  32.402  1.00  0.00     0.031 C 
ATOM     20  C   UNL A   1      40.892  26.499  27.781  1.00  0.00     0.029 A 
ATOM     21  C   UNL A   1      41.914  26.619  28.817  1.00  0.00     0.049 A 
ATOM     22  H   UNL A   1      41.990  28.021  30.360  1.00  0.00     0.167 HD
ATOM     23  C   UNL A   1      41.744  30.883  33.751  1.00  0.00     0.037 A 
ATOM     24  C   UNL A   1      42.997  25.827  28.952  1.00  0.00     0.037 A 
ATOM     25  C   UNL A   1      42.902  30.077  34.002  1.00  0.00     0.049 A 
ATOM     26  C   UNL A   1      43.894  26.056  30.146  1.00  0.00     0.074 A 
ATOM     27  C   UNL A   1      43.796  30.155  35.050  1.00  0.00     0.029 A 
ATOM     28  N   UNL A   1      43.320  29.035  33.185  1.00  0.00    -0.354 N 
ATOM     29  N   UNL A   1      43.766  26.930  31.118  1.00  0.00    -0.248 NA
ATOM     30  C   UNL A   1      45.072  25.187  30.273  1.00  0.00     0.031 C 
ATOM     31  C   UNL A   1      44.780  29.182  34.847  1.00  0.00     0.029 A 
ATOM     32  C   UNL A   1      44.468  28.466  33.700  1.00  0.00     0.049 A 
ATOM     33  H   UNL A   1      42.866  28.745  32.361  1.00  0.00     0.167 HD
ATOM     34  C   UNL A   1      44.829  26.698  31.984  1.00  0.00     0.074 A 
ATOM     35  C   UNL A   1      45.573  25.583  31.435  1.00  0.00     0.031 C 
ATOM     36  C   UNL A   1      45.170  27.346  33.126  1.00  0.00     0.037 A 
BRANCH  23  37
ATOM     37  C   UNL A   1      41.344  31.944  34.732  1.00  0.00     0.058 A 
ATOM     38  C   UNL A   1      40.489  31.655  35.811  1.00  0.00     0.135 A 
ATOM     39  C   UNL A   1      41.773  33.269  34.569  1.00  0.00     0.135 A 
ATOM     40  F   UNL A   1      40.015  30.411  35.983  1.00  0.00    -0.206 F 
ATOM     41  C   UNL A   1      40.054  32.649  36.677  1.00  0.00     0.059 A 
ATOM     42  C   UNL A   1      41.372  34.274  35.442  1.00  0.00     0.059 A 
ATOM     43  F   UNL A   1      42.570  33.600  33.541  1.00  0.00    -0.206 F 
ATOM     44  C   UNL A   1      40.502  33.957  36.486  1.00  0.00     0.060 A 
BRANCH  44  45
ATOM     45  S   UNL A   1      39.933  35.233  37.626  1.00  0.00     0.124 S 
ATOM     46  O   UNL A   1      41.013  35.249  38.608  1.00  0.00    -0.237 OA
ATOM     47  O   UNL A   1      39.845  36.404  36.761  1.00  0.00    -0.237 OA
ATOM     48  O   UNL A   1      38.656  34.715  38.107  1.00  0.00    -0.744 OA
ENDBRANCH  44  45
ENDBRANCH  23  37
BRANCH  24  49
ATOM     49  C   UNL A   1      43.309  24.756  27.957  1.00  0.00     0.058 A 
ATOM     50  C   UNL A   1      42.945  23.415  28.172  1.00  0.00     0.135 A 
ATOM     51  C   UNL A   1      44.045  25.042  26.795  1.00  0.00     0.135 A 
ATOM     52  F   UNL A   1      42.245  23.078  29.265  1.00  0.00    -0.206 F 
ATOM     53  C   UNL A   1      43.337  22.398  27.302  1.00  0.00     0.059 A 
ATOM     54  C   UNL A   1      44.423  24.047  25.896  1.00  0.00     0.059 A 
ATOM     55  F   UNL A   1      44.411  26.305  26.526  1.00  0.00    -0.206 F 
ATOM     56  C   UNL A   1      44.084  22.724  26.169  1.00  0.00     0.060 A 
BRANCH  56  57
ATOM     57  S   UNL A   1      44.602  21.399  25.054  1.00  0.00     0.124 S 
ATOM     58  O   UNL A   1      43.577  20.391  25.295  1.00  0.00    -0.237 OA
ATOM     59  O   UNL A   1      44.555  22.057  23.751  1.00  0.00    -0.237 OA
ATOM     60  O   UNL A   1      45.942  21.064  25.529  1.00  0.00    -0.744 OA
ENDBRANCH  56  57
ENDBRANCH  24  49
BRANCH  36  61
ATOM     61  C   UNL A   1      46.379  26.846  33.864  1.00  0.00     0.058 A 
ATOM     62  C   UNL A   1      47.661  27.351  33.601  1.00  0.00     0.135 A 
ATOM     63  C   UNL A   1      46.240  25.894  34.887  1.00  0.00     0.135 A 
ATOM     64  F   UNL A   1      47.844  28.262  32.633  1.00  0.00    -0.206 F 
ATOM     65  C   UNL A   1      48.772  26.903  34.306  1.00  0.00     0.059 A 
ATOM     66  C   UNL A   1      47.332  25.458  35.627  1.00  0.00     0.059 A 
ATOM     67  F   UNL A   1      45.030  25.394  35.187  1.00  0.00    -0.206 F 
ATOM     68  C   UNL A   1      48.596  25.957  35.318  1.00  0.00     0.060 A 
BRANCH  68  69
ATOM     69  S   UNL A   1      50.043  25.405  36.242  1.00  0.00     0.124 S 
ATOM     70  O   UNL A   1      51.124  25.744  35.323  1.00  0.00    -0.237 OA
ATOM     71  O   UNL A   1      49.966  26.212  37.456  1.00  0.00    -0.237 OA
ATOM     72  O   UNL A   1      49.801  23.978  36.430  1.00  0.00    -0.744 OA
ENDBRANCH  68  69
ENDBRANCH  36  61
ENDBRANCH  10  11
ENDBRANCH   3   5
ENDBRANCH   2   3
ENDBRANCH   1   2
BRANCH   1  73
ATOM     73  C   UNL A   1      33.484  27.196  26.102  1.00  0.00     0.274 C 
BRANCH  73  74
ATOM     74  O   UNL A   1      33.905  26.292  25.063  1.00  0.00    -0.461 OA
BRANCH  74  75
ATOM     75  C   UNL A   1      33.368  25.037  25.107  1.00  0.00     0.329 C 
ATOM     76  O   UNL A   1      32.500  24.689  25.907  1.00  0.00    -0.250 OA
BRANCH  75  77
ATOM     77  C   UNL A   1      33.946  24.119  24.005  1.00  0.00     0.206 C 
ATOM     78  C   UNL A   1      32.893  23.958  22.940  1.00  0.00     0.109 C 
ATOM     79  N   UNL A   1      34.339  22.806  24.568  1.00  0.00    -0.315 N 
ATOM     80  S   UNL A   1      32.331  22.277  22.943  1.00  0.00    -0.134 SA
ATOM     81  C   UNL A   1      33.229  21.835  24.517  1.00  0.00     0.147 C 
BRANCH  79  82
ATOM     82  C   UNL A   1      35.471  22.920  25.361  1.00  0.00     0.230 C 
ATOM     83  O   UNL A   1      35.549  22.259  26.410  1.00  0.00    -0.274 OA
BRANCH  82  84
ATOM     84  C   UNL A   1      36.676  23.757  25.004  1.00  0.00     0.155 C 
BRANCH  84  85
ATOM     85  C   UNL A   1      37.909  23.303  25.696  1.00  0.00     0.044 A 
ATOM     86  C   UNL A   1      38.740  23.882  26.629  1.00  0.00     0.045 A 
ATOM     87  N   UNL A   1      38.459  22.078  25.431  1.00  0.00    -0.282 N 
ATOM     88  C   UNL A   1      39.660  22.875  26.962  1.00  0.00     0.135 A 
ATOM     89  N   UNL A   1      39.485  21.767  26.238  1.00  0.00    -0.184 NA
ATOM     90  H   UNL A   1      38.134  21.484  24.717  1.00  0.00     0.190 HD
ENDBRANCH  84  85
ENDBRANCH  82  84
ENDBRANCH  79  82
BRANCH  81  91
ATOM     91  C   UNL A   1      33.365  20.346  24.263  1.00  0.00     0.022 C 
ATOM     92  C   UNL A   1      32.590  19.215  24.878  1.00  0.00     0.007 C 
ATOM     93  C   UNL A   1      32.316  19.635  23.457  1.00  0.00     0.007 C 
ENDBRANCH  81  91
ENDBRANCH  75  77
ENDBRANCH  74  75
ENDBRANCH  73  74
ENDBRANCH   1  73
TORSDOF 18
ENDMDL
