MODEL 1
REMARK VINA RESULT:     -10.4      0.000      0.000
REMARK SMILES CC(C)C[C@H](NC(=O)CNC(=O)[C@@H](NC(=O)OCc1ccccc1)C(C)C)C(=O)OCCOC(=O)c1ccc(-c2c3nc(c(-c4c(F)cc(S(=O)(=O)[O-])cc4F)c4ccc([nH]4)c(-c4c(F)cc(S(=O)(=O)[O-])cc4F)c4nc(c(-c5c(F)cc(S(=O)(=O)[O-])cc5F)c5ccc2[nH]5)C=C4)C=C3)cc1
REMARK SMILES IDX 28 1 29 2 5 3 4 4 2 5 1 6 3 7 6 8 7 9 8 11 9 12 10 13 11 14
REMARK SMILES IDX 12 16 13 17 14 18 15 19 16 21 17 22 18 23 19 24 20 25 24 26
REMARK SMILES IDX 21 27 23 28 22 29 25 30 26 31 27 32 30 33 31 34 32 35 33 36
REMARK SMILES IDX 34 37 35 38 36 39 37 40 101 41 38 42 100 43 39 44 40 45
REMARK SMILES IDX 41 46 94 47 42 48 99 49 93 50 95 51 43 52 98 53 92 54 91 55
REMARK SMILES IDX 44 57 78 58 57 59 77 60 58 61 61 62 76 63 96 64 59 65 60 66
REMARK SMILES IDX 75 68 97 69 62 70 45 71 46 72 55 73 47 74 48 75 54 76 56 77
REMARK SMILES IDX 49 78 50 79 51 80 52 81 53 82 79 83 80 84 89 85 81 86 82 87
REMARK SMILES IDX 88 88 90 89 83 90 84 91 85 92 86 93 87 94 63 95 64 96 73 97
REMARK SMILES IDX 65 98 66 99 72 100 74 101 67 102 68 103 69 104 70 105 71 106
REMARK H PARENT 6 10 10 15 14 20 95 56 61 67
REMARK Flexibility Score: inf
ROOT
ATOM      1  C   UNL A   1      36.739  21.709  25.068  1.00  0.00     0.328 C 
ATOM      2  O   UNL A   1      36.909  22.428  24.092  1.00  0.00    -0.250 OA
ENDROOT
BRANCH   1   3
ATOM      3  C   UNL A   1      35.368  21.283  25.587  1.00  0.00     0.192 C 
BRANCH   3   4
ATOM      4  C   UNL A   1      34.403  21.166  24.405  1.00  0.00     0.040 C 
BRANCH   4   5
ATOM      5  C   UNL A   1      33.043  20.440  24.466  1.00  0.00    -0.015 C 
ATOM      6  C   UNL A   1      32.231  20.535  23.170  1.00  0.00     0.007 C 
ATOM      7  C   UNL A   1      33.314  18.943  24.702  1.00  0.00     0.007 C 
ENDBRANCH   4   5
ENDBRANCH   3   4
BRANCH   3   8
ATOM      8  N   UNL A   1      34.978  22.142  26.738  1.00  0.00    -0.341 N 
ATOM      9  C   UNL A   1      34.268  23.308  26.742  1.00  0.00     0.240 C 
ATOM     10  H   UNL A   1      35.273  21.823  27.622  1.00  0.00     0.164 HD
ATOM     11  O   UNL A   1      33.156  23.301  27.281  1.00  0.00    -0.273 OA
BRANCH   9  12
ATOM     12  C   UNL A   1      34.788  24.612  26.141  1.00  0.00     0.216 C 
BRANCH  12  13
ATOM     13  N   UNL A   1      34.693  24.754  24.707  1.00  0.00    -0.345 N 
ATOM     14  C   UNL A   1      33.714  25.166  23.869  1.00  0.00     0.243 C 
ATOM     15  H   UNL A   1      35.518  24.492  24.238  1.00  0.00     0.164 HD
ATOM     16  O   UNL A   1      34.098  25.372  22.711  1.00  0.00    -0.273 OA
BRANCH  14  17
ATOM     17  C   UNL A   1      32.191  25.293  24.242  1.00  0.00     0.177 C 
BRANCH  17  18
ATOM     18  N   UNL A   1      31.483  26.446  23.684  1.00  0.00    -0.309 N 
ATOM     19  C   UNL A   1      31.134  27.656  24.175  1.00  0.00     0.408 C 
ATOM     20  H   UNL A   1      31.200  26.312  22.750  1.00  0.00     0.167 HD
ATOM     21  O   UNL A   1      30.301  28.320  23.587  1.00  0.00    -0.225 OA
BRANCH  19  22
ATOM     22  O   UNL A   1      31.822  28.017  25.275  1.00  0.00    -0.445 OA
BRANCH  22  23
ATOM     23  C   UNL A   1      32.109  29.418  25.346  1.00  0.00     0.270 C 
BRANCH  23  24
ATOM     24  C   UNL A   1      33.152  29.780  26.389  1.00  0.00    -0.011 A 
ATOM     25  C   UNL A   1      34.290  28.995  26.645  1.00  0.00     0.007 A 
ATOM     26  C   UNL A   1      33.038  31.003  27.065  1.00  0.00     0.007 A 
ATOM     27  C   UNL A   1      35.270  29.403  27.549  1.00  0.00     0.000 A 
ATOM     28  C   UNL A   1      34.021  31.414  27.970  1.00  0.00     0.000 A 
ATOM     29  C   UNL A   1      35.136  30.615  28.211  1.00  0.00     0.000 A 
ENDBRANCH  23  24
ENDBRANCH  22  23
ENDBRANCH  19  22
ENDBRANCH  17  18
BRANCH  17  30
ATOM     30  C   UNL A   1      31.430  23.947  24.240  1.00  0.00     0.015 C 
ATOM     31  C   UNL A   1      30.580  23.763  25.508  1.00  0.00     0.010 C 
ATOM     32  C   UNL A   1      30.465  23.843  23.049  1.00  0.00     0.010 C 
ENDBRANCH  17  30
ENDBRANCH  14  17
ENDBRANCH  12  13
ENDBRANCH   9  12
ENDBRANCH   3   8
ENDBRANCH   1   3
BRANCH   1  33
ATOM     33  O   UNL A   1      37.730  21.237  25.880  1.00  0.00    -0.461 OA
BRANCH  33  34
ATOM     34  C   UNL A   1      39.066  21.611  25.526  1.00  0.00     0.274 C 
BRANCH  34  35
ATOM     35  C   UNL A   1      39.790  22.278  26.700  1.00  0.00     0.275 C 
BRANCH  35  36
ATOM     36  O   UNL A   1      39.795  23.719  26.615  1.00  0.00    -0.458 OA
BRANCH  36  37
ATOM     37  C   UNL A   1      40.956  24.313  26.994  1.00  0.00     0.338 C 
ATOM     38  O   UNL A   1      42.064  24.070  26.539  1.00  0.00    -0.246 OA
BRANCH  37  39
ATOM     39  C   UNL A   1      40.705  25.447  27.909  1.00  0.00     0.060 A 
ATOM     40  C   UNL A   1      41.763  26.331  28.157  1.00  0.00     0.016 A 
ATOM     41  C   UNL A   1      39.492  25.613  28.577  1.00  0.00     0.016 A 
ATOM     42  C   UNL A   1      41.623  27.368  29.073  1.00  0.00     0.010 A 
ATOM     43  C   UNL A   1      39.352  26.656  29.504  1.00  0.00     0.010 A 
ATOM     44  C   UNL A   1      40.423  27.530  29.771  1.00  0.00    -0.014 A 
BRANCH  44  45
ATOM     45  C   UNL A   1      40.346  28.561  30.839  1.00  0.00     0.031 A 
ATOM     46  C   UNL A   1      41.277  28.480  32.018  1.00  0.00     0.074 A 
ATOM     47  C   UNL A   1      39.498  29.600  30.717  1.00  0.00     0.049 A 
ATOM     48  N   UNL A   1      41.341  29.247  33.077  1.00  0.00    -0.248 NA
ATOM     49  C   UNL A   1      42.266  27.392  32.006  1.00  0.00     0.031 C 
ATOM     50  C   UNL A   1      38.581  29.814  29.596  1.00  0.00     0.029 A 
ATOM     51  N   UNL A   1      39.270  30.673  31.542  1.00  0.00    -0.354 N 
ATOM     52  C   UNL A   1      42.368  28.730  33.858  1.00  0.00     0.074 A 
ATOM     53  C   UNL A   1      42.874  27.561  33.171  1.00  0.00     0.031 C 
ATOM     54  C   UNL A   1      37.891  30.948  29.804  1.00  0.00     0.029 A 
ATOM     55  C   UNL A   1      38.279  31.514  31.092  1.00  0.00     0.049 A 
ATOM     56  H   UNL A   1      39.768  30.827  32.378  1.00  0.00     0.167 HD
ATOM     57  C   UNL A   1      42.855  29.197  35.034  1.00  0.00     0.037 A 
ATOM     58  C   UNL A   1      37.724  32.600  31.667  1.00  0.00     0.037 A 
ATOM     59  C   UNL A   1      42.353  30.370  35.706  1.00  0.00     0.049 A 
ATOM     60  C   UNL A   1      38.239  33.063  33.006  1.00  0.00     0.074 A 
ATOM     61  C   UNL A   1      42.767  30.916  36.909  1.00  0.00     0.029 A 
ATOM     62  N   UNL A   1      41.332  31.180  35.232  1.00  0.00    -0.354 N 
ATOM     63  N   UNL A   1      39.197  32.551  33.743  1.00  0.00    -0.248 NA
ATOM     64  C   UNL A   1      37.604  34.251  33.588  1.00  0.00     0.031 C 
ATOM     65  C   UNL A   1      41.966  32.031  37.183  1.00  0.00     0.029 A 
ATOM     66  C   UNL A   1      41.092  32.214  36.123  1.00  0.00     0.049 A 
ATOM     67  H   UNL A   1      40.848  31.042  34.385  1.00  0.00     0.167 HD
ATOM     68  C   UNL A   1      39.294  33.369  34.864  1.00  0.00     0.074 A 
ATOM     69  C   UNL A   1      38.313  34.422  34.694  1.00  0.00     0.031 C 
ATOM     70  C   UNL A   1      40.114  33.258  35.939  1.00  0.00     0.037 A 
BRANCH  57  71
ATOM     71  C   UNL A   1      43.980  28.430  35.679  1.00  0.00     0.058 A 
ATOM     72  C   UNL A   1      43.740  27.406  36.609  1.00  0.00     0.135 A 
ATOM     73  C   UNL A   1      45.315  28.695  35.332  1.00  0.00     0.135 A 
ATOM     74  F   UNL A   1      42.484  27.121  36.992  1.00  0.00    -0.206 F 
ATOM     75  C   UNL A   1      44.781  26.689  37.189  1.00  0.00     0.059 A 
ATOM     76  C   UNL A   1      46.371  27.970  35.878  1.00  0.00     0.059 A 
ATOM     77  F   UNL A   1      45.605  29.664  34.450  1.00  0.00    -0.206 F 
ATOM     78  C   UNL A   1      46.095  26.977  36.815  1.00  0.00     0.060 A 
BRANCH  78  79
ATOM     79  S   UNL A   1      47.434  26.026  37.566  1.00  0.00     0.124 S 
ATOM     80  O   UNL A   1      46.756  24.777  37.897  1.00  0.00    -0.237 OA
ATOM     81  O   UNL A   1      48.408  25.950  36.481  1.00  0.00    -0.237 OA
ATOM     82  O   UNL A   1      47.834  26.843  38.706  1.00  0.00    -0.744 OA
ENDBRANCH  78  79
ENDBRANCH  57  71
BRANCH  58  83
ATOM     83  C   UNL A   1      36.593  33.303  31.002  1.00  0.00     0.058 A 
ATOM     84  C   UNL A   1      36.796  34.130  29.888  1.00  0.00     0.135 A 
ATOM     85  C   UNL A   1      35.279  33.170  31.483  1.00  0.00     0.135 A 
ATOM     86  F   UNL A   1      38.032  34.301  29.393  1.00  0.00    -0.206 F 
ATOM     87  C   UNL A   1      35.745  34.821  29.290  1.00  0.00     0.059 A 
ATOM     88  C   UNL A   1      34.208  33.822  30.883  1.00  0.00     0.059 A 
ATOM     89  F   UNL A   1      35.025  32.380  32.539  1.00  0.00    -0.206 F 
ATOM     90  C   UNL A   1      34.454  34.658  29.795  1.00  0.00     0.060 A 
BRANCH  90  91
ATOM     91  S   UNL A   1      33.091  35.533  28.995  1.00  0.00     0.124 S 
ATOM     92  O   UNL A   1      32.449  34.457  28.248  1.00  0.00    -0.237 OA
ATOM     93  O   UNL A   1      32.346  36.051  30.138  1.00  0.00    -0.237 OA
ATOM     94  O   UNL A   1      33.769  36.544  28.189  1.00  0.00    -0.744 OA
ENDBRANCH  90  91
ENDBRANCH  58  83
BRANCH  70  95
ATOM     95  C   UNL A   1      40.013  34.327  36.995  1.00  0.00     0.058 A 
ATOM     96  C   UNL A   1      40.825  35.473  36.969  1.00  0.00     0.135 A 
ATOM     97  C   UNL A   1      39.080  34.211  38.038  1.00  0.00     0.135 A 
ATOM     98  F   UNL A   1      41.736  35.634  35.997  1.00  0.00    -0.206 F 
ATOM     99  C   UNL A   1      40.744  36.444  37.963  1.00  0.00     0.059 A 
ATOM    100  C   UNL A   1      38.959  35.186  39.023  1.00  0.00     0.059 A 
ATOM    101  F   UNL A   1      38.269  33.144  38.104  1.00  0.00    -0.206 F 
ATOM    102  C   UNL A   1      39.810  36.289  38.989  1.00  0.00     0.060 A 
BRANCH 102 103
ATOM    103  S   UNL A   1      39.716  37.555  40.273  1.00  0.00     0.124 S 
ATOM    104  O   UNL A   1      40.203  36.827  41.439  1.00  0.00    -0.237 OA
ATOM    105  O   UNL A   1      40.605  38.592  39.755  1.00  0.00    -0.237 OA
ATOM    106  O   UNL A   1      38.300  37.908  40.299  1.00  0.00    -0.744 OA
ENDBRANCH 102 103
ENDBRANCH  70  95
ENDBRANCH  44  45
ENDBRANCH  37  39
ENDBRANCH  36  37
ENDBRANCH  35  36
ENDBRANCH  34  35
ENDBRANCH  33  34
ENDBRANCH   1  33
TORSDOF 25
ENDMDL
MODEL 2
REMARK VINA RESULT:     -10.1      1.358      2.727
REMARK SMILES CC(C)C[C@H](NC(=O)CNC(=O)[C@@H](NC(=O)OCc1ccccc1)C(C)C)C(=O)OCCOC(=O)c1ccc(-c2c3nc(c(-c4c(F)cc(S(=O)(=O)[O-])cc4F)c4ccc([nH]4)c(-c4c(F)cc(S(=O)(=O)[O-])cc4F)c4nc(c(-c5c(F)cc(S(=O)(=O)[O-])cc5F)c5ccc2[nH]5)C=C4)C=C3)cc1
REMARK SMILES IDX 28 1 29 2 5 3 4 4 2 5 1 6 3 7 6 8 7 9 8 11 9 12 10 13 11 14
REMARK SMILES IDX 12 16 13 17 14 18 15 19 16 21 17 22 18 23 19 24 20 25 24 26
REMARK SMILES IDX 21 27 23 28 22 29 25 30 26 31 27 32 30 33 31 34 32 35 33 36
REMARK SMILES IDX 34 37 35 38 36 39 37 40 101 41 38 42 100 43 39 44 40 45
REMARK SMILES IDX 41 46 94 47 42 48 99 49 93 50 95 51 43 52 98 53 92 54 91 55
REMARK SMILES IDX 44 57 78 58 57 59 77 60 58 61 61 62 76 63 96 64 59 65 60 66
REMARK SMILES IDX 75 68 97 69 62 70 45 71 46 72 55 73 47 74 48 75 54 76 56 77
REMARK SMILES IDX 49 78 50 79 51 80 52 81 53 82 79 83 80 84 89 85 81 86 82 87
REMARK SMILES IDX 88 88 90 89 83 90 84 91 85 92 86 93 87 94 63 95 64 96 73 97
REMARK SMILES IDX 65 98 66 99 72 100 74 101 67 102 68 103 69 104 70 105 71 106
REMARK H PARENT 6 10 10 15 14 20 95 56 61 67
REMARK Flexibility Score: inf
ROOT
ATOM      1  C   UNL A   1      34.895  22.637  24.379  1.00  0.00     0.328 C 
ATOM      2  O   UNL A   1      34.194  23.087  23.483  1.00  0.00    -0.250 OA
ENDROOT
BRANCH   1   3
ATOM      3  C   UNL A   1      34.347  22.014  25.662  1.00  0.00     0.192 C 
BRANCH   3   4
ATOM      4  C   UNL A   1      33.709  20.665  25.326  1.00  0.00     0.040 C 
BRANCH   4   5
ATOM      5  C   UNL A   1      34.354  19.607  24.406  1.00  0.00    -0.015 C 
ATOM      6  C   UNL A   1      35.715  19.103  24.899  1.00  0.00     0.007 C 
ATOM      7  C   UNL A   1      33.423  18.381  24.368  1.00  0.00     0.007 C 
ENDBRANCH   4   5
ENDBRANCH   3   4
BRANCH   3   8
ATOM      8  N   UNL A   1      33.533  23.019  26.399  1.00  0.00    -0.341 N 
ATOM      9  C   UNL A   1      32.212  22.975  26.741  1.00  0.00     0.240 C 
ATOM     10  H   UNL A   1      34.016  23.830  26.681  1.00  0.00     0.164 HD
ATOM     11  O   UNL A   1      31.933  22.909  27.943  1.00  0.00    -0.273 OA
BRANCH   9  12
ATOM     12  C   UNL A   1      31.077  23.027  25.721  1.00  0.00     0.216 C 
BRANCH  12  13
ATOM     13  N   UNL A   1      30.304  24.246  25.666  1.00  0.00    -0.345 N 
ATOM     14  C   UNL A   1      30.590  25.522  25.319  1.00  0.00     0.243 C 
ATOM     15  H   UNL A   1      29.367  24.121  25.941  1.00  0.00     0.164 HD
ATOM     16  O   UNL A   1      29.592  26.239  25.176  1.00  0.00    -0.273 OA
BRANCH  14  17
ATOM     17  C   UNL A   1      32.036  26.129  25.194  1.00  0.00     0.177 C 
BRANCH  17  18
ATOM     18  N   UNL A   1      32.686  25.985  23.892  1.00  0.00    -0.309 N 
ATOM     19  C   UNL A   1      32.532  26.599  22.696  1.00  0.00     0.408 C 
ATOM     20  H   UNL A   1      33.387  25.294  23.883  1.00  0.00     0.167 HD
ATOM     21  O   UNL A   1      33.011  26.091  21.700  1.00  0.00    -0.225 OA
BRANCH  19  22
ATOM     22  O   UNL A   1      31.883  27.777  22.769  1.00  0.00    -0.445 OA
BRANCH  22  23
ATOM     23  C   UNL A   1      30.526  27.720  22.313  1.00  0.00     0.270 C 
BRANCH  23  24
ATOM     24  C   UNL A   1      29.693  28.925  22.712  1.00  0.00    -0.011 A 
ATOM     25  C   UNL A   1      28.340  29.079  22.357  1.00  0.00     0.007 A 
ATOM     26  C   UNL A   1      30.258  29.888  23.559  1.00  0.00     0.007 A 
ATOM     27  C   UNL A   1      27.584  30.156  22.815  1.00  0.00     0.000 A 
ATOM     28  C   UNL A   1      29.500  30.968  24.021  1.00  0.00     0.000 A 
ATOM     29  C   UNL A   1      28.164  31.102  23.650  1.00  0.00     0.000 A 
ENDBRANCH  23  24
ENDBRANCH  22  23
ENDBRANCH  19  22
ENDBRANCH  17  18
BRANCH  17  30
ATOM     30  C   UNL A   1      32.208  27.489  25.908  1.00  0.00     0.015 C 
ATOM     31  C   UNL A   1      31.461  27.534  27.251  1.00  0.00     0.010 C 
ATOM     32  C   UNL A   1      33.684  27.782  26.221  1.00  0.00     0.010 C 
ENDBRANCH  17  30
ENDBRANCH  14  17
ENDBRANCH  12  13
ENDBRANCH   9  12
ENDBRANCH   3   8
ENDBRANCH   1   3
BRANCH   1  33
ATOM     33  O   UNL A   1      36.259  22.682  24.410  1.00  0.00    -0.461 OA
BRANCH  33  34
ATOM     34  C   UNL A   1      36.838  23.793  25.102  1.00  0.00     0.274 C 
BRANCH  34  35
ATOM     35  C   UNL A   1      38.249  23.468  25.603  1.00  0.00     0.275 C 
BRANCH  35  36
ATOM     36  O   UNL A   1      38.616  24.215  26.782  1.00  0.00    -0.458 OA
BRANCH  36  37
ATOM     37  C   UNL A   1      39.833  24.815  26.727  1.00  0.00     0.338 C 
ATOM     38  O   UNL A   1      40.632  24.723  25.807  1.00  0.00    -0.246 OA
BRANCH  37  39
ATOM     39  C   UNL A   1      40.014  25.766  27.844  1.00  0.00     0.060 A 
ATOM     40  C   UNL A   1      39.138  25.669  28.932  1.00  0.00     0.016 A 
ATOM     41  C   UNL A   1      40.967  26.785  27.810  1.00  0.00     0.016 A 
ATOM     42  C   UNL A   1      39.197  26.585  29.977  1.00  0.00     0.010 A 
ATOM     43  C   UNL A   1      41.022  27.712  28.860  1.00  0.00     0.010 A 
ATOM     44  C   UNL A   1      40.126  27.628  29.943  1.00  0.00    -0.014 A 
BRANCH  44  45
ATOM     45  C   UNL A   1      40.078  28.670  31.003  1.00  0.00     0.031 A 
ATOM     46  C   UNL A   1      41.014  28.578  32.177  1.00  0.00     0.074 A 
ATOM     47  C   UNL A   1      39.253  29.727  30.877  1.00  0.00     0.049 A 
ATOM     48  N   UNL A   1      41.101  29.352  33.229  1.00  0.00    -0.248 NA
ATOM     49  C   UNL A   1      41.978  27.467  32.169  1.00  0.00     0.031 C 
ATOM     50  C   UNL A   1      38.335  29.952  29.759  1.00  0.00     0.029 A 
ATOM     51  N   UNL A   1      39.054  30.811  31.693  1.00  0.00    -0.354 N 
ATOM     52  C   UNL A   1      42.121  28.819  34.009  1.00  0.00     0.074 A 
ATOM     53  C   UNL A   1      42.596  27.633  33.330  1.00  0.00     0.031 C 
ATOM     54  C   UNL A   1      37.672  31.103  29.960  1.00  0.00     0.029 A 
ATOM     55  C   UNL A   1      38.080  31.670  31.242  1.00  0.00     0.049 A 
ATOM     56  H   UNL A   1      39.560  30.961  32.525  1.00  0.00     0.167 HD
ATOM     57  C   UNL A   1      42.625  29.285  35.178  1.00  0.00     0.037 A 
ATOM     58  C   UNL A   1      37.552  32.773  31.810  1.00  0.00     0.037 A 
ATOM     59  C   UNL A   1      42.153  30.474  35.843  1.00  0.00     0.049 A 
ATOM     60  C   UNL A   1      38.086  33.236  33.142  1.00  0.00     0.074 A 
ATOM     61  C   UNL A   1      42.586  31.022  37.039  1.00  0.00     0.029 A 
ATOM     62  N   UNL A   1      41.147  31.304  35.367  1.00  0.00    -0.354 N 
ATOM     63  N   UNL A   1      39.036  32.709  33.879  1.00  0.00    -0.248 NA
ATOM     64  C   UNL A   1      37.480  34.443  33.717  1.00  0.00     0.031 C 
ATOM     65  C   UNL A   1      41.811  32.156  37.307  1.00  0.00     0.029 A 
ATOM     66  C   UNL A   1      40.936  32.350  36.251  1.00  0.00     0.049 A 
ATOM     67  H   UNL A   1      40.656  31.169  34.525  1.00  0.00     0.167 HD
ATOM     68  C   UNL A   1      39.157  33.534  34.992  1.00  0.00     0.074 A 
ATOM     69  C   UNL A   1      38.200  34.608  34.818  1.00  0.00     0.031 C 
ATOM     70  C   UNL A   1      39.980  33.414  36.063  1.00  0.00     0.037 A 
BRANCH  57  71
ATOM     71  C   UNL A   1      43.736  28.498  35.823  1.00  0.00     0.058 A 
ATOM     72  C   UNL A   1      43.476  27.438  36.706  1.00  0.00     0.135 A 
ATOM     73  C   UNL A   1      45.079  28.782  35.524  1.00  0.00     0.135 A 
ATOM     74  F   UNL A   1      42.212  27.133  37.043  1.00  0.00    -0.206 F 
ATOM     75  C   UNL A   1      44.505  26.703  37.286  1.00  0.00     0.059 A 
ATOM     76  C   UNL A   1      46.123  28.042  36.070  1.00  0.00     0.059 A 
ATOM     77  F   UNL A   1      45.387  29.786  34.688  1.00  0.00    -0.206 F 
ATOM     78  C   UNL A   1      45.827  27.011  36.959  1.00  0.00     0.060 A 
BRANCH  78  79
ATOM     79  S   UNL A   1      47.150  26.038  37.710  1.00  0.00     0.124 S 
ATOM     80  O   UNL A   1      46.880  24.710  37.168  1.00  0.00    -0.237 OA
ATOM     81  O   UNL A   1      48.348  26.698  37.200  1.00  0.00    -0.237 OA
ATOM     82  O   UNL A   1      46.916  26.190  39.142  1.00  0.00    -0.744 OA
ENDBRANCH  78  79
ENDBRANCH  57  71
BRANCH  58  83
ATOM     83  C   UNL A   1      36.433  33.496  31.145  1.00  0.00     0.058 A 
ATOM     84  C   UNL A   1      35.128  33.458  31.655  1.00  0.00     0.135 A 
ATOM     85  C   UNL A   1      36.651  34.231  29.967  1.00  0.00     0.135 A 
ATOM     86  F   UNL A   1      34.862  32.763  32.772  1.00  0.00    -0.206 F 
ATOM     87  C   UNL A   1      34.073  34.099  31.011  1.00  0.00     0.059 A 
ATOM     88  C   UNL A   1      35.621  34.908  29.323  1.00  0.00     0.059 A 
ATOM     89  F   UNL A   1      37.884  34.311  29.441  1.00  0.00    -0.206 F 
ATOM     90  C   UNL A   1      34.331  34.823  29.845  1.00  0.00     0.060 A 
BRANCH  90  91
ATOM     91  S   UNL A   1      32.963  35.677  29.032  1.00  0.00     0.124 S 
ATOM     92  O   UNL A   1      33.665  36.722  28.296  1.00  0.00    -0.237 OA
ATOM     93  O   UNL A   1      32.373  34.613  28.226  1.00  0.00    -0.237 OA
ATOM     94  O   UNL A   1      32.142  36.135  30.149  1.00  0.00    -0.744 OA
ENDBRANCH  90  91
ENDBRANCH  58  83
BRANCH  70  95
ATOM     95  C   UNL A   1      39.910  34.494  37.110  1.00  0.00     0.058 A 
ATOM     96  C   UNL A   1      39.037  34.407  38.207  1.00  0.00     0.135 A 
ATOM     97  C   UNL A   1      40.740  35.624  37.023  1.00  0.00     0.135 A 
ATOM     98  F   UNL A   1      38.219  33.351  38.338  1.00  0.00    -0.206 F 
ATOM     99  C   UNL A   1      38.959  35.422  39.156  1.00  0.00     0.059 A 
ATOM    100  C   UNL A   1      40.702  36.634  37.979  1.00  0.00     0.059 A 
ATOM    101  F   UNL A   1      41.603  35.752  36.004  1.00  0.00    -0.206 F 
ATOM    102  C   UNL A   1      39.794  36.533  39.032  1.00  0.00     0.060 A 
BRANCH 102 103
ATOM    103  S   UNL A   1      39.682  37.843  40.270  1.00  0.00     0.124 S 
ATOM    104  O   UNL A   1      41.069  38.288  40.352  1.00  0.00    -0.237 OA
ATOM    105  O   UNL A   1      38.750  38.781  39.649  1.00  0.00    -0.237 OA
ATOM    106  O   UNL A   1      39.173  37.152  41.450  1.00  0.00    -0.744 OA
ENDBRANCH 102 103
ENDBRANCH  70  95
ENDBRANCH  44  45
ENDBRANCH  37  39
ENDBRANCH  36  37
ENDBRANCH  35  36
ENDBRANCH  34  35
ENDBRANCH  33  34
ENDBRANCH   1  33
TORSDOF 25
ENDMDL
MODEL 3
REMARK VINA RESULT:      -9.8      5.009      6.318
REMARK SMILES CC(C)C[C@H](NC(=O)CNC(=O)[C@@H](NC(=O)OCc1ccccc1)C(C)C)C(=O)OCCOC(=O)c1ccc(-c2c3nc(c(-c4c(F)cc(S(=O)(=O)[O-])cc4F)c4ccc([nH]4)c(-c4c(F)cc(S(=O)(=O)[O-])cc4F)c4nc(c(-c5c(F)cc(S(=O)(=O)[O-])cc5F)c5ccc2[nH]5)C=C4)C=C3)cc1
REMARK SMILES IDX 28 1 29 2 5 3 4 4 2 5 1 6 3 7 6 8 7 9 8 11 9 12 10 13 11 14
REMARK SMILES IDX 12 16 13 17 14 18 15 19 16 21 17 22 18 23 19 24 20 25 24 26
REMARK SMILES IDX 21 27 23 28 22 29 25 30 26 31 27 32 30 33 31 34 32 35 33 36
REMARK SMILES IDX 34 37 35 38 36 39 37 40 101 41 38 42 100 43 39 44 40 45
REMARK SMILES IDX 41 46 94 47 42 48 99 49 93 50 95 51 43 52 98 53 92 54 91 55
REMARK SMILES IDX 44 57 78 58 57 59 77 60 58 61 61 62 76 63 96 64 59 65 60 66
REMARK SMILES IDX 75 68 97 69 62 70 45 71 46 72 55 73 47 74 48 75 54 76 56 77
REMARK SMILES IDX 49 78 50 79 51 80 52 81 53 82 79 83 80 84 89 85 81 86 82 87
REMARK SMILES IDX 88 88 90 89 83 90 84 91 85 92 86 93 87 94 63 95 64 96 73 97
REMARK SMILES IDX 65 98 66 99 72 100 74 101 67 102 68 103 69 104 70 105 71 106
REMARK H PARENT 6 10 10 15 14 20 95 56 61 67
REMARK Flexibility Score: inf
ROOT
ATOM      1  C   UNL A   1      34.859  21.131  24.693  1.00  0.00     0.328 C 
ATOM      2  O   UNL A   1      34.758  22.009  23.847  1.00  0.00    -0.250 OA
ENDROOT
BRANCH   1   3
ATOM      3  C   UNL A   1      33.777  20.805  25.720  1.00  0.00     0.192 C 
BRANCH   3   4
ATOM      4  C   UNL A   1      32.497  20.405  24.984  1.00  0.00     0.040 C 
BRANCH   4   5
ATOM      5  C   UNL A   1      32.154  18.961  24.564  1.00  0.00    -0.015 C 
ATOM      6  C   UNL A   1      32.569  18.618  23.129  1.00  0.00     0.007 C 
ATOM      7  C   UNL A   1      32.933  18.002  25.484  1.00  0.00     0.007 C 
ENDBRANCH   4   5
ENDBRANCH   3   4
BRANCH   3   8
ATOM      8  N   UNL A   1      33.702  21.893  26.733  1.00  0.00    -0.341 N 
ATOM      9  C   UNL A   1      32.609  22.573  27.189  1.00  0.00     0.240 C 
ATOM     10  H   UNL A   1      34.562  22.161  27.130  1.00  0.00     0.164 HD
ATOM     11  O   UNL A   1      32.287  22.413  28.372  1.00  0.00    -0.273 OA
BRANCH   9  12
ATOM     12  C   UNL A   1      31.790  23.528  26.323  1.00  0.00     0.216 C 
BRANCH  12  13
ATOM     13  N   UNL A   1      31.596  24.865  26.831  1.00  0.00    -0.345 N 
ATOM     14  C   UNL A   1      31.449  26.077  26.247  1.00  0.00     0.243 C 
ATOM     15  H   UNL A   1      31.565  24.904  27.814  1.00  0.00     0.164 HD
ATOM     16  O   UNL A   1      31.065  26.964  27.021  1.00  0.00    -0.273 OA
BRANCH  14  17
ATOM     17  C   UNL A   1      31.812  26.419  24.756  1.00  0.00     0.177 C 
BRANCH  17  18
ATOM     18  N   UNL A   1      31.067  27.522  24.146  1.00  0.00    -0.309 N 
ATOM     19  C   UNL A   1      31.125  28.868  24.264  1.00  0.00     0.408 C 
ATOM     20  H   UNL A   1      30.375  27.219  23.514  1.00  0.00     0.167 HD
ATOM     21  O   UNL A   1      30.199  29.542  23.854  1.00  0.00    -0.225 OA
BRANCH  19  22
ATOM     22  O   UNL A   1      32.277  29.318  24.797  1.00  0.00    -0.445 OA
BRANCH  22  23
ATOM     23  C   UNL A   1      32.103  30.066  26.007  1.00  0.00     0.270 C 
BRANCH  23  24
ATOM     24  C   UNL A   1      33.375  30.220  26.821  1.00  0.00    -0.011 A 
ATOM     25  C   UNL A   1      34.392  29.249  26.855  1.00  0.00     0.007 A 
ATOM     26  C   UNL A   1      33.604  31.427  27.497  1.00  0.00     0.007 A 
ATOM     27  C   UNL A   1      35.584  29.464  27.545  1.00  0.00     0.000 A 
ATOM     28  C   UNL A   1      34.800  31.644  28.187  1.00  0.00     0.000 A 
ATOM     29  C   UNL A   1      35.789  30.664  28.211  1.00  0.00     0.000 A 
ENDBRANCH  23  24
ENDBRANCH  22  23
ENDBRANCH  19  22
ENDBRANCH  17  18
BRANCH  17  30
ATOM     30  C   UNL A   1      33.326  26.353  24.448  1.00  0.00     0.015 C 
ATOM     31  C   UNL A   1      34.149  25.961  25.687  1.00  0.00     0.010 C 
ATOM     32  C   UNL A   1      33.639  25.306  23.368  1.00  0.00     0.010 C 
ENDBRANCH  17  30
ENDBRANCH  14  17
ENDBRANCH  12  13
ENDBRANCH   9  12
ENDBRANCH   3   8
ENDBRANCH   1   3
BRANCH   1  33
ATOM     33  O   UNL A   1      35.967  20.361  24.899  1.00  0.00    -0.461 OA
BRANCH  33  34
ATOM     34  C   UNL A   1      37.228  20.989  24.645  1.00  0.00     0.274 C 
BRANCH  34  35
ATOM     35  C   UNL A   1      37.555  22.040  25.711  1.00  0.00     0.275 C 
BRANCH  35  36
ATOM     36  O   UNL A   1      38.915  22.516  25.635  1.00  0.00    -0.458 OA
BRANCH  36  37
ATOM     37  C   UNL A   1      39.650  22.339  26.763  1.00  0.00     0.338 C 
ATOM     38  O   UNL A   1      40.021  21.264  27.210  1.00  0.00    -0.246 OA
BRANCH  37  39
ATOM     39  C   UNL A   1      40.125  23.630  27.304  1.00  0.00     0.060 A 
ATOM     40  C   UNL A   1      39.722  24.799  26.647  1.00  0.00     0.016 A 
ATOM     41  C   UNL A   1      41.006  23.709  28.383  1.00  0.00     0.016 A 
ATOM     42  C   UNL A   1      40.201  26.042  27.050  1.00  0.00     0.010 A 
ATOM     43  C   UNL A   1      41.493  24.961  28.785  1.00  0.00     0.010 A 
ATOM     44  C   UNL A   1      41.106  26.135  28.110  1.00  0.00    -0.014 A 
BRANCH  44  45
ATOM     45  C   UNL A   1      41.704  27.457  28.432  1.00  0.00     0.031 A 
ATOM     46  C   UNL A   1      43.162  27.701  28.151  1.00  0.00     0.074 A 
ATOM     47  C   UNL A   1      40.931  28.453  28.905  1.00  0.00     0.049 A 
ATOM     48  N   UNL A   1      43.887  28.762  28.400  1.00  0.00    -0.248 NA
ATOM     49  C   UNL A   1      43.903  26.606  27.507  1.00  0.00     0.031 C 
ATOM     50  C   UNL A   1      39.494  28.353  29.171  1.00  0.00     0.029 A 
ATOM     51  N   UNL A   1      41.241  29.746  29.243  1.00  0.00    -0.354 N 
ATOM     52  C   UNL A   1      45.168  28.460  27.951  1.00  0.00     0.074 A 
ATOM     53  C   UNL A   1      45.131  27.103  27.451  1.00  0.00     0.031 C 
ATOM     54  C   UNL A   1      39.050  29.534  29.630  1.00  0.00     0.029 A 
ATOM     55  C   UNL A   1      40.174  30.459  29.738  1.00  0.00     0.049 A 
ATOM     56  H   UNL A   1      42.143  30.129  29.141  1.00  0.00     0.167 HD
ATOM     57  C   UNL A   1      46.271  29.248  27.943  1.00  0.00     0.037 A 
ATOM     58  C   UNL A   1      40.115  31.704  30.250  1.00  0.00     0.037 A 
ATOM     59  C   UNL A   1      46.296  30.604  28.434  1.00  0.00     0.049 A 
ATOM     60  C   UNL A   1      41.369  32.539  30.290  1.00  0.00     0.074 A 
ATOM     61  C   UNL A   1      47.366  31.481  28.486  1.00  0.00     0.029 A 
ATOM     62  N   UNL A   1      45.201  31.282  28.951  1.00  0.00    -0.354 N 
ATOM     63  N   UNL A   1      42.578  32.233  29.881  1.00  0.00    -0.248 NA
ATOM     64  C   UNL A   1      41.250  33.890  30.854  1.00  0.00     0.031 C 
ATOM     65  C   UNL A   1      46.928  32.673  29.075  1.00  0.00     0.029 A 
ATOM     66  C   UNL A   1      45.572  32.560  29.337  1.00  0.00     0.049 A 
ATOM     67  H   UNL A   1      44.293  30.909  29.032  1.00  0.00     0.167 HD
ATOM     68  C   UNL A   1      43.358  33.360  30.118  1.00  0.00     0.074 A 
ATOM     69  C   UNL A   1      42.477  34.362  30.683  1.00  0.00     0.031 C 
ATOM     70  C   UNL A   1      44.682  33.549  29.895  1.00  0.00     0.037 A 
BRANCH  57  71
ATOM     71  C   UNL A   1      47.547  28.660  27.402  1.00  0.00     0.058 A 
ATOM     72  C   UNL A   1      47.779  28.538  26.023  1.00  0.00     0.135 A 
ATOM     73  C   UNL A   1      48.569  28.249  28.274  1.00  0.00     0.135 A 
ATOM     74  F   UNL A   1      46.830  28.897  25.143  1.00  0.00    -0.206 F 
ATOM     75  C   UNL A   1      48.967  28.009  25.527  1.00  0.00     0.059 A 
ATOM     76  C   UNL A   1      49.777  27.745  27.800  1.00  0.00     0.059 A 
ATOM     77  F   UNL A   1      48.402  28.340  29.602  1.00  0.00    -0.206 F 
ATOM     78  C   UNL A   1      49.962  27.618  26.424  1.00  0.00     0.060 A 
BRANCH  78  79
ATOM     79  S   UNL A   1      51.504  26.948  25.764  1.00  0.00     0.124 S 
ATOM     80  O   UNL A   1      51.353  25.526  26.056  1.00  0.00    -0.237 OA
ATOM     81  O   UNL A   1      51.425  27.317  24.354  1.00  0.00    -0.237 OA
ATOM     82  O   UNL A   1      52.533  27.640  26.533  1.00  0.00    -0.744 OA
ENDBRANCH  78  79
ENDBRANCH  57  71
BRANCH  58  83
ATOM     83  C   UNL A   1      38.834  32.226  30.802  1.00  0.00     0.058 A 
ATOM     84  C   UNL A   1      38.422  31.928  32.108  1.00  0.00     0.135 A 
ATOM     85  C   UNL A   1      37.985  33.026  30.018  1.00  0.00     0.135 A 
ATOM     86  F   UNL A   1      39.189  31.160  32.897  1.00  0.00    -0.206 F 
ATOM     87  C   UNL A   1      37.205  32.381  32.611  1.00  0.00     0.059 A 
ATOM     88  C   UNL A   1      36.781  33.518  30.508  1.00  0.00     0.059 A 
ATOM     89  F   UNL A   1      38.336  33.352  28.764  1.00  0.00    -0.206 F 
ATOM     90  C   UNL A   1      36.392  33.177  31.802  1.00  0.00     0.060 A 
BRANCH  90  91
ATOM     91  S   UNL A   1      34.829  33.786  32.473  1.00  0.00     0.124 S 
ATOM     92  O   UNL A   1      34.525  34.883  31.560  1.00  0.00    -0.237 OA
ATOM     93  O   UNL A   1      33.971  32.610  32.366  1.00  0.00    -0.237 OA
ATOM     94  O   UNL A   1      35.178  34.176  33.836  1.00  0.00    -0.744 OA
ENDBRANCH  90  91
ENDBRANCH  58  83
BRANCH  70  95
ATOM     95  C   UNL A   1      45.249  34.905  30.224  1.00  0.00     0.058 A 
ATOM     96  C   UNL A   1      45.331  35.927  29.264  1.00  0.00     0.135 A 
ATOM     97  C   UNL A   1      45.702  35.191  31.523  1.00  0.00     0.135 A 
ATOM     98  F   UNL A   1      44.915  35.708  28.007  1.00  0.00    -0.206 F 
ATOM     99  C   UNL A   1      45.880  37.169  29.569  1.00  0.00     0.059 A 
ATOM    100  C   UNL A   1      46.224  36.436  31.858  1.00  0.00     0.059 A 
ATOM    101  F   UNL A   1      45.635  34.256  32.483  1.00  0.00    -0.206 F 
ATOM    102  C   UNL A   1      46.327  37.412  30.868  1.00  0.00     0.060 A 
BRANCH 102 103
ATOM    103  S   UNL A   1      47.039  39.027  31.251  1.00  0.00     0.124 S 
ATOM    104  O   UNL A   1      46.360  39.884  30.284  1.00  0.00    -0.237 OA
ATOM    105  O   UNL A   1      46.653  39.216  32.647  1.00  0.00    -0.237 OA
ATOM    106  O   UNL A   1      48.467  38.832  31.022  1.00  0.00    -0.744 OA
ENDBRANCH 102 103
ENDBRANCH  70  95
ENDBRANCH  44  45
ENDBRANCH  37  39
ENDBRANCH  36  37
ENDBRANCH  35  36
ENDBRANCH  34  35
ENDBRANCH  33  34
ENDBRANCH   1  33
TORSDOF 25
ENDMDL
