MODEL 1
REMARK VINA RESULT:     -12.8      0.000      0.000
REMARK SMILES O=C(OCCOC(=O)[C@H]1Cc2c([nH]c3ccccc23)[C@@H](c2ccc(OC(F)(F)F)cc2)[NH2+]1)c1ccc(-c2c3nc(c(-c4c(F)cc(S(=O)(=O)[O-])cc4F)c4ccc([nH]4)c(-c4c(F)cc(S(=O)(=O)[O-])cc4F)c4nc(c(-c5c(F)cc(S(=O)(=O)[O-])cc5F)c5ccc2[nH]5)C=C4)C=C3)cc1
REMARK SMILES IDX 4 1 3 2 2 3 1 4 33 5 34 6 98 7 35 8 97 9 36 10 37 11 38 12
REMARK SMILES IDX 91 13 39 14 96 15 90 16 92 17 40 18 95 19 89 20 88 21 41 23
REMARK SMILES IDX 75 24 54 25 74 26 55 27 58 28 73 29 93 30 56 31 57 32 72 34
REMARK SMILES IDX 94 35 59 36 42 37 43 38 52 39 44 40 45 41 51 42 53 43 46 44
REMARK SMILES IDX 47 45 48 46 49 47 50 48 76 49 77 50 86 51 78 52 79 53 85 54
REMARK SMILES IDX 87 55 80 56 81 57 82 58 83 59 84 60 60 61 61 62 70 63 62 64
REMARK SMILES IDX 63 65 69 66 71 67 64 68 65 69 66 70 67 71 68 72 5 73 6 74
REMARK SMILES IDX 7 75 8 76 9 77 10 78 32 79 11 80 20 81 12 84 19 85 13 86
REMARK SMILES IDX 14 87 18 88 15 90 17 91 16 92 21 93 22 94 31 95 23 96 30 97
REMARK SMILES IDX 24 98 25 99 26 100 27 101 28 102 29 103
REMARK H PARENT 92 22 58 33 32 82 32 83 13 89
REMARK Flexibility Score: inf
ROOT
ATOM      1  C   UNL A   1      33.212  29.101  24.997  1.00  0.00     0.275 C 
ENDROOT
BRANCH   1   2
ATOM      2  O   UNL A   1      33.850  29.012  26.271  1.00  0.00    -0.458 OA
BRANCH   2   3
ATOM      3  C   UNL A   1      34.270  30.015  27.071  1.00  0.00     0.338 C 
ATOM      4  O   UNL A   1      33.654  31.079  27.022  1.00  0.00    -0.246 OA
BRANCH   3   5
ATOM      5  C   UNL A   1      35.500  29.946  27.938  1.00  0.00     0.060 A 
ATOM      6  C   UNL A   1      35.596  29.682  29.313  1.00  0.00     0.016 A 
ATOM      7  C   UNL A   1      36.701  30.078  27.243  1.00  0.00     0.016 A 
ATOM      8  C   UNL A   1      36.826  29.386  29.934  1.00  0.00     0.010 A 
ATOM      9  C   UNL A   1      37.911  29.770  27.860  1.00  0.00     0.010 A 
ATOM     10  C   UNL A   1      38.003  29.367  29.195  1.00  0.00    -0.014 A 
BRANCH  10  11
ATOM     11  C   UNL A   1      39.325  29.001  29.784  1.00  0.00     0.031 A 
ATOM     12  C   UNL A   1      39.821  29.765  30.990  1.00  0.00     0.074 A 
ATOM     13  C   UNL A   1      40.133  28.085  29.200  1.00  0.00     0.049 A 
ATOM     14  N   UNL A   1      40.980  29.699  31.593  1.00  0.00    -0.248 NA
ATOM     15  C   UNL A   1      38.938  30.817  31.525  1.00  0.00     0.031 C 
ATOM     16  C   UNL A   1      39.879  27.390  27.933  1.00  0.00     0.029 A 
ATOM     17  N   UNL A   1      41.354  27.585  29.594  1.00  0.00    -0.354 N 
ATOM     18  C   UNL A   1      40.946  30.708  32.548  1.00  0.00     0.074 A 
ATOM     19  C   UNL A   1      39.769  31.500  32.292  1.00  0.00     0.031 C 
ATOM     20  C   UNL A   1      40.887  26.534  27.680  1.00  0.00     0.029 A 
ATOM     21  C   UNL A   1      41.860  26.606  28.764  1.00  0.00     0.049 A 
ATOM     22  H   UNL A   1      41.825  27.898  30.400  1.00  0.00     0.167 HD
ATOM     23  C   UNL A   1      41.729  30.883  33.637  1.00  0.00     0.037 A 
ATOM     24  C   UNL A   1      42.962  25.835  28.894  1.00  0.00     0.037 A 
ATOM     25  C   UNL A   1      42.821  30.015  33.962  1.00  0.00     0.049 A 
ATOM     26  C   UNL A   1      43.797  25.990  30.146  1.00  0.00     0.074 A 
ATOM     27  C   UNL A   1      43.628  30.022  35.083  1.00  0.00     0.029 A 
ATOM     28  N   UNL A   1      43.232  28.955  33.169  1.00  0.00    -0.354 N 
ATOM     29  N   UNL A   1      43.664  26.856  31.124  1.00  0.00    -0.248 NA
ATOM     30  C   UNL A   1      44.903  25.040  30.337  1.00  0.00     0.031 C 
ATOM     31  C   UNL A   1      44.541  28.970  34.958  1.00  0.00     0.029 A 
ATOM     32  C   UNL A   1      44.277  28.291  33.778  1.00  0.00     0.049 A 
ATOM     33  H   UNL A   1      42.837  28.712  32.300  1.00  0.00     0.167 HD
ATOM     34  C   UNL A   1      44.638  26.527  32.062  1.00  0.00     0.074 A 
ATOM     35  C   UNL A   1      45.342  25.373  31.542  1.00  0.00     0.031 C 
ATOM     36  C   UNL A   1      44.930  27.122  33.246  1.00  0.00     0.037 A 
BRANCH  23  37
ATOM     37  C   UNL A   1      41.327  31.970  34.595  1.00  0.00     0.058 A 
ATOM     38  C   UNL A   1      40.398  31.717  35.625  1.00  0.00     0.135 A 
ATOM     39  C   UNL A   1      41.828  33.273  34.476  1.00  0.00     0.135 A 
ATOM     40  F   UNL A   1      39.867  30.492  35.771  1.00  0.00    -0.206 F 
ATOM     41  C   UNL A   1      39.939  32.727  36.458  1.00  0.00     0.059 A 
ATOM     42  C   UNL A   1      41.412  34.293  35.329  1.00  0.00     0.059 A 
ATOM     43  F   UNL A   1      42.715  33.572  33.513  1.00  0.00    -0.206 F 
ATOM     44  C   UNL A   1      40.452  34.014  36.303  1.00  0.00     0.060 A 
BRANCH  44  45
ATOM     45  S   UNL A   1      39.850  35.309  37.404  1.00  0.00     0.124 S 
ATOM     46  O   UNL A   1      40.975  35.451  38.326  1.00  0.00    -0.237 OA
ATOM     47  O   UNL A   1      39.646  36.426  36.483  1.00  0.00    -0.237 OA
ATOM     48  O   UNL A   1      38.639  34.737  37.972  1.00  0.00    -0.744 OA
ENDBRANCH  44  45
ENDBRANCH  23  37
BRANCH  24  49
ATOM     49  C   UNL A   1      43.306  24.785  27.886  1.00  0.00     0.058 A 
ATOM     50  C   UNL A   1      42.816  23.474  28.010  1.00  0.00     0.135 A 
ATOM     51  C   UNL A   1      44.171  25.047  26.811  1.00  0.00     0.135 A 
ATOM     52  F   UNL A   1      41.987  23.164  29.018  1.00  0.00    -0.206 F 
ATOM     53  C   UNL A   1      43.204  22.454  27.144  1.00  0.00     0.059 A 
ATOM     54  C   UNL A   1      44.553  24.050  25.913  1.00  0.00     0.059 A 
ATOM     55  F   UNL A   1      44.656  26.285  26.627  1.00  0.00    -0.206 F 
ATOM     56  C   UNL A   1      44.081  22.751  26.100  1.00  0.00     0.060 A 
BRANCH  56  57
ATOM     57  S   UNL A   1      44.574  21.418  24.982  1.00  0.00     0.124 S 
ATOM     58  O   UNL A   1      45.921  21.118  25.456  1.00  0.00    -0.237 OA
ATOM     59  O   UNL A   1      43.561  20.402  25.252  1.00  0.00    -0.237 OA
ATOM     60  O   UNL A   1      44.494  22.038  23.662  1.00  0.00    -0.744 OA
ENDBRANCH  56  57
ENDBRANCH  24  49
BRANCH  36  61
ATOM     61  C   UNL A   1      46.017  26.510  34.082  1.00  0.00     0.058 A 
ATOM     62  C   UNL A   1      45.748  25.493  35.009  1.00  0.00     0.135 A 
ATOM     63  C   UNL A   1      47.354  26.898  33.896  1.00  0.00     0.135 A 
ATOM     64  F   UNL A   1      44.486  25.088  35.220  1.00  0.00    -0.206 F 
ATOM     65  C   UNL A   1      46.765  24.899  35.745  1.00  0.00     0.059 A 
ATOM     66  C   UNL A   1      48.391  26.295  34.598  1.00  0.00     0.059 A 
ATOM     67  F   UNL A   1      47.664  27.856  33.008  1.00  0.00    -0.206 F 
ATOM     68  C   UNL A   1      48.085  25.305  35.531  1.00  0.00     0.060 A 
BRANCH  68  69
ATOM     69  S   UNL A   1      49.398  24.500  36.468  1.00  0.00     0.124 S 
ATOM     70  O   UNL A   1      49.328  23.135  35.954  1.00  0.00    -0.237 OA
ATOM     71  O   UNL A   1      50.577  25.266  36.075  1.00  0.00    -0.237 OA
ATOM     72  O   UNL A   1      48.980  24.672  37.856  1.00  0.00    -0.744 OA
ENDBRANCH  68  69
ENDBRANCH  36  61
ENDBRANCH  10  11
ENDBRANCH   3   5
ENDBRANCH   2   3
ENDBRANCH   1   2
BRANCH   1  73
ATOM     73  C   UNL A   1      33.685  28.061  23.975  1.00  0.00     0.274 C 
BRANCH  73  74
ATOM     74  O   UNL A   1      32.780  26.954  23.754  1.00  0.00    -0.458 OA
BRANCH  74  75
ATOM     75  C   UNL A   1      32.828  25.950  24.687  1.00  0.00     0.365 C 
ATOM     76  O   UNL A   1      32.181  25.976  25.728  1.00  0.00    -0.245 OA
BRANCH  75  77
ATOM     77  C   UNL A   1      33.857  24.852  24.318  1.00  0.00     0.298 C 
ATOM     78  C   UNL A   1      34.864  24.774  25.486  1.00  0.00     0.115 C 
ATOM     79  N   UNL A   1      33.198  23.535  24.060  1.00  0.00    -0.323 N 
ATOM     80  C   UNL A   1      35.788  23.638  25.263  1.00  0.00    -0.006 A 
ATOM     81  C   UNL A   1      34.108  22.382  23.790  1.00  0.00     0.262 C 
ATOM     82  H   UNL A   1      32.588  23.647  23.249  1.00  0.00     0.347 HD
ATOM     83  H   UNL A   1      32.710  23.301  24.924  1.00  0.00     0.347 HD
ATOM     84  C   UNL A   1      35.412  22.564  24.490  1.00  0.00     0.083 A 
ATOM     85  C   UNL A   1      37.091  23.394  25.749  1.00  0.00     0.003 A 
ATOM     86  N   UNL A   1      36.457  21.681  24.454  1.00  0.00    -0.353 N 
ATOM     87  C   UNL A   1      37.484  22.153  25.243  1.00  0.00     0.046 A 
ATOM     88  C   UNL A   1      37.972  24.109  26.579  1.00  0.00     0.010 A 
ATOM     89  H   UNL A   1      36.473  20.839  23.945  1.00  0.00     0.166 HD
ATOM     90  C   UNL A   1      38.724  21.581  25.545  1.00  0.00     0.026 A 
ATOM     91  C   UNL A   1      39.215  23.552  26.886  1.00  0.00     0.001 A 
ATOM     92  C   UNL A   1      39.581  22.306  26.380  1.00  0.00     0.002 A 
BRANCH  81  93
ATOM     93  C   UNL A   1      33.422  21.060  24.175  1.00  0.00     0.016 A 
ATOM     94  C   UNL A   1      32.783  20.254  23.220  1.00  0.00     0.014 A 
ATOM     95  C   UNL A   1      33.426  20.593  25.499  1.00  0.00     0.014 A 
ATOM     96  C   UNL A   1      32.246  19.007  23.566  1.00  0.00     0.047 A 
ATOM     97  C   UNL A   1      32.974  19.304  25.831  1.00  0.00     0.047 A 
ATOM     98  C   UNL A   1      32.399  18.497  24.855  1.00  0.00     0.129 A 
BRANCH  98  99
ATOM     99  O   UNL A   1      31.889  17.246  25.059  1.00  0.00    -0.406 OA
BRANCH  99 100
ATOM    100  C   UNL A   1      32.831  16.180  25.094  1.00  0.00     0.573 C 
ATOM    101  F   UNL A   1      33.474  16.051  23.914  1.00  0.00    -0.132 F 
ATOM    102  F   UNL A   1      33.727  16.349  26.086  1.00  0.00    -0.132 F 
ATOM    103  F   UNL A   1      32.157  15.028  25.328  1.00  0.00    -0.132 F 
ENDBRANCH  99 100
ENDBRANCH  98  99
ENDBRANCH  81  93
ENDBRANCH  75  77
ENDBRANCH  74  75
ENDBRANCH  73  74
ENDBRANCH   1  73
TORSDOF 17
ENDMDL
MODEL 2
REMARK VINA RESULT:     -12.7      5.371     10.668
REMARK SMILES O=C(OCCOC(=O)[C@H]1Cc2c([nH]c3ccccc23)[C@@H](c2ccc(OC(F)(F)F)cc2)[NH2+]1)c1ccc(-c2c3nc(c(-c4c(F)cc(S(=O)(=O)[O-])cc4F)c4ccc([nH]4)c(-c4c(F)cc(S(=O)(=O)[O-])cc4F)c4nc(c(-c5c(F)cc(S(=O)(=O)[O-])cc5F)c5ccc2[nH]5)C=C4)C=C3)cc1
REMARK SMILES IDX 4 1 3 2 2 3 1 4 33 5 34 6 98 7 35 8 97 9 36 10 37 11 38 12
REMARK SMILES IDX 91 13 39 14 96 15 90 16 92 17 40 18 95 19 89 20 88 21 41 23
REMARK SMILES IDX 75 24 54 25 74 26 55 27 58 28 73 29 93 30 56 31 57 32 72 34
REMARK SMILES IDX 94 35 59 36 42 37 43 38 52 39 44 40 45 41 51 42 53 43 46 44
REMARK SMILES IDX 47 45 48 46 49 47 50 48 76 49 77 50 86 51 78 52 79 53 85 54
REMARK SMILES IDX 87 55 80 56 81 57 82 58 83 59 84 60 60 61 61 62 70 63 62 64
REMARK SMILES IDX 63 65 69 66 71 67 64 68 65 69 66 70 67 71 68 72 5 73 6 74
REMARK SMILES IDX 7 75 8 76 9 77 10 78 32 79 11 80 20 81 12 84 19 85 13 86
REMARK SMILES IDX 14 87 18 88 15 90 17 91 16 92 21 93 22 94 31 95 23 96 30 97
REMARK SMILES IDX 24 98 25 99 26 100 27 101 28 102 29 103
REMARK H PARENT 92 22 58 33 32 82 32 83 13 89
REMARK Flexibility Score: inf
ROOT
ATOM      1  C   UNL A   1      36.423  22.126  25.724  1.00  0.00     0.275 C 
ENDROOT
BRANCH   1   2
ATOM      2  O   UNL A   1      37.776  22.259  25.286  1.00  0.00    -0.458 OA
BRANCH   2   3
ATOM      3  C   UNL A   1      38.905  22.208  26.024  1.00  0.00     0.338 C 
ATOM      4  O   UNL A   1      39.501  21.132  26.079  1.00  0.00    -0.246 OA
BRANCH   3   5
ATOM      5  C   UNL A   1      39.421  23.349  26.860  1.00  0.00     0.060 A 
ATOM      6  C   UNL A   1      40.459  23.351  27.805  1.00  0.00     0.016 A 
ATOM      7  C   UNL A   1      38.832  24.580  26.579  1.00  0.00     0.016 A 
ATOM      8  C   UNL A   1      41.006  24.547  28.312  1.00  0.00     0.010 A 
ATOM      9  C   UNL A   1      39.387  25.758  27.072  1.00  0.00     0.010 A 
ATOM     10  C   UNL A   1      40.512  25.779  27.902  1.00  0.00    -0.014 A 
BRANCH  10  11
ATOM     11  C   UNL A   1      41.089  27.078  28.358  1.00  0.00     0.031 A 
ATOM     12  C   UNL A   1      42.582  27.286  28.257  1.00  0.00     0.074 A 
ATOM     13  C   UNL A   1      40.327  28.022  28.959  1.00  0.00     0.049 A 
ATOM     14  N   UNL A   1      43.313  28.279  28.695  1.00  0.00    -0.248 NA
ATOM     15  C   UNL A   1      43.374  26.184  27.680  1.00  0.00     0.031 C 
ATOM     16  C   UNL A   1      38.903  27.899  29.294  1.00  0.00     0.029 A 
ATOM     17  N   UNL A   1      40.650  29.281  29.412  1.00  0.00    -0.354 N 
ATOM     18  C   UNL A   1      44.625  27.893  28.455  1.00  0.00     0.074 A 
ATOM     19  C   UNL A   1      44.599  26.509  28.054  1.00  0.00     0.031 C 
ATOM     20  C   UNL A   1      38.474  29.044  29.859  1.00  0.00     0.029 A 
ATOM     21  C   UNL A   1      39.583  29.991  29.924  1.00  0.00     0.049 A 
ATOM     22  H   UNL A   1      41.564  29.645  29.373  1.00  0.00     0.167 HD
ATOM     23  C   UNL A   1      45.747  28.649  28.418  1.00  0.00     0.037 A 
ATOM     24  C   UNL A   1      39.511  31.269  30.355  1.00  0.00     0.037 A 
ATOM     25  C   UNL A   1      45.751  30.055  28.689  1.00  0.00     0.049 A 
ATOM     26  C   UNL A   1      40.752  32.128  30.250  1.00  0.00     0.074 A 
ATOM     27  C   UNL A   1      46.795  30.953  28.590  1.00  0.00     0.029 A 
ATOM     28  N   UNL A   1      44.631  30.772  29.082  1.00  0.00    -0.354 N 
ATOM     29  N   UNL A   1      41.963  31.786  29.874  1.00  0.00    -0.248 NA
ATOM     30  C   UNL A   1      40.612  33.553  30.583  1.00  0.00     0.031 C 
ATOM     31  C   UNL A   1      46.308  32.217  28.940  1.00  0.00     0.029 A 
ATOM     32  C   UNL A   1      44.954  32.107  29.222  1.00  0.00     0.049 A 
ATOM     33  H   UNL A   1      43.738  30.387  29.238  1.00  0.00     0.167 HD
ATOM     34  C   UNL A   1      42.713  32.957  29.884  1.00  0.00     0.074 A 
ATOM     35  C   UNL A   1      41.816  34.021  30.287  1.00  0.00     0.031 C 
ATOM     36  C   UNL A   1      44.024  33.144  29.590  1.00  0.00     0.037 A 
BRANCH  23  37
ATOM     37  C   UNL A   1      47.004  27.975  27.942  1.00  0.00     0.058 A 
ATOM     38  C   UNL A   1      47.890  27.371  28.856  1.00  0.00     0.135 A 
ATOM     39  C   UNL A   1      47.356  27.957  26.585  1.00  0.00     0.135 A 
ATOM     40  F   UNL A   1      47.615  27.379  30.171  1.00  0.00    -0.206 F 
ATOM     41  C   UNL A   1      49.102  26.831  28.450  1.00  0.00     0.059 A 
ATOM     42  C   UNL A   1      48.549  27.383  26.151  1.00  0.00     0.059 A 
ATOM     43  F   UNL A   1      46.550  28.518  25.670  1.00  0.00    -0.206 F 
ATOM     44  C   UNL A   1      49.423  26.841  27.094  1.00  0.00     0.060 A 
BRANCH  44  45
ATOM     45  S   UNL A   1      50.998  26.123  26.587  1.00  0.00     0.124 S 
ATOM     46  O   UNL A   1      50.882  24.766  27.116  1.00  0.00    -0.237 OA
ATOM     47  O   UNL A   1      50.934  26.238  25.131  1.00  0.00    -0.237 OA
ATOM     48  O   UNL A   1      51.984  26.971  27.239  1.00  0.00    -0.744 OA
ENDBRANCH  44  45
ENDBRANCH  23  37
BRANCH  24  49
ATOM     49  C   UNL A   1      38.224  31.862  30.833  1.00  0.00     0.058 A 
ATOM     50  C   UNL A   1      37.411  32.619  29.971  1.00  0.00     0.135 A 
ATOM     51  C   UNL A   1      37.803  31.737  32.167  1.00  0.00     0.135 A 
ATOM     52  F   UNL A   1      37.764  32.775  28.686  1.00  0.00    -0.206 F 
ATOM     53  C   UNL A   1      36.262  33.268  30.419  1.00  0.00     0.059 A 
ATOM     54  C   UNL A   1      36.641  32.354  32.633  1.00  0.00     0.059 A 
ATOM     55  F   UNL A   1      38.525  31.011  33.033  1.00  0.00    -0.206 F 
ATOM     56  C   UNL A   1      35.888  33.135  31.756  1.00  0.00     0.060 A 
BRANCH  56  57
ATOM     57  S   UNL A   1      34.393  33.980  32.322  1.00  0.00     0.124 S 
ATOM     58  O   UNL A   1      33.795  34.401  31.060  1.00  0.00    -0.237 OA
ATOM     59  O   UNL A   1      33.692  32.917  33.037  1.00  0.00    -0.237 OA
ATOM     60  O   UNL A   1      34.912  35.055  33.164  1.00  0.00    -0.744 OA
ENDBRANCH  56  57
ENDBRANCH  24  49
BRANCH  36  61
ATOM     61  C   UNL A   1      44.555  34.548  29.641  1.00  0.00     0.058 A 
ATOM     62  C   UNL A   1      44.500  35.396  28.527  1.00  0.00     0.135 A 
ATOM     63  C   UNL A   1      45.058  35.070  30.844  1.00  0.00     0.135 A 
ATOM     64  F   UNL A   1      44.027  34.943  27.355  1.00  0.00    -0.206 F 
ATOM     65  C   UNL A   1      44.950  36.709  28.595  1.00  0.00     0.059 A 
ATOM     66  C   UNL A   1      45.483  36.388  30.944  1.00  0.00     0.059 A 
ATOM     67  F   UNL A   1      45.116  34.301  31.944  1.00  0.00    -0.206 F 
ATOM     68  C   UNL A   1      45.438  37.197  29.809  1.00  0.00     0.060 A 
BRANCH  68  69
ATOM     69  S   UNL A   1      45.986  38.913  29.891  1.00  0.00     0.124 S 
ATOM     70  O   UNL A   1      46.989  38.950  28.831  1.00  0.00    -0.237 OA
ATOM     71  O   UNL A   1      44.753  39.647  29.625  1.00  0.00    -0.237 OA
ATOM     72  O   UNL A   1      46.503  39.039  31.251  1.00  0.00    -0.744 OA
ENDBRANCH  68  69
ENDBRANCH  36  61
ENDBRANCH  10  11
ENDBRANCH   3   5
ENDBRANCH   2   3
ENDBRANCH   1   2
BRANCH   1  73
ATOM     73  C   UNL A   1      35.380  22.660  24.734  1.00  0.00     0.274 C 
BRANCH  73  74
ATOM     74  O   UNL A   1      34.789  23.933  25.084  1.00  0.00    -0.458 OA
BRANCH  74  75
ATOM     75  C   UNL A   1      33.440  24.043  24.864  1.00  0.00     0.365 C 
ATOM     76  O   UNL A   1      32.810  23.251  24.173  1.00  0.00    -0.245 OA
BRANCH  75  77
ATOM     77  C   UNL A   1      32.842  25.323  25.501  1.00  0.00     0.298 C 
ATOM     78  C   UNL A   1      33.992  26.349  25.604  1.00  0.00     0.115 C 
ATOM     79  N   UNL A   1      31.691  25.854  24.709  1.00  0.00    -0.323 N 
ATOM     80  C   UNL A   1      33.452  27.648  26.066  1.00  0.00    -0.006 A 
ATOM     81  C   UNL A   1      31.101  27.142  25.182  1.00  0.00     0.262 C 
ATOM     82  H   UNL A   1      30.952  25.149  24.725  1.00  0.00     0.347 HD
ATOM     83  H   UNL A   1      32.066  26.049  23.781  1.00  0.00     0.347 HD
ATOM     84  C   UNL A   1      32.134  27.979  25.855  1.00  0.00     0.083 A 
ATOM     85  C   UNL A   1      34.078  28.732  26.719  1.00  0.00     0.003 A 
ATOM     86  N   UNL A   1      31.919  29.221  26.390  1.00  0.00    -0.353 N 
ATOM     87  C   UNL A   1      33.102  29.714  26.897  1.00  0.00     0.046 A 
ATOM     88  C   UNL A   1      35.387  28.974  27.170  1.00  0.00     0.010 A 
ATOM     89  H   UNL A   1      31.053  29.689  26.410  1.00  0.00     0.166 HD
ATOM     90  C   UNL A   1      33.381  30.946  27.496  1.00  0.00     0.026 A 
ATOM     91  C   UNL A   1      35.680  30.199  27.774  1.00  0.00     0.001 A 
ATOM     92  C   UNL A   1      34.692  31.170  27.929  1.00  0.00     0.002 A 
BRANCH  81  93
ATOM     93  C   UNL A   1      30.427  27.881  24.012  1.00  0.00     0.016 A 
ATOM     94  C   UNL A   1      29.043  27.812  23.795  1.00  0.00     0.014 A 
ATOM     95  C   UNL A   1      31.170  28.675  23.124  1.00  0.00     0.014 A 
ATOM     96  C   UNL A   1      28.428  28.565  22.785  1.00  0.00     0.047 A 
ATOM     97  C   UNL A   1      30.548  29.503  22.174  1.00  0.00     0.047 A 
ATOM     98  C   UNL A   1      29.167  29.465  22.016  1.00  0.00     0.129 A 
BRANCH  98  99
ATOM     99  O   UNL A   1      28.451  30.189  21.106  1.00  0.00    -0.406 OA
BRANCH  99 100
ATOM    100  C   UNL A   1      28.145  31.530  21.468  1.00  0.00     0.573 C 
ATOM    101  F   UNL A   1      27.355  31.577  22.562  1.00  0.00    -0.132 F 
ATOM    102  F   UNL A   1      29.265  32.248  21.683  1.00  0.00    -0.132 F 
ATOM    103  F   UNL A   1      27.470  32.102  20.442  1.00  0.00    -0.132 F 
ENDBRANCH  99 100
ENDBRANCH  98  99
ENDBRANCH  81  93
ENDBRANCH  75  77
ENDBRANCH  74  75
ENDBRANCH  73  74
ENDBRANCH   1  73
TORSDOF 17
ENDMDL
MODEL 3
REMARK VINA RESULT:     -12.4      4.356      8.684
REMARK SMILES O=C(OCCOC(=O)[C@H]1Cc2c([nH]c3ccccc23)[C@@H](c2ccc(OC(F)(F)F)cc2)[NH2+]1)c1ccc(-c2c3nc(c(-c4c(F)cc(S(=O)(=O)[O-])cc4F)c4ccc([nH]4)c(-c4c(F)cc(S(=O)(=O)[O-])cc4F)c4nc(c(-c5c(F)cc(S(=O)(=O)[O-])cc5F)c5ccc2[nH]5)C=C4)C=C3)cc1
REMARK SMILES IDX 4 1 3 2 2 3 1 4 33 5 34 6 98 7 35 8 97 9 36 10 37 11 38 12
REMARK SMILES IDX 91 13 39 14 96 15 90 16 92 17 40 18 95 19 89 20 88 21 41 23
REMARK SMILES IDX 75 24 54 25 74 26 55 27 58 28 73 29 93 30 56 31 57 32 72 34
REMARK SMILES IDX 94 35 59 36 42 37 43 38 52 39 44 40 45 41 51 42 53 43 46 44
REMARK SMILES IDX 47 45 48 46 49 47 50 48 76 49 77 50 86 51 78 52 79 53 85 54
REMARK SMILES IDX 87 55 80 56 81 57 82 58 83 59 84 60 60 61 61 62 70 63 62 64
REMARK SMILES IDX 63 65 69 66 71 67 64 68 65 69 66 70 67 71 68 72 5 73 6 74
REMARK SMILES IDX 7 75 8 76 9 77 10 78 32 79 11 80 20 81 12 84 19 85 13 86
REMARK SMILES IDX 14 87 18 88 15 90 17 91 16 92 21 93 22 94 31 95 23 96 30 97
REMARK SMILES IDX 24 98 25 99 26 100 27 101 28 102 29 103
REMARK H PARENT 92 22 58 33 32 82 32 83 13 89
REMARK Flexibility Score: inf
ROOT
ATOM      1  C   UNL A   1      35.918  23.137  25.902  1.00  0.00     0.275 C 
ENDROOT
BRANCH   1   2
ATOM      2  O   UNL A   1      36.998  24.063  25.785  1.00  0.00    -0.458 OA
BRANCH   2   3
ATOM      3  C   UNL A   1      38.299  23.878  26.094  1.00  0.00     0.338 C 
ATOM      4  O   UNL A   1      38.818  22.814  25.758  1.00  0.00    -0.246 OA
BRANCH   3   5
ATOM      5  C   UNL A   1      39.120  24.842  26.909  1.00  0.00     0.060 A 
ATOM      6  C   UNL A   1      40.005  25.838  26.469  1.00  0.00     0.016 A 
ATOM      7  C   UNL A   1      38.886  24.777  28.282  1.00  0.00     0.016 A 
ATOM      8  C   UNL A   1      40.496  26.837  27.333  1.00  0.00     0.010 A 
ATOM      9  C   UNL A   1      39.363  25.776  29.126  1.00  0.00     0.010 A 
ATOM     10  C   UNL A   1      40.129  26.854  28.673  1.00  0.00    -0.014 A 
BRANCH  10  11
ATOM     11  C   UNL A   1      40.568  27.920  29.621  1.00  0.00     0.031 A 
ATOM     12  C   UNL A   1      39.709  29.153  29.779  1.00  0.00     0.074 A 
ATOM     13  C   UNL A   1      41.765  27.860  30.253  1.00  0.00     0.049 A 
ATOM     14  N   UNL A   1      39.948  30.249  30.451  1.00  0.00    -0.248 NA
ATOM     15  C   UNL A   1      38.463  29.205  28.993  1.00  0.00     0.031 C 
ATOM     16  C   UNL A   1      42.789  26.825  30.069  1.00  0.00     0.029 A 
ATOM     17  N   UNL A   1      42.334  28.705  31.179  1.00  0.00    -0.354 N 
ATOM     18  C   UNL A   1      38.893  31.099  30.142  1.00  0.00     0.074 A 
ATOM     19  C   UNL A   1      38.153  30.487  29.066  1.00  0.00     0.031 C 
ATOM     20  C   UNL A   1      43.833  27.076  30.881  1.00  0.00     0.029 A 
ATOM     21  C   UNL A   1      43.560  28.284  31.653  1.00  0.00     0.049 A 
ATOM     22  H   UNL A   1      41.903  29.538  31.479  1.00  0.00     0.167 HD
ATOM     23  C   UNL A   1      38.473  32.212  30.784  1.00  0.00     0.037 A 
ATOM     24  C   UNL A   1      44.344  28.799  32.625  1.00  0.00     0.037 A 
ATOM     25  C   UNL A   1      39.135  32.747  31.937  1.00  0.00     0.049 A 
ATOM     26  C   UNL A   1      43.838  30.006  33.383  1.00  0.00     0.074 A 
ATOM     27  C   UNL A   1      38.759  33.807  32.738  1.00  0.00     0.029 A 
ATOM     28  N   UNL A   1      40.304  32.225  32.470  1.00  0.00    -0.354 N 
ATOM     29  N   UNL A   1      42.753  30.716  33.176  1.00  0.00    -0.248 NA
ATOM     30  C   UNL A   1      44.635  30.458  34.534  1.00  0.00     0.031 C 
ATOM     31  C   UNL A   1      39.714  33.936  33.752  1.00  0.00     0.029 A 
ATOM     32  C   UNL A   1      40.662  32.935  33.599  1.00  0.00     0.049 A 
ATOM     33  H   UNL A   1      40.804  31.462  32.100  1.00  0.00     0.167 HD
ATOM     34  C   UNL A   1      42.716  31.666  34.192  1.00  0.00     0.074 A 
ATOM     35  C   UNL A   1      43.879  31.430  35.023  1.00  0.00     0.031 C 
ATOM     36  C   UNL A   1      41.808  32.648  34.422  1.00  0.00     0.037 A 
BRANCH  23  37
ATOM     37  C   UNL A   1      37.177  32.817  30.319  1.00  0.00     0.058 A 
ATOM     38  C   UNL A   1      37.159  33.783  29.294  1.00  0.00     0.135 A 
ATOM     39  C   UNL A   1      35.954  32.471  30.910  1.00  0.00     0.135 A 
ATOM     40  F   UNL A   1      38.304  34.170  28.708  1.00  0.00    -0.206 F 
ATOM     41  C   UNL A   1      35.988  34.425  28.916  1.00  0.00     0.059 A 
ATOM     42  C   UNL A   1      34.761  33.073  30.517  1.00  0.00     0.059 A 
ATOM     43  F   UNL A   1      35.912  31.556  31.892  1.00  0.00    -0.206 F 
ATOM     44  C   UNL A   1      34.792  34.063  29.534  1.00  0.00     0.060 A 
BRANCH  44  45
ATOM     45  S   UNL A   1      33.280  34.902  29.020  1.00  0.00     0.124 S 
ATOM     46  O   UNL A   1      32.537  34.956  30.277  1.00  0.00    -0.237 OA
ATOM     47  O   UNL A   1      33.789  36.184  28.534  1.00  0.00    -0.237 OA
ATOM     48  O   UNL A   1      32.732  34.021  28.001  1.00  0.00    -0.744 OA
ENDBRANCH  44  45
ENDBRANCH  23  37
BRANCH  24  49
ATOM     49  C   UNL A   1      45.632  28.149  33.018  1.00  0.00     0.058 A 
ATOM     50  C   UNL A   1      46.845  28.520  32.412  1.00  0.00     0.135 A 
ATOM     51  C   UNL A   1      45.678  27.110  33.961  1.00  0.00     0.135 A 
ATOM     52  F   UNL A   1      46.862  29.506  31.502  1.00  0.00    -0.206 F 
ATOM     53  C   UNL A   1      48.040  27.859  32.686  1.00  0.00     0.059 A 
ATOM     54  C   UNL A   1      46.867  26.450  34.274  1.00  0.00     0.059 A 
ATOM     55  F   UNL A   1      44.557  26.724  34.589  1.00  0.00    -0.206 F 
ATOM     56  C   UNL A   1      48.041  26.818  33.615  1.00  0.00     0.060 A 
BRANCH  56  57
ATOM     57  S   UNL A   1      49.600  25.971  33.962  1.00  0.00     0.124 S 
ATOM     58  O   UNL A   1      49.208  24.571  33.846  1.00  0.00    -0.237 OA
ATOM     59  O   UNL A   1      50.467  26.481  32.903  1.00  0.00    -0.237 OA
ATOM     60  O   UNL A   1      49.937  26.423  35.309  1.00  0.00    -0.744 OA
ENDBRANCH  56  57
ENDBRANCH  24  49
BRANCH  36  61
ATOM     61  C   UNL A   1      42.003  33.504  35.641  1.00  0.00     0.058 A 
ATOM     62  C   UNL A   1      42.699  34.719  35.582  1.00  0.00     0.135 A 
ATOM     63  C   UNL A   1      41.421  33.133  36.864  1.00  0.00     0.135 A 
ATOM     64  F   UNL A   1      43.272  35.116  34.435  1.00  0.00    -0.206 F 
ATOM     65  C   UNL A   1      42.835  35.528  36.703  1.00  0.00     0.059 A 
ATOM     66  C   UNL A   1      41.517  33.942  37.990  1.00  0.00     0.059 A 
ATOM     67  F   UNL A   1      40.731  31.986  36.966  1.00  0.00    -0.206 F 
ATOM     68  C   UNL A   1      42.239  35.132  37.903  1.00  0.00     0.060 A 
BRANCH  68  69
ATOM     69  S   UNL A   1      42.394  36.209  39.340  1.00  0.00     0.124 S 
ATOM     70  O   UNL A   1      41.791  37.444  38.846  1.00  0.00    -0.237 OA
ATOM     71  O   UNL A   1      41.628  35.490  40.354  1.00  0.00    -0.237 OA
ATOM     72  O   UNL A   1      43.835  36.263  39.571  1.00  0.00    -0.744 OA
ENDBRANCH  68  69
ENDBRANCH  36  61
ENDBRANCH  10  11
ENDBRANCH   3   5
ENDBRANCH   2   3
ENDBRANCH   1   2
BRANCH   1  73
ATOM     73  C   UNL A   1      35.120  22.926  24.609  1.00  0.00     0.274 C 
BRANCH  73  74
ATOM     74  O   UNL A   1      34.653  24.134  23.965  1.00  0.00    -0.458 OA
BRANCH  74  75
ATOM     75  C   UNL A   1      33.300  24.212  23.757  1.00  0.00     0.365 C 
ATOM     76  O   UNL A   1      32.708  23.512  22.943  1.00  0.00    -0.245 OA
BRANCH  75  77
ATOM     77  C   UNL A   1      32.641  25.343  24.587  1.00  0.00     0.298 C 
ATOM     78  C   UNL A   1      33.735  26.400  24.850  1.00  0.00     0.115 C 
ATOM     79  N   UNL A   1      31.456  25.928  23.889  1.00  0.00    -0.323 N 
ATOM     80  C   UNL A   1      33.132  27.579  25.511  1.00  0.00    -0.006 A 
ATOM     81  C   UNL A   1      30.803  27.093  24.559  1.00  0.00     0.262 C 
ATOM     82  H   UNL A   1      30.756  25.192  23.794  1.00  0.00     0.347 HD
ATOM     83  H   UNL A   1      31.812  26.287  23.003  1.00  0.00     0.347 HD
ATOM     84  C   UNL A   1      31.796  27.869  25.355  1.00  0.00     0.083 A 
ATOM     85  C   UNL A   1      33.706  28.579  26.326  1.00  0.00     0.003 A 
ATOM     86  N   UNL A   1      31.521  28.997  26.078  1.00  0.00    -0.353 N 
ATOM     87  C   UNL A   1      32.680  29.468  26.656  1.00  0.00     0.046 A 
ATOM     88  C   UNL A   1      35.004  28.818  26.809  1.00  0.00     0.010 A 
ATOM     89  H   UNL A   1      30.631  29.410  26.172  1.00  0.00     0.166 HD
ATOM     90  C   UNL A   1      32.899  30.604  27.441  1.00  0.00     0.026 A 
ATOM     91  C   UNL A   1      35.236  29.946  27.597  1.00  0.00     0.001 A 
ATOM     92  C   UNL A   1      34.200  30.826  27.903  1.00  0.00     0.002 A 
BRANCH  81  93
ATOM     93  C   UNL A   1      30.081  27.969  23.520  1.00  0.00     0.016 A 
ATOM     94  C   UNL A   1      28.681  28.025  23.447  1.00  0.00     0.014 A 
ATOM     95  C   UNL A   1      30.797  28.768  22.613  1.00  0.00     0.014 A 
ATOM     96  C   UNL A   1      28.035  28.899  22.561  1.00  0.00     0.047 A 
ATOM     97  C   UNL A   1      30.155  29.713  21.793  1.00  0.00     0.047 A 
ATOM     98  C   UNL A   1      28.767  29.794  21.780  1.00  0.00     0.129 A 
BRANCH  98  99
ATOM     99  O   UNL A   1      28.028  30.639  21.003  1.00  0.00    -0.406 OA
BRANCH  99 100
ATOM    100  C   UNL A   1      27.916  31.981  21.461  1.00  0.00     0.573 C 
ATOM    101  F   UNL A   1      27.279  32.758  20.559  1.00  0.00    -0.132 F 
ATOM    102  F   UNL A   1      27.279  32.043  22.647  1.00  0.00    -0.132 F 
ATOM    103  F   UNL A   1      29.165  32.478  21.629  1.00  0.00    -0.132 F 
ENDBRANCH  99 100
ENDBRANCH  98  99
ENDBRANCH  81  93
ENDBRANCH  75  77
ENDBRANCH  74  75
ENDBRANCH  73  74
ENDBRANCH   1  73
TORSDOF 17
ENDMDL
