MODEL 1
REMARK VINA RESULT:     -12.7      0.000      0.000
REMARK SMILES Cc1cc(NC(=O)NCc2sccc2C)ccc1C(=O)OCCOC(=O)c1ccc(-c2c3nc(c(-c4c(F)cc(S(=O)(=O)[O-])cc4F)c4ccc([nH]4)c(-c4c(F)cc(S(=O)(=O)[O-])cc4F)c4nc(c(-c5c(F)cc(S(=O)(=O)[O-])cc5F)c5ccc2[nH]5)C=C4)C=C3)cc1
REMARK SMILES IDX 22 1 21 2 19 3 20 4 18 5 1 6 2 7 3 8 4 9 17 10 16 11 5 12
REMARK SMILES IDX 6 13 7 15 8 16 9 18 10 19 11 20 14 21 12 22 13 23 15 24
REMARK SMILES IDX 23 25 24 26 25 27 26 28 27 29 28 30 92 31 29 32 91 33 30 34
REMARK SMILES IDX 31 35 32 36 85 37 33 38 90 39 84 40 86 41 34 42 89 43 83 44
REMARK SMILES IDX 82 45 35 47 69 48 48 49 68 50 49 51 52 52 67 53 87 54 50 55
REMARK SMILES IDX 51 56 66 58 88 59 53 60 36 61 37 62 46 63 38 64 39 65 45 66
REMARK SMILES IDX 47 67 40 68 41 69 42 70 43 71 44 72 70 73 71 74 80 75 72 76
REMARK SMILES IDX 73 77 79 78 81 79 74 80 75 81 76 82 77 83 78 84 54 85 55 86
REMARK SMILES IDX 64 87 56 88 57 89 63 90 65 91 58 92 59 93 60 94 61 95 62 96
REMARK H PARENT 5 14 8 17 86 46 52 57
REMARK Flexibility Score: inf
ROOT
ATOM      1  C   UNL A   1      37.826  21.840  25.119  1.00  0.00     0.275 C 
ENDROOT
BRANCH   1   2
ATOM      2  O   UNL A   1      37.332  22.912  24.311  1.00  0.00    -0.458 OA
BRANCH   2   3
ATOM      3  C   UNL A   1      36.093  22.732  23.788  1.00  0.00     0.338 C 
ATOM      4  O   UNL A   1      35.741  22.919  22.641  1.00  0.00    -0.246 OA
BRANCH   3   5
ATOM      5  C   UNL A   1      35.155  22.476  24.895  1.00  0.00     0.063 A 
ATOM      6  C   UNL A   1      35.545  24.870  25.631  1.00  0.00     0.045 C 
ATOM      7  C   UNL A   1      34.927  23.509  25.815  1.00  0.00    -0.035 A 
ATOM      8  C   UNL A   1      33.888  23.354  26.746  1.00  0.00     0.030 A 
ATOM      9  C   UNL A   1      33.004  22.274  26.642  1.00  0.00     0.043 A 
ATOM     10  C   UNL A   1      34.371  21.315  24.917  1.00  0.00     0.018 A 
ATOM     11  C   UNL A   1      33.307  21.196  25.813  1.00  0.00     0.027 A 
BRANCH   9  12
ATOM     12  N   UNL A   1      31.700  22.350  27.162  1.00  0.00    -0.308 N 
ATOM     13  C   UNL A   1      30.604  23.040  26.727  1.00  0.00     0.319 C 
ATOM     14  H   UNL A   1      31.552  21.815  27.974  1.00  0.00     0.171 HD
ATOM     15  O   UNL A   1      29.626  23.127  27.475  1.00  0.00    -0.248 OA
ATOM     16  N   UNL A   1      30.492  23.541  25.466  1.00  0.00    -0.333 N 
ATOM     17  H   UNL A   1      29.634  23.974  25.252  1.00  0.00     0.165 HD
BRANCH  16  18
ATOM     18  C   UNL A   1      31.462  23.522  24.403  1.00  0.00     0.165 C 
BRANCH  18  19
ATOM     19  C   UNL A   1      32.011  24.799  23.864  1.00  0.00     0.027 A 
ATOM     20  S   UNL A   1      32.599  24.716  22.238  1.00  0.00    -0.147 S 
ATOM     21  C   UNL A   1      32.347  26.002  24.466  1.00  0.00    -0.035 A 
ATOM     22  C   UNL A   1      33.471  26.156  22.409  1.00  0.00     0.065 A 
ATOM     23  C   UNL A   1      33.224  26.763  23.615  1.00  0.00     0.015 A 
ATOM     24  C   UNL A   1      31.960  26.454  25.830  1.00  0.00     0.045 C 
ENDBRANCH  18  19
ENDBRANCH  16  18
ENDBRANCH   9  12
ENDBRANCH   3   5
ENDBRANCH   2   3
ENDBRANCH   1   2
BRANCH   1  25
ATOM     25  C   UNL A   1      38.900  22.343  26.105  1.00  0.00     0.275 C 
BRANCH  25  26
ATOM     26  O   UNL A   1      38.747  23.631  26.751  1.00  0.00    -0.458 OA
BRANCH  26  27
ATOM     27  C   UNL A   1      39.874  24.323  27.066  1.00  0.00     0.338 C 
ATOM     28  O   UNL A   1      40.985  24.031  26.640  1.00  0.00    -0.246 OA
BRANCH  27  29
ATOM     29  C   UNL A   1      39.479  25.609  27.699  1.00  0.00     0.060 A 
ATOM     30  C   UNL A   1      39.077  25.612  29.040  1.00  0.00     0.016 A 
ATOM     31  C   UNL A   1      39.892  26.789  27.076  1.00  0.00     0.016 A 
ATOM     32  C   UNL A   1      39.257  26.755  29.813  1.00  0.00     0.010 A 
ATOM     33  C   UNL A   1      40.219  27.861  27.859  1.00  0.00     0.010 A 
ATOM     34  C   UNL A   1      39.887  27.849  29.220  1.00  0.00    -0.014 A 
BRANCH  34  35
ATOM     35  C   UNL A   1      39.906  29.181  29.797  1.00  0.00     0.031 A 
ATOM     36  C   UNL A   1      38.782  30.116  29.623  1.00  0.00     0.074 A 
ATOM     37  C   UNL A   1      40.986  29.305  30.600  1.00  0.00     0.049 A 
ATOM     38  N   UNL A   1      38.903  31.394  29.531  1.00  0.00    -0.248 NA
ATOM     39  C   UNL A   1      37.390  29.675  29.510  1.00  0.00     0.031 C 
ATOM     40  C   UNL A   1      41.376  30.285  31.586  1.00  0.00     0.029 A 
ATOM     41  N   UNL A   1      42.104  28.461  30.516  1.00  0.00    -0.354 N 
ATOM     42  C   UNL A   1      37.637  31.937  29.681  1.00  0.00     0.074 A 
ATOM     43  C   UNL A   1      36.722  30.838  29.510  1.00  0.00     0.031 C 
ATOM     44  C   UNL A   1      42.713  30.189  31.762  1.00  0.00     0.029 A 
ATOM     45  C   UNL A   1      43.227  29.212  30.797  1.00  0.00     0.049 A 
ATOM     46  H   UNL A   1      42.091  27.501  30.295  1.00  0.00     0.167 HD
ATOM     47  C   UNL A   1      37.502  33.201  30.186  1.00  0.00     0.037 A 
ATOM     48  C   UNL A   1      44.051  29.473  29.737  1.00  0.00     0.037 A 
ATOM     49  C   UNL A   1      38.818  33.654  30.625  1.00  0.00     0.049 A 
ATOM     50  C   UNL A   1      43.941  30.939  29.400  1.00  0.00     0.074 A 
ATOM     51  C   UNL A   1      39.440  33.475  31.851  1.00  0.00     0.029 A 
ATOM     52  N   UNL A   1      39.819  33.923  29.701  1.00  0.00    -0.354 N 
ATOM     53  N   UNL A   1      42.833  31.636  29.435  1.00  0.00    -0.248 NA
ATOM     54  C   UNL A   1      45.133  31.751  29.201  1.00  0.00     0.031 C 
ATOM     55  C   UNL A   1      40.838  33.532  31.636  1.00  0.00     0.029 A 
ATOM     56  C   UNL A   1      41.063  33.749  30.285  1.00  0.00     0.049 A 
ATOM     57  H   UNL A   1      39.666  34.198  28.768  1.00  0.00     0.167 HD
ATOM     58  C   UNL A   1      43.158  32.969  29.374  1.00  0.00     0.074 A 
ATOM     59  C   UNL A   1      44.604  32.983  29.209  1.00  0.00     0.031 C 
ATOM     60  C   UNL A   1      42.278  34.003  29.537  1.00  0.00     0.037 A 
BRANCH  47  61
ATOM     61  C   UNL A   1      36.206  33.841  30.654  1.00  0.00     0.058 A 
ATOM     62  C   UNL A   1      35.246  34.299  29.721  1.00  0.00     0.135 A 
ATOM     63  C   UNL A   1      35.841  34.028  32.003  1.00  0.00     0.135 A 
ATOM     64  F   UNL A   1      35.409  34.120  28.403  1.00  0.00    -0.206 F 
ATOM     65  C   UNL A   1      34.076  34.970  30.089  1.00  0.00     0.059 A 
ATOM     66  C   UNL A   1      34.686  34.721  32.398  1.00  0.00     0.059 A 
ATOM     67  F   UNL A   1      36.585  33.516  32.993  1.00  0.00    -0.206 F 
ATOM     68  C   UNL A   1      33.814  35.202  31.430  1.00  0.00     0.060 A 
BRANCH  68  69
ATOM     69  S   UNL A   1      32.324  36.122  31.870  1.00  0.00     0.124 S 
ATOM     70  O   UNL A   1      31.548  35.119  32.594  1.00  0.00    -0.237 OA
ATOM     71  O   UNL A   1      32.861  37.212  32.678  1.00  0.00    -0.237 OA
ATOM     72  O   UNL A   1      31.772  36.518  30.577  1.00  0.00    -0.744 OA
ENDBRANCH  68  69
ENDBRANCH  47  61
BRANCH  48  73
ATOM     73  C   UNL A   1      44.234  28.328  28.764  1.00  0.00     0.058 A 
ATOM     74  C   UNL A   1      43.790  28.505  27.429  1.00  0.00     0.135 A 
ATOM     75  C   UNL A   1      44.993  27.173  29.005  1.00  0.00     0.135 A 
ATOM     76  F   UNL A   1      43.032  29.568  27.111  1.00  0.00    -0.206 F 
ATOM     77  C   UNL A   1      44.172  27.668  26.381  1.00  0.00     0.059 A 
ATOM     78  C   UNL A   1      45.372  26.299  27.966  1.00  0.00     0.059 A 
ATOM     79  F   UNL A   1      45.442  26.901  30.239  1.00  0.00    -0.206 F 
ATOM     80  C   UNL A   1      44.985  26.576  26.653  1.00  0.00     0.060 A 
BRANCH  80  81
ATOM     81  S   UNL A   1      45.680  25.655  25.249  1.00  0.00     0.124 S 
ATOM     82  O   UNL A   1      46.222  26.728  24.423  1.00  0.00    -0.237 OA
ATOM     83  O   UNL A   1      46.671  24.807  25.909  1.00  0.00    -0.237 OA
ATOM     84  O   UNL A   1      44.516  24.962  24.707  1.00  0.00    -0.744 OA
ENDBRANCH  80  81
ENDBRANCH  48  73
BRANCH  60  85
ATOM     85  C   UNL A   1      42.566  35.422  29.124  1.00  0.00     0.058 A 
ATOM     86  C   UNL A   1      41.979  36.017  27.997  1.00  0.00     0.135 A 
ATOM     87  C   UNL A   1      43.323  36.286  29.954  1.00  0.00     0.135 A 
ATOM     88  F   UNL A   1      41.124  35.345  27.211  1.00  0.00    -0.206 F 
ATOM     89  C   UNL A   1      42.219  37.341  27.648  1.00  0.00     0.059 A 
ATOM     90  C   UNL A   1      43.506  37.631  29.667  1.00  0.00     0.059 A 
ATOM     91  F   UNL A   1      43.902  35.858  31.085  1.00  0.00    -0.206 F 
ATOM     92  C   UNL A   1      42.988  38.138  28.487  1.00  0.00     0.060 A 
BRANCH  92  93
ATOM     93  S   UNL A   1      43.285  39.852  28.042  1.00  0.00     0.124 S 
ATOM     94  O   UNL A   1      44.081  40.305  29.179  1.00  0.00    -0.237 OA
ATOM     95  O   UNL A   1      44.002  39.735  26.776  1.00  0.00    -0.237 OA
ATOM     96  O   UNL A   1      41.941  40.410  27.945  1.00  0.00    -0.744 OA
ENDBRANCH  92  93
ENDBRANCH  60  85
ENDBRANCH  34  35
ENDBRANCH  27  29
ENDBRANCH  26  27
ENDBRANCH  25  26
ENDBRANCH   1  25
TORSDOF 17
ENDMDL
MODEL 2
REMARK VINA RESULT:     -12.6      4.710     11.219
REMARK SMILES Cc1cc(NC(=O)NCc2sccc2C)ccc1C(=O)OCCOC(=O)c1ccc(-c2c3nc(c(-c4c(F)cc(S(=O)(=O)[O-])cc4F)c4ccc([nH]4)c(-c4c(F)cc(S(=O)(=O)[O-])cc4F)c4nc(c(-c5c(F)cc(S(=O)(=O)[O-])cc5F)c5ccc2[nH]5)C=C4)C=C3)cc1
REMARK SMILES IDX 22 1 21 2 19 3 20 4 18 5 1 6 2 7 3 8 4 9 17 10 16 11 5 12
REMARK SMILES IDX 6 13 7 15 8 16 9 18 10 19 11 20 14 21 12 22 13 23 15 24
REMARK SMILES IDX 23 25 24 26 25 27 26 28 27 29 28 30 92 31 29 32 91 33 30 34
REMARK SMILES IDX 31 35 32 36 85 37 33 38 90 39 84 40 86 41 34 42 89 43 83 44
REMARK SMILES IDX 82 45 35 47 69 48 48 49 68 50 49 51 52 52 67 53 87 54 50 55
REMARK SMILES IDX 51 56 66 58 88 59 53 60 36 61 37 62 46 63 38 64 39 65 45 66
REMARK SMILES IDX 47 67 40 68 41 69 42 70 43 71 44 72 70 73 71 74 80 75 72 76
REMARK SMILES IDX 73 77 79 78 81 79 74 80 75 81 76 82 77 83 78 84 54 85 55 86
REMARK SMILES IDX 64 87 56 88 57 89 63 90 65 91 58 92 59 93 60 94 61 95 62 96
REMARK H PARENT 5 14 8 17 86 46 52 57
REMARK Flexibility Score: inf
ROOT
ATOM      1  C   UNL A   1      33.068  29.890  27.280  1.00  0.00     0.275 C 
ENDROOT
BRANCH   1   2
ATOM      2  O   UNL A   1      32.853  28.513  27.604  1.00  0.00    -0.458 OA
BRANCH   2   3
ATOM      3  C   UNL A   1      31.958  27.857  26.824  1.00  0.00     0.338 C 
ATOM      4  O   UNL A   1      31.027  27.167  27.187  1.00  0.00    -0.246 OA
BRANCH   3   5
ATOM      5  C   UNL A   1      32.421  27.927  25.427  1.00  0.00     0.063 A 
ATOM      6  C   UNL A   1      34.212  26.247  26.053  1.00  0.00     0.045 C 
ATOM      7  C   UNL A   1      33.548  27.173  25.069  1.00  0.00    -0.035 A 
ATOM      8  C   UNL A   1      33.874  27.067  23.708  1.00  0.00     0.030 A 
ATOM      9  C   UNL A   1      32.998  27.560  22.734  1.00  0.00     0.043 A 
ATOM     10  C   UNL A   1      31.651  28.568  24.447  1.00  0.00     0.018 A 
ATOM     11  C   UNL A   1      31.955  28.410  23.093  1.00  0.00     0.027 A 
BRANCH   9  12
ATOM     12  N   UNL A   1      32.990  27.033  21.431  1.00  0.00    -0.308 N 
ATOM     13  C   UNL A   1      32.649  25.792  20.972  1.00  0.00     0.319 C 
ATOM     14  H   UNL A   1      33.276  27.665  20.733  1.00  0.00     0.171 HD
ATOM     15  O   UNL A   1      32.935  25.493  19.809  1.00  0.00    -0.248 OA
ATOM     16  N   UNL A   1      31.911  24.907  21.697  1.00  0.00    -0.333 N 
ATOM     17  H   UNL A   1      31.684  24.064  21.241  1.00  0.00     0.165 HD
BRANCH  16  18
ATOM     18  C   UNL A   1      31.417  25.040  23.042  1.00  0.00     0.165 C 
BRANCH  18  19
ATOM     19  C   UNL A   1      31.817  24.057  24.089  1.00  0.00     0.027 A 
ATOM     20  S   UNL A   1      30.800  24.024  25.490  1.00  0.00    -0.147 S 
ATOM     21  C   UNL A   1      32.964  23.300  24.276  1.00  0.00    -0.035 A 
ATOM     22  C   UNL A   1      31.967  23.204  26.400  1.00  0.00     0.065 A 
ATOM     23  C   UNL A   1      33.049  22.840  25.637  1.00  0.00     0.015 A 
ATOM     24  C   UNL A   1      34.034  23.044  23.273  1.00  0.00     0.045 C 
ENDBRANCH  18  19
ENDBRANCH  16  18
ENDBRANCH   9  12
ENDBRANCH   3   5
ENDBRANCH   2   3
ENDBRANCH   1   2
BRANCH   1  25
ATOM     25  C   UNL A   1      34.559  30.262  27.417  1.00  0.00     0.275 C 
BRANCH  25  26
ATOM     26  O   UNL A   1      35.351  29.701  28.493  1.00  0.00    -0.458 OA
BRANCH  26  27
ATOM     27  C   UNL A   1      36.496  30.345  28.842  1.00  0.00     0.338 C 
ATOM     28  O   UNL A   1      36.514  31.375  29.505  1.00  0.00    -0.246 OA
BRANCH  27  29
ATOM     29  C   UNL A   1      37.647  29.442  28.579  1.00  0.00     0.060 A 
ATOM     30  C   UNL A   1      38.712  29.905  27.798  1.00  0.00     0.016 A 
ATOM     31  C   UNL A   1      37.808  28.339  29.422  1.00  0.00     0.016 A 
ATOM     32  C   UNL A   1      39.988  29.385  27.991  1.00  0.00     0.010 A 
ATOM     33  C   UNL A   1      39.077  27.934  29.731  1.00  0.00     0.010 A 
ATOM     34  C   UNL A   1      40.161  28.444  29.005  1.00  0.00    -0.014 A 
BRANCH  34  35
ATOM     35  C   UNL A   1      41.350  27.624  29.153  1.00  0.00     0.031 A 
ATOM     36  C   UNL A   1      41.422  26.260  28.601  1.00  0.00     0.074 A 
ATOM     37  C   UNL A   1      42.342  28.367  29.691  1.00  0.00     0.049 A 
ATOM     38  N   UNL A   1      42.075  25.290  29.138  1.00  0.00    -0.248 NA
ATOM     39  C   UNL A   1      40.725  25.859  27.378  1.00  0.00     0.031 C 
ATOM     40  C   UNL A   1      43.764  28.159  29.837  1.00  0.00     0.029 A 
ATOM     41  N   UNL A   1      42.112  29.563  30.390  1.00  0.00    -0.354 N 
ATOM     42  C   UNL A   1      42.155  24.279  28.194  1.00  0.00     0.074 A 
ATOM     43  C   UNL A   1      41.180  24.611  27.188  1.00  0.00     0.031 C 
ATOM     44  C   UNL A   1      44.205  28.975  30.820  1.00  0.00     0.029 A 
ATOM     45  C   UNL A   1      43.041  29.647  31.407  1.00  0.00     0.049 A 
ATOM     46  H   UNL A   1      41.411  30.224  30.190  1.00  0.00     0.167 HD
ATOM     47  C   UNL A   1      43.209  23.408  28.228  1.00  0.00     0.037 A 
ATOM     48  C   UNL A   1      42.556  29.474  32.673  1.00  0.00     0.037 A 
ATOM     49  C   UNL A   1      44.153  23.881  29.236  1.00  0.00     0.049 A 
ATOM     50  C   UNL A   1      43.054  28.150  33.196  1.00  0.00     0.074 A 
ATOM     51  C   UNL A   1      45.196  24.783  29.101  1.00  0.00     0.029 A 
ATOM     52  N   UNL A   1      43.826  23.840  30.585  1.00  0.00    -0.354 N 
ATOM     53  N   UNL A   1      43.168  27.057  32.484  1.00  0.00    -0.248 NA
ATOM     54  C   UNL A   1      43.652  28.048  34.520  1.00  0.00     0.031 C 
ATOM     55  C   UNL A   1      45.426  25.368  30.370  1.00  0.00     0.029 A 
ATOM     56  C   UNL A   1      44.526  24.820  31.271  1.00  0.00     0.049 A 
ATOM     57  H   UNL A   1      43.192  23.208  30.994  1.00  0.00     0.167 HD
ATOM     58  C   UNL A   1      43.930  26.158  33.190  1.00  0.00     0.074 A 
ATOM     59  C   UNL A   1      44.188  26.819  34.461  1.00  0.00     0.031 C 
ATOM     60  C   UNL A   1      44.389  24.964  32.707  1.00  0.00     0.037 A 
BRANCH  47  61
ATOM     61  C   UNL A   1      43.587  22.421  27.136  1.00  0.00     0.058 A 
ATOM     62  C   UNL A   1      42.803  21.269  26.897  1.00  0.00     0.135 A 
ATOM     63  C   UNL A   1      44.702  22.553  26.284  1.00  0.00     0.135 A 
ATOM     64  F   UNL A   1      41.666  21.044  27.570  1.00  0.00    -0.206 F 
ATOM     65  C   UNL A   1      43.146  20.285  25.965  1.00  0.00     0.059 A 
ATOM     66  C   UNL A   1      45.083  21.568  25.358  1.00  0.00     0.059 A 
ATOM     67  F   UNL A   1      45.452  23.664  26.299  1.00  0.00    -0.206 F 
ATOM     68  C   UNL A   1      44.303  20.427  25.216  1.00  0.00     0.060 A 
BRANCH  68  69
ATOM     69  S   UNL A   1      44.750  19.112  24.063  1.00  0.00     0.124 S 
ATOM     70  O   UNL A   1      43.839  18.040  24.454  1.00  0.00    -0.237 OA
ATOM     71  O   UNL A   1      44.482  19.730  22.769  1.00  0.00    -0.237 OA
ATOM     72  O   UNL A   1      46.159  18.864  24.356  1.00  0.00    -0.744 OA
ENDBRANCH  68  69
ENDBRANCH  47  61
BRANCH  48  73
ATOM     73  C   UNL A   1      41.206  30.107  32.940  1.00  0.00     0.058 A 
ATOM     74  C   UNL A   1      41.163  31.491  33.243  1.00  0.00     0.135 A 
ATOM     75  C   UNL A   1      39.965  29.494  32.711  1.00  0.00     0.135 A 
ATOM     76  F   UNL A   1      42.301  32.156  33.505  1.00  0.00    -0.206 F 
ATOM     77  C   UNL A   1      39.990  32.244  33.202  1.00  0.00     0.059 A 
ATOM     78  C   UNL A   1      38.763  30.230  32.688  1.00  0.00     0.059 A 
ATOM     79  F   UNL A   1      39.895  28.183  32.439  1.00  0.00    -0.206 F 
ATOM     80  C   UNL A   1      38.792  31.610  32.900  1.00  0.00     0.060 A 
BRANCH  80  81
ATOM     81  S   UNL A   1      37.329  32.643  32.597  1.00  0.00     0.124 S 
ATOM     82  O   UNL A   1      36.264  31.649  32.533  1.00  0.00    -0.237 OA
ATOM     83  O   UNL A   1      37.318  33.501  33.781  1.00  0.00    -0.237 OA
ATOM     84  O   UNL A   1      37.654  33.307  31.339  1.00  0.00    -0.744 OA
ENDBRANCH  80  81
ENDBRANCH  48  73
BRANCH  60  85
ATOM     85  C   UNL A   1      44.907  23.850  33.579  1.00  0.00     0.058 A 
ATOM     86  C   UNL A   1      46.255  23.746  33.955  1.00  0.00     0.135 A 
ATOM     87  C   UNL A   1      44.020  22.939  34.203  1.00  0.00     0.135 A 
ATOM     88  F   UNL A   1      47.170  24.638  33.548  1.00  0.00    -0.206 F 
ATOM     89  C   UNL A   1      46.714  22.739  34.794  1.00  0.00     0.059 A 
ATOM     90  C   UNL A   1      44.447  21.978  35.108  1.00  0.00     0.059 A 
ATOM     91  F   UNL A   1      42.700  22.957  33.969  1.00  0.00    -0.206 F 
ATOM     92  C   UNL A   1      45.803  21.856  35.362  1.00  0.00     0.060 A 
BRANCH  92  93
ATOM     93  S   UNL A   1      46.396  20.563  36.457  1.00  0.00     0.124 S 
ATOM     94  O   UNL A   1      45.972  21.076  37.756  1.00  0.00    -0.237 OA
ATOM     95  O   UNL A   1      45.681  19.384  35.979  1.00  0.00    -0.237 OA
ATOM     96  O   UNL A   1      47.835  20.555  36.216  1.00  0.00    -0.744 OA
ENDBRANCH  92  93
ENDBRANCH  60  85
ENDBRANCH  34  35
ENDBRANCH  27  29
ENDBRANCH  26  27
ENDBRANCH  25  26
ENDBRANCH   1  25
TORSDOF 17
ENDMDL
MODEL 3
REMARK VINA RESULT:     -12.6      2.006      2.963
REMARK SMILES Cc1cc(NC(=O)NCc2sccc2C)ccc1C(=O)OCCOC(=O)c1ccc(-c2c3nc(c(-c4c(F)cc(S(=O)(=O)[O-])cc4F)c4ccc([nH]4)c(-c4c(F)cc(S(=O)(=O)[O-])cc4F)c4nc(c(-c5c(F)cc(S(=O)(=O)[O-])cc5F)c5ccc2[nH]5)C=C4)C=C3)cc1
REMARK SMILES IDX 22 1 21 2 19 3 20 4 18 5 1 6 2 7 3 8 4 9 17 10 16 11 5 12
REMARK SMILES IDX 6 13 7 15 8 16 9 18 10 19 11 20 14 21 12 22 13 23 15 24
REMARK SMILES IDX 23 25 24 26 25 27 26 28 27 29 28 30 92 31 29 32 91 33 30 34
REMARK SMILES IDX 31 35 32 36 85 37 33 38 90 39 84 40 86 41 34 42 89 43 83 44
REMARK SMILES IDX 82 45 35 47 69 48 48 49 68 50 49 51 52 52 67 53 87 54 50 55
REMARK SMILES IDX 51 56 66 58 88 59 53 60 36 61 37 62 46 63 38 64 39 65 45 66
REMARK SMILES IDX 47 67 40 68 41 69 42 70 43 71 44 72 70 73 71 74 80 75 72 76
REMARK SMILES IDX 73 77 79 78 81 79 74 80 75 81 76 82 77 83 78 84 54 85 55 86
REMARK SMILES IDX 64 87 56 88 57 89 63 90 65 91 58 92 59 93 60 94 61 95 62 96
REMARK H PARENT 5 14 8 17 86 46 52 57
REMARK Flexibility Score: inf
ROOT
ATOM      1  C   UNL A   1      36.495  23.259  25.832  1.00  0.00     0.275 C 
ENDROOT
BRANCH   1   2
ATOM      2  O   UNL A   1      35.154  23.391  26.314  1.00  0.00    -0.458 OA
BRANCH   2   3
ATOM      3  C   UNL A   1      34.190  23.444  25.361  1.00  0.00     0.338 C 
ATOM      4  O   UNL A   1      33.973  22.633  24.484  1.00  0.00    -0.246 OA
BRANCH   3   5
ATOM      5  C   UNL A   1      33.562  24.776  25.410  1.00  0.00     0.063 A 
ATOM      6  C   UNL A   1      31.748  23.745  26.848  1.00  0.00     0.045 C 
ATOM      7  C   UNL A   1      32.348  24.905  26.099  1.00  0.00    -0.035 A 
ATOM      8  C   UNL A   1      31.847  26.196  26.330  1.00  0.00     0.030 A 
ATOM      9  C   UNL A   1      32.626  27.318  26.027  1.00  0.00     0.043 A 
ATOM     10  C   UNL A   1      34.247  25.910  24.953  1.00  0.00     0.018 A 
ATOM     11  C   UNL A   1      33.765  27.189  25.235  1.00  0.00     0.027 A 
BRANCH   9  12
ATOM     12  N   UNL A   1      32.433  28.539  26.697  1.00  0.00    -0.308 N 
ATOM     13  C   UNL A   1      32.090  29.773  26.222  1.00  0.00     0.319 C 
ATOM     14  H   UNL A   1      32.566  28.496  27.671  1.00  0.00     0.171 HD
ATOM     15  O   UNL A   1      32.196  30.746  26.974  1.00  0.00    -0.248 OA
ATOM     16  N   UNL A   1      31.529  29.970  24.997  1.00  0.00    -0.333 N 
ATOM     17  H   UNL A   1      31.277  30.898  24.786  1.00  0.00     0.165 HD
BRANCH  16  18
ATOM     18  C   UNL A   1      31.256  29.001  23.968  1.00  0.00     0.165 C 
BRANCH  18  19
ATOM     19  C   UNL A   1      29.893  28.903  23.373  1.00  0.00     0.027 A 
ATOM     20  S   UNL A   1      29.268  30.384  22.727  1.00  0.00    -0.147 S 
ATOM     21  C   UNL A   1      28.921  27.916  23.413  1.00  0.00    -0.035 A 
ATOM     22  C   UNL A   1      27.685  29.785  22.710  1.00  0.00     0.065 A 
ATOM     23  C   UNL A   1      27.637  28.457  23.055  1.00  0.00     0.015 A 
ATOM     24  C   UNL A   1      29.105  26.503  23.845  1.00  0.00     0.045 C 
ENDBRANCH  18  19
ENDBRANCH  16  18
ENDBRANCH   9  12
ENDBRANCH   3   5
ENDBRANCH   2   3
ENDBRANCH   1   2
BRANCH   1  25
ATOM     25  C   UNL A   1      37.461  24.151  26.638  1.00  0.00     0.275 C 
BRANCH  25  26
ATOM     26  O   UNL A   1      38.784  24.442  26.123  1.00  0.00    -0.458 OA
BRANCH  26  27
ATOM     27  C   UNL A   1      39.847  24.230  26.943  1.00  0.00     0.338 C 
ATOM     28  O   UNL A   1      40.479  23.181  26.968  1.00  0.00    -0.246 OA
BRANCH  27  29
ATOM     29  C   UNL A   1      40.276  25.535  27.510  1.00  0.00     0.060 A 
ATOM     30  C   UNL A   1      40.378  26.645  26.664  1.00  0.00     0.016 A 
ATOM     31  C   UNL A   1      40.180  25.700  28.894  1.00  0.00     0.016 A 
ATOM     32  C   UNL A   1      40.202  27.925  27.179  1.00  0.00     0.010 A 
ATOM     33  C   UNL A   1      39.849  26.934  29.383  1.00  0.00     0.010 A 
ATOM     34  C   UNL A   1      39.877  28.044  28.530  1.00  0.00    -0.014 A 
BRANCH  34  35
ATOM     35  C   UNL A   1      39.925  29.294  29.266  1.00  0.00     0.031 A 
ATOM     36  C   UNL A   1      38.820  30.266  29.215  1.00  0.00     0.074 A 
ATOM     37  C   UNL A   1      41.010  29.297  30.072  1.00  0.00     0.049 A 
ATOM     38  N   UNL A   1      38.968  31.543  29.280  1.00  0.00    -0.248 NA
ATOM     39  C   UNL A   1      37.420  29.871  29.057  1.00  0.00     0.031 C 
ATOM     40  C   UNL A   1      41.424  30.140  31.169  1.00  0.00     0.029 A 
ATOM     41  N   UNL A   1      42.111  28.447  29.878  1.00  0.00    -0.354 N 
ATOM     42  C   UNL A   1      37.714  32.089  29.503  1.00  0.00     0.074 A 
ATOM     43  C   UNL A   1      36.776  31.039  29.203  1.00  0.00     0.031 C 
ATOM     44  C   UNL A   1      42.760  29.997  31.324  1.00  0.00     0.029 A 
ATOM     45  C   UNL A   1      43.251  29.136  30.243  1.00  0.00     0.049 A 
ATOM     46  H   UNL A   1      42.077  27.523  29.542  1.00  0.00     0.167 HD
ATOM     47  C   UNL A   1      37.607  33.284  30.160  1.00  0.00     0.037 A 
ATOM     48  C   UNL A   1      44.076  29.508  29.219  1.00  0.00     0.037 A 
ATOM     49  C   UNL A   1      38.934  33.653  30.644  1.00  0.00     0.049 A 
ATOM     50  C   UNL A   1      43.995  31.006  29.065  1.00  0.00     0.074 A 
ATOM     51  C   UNL A   1      39.556  33.312  31.834  1.00  0.00     0.029 A 
ATOM     52  N   UNL A   1      39.937  34.013  29.753  1.00  0.00    -0.354 N 
ATOM     53  N   UNL A   1      42.902  31.715  29.191  1.00  0.00    -0.248 NA
ATOM     54  C   UNL A   1      45.203  31.812  28.960  1.00  0.00     0.031 C 
ATOM     55  C   UNL A   1      40.954  33.367  31.620  1.00  0.00     0.029 A 
ATOM     56  C   UNL A   1      41.178  33.743  30.305  1.00  0.00     0.049 A 
ATOM     57  H   UNL A   1      39.787  34.403  28.862  1.00  0.00     0.167 HD
ATOM     58  C   UNL A   1      43.254  33.039  29.293  1.00  0.00     0.074 A 
ATOM     59  C   UNL A   1      44.700  33.045  29.122  1.00  0.00     0.031 C 
ATOM     60  C   UNL A   1      42.397  34.063  29.587  1.00  0.00     0.037 A 
BRANCH  47  61
ATOM     61  C   UNL A   1      36.326  33.888  30.711  1.00  0.00     0.058 A 
ATOM     62  C   UNL A   1      35.301  34.329  29.841  1.00  0.00     0.135 A 
ATOM     63  C   UNL A   1      36.038  34.054  32.080  1.00  0.00     0.135 A 
ATOM     64  F   UNL A   1      35.389  34.165  28.514  1.00  0.00    -0.206 F 
ATOM     65  C   UNL A   1      34.139  34.968  30.284  1.00  0.00     0.059 A 
ATOM     66  C   UNL A   1      34.892  34.715  32.550  1.00  0.00     0.059 A 
ATOM     67  F   UNL A   1      36.852  33.553  33.020  1.00  0.00    -0.206 F 
ATOM     68  C   UNL A   1      33.952  35.183  31.641  1.00  0.00     0.060 A 
BRANCH  68  69
ATOM     69  S   UNL A   1      32.470  36.062  32.177  1.00  0.00     0.124 S 
ATOM     70  O   UNL A   1      32.076  36.767  30.961  1.00  0.00    -0.237 OA
ATOM     71  O   UNL A   1      31.593  34.970  32.587  1.00  0.00    -0.237 OA
ATOM     72  O   UNL A   1      32.952  36.915  33.260  1.00  0.00    -0.744 OA
ENDBRANCH  68  69
ENDBRANCH  47  61
BRANCH  48  73
ATOM     73  C   UNL A   1      44.232  28.487  28.112  1.00  0.00     0.058 A 
ATOM     74  C   UNL A   1      44.896  27.271  28.409  1.00  0.00     0.135 A 
ATOM     75  C   UNL A   1      43.595  28.544  26.863  1.00  0.00     0.135 A 
ATOM     76  F   UNL A   1      45.558  27.136  29.572  1.00  0.00    -0.206 F 
ATOM     77  C   UNL A   1      44.833  26.146  27.588  1.00  0.00     0.059 A 
ATOM     78  C   UNL A   1      43.537  27.427  26.004  1.00  0.00     0.059 A 
ATOM     79  F   UNL A   1      42.957  29.657  26.475  1.00  0.00    -0.206 F 
ATOM     80  C   UNL A   1      44.130  26.223  26.392  1.00  0.00     0.060 A 
BRANCH  80  81
ATOM     81  S   UNL A   1      43.841  24.686  25.468  1.00  0.00     0.124 S 
ATOM     82  O   UNL A   1      45.034  24.606  24.633  1.00  0.00    -0.237 OA
ATOM     83  O   UNL A   1      43.758  23.701  26.545  1.00  0.00    -0.237 OA
ATOM     84  O   UNL A   1      42.592  24.960  24.765  1.00  0.00    -0.744 OA
ENDBRANCH  80  81
ENDBRANCH  48  73
BRANCH  60  85
ATOM     85  C   UNL A   1      42.713  35.516  29.349  1.00  0.00     0.058 A 
ATOM     86  C   UNL A   1      43.424  36.299  30.272  1.00  0.00     0.135 A 
ATOM     87  C   UNL A   1      42.449  36.126  28.097  1.00  0.00     0.135 A 
ATOM     88  F   UNL A   1      43.861  35.792  31.434  1.00  0.00    -0.206 F 
ATOM     89  C   UNL A   1      43.747  37.627  30.023  1.00  0.00     0.059 A 
ATOM     90  C   UNL A   1      42.836  37.425  27.799  1.00  0.00     0.059 A 
ATOM     91  F   UNL A   1      41.816  35.477  27.109  1.00  0.00    -0.206 F 
ATOM     92  C   UNL A   1      43.444  38.182  28.786  1.00  0.00     0.060 A 
BRANCH  92  93
ATOM     93  S   UNL A   1      43.874  39.895  28.462  1.00  0.00     0.124 S 
ATOM     94  O   UNL A   1      43.572  39.998  27.038  1.00  0.00    -0.237 OA
ATOM     95  O   UNL A   1      42.978  40.625  29.353  1.00  0.00    -0.237 OA
ATOM     96  O   UNL A   1      45.288  39.958  28.817  1.00  0.00    -0.744 OA
ENDBRANCH  92  93
ENDBRANCH  60  85
ENDBRANCH  34  35
ENDBRANCH  27  29
ENDBRANCH  26  27
ENDBRANCH  25  26
ENDBRANCH   1  25
TORSDOF 17
ENDMDL
