MODEL 1
REMARK VINA RESULT:     -10.5      0.000      0.000
REMARK SMILES O=C(OCCOC(=O)C1(Cc2ccncc2)Cc2ccccc2C1)c1ccc(-c2c3nc(c(-c4c(F)cc(S(=O)(=O)[O-])cc4F)c4ccc([nH]4)c(-c4c(F)cc(S(=O)(=O)[O-])cc4F)c4nc(c(-c5c(F)cc(S(=O)(=O)[O-])cc5F)c5ccc2[nH]5)C=C4)C=C3)cc1
REMARK SMILES IDX 4 1 3 2 2 3 1 4 25 5 26 6 90 7 27 8 89 9 28 10 29 11 30 12
REMARK SMILES IDX 83 13 31 14 88 15 82 16 84 17 32 18 87 19 81 20 80 21 33 23
REMARK SMILES IDX 67 24 46 25 66 26 47 27 50 28 65 29 85 30 48 31 49 32 64 34
REMARK SMILES IDX 86 35 51 36 34 37 35 38 44 39 36 40 37 41 43 42 45 43 38 44
REMARK SMILES IDX 39 45 40 46 41 47 42 48 68 49 69 50 78 51 70 52 71 53 77 54
REMARK SMILES IDX 79 55 72 56 73 57 74 58 75 59 76 60 52 61 53 62 62 63 54 64
REMARK SMILES IDX 55 65 61 66 63 67 56 68 57 69 58 70 59 71 60 72 5 73 6 74
REMARK SMILES IDX 7 75 8 76 9 77 17 78 24 79 18 80 23 81 19 82 22 83 20 84
REMARK SMILES IDX 21 85 10 86 11 87 12 88 16 89 13 90 15 91 14 92
REMARK H PARENT 84 22 50 33
REMARK Flexibility Score: inf
ROOT
ATOM      1  C   UNL A   1      34.269  32.980  27.942  1.00  0.00     0.275 C 
ENDROOT
BRANCH   1   2
ATOM      2  O   UNL A   1      33.750  31.653  28.085  1.00  0.00    -0.458 OA
BRANCH   2   3
ATOM      3  C   UNL A   1      34.380  30.458  28.048  1.00  0.00     0.338 C 
ATOM      4  O   UNL A   1      33.716  29.500  27.649  1.00  0.00    -0.246 OA
BRANCH   3   5
ATOM      5  C   UNL A   1      35.798  30.185  28.497  1.00  0.00     0.060 A 
ATOM      6  C   UNL A   1      36.241  29.671  29.725  1.00  0.00     0.016 A 
ATOM      7  C   UNL A   1      36.778  30.371  27.505  1.00  0.00     0.016 A 
ATOM      8  C   UNL A   1      37.565  29.204  29.902  1.00  0.00     0.010 A 
ATOM      9  C   UNL A   1      38.092  29.919  27.680  1.00  0.00     0.010 A 
ATOM     10  C   UNL A   1      38.487  29.254  28.854  1.00  0.00    -0.014 A 
BRANCH  10  11
ATOM     11  C   UNL A   1      39.911  28.834  29.022  1.00  0.00     0.031 A 
ATOM     12  C   UNL A   1      40.798  29.875  29.612  1.00  0.00     0.074 A 
ATOM     13  C   UNL A   1      40.462  27.679  28.577  1.00  0.00     0.049 A 
ATOM     14  N   UNL A   1      42.097  29.902  29.684  1.00  0.00    -0.248 NA
ATOM     15  C   UNL A   1      40.126  31.101  30.074  1.00  0.00     0.031 C 
ATOM     16  C   UNL A   1      39.759  26.637  27.860  1.00  0.00     0.029 A 
ATOM     17  N   UNL A   1      41.747  27.174  28.630  1.00  0.00    -0.354 N 
ATOM     18  C   UNL A   1      42.398  31.181  30.113  1.00  0.00     0.074 A 
ATOM     19  C   UNL A   1      41.156  31.911  30.218  1.00  0.00     0.031 C 
ATOM     20  C   UNL A   1      40.569  25.608  27.574  1.00  0.00     0.029 A 
ATOM     21  C   UNL A   1      41.888  25.908  28.083  1.00  0.00     0.049 A 
ATOM     22  H   UNL A   1      42.500  27.673  29.023  1.00  0.00     0.167 HD
ATOM     23  C   UNL A   1      43.610  31.697  30.402  1.00  0.00     0.037 A 
ATOM     24  C   UNL A   1      42.944  25.070  27.999  1.00  0.00     0.037 A 
ATOM     25  C   UNL A   1      44.823  30.943  30.306  1.00  0.00     0.049 A 
ATOM     26  C   UNL A   1      44.264  25.605  28.466  1.00  0.00     0.074 A 
ATOM     27  C   UNL A   1      46.110  31.347  30.590  1.00  0.00     0.029 A 
ATOM     28  N   UNL A   1      44.892  29.617  29.891  1.00  0.00    -0.354 N 
ATOM     29  N   UNL A   1      44.530  26.805  28.923  1.00  0.00    -0.248 NA
ATOM     30  C   UNL A   1      45.429  24.718  28.374  1.00  0.00     0.031 C 
ATOM     31  C   UNL A   1      46.964  30.274  30.321  1.00  0.00     0.029 A 
ATOM     32  C   UNL A   1      46.203  29.183  29.922  1.00  0.00     0.049 A 
ATOM     33  H   UNL A   1      44.121  29.069  29.616  1.00  0.00     0.167 HD
ATOM     34  C   UNL A   1      45.892  26.824  29.169  1.00  0.00     0.074 A 
ATOM     35  C   UNL A   1      46.394  25.503  28.838  1.00  0.00     0.031 C 
ATOM     36  C   UNL A   1      46.657  27.849  29.610  1.00  0.00     0.037 A 
BRANCH  23  37
ATOM     37  C   UNL A   1      43.619  33.143  30.790  1.00  0.00     0.058 A 
ATOM     38  C   UNL A   1      43.608  34.163  29.821  1.00  0.00     0.135 A 
ATOM     39  C   UNL A   1      43.821  33.506  32.129  1.00  0.00     0.135 A 
ATOM     40  F   UNL A   1      43.465  33.861  28.520  1.00  0.00    -0.206 F 
ATOM     41  C   UNL A   1      43.892  35.480  30.158  1.00  0.00     0.059 A 
ATOM     42  C   UNL A   1      44.064  34.825  32.493  1.00  0.00     0.059 A 
ATOM     43  F   UNL A   1      43.853  32.567  33.088  1.00  0.00    -0.206 F 
ATOM     44  C   UNL A   1      44.137  35.797  31.494  1.00  0.00     0.060 A 
BRANCH  44  45
ATOM     45  S   UNL A   1      44.593  37.491  31.908  1.00  0.00     0.124 S 
ATOM     46  O   UNL A   1      43.573  37.833  32.894  1.00  0.00    -0.237 OA
ATOM     47  O   UNL A   1      45.948  37.332  32.428  1.00  0.00    -0.237 OA
ATOM     48  O   UNL A   1      44.493  38.189  30.630  1.00  0.00    -0.744 OA
ENDBRANCH  44  45
ENDBRANCH  23  37
BRANCH  24  49
ATOM     49  C   UNL A   1      42.800  23.664  27.497  1.00  0.00     0.058 A 
ATOM     50  C   UNL A   1      42.564  22.602  28.389  1.00  0.00     0.135 A 
ATOM     51  C   UNL A   1      42.859  23.340  26.131  1.00  0.00     0.135 A 
ATOM     52  F   UNL A   1      42.504  22.838  29.709  1.00  0.00    -0.206 F 
ATOM     53  C   UNL A   1      42.397  21.286  27.953  1.00  0.00     0.059 A 
ATOM     54  C   UNL A   1      42.667  22.036  25.666  1.00  0.00     0.059 A 
ATOM     55  F   UNL A   1      43.072  24.304  25.222  1.00  0.00    -0.206 F 
ATOM     56  C   UNL A   1      42.442  21.014  26.586  1.00  0.00     0.060 A 
BRANCH  56  57
ATOM     57  S   UNL A   1      42.145  19.318  26.024  1.00  0.00     0.124 S 
ATOM     58  O   UNL A   1      42.975  19.252  24.827  1.00  0.00    -0.237 OA
ATOM     59  O   UNL A   1      42.606  18.532  27.164  1.00  0.00    -0.237 OA
ATOM     60  O   UNL A   1      40.703  19.288  25.796  1.00  0.00    -0.744 OA
ENDBRANCH  56  57
ENDBRANCH  24  49
BRANCH  36  61
ATOM     61  C   UNL A   1      48.115  27.584  29.808  1.00  0.00     0.058 A 
ATOM     62  C   UNL A   1      49.051  27.851  28.800  1.00  0.00     0.135 A 
ATOM     63  C   UNL A   1      48.584  27.214  31.078  1.00  0.00     0.135 A 
ATOM     64  F   UNL A   1      48.642  28.193  27.568  1.00  0.00    -0.206 F 
ATOM     65  C   UNL A   1      50.414  27.786  29.054  1.00  0.00     0.059 A 
ATOM     66  C   UNL A   1      49.941  27.169  31.361  1.00  0.00     0.059 A 
ATOM     67  F   UNL A   1      47.716  26.954  32.069  1.00  0.00    -0.206 F 
ATOM     68  C   UNL A   1      50.848  27.465  30.344  1.00  0.00     0.060 A 
BRANCH  68  69
ATOM     69  S   UNL A   1      52.615  27.518  30.694  1.00  0.00     0.124 S 
ATOM     70  O   UNL A   1      52.670  26.916  32.022  1.00  0.00    -0.237 OA
ATOM     71  O   UNL A   1      53.172  26.716  29.609  1.00  0.00    -0.237 OA
ATOM     72  O   UNL A   1      52.930  28.943  30.637  1.00  0.00    -0.744 OA
ENDBRANCH  68  69
ENDBRANCH  36  61
ENDBRANCH  10  11
ENDBRANCH   3   5
ENDBRANCH   2   3
ENDBRANCH   1   2
BRANCH   1  73
ATOM     73  C   UNL A   1      34.175  33.794  29.232  1.00  0.00     0.274 C 
BRANCH  73  74
ATOM     74  O   UNL A   1      35.324  33.604  30.079  1.00  0.00    -0.462 OA
BRANCH  74  75
ATOM     75  C   UNL A   1      35.142  32.888  31.236  1.00  0.00     0.313 C 
ATOM     76  O   UNL A   1      34.268  32.054  31.390  1.00  0.00    -0.252 OA
BRANCH  75  77
ATOM     77  C   UNL A   1      36.077  33.365  32.354  1.00  0.00     0.080 C 
ATOM     78  C   UNL A   1      36.815  32.136  33.010  1.00  0.00     0.055 C 
ATOM     79  C   UNL A   1      37.253  34.144  31.753  1.00  0.00     0.055 C 
ATOM     80  C   UNL A   1      38.227  32.616  33.246  1.00  0.00    -0.044 A 
ATOM     81  C   UNL A   1      38.443  33.815  32.591  1.00  0.00    -0.044 A 
ATOM     82  C   UNL A   1      39.273  32.011  33.931  1.00  0.00     0.004 A 
ATOM     83  C   UNL A   1      39.667  34.472  32.674  1.00  0.00     0.004 A 
ATOM     84  C   UNL A   1      40.520  32.654  33.995  1.00  0.00     0.000 A 
ATOM     85  C   UNL A   1      40.711  33.896  33.388  1.00  0.00     0.000 A 
BRANCH  77  86
ATOM     86  C   UNL A   1      35.213  34.165  33.408  1.00  0.00     0.055 C 
BRANCH  86  87
ATOM     87  C   UNL A   1      34.231  35.247  32.948  1.00  0.00    -0.044 A 
ATOM     88  C   UNL A   1      32.895  34.997  32.649  1.00  0.00     0.024 A 
ATOM     89  C   UNL A   1      34.615  36.589  32.871  1.00  0.00     0.024 A 
ATOM     90  C   UNL A   1      32.106  36.000  32.090  1.00  0.00     0.111 A 
ATOM     91  C   UNL A   1      33.779  37.533  32.282  1.00  0.00     0.111 A 
ATOM     92  N   UNL A   1      32.536  37.251  31.850  1.00  0.00    -0.265 NA
ENDBRANCH  86  87
ENDBRANCH  77  86
ENDBRANCH  75  77
ENDBRANCH  74  75
ENDBRANCH  73  74
ENDBRANCH   1  73
TORSDOF 16
ENDMDL
MODEL 2
REMARK VINA RESULT:     -10.4      5.881     12.194
REMARK SMILES O=C(OCCOC(=O)C1(Cc2ccncc2)Cc2ccccc2C1)c1ccc(-c2c3nc(c(-c4c(F)cc(S(=O)(=O)[O-])cc4F)c4ccc([nH]4)c(-c4c(F)cc(S(=O)(=O)[O-])cc4F)c4nc(c(-c5c(F)cc(S(=O)(=O)[O-])cc5F)c5ccc2[nH]5)C=C4)C=C3)cc1
REMARK SMILES IDX 4 1 3 2 2 3 1 4 25 5 26 6 90 7 27 8 89 9 28 10 29 11 30 12
REMARK SMILES IDX 83 13 31 14 88 15 82 16 84 17 32 18 87 19 81 20 80 21 33 23
REMARK SMILES IDX 67 24 46 25 66 26 47 27 50 28 65 29 85 30 48 31 49 32 64 34
REMARK SMILES IDX 86 35 51 36 34 37 35 38 44 39 36 40 37 41 43 42 45 43 38 44
REMARK SMILES IDX 39 45 40 46 41 47 42 48 68 49 69 50 78 51 70 52 71 53 77 54
REMARK SMILES IDX 79 55 72 56 73 57 74 58 75 59 76 60 52 61 53 62 62 63 54 64
REMARK SMILES IDX 55 65 61 66 63 67 56 68 57 69 58 70 59 71 60 72 5 73 6 74
REMARK SMILES IDX 7 75 8 76 9 77 17 78 24 79 18 80 23 81 19 82 22 83 20 84
REMARK SMILES IDX 21 85 10 86 11 87 12 88 16 89 13 90 15 91 14 92
REMARK H PARENT 84 22 50 33
REMARK Flexibility Score: inf
ROOT
ATOM      1  C   UNL A   1      40.144  22.887  26.737  1.00  0.00     0.275 C 
ENDROOT
BRANCH   1   2
ATOM      2  O   UNL A   1      39.802  24.208  26.305  1.00  0.00    -0.458 OA
BRANCH   2   3
ATOM      3  C   UNL A   1      40.488  25.368  26.409  1.00  0.00     0.338 C 
ATOM      4  O   UNL A   1      41.020  25.785  25.379  1.00  0.00    -0.246 OA
BRANCH   3   5
ATOM      5  C   UNL A   1      40.702  26.164  27.677  1.00  0.00     0.060 A 
ATOM      6  C   UNL A   1      41.666  27.151  27.934  1.00  0.00     0.016 A 
ATOM      7  C   UNL A   1      39.734  25.957  28.676  1.00  0.00     0.016 A 
ATOM      8  C   UNL A   1      41.571  28.008  29.056  1.00  0.00     0.010 A 
ATOM      9  C   UNL A   1      39.644  26.797  29.792  1.00  0.00     0.010 A 
ATOM     10  C   UNL A   1      40.512  27.889  29.960  1.00  0.00    -0.014 A 
BRANCH  10  11
ATOM     11  C   UNL A   1      40.415  28.730  31.191  1.00  0.00     0.031 A 
ATOM     12  C   UNL A   1      39.294  29.710  31.185  1.00  0.00     0.074 A 
ATOM     13  C   UNL A   1      41.308  28.761  32.210  1.00  0.00     0.049 A 
ATOM     14  N   UNL A   1      39.074  30.710  31.988  1.00  0.00    -0.248 NA
ATOM     15  C   UNL A   1      38.365  29.613  30.046  1.00  0.00     0.031 C 
ATOM     16  C   UNL A   1      42.518  27.972  32.289  1.00  0.00     0.029 A 
ATOM     17  N   UNL A   1      41.368  29.495  33.379  1.00  0.00    -0.354 N 
ATOM     18  C   UNL A   1      38.039  31.412  31.398  1.00  0.00     0.074 A 
ATOM     19  C   UNL A   1      37.727  30.762  30.146  1.00  0.00     0.031 C 
ATOM     20  C   UNL A   1      43.182  28.207  33.429  1.00  0.00     0.029 A 
ATOM     21  C   UNL A   1      42.448  29.190  34.192  1.00  0.00     0.049 A 
ATOM     22  H   UNL A   1      40.699  30.179  33.615  1.00  0.00     0.167 HD
ATOM     23  C   UNL A   1      37.400  32.503  31.869  1.00  0.00     0.037 A 
ATOM     24  C   UNL A   1      42.817  29.633  35.414  1.00  0.00     0.037 A 
ATOM     25  C   UNL A   1      37.720  33.115  33.122  1.00  0.00     0.049 A 
ATOM     26  C   UNL A   1      42.003  30.750  35.996  1.00  0.00     0.074 A 
ATOM     27  C   UNL A   1      37.132  34.211  33.717  1.00  0.00     0.029 A 
ATOM     28  N   UNL A   1      38.724  32.674  33.978  1.00  0.00    -0.354 N 
ATOM     29  N   UNL A   1      40.986  31.375  35.450  1.00  0.00    -0.248 NA
ATOM     30  C   UNL A   1      42.389  31.258  37.317  1.00  0.00     0.031 C 
ATOM     31  C   UNL A   1      37.798  34.451  34.922  1.00  0.00     0.029 A 
ATOM     32  C   UNL A   1      38.765  33.472  35.104  1.00  0.00     0.049 A 
ATOM     33  H   UNL A   1      39.317  31.907  33.806  1.00  0.00     0.167 HD
ATOM     34  C   UNL A   1      40.613  32.353  36.355  1.00  0.00     0.074 A 
ATOM     35  C   UNL A   1      41.494  32.221  37.500  1.00  0.00     0.031 C 
ATOM     36  C   UNL A   1      39.642  33.288  36.236  1.00  0.00     0.037 A 
BRANCH  23  37
ATOM     37  C   UNL A   1      36.352  33.074  30.965  1.00  0.00     0.058 A 
ATOM     38  C   UNL A   1      36.693  33.827  29.827  1.00  0.00     0.135 A 
ATOM     39  C   UNL A   1      35.002  33.021  31.342  1.00  0.00     0.135 A 
ATOM     40  F   UNL A   1      37.978  33.947  29.455  1.00  0.00    -0.206 F 
ATOM     41  C   UNL A   1      35.744  34.583  29.151  1.00  0.00     0.059 A 
ATOM     42  C   UNL A   1      34.029  33.735  30.652  1.00  0.00     0.059 A 
ATOM     43  F   UNL A   1      34.628  32.327  32.428  1.00  0.00    -0.206 F 
ATOM     44  C   UNL A   1      34.418  34.544  29.584  1.00  0.00     0.060 A 
BRANCH  44  45
ATOM     45  S   UNL A   1      33.212  35.598  28.756  1.00  0.00     0.124 S 
ATOM     46  O   UNL A   1      34.081  36.489  27.994  1.00  0.00    -0.237 OA
ATOM     47  O   UNL A   1      32.446  34.637  27.968  1.00  0.00    -0.237 OA
ATOM     48  O   UNL A   1      32.489  36.216  29.862  1.00  0.00    -0.744 OA
ENDBRANCH  44  45
ENDBRANCH  23  37
BRANCH  24  49
ATOM     49  C   UNL A   1      43.960  29.020  36.167  1.00  0.00     0.058 A 
ATOM     50  C   UNL A   1      43.777  27.844  36.917  1.00  0.00     0.135 A 
ATOM     51  C   UNL A   1      45.257  29.557  36.139  1.00  0.00     0.135 A 
ATOM     52  F   UNL A   1      42.561  27.282  36.995  1.00  0.00    -0.206 F 
ATOM     53  C   UNL A   1      44.826  27.231  37.607  1.00  0.00     0.059 A 
ATOM     54  C   UNL A   1      46.329  28.948  36.797  1.00  0.00     0.059 A 
ATOM     55  F   UNL A   1      45.506  30.672  35.436  1.00  0.00    -0.206 F 
ATOM     56  C   UNL A   1      46.102  27.787  37.534  1.00  0.00     0.060 A 
BRANCH  56  57
ATOM     57  S   UNL A   1      47.471  26.941  38.364  1.00  0.00     0.124 S 
ATOM     58  O   UNL A   1      48.625  27.457  37.637  1.00  0.00    -0.237 OA
ATOM     59  O   UNL A   1      47.327  27.404  39.742  1.00  0.00    -0.237 OA
ATOM     60  O   UNL A   1      47.170  25.529  38.153  1.00  0.00    -0.744 OA
ENDBRANCH  56  57
ENDBRANCH  24  49
BRANCH  36  61
ATOM     61  C   UNL A   1      39.439  34.220  37.388  1.00  0.00     0.058 A 
ATOM     62  C   UNL A   1      38.746  33.821  38.538  1.00  0.00     0.135 A 
ATOM     63  C   UNL A   1      40.091  35.463  37.393  1.00  0.00     0.135 A 
ATOM     64  F   UNL A   1      38.099  32.646  38.567  1.00  0.00    -0.206 F 
ATOM     65  C   UNL A   1      38.728  34.619  39.674  1.00  0.00     0.059 A 
ATOM     66  C   UNL A   1      40.106  36.263  38.526  1.00  0.00     0.059 A 
ATOM     67  F   UNL A   1      40.767  35.876  36.310  1.00  0.00    -0.206 F 
ATOM     68  C   UNL A   1      39.430  35.827  39.665  1.00  0.00     0.060 A 
BRANCH  68  69
ATOM     69  S   UNL A   1      39.511  36.787  41.189  1.00  0.00     0.124 S 
ATOM     70  O   UNL A   1      38.599  36.045  42.053  1.00  0.00    -0.237 OA
ATOM     71  O   UNL A   1      40.927  36.701  41.535  1.00  0.00    -0.237 OA
ATOM     72  O   UNL A   1      39.052  38.111  40.780  1.00  0.00    -0.744 OA
ENDBRANCH  68  69
ENDBRANCH  36  61
ENDBRANCH  10  11
ENDBRANCH   3   5
ENDBRANCH   2   3
ENDBRANCH   1   2
BRANCH   1  73
ATOM     73  C   UNL A   1      39.243  21.813  26.126  1.00  0.00     0.274 C 
BRANCH  73  74
ATOM     74  O   UNL A   1      37.956  22.334  25.751  1.00  0.00    -0.462 OA
BRANCH  74  75
ATOM     75  C   UNL A   1      37.070  21.464  25.164  1.00  0.00     0.313 C 
ATOM     76  O   UNL A   1      37.390  20.400  24.666  1.00  0.00    -0.252 OA
BRANCH  75  77
ATOM     77  C   UNL A   1      35.658  22.056  25.083  1.00  0.00     0.080 C 
ATOM     78  C   UNL A   1      35.603  23.441  25.835  1.00  0.00     0.055 C 
ATOM     79  C   UNL A   1      35.352  22.479  23.640  1.00  0.00     0.055 C 
ATOM     80  C   UNL A   1      34.737  24.319  24.963  1.00  0.00    -0.044 A 
ATOM     81  C   UNL A   1      34.526  23.718  23.735  1.00  0.00    -0.044 A 
ATOM     82  C   UNL A   1      34.225  25.587  25.203  1.00  0.00     0.004 A 
ATOM     83  C   UNL A   1      33.738  24.325  22.761  1.00  0.00     0.004 A 
ATOM     84  C   UNL A   1      33.453  26.218  24.213  1.00  0.00     0.000 A 
ATOM     85  C   UNL A   1      33.189  25.578  23.002  1.00  0.00     0.000 A 
BRANCH  77  86
ATOM     86  C   UNL A   1      34.650  21.009  25.701  1.00  0.00     0.055 C 
BRANCH  86  87
ATOM     87  C   UNL A   1      33.900  20.024  24.798  1.00  0.00    -0.044 A 
ATOM     88  C   UNL A   1      34.280  18.696  24.626  1.00  0.00     0.024 A 
ATOM     89  C   UNL A   1      32.724  20.396  24.140  1.00  0.00     0.024 A 
ATOM     90  C   UNL A   1      33.641  17.907  23.671  1.00  0.00     0.111 A 
ATOM     91  C   UNL A   1      32.153  19.561  23.184  1.00  0.00     0.111 A 
ATOM     92  N   UNL A   1      32.619  18.329  22.907  1.00  0.00    -0.265 NA
ENDBRANCH  86  87
ENDBRANCH  77  86
ENDBRANCH  75  77
ENDBRANCH  74  75
ENDBRANCH  73  74
ENDBRANCH   1  73
TORSDOF 16
ENDMDL
MODEL 3
REMARK VINA RESULT:     -10.4      3.746     10.224
REMARK SMILES O=C(OCCOC(=O)C1(Cc2ccncc2)Cc2ccccc2C1)c1ccc(-c2c3nc(c(-c4c(F)cc(S(=O)(=O)[O-])cc4F)c4ccc([nH]4)c(-c4c(F)cc(S(=O)(=O)[O-])cc4F)c4nc(c(-c5c(F)cc(S(=O)(=O)[O-])cc5F)c5ccc2[nH]5)C=C4)C=C3)cc1
REMARK SMILES IDX 4 1 3 2 2 3 1 4 25 5 26 6 90 7 27 8 89 9 28 10 29 11 30 12
REMARK SMILES IDX 83 13 31 14 88 15 82 16 84 17 32 18 87 19 81 20 80 21 33 23
REMARK SMILES IDX 67 24 46 25 66 26 47 27 50 28 65 29 85 30 48 31 49 32 64 34
REMARK SMILES IDX 86 35 51 36 34 37 35 38 44 39 36 40 37 41 43 42 45 43 38 44
REMARK SMILES IDX 39 45 40 46 41 47 42 48 68 49 69 50 78 51 70 52 71 53 77 54
REMARK SMILES IDX 79 55 72 56 73 57 74 58 75 59 76 60 52 61 53 62 62 63 54 64
REMARK SMILES IDX 55 65 61 66 63 67 56 68 57 69 58 70 59 71 60 72 5 73 6 74
REMARK SMILES IDX 7 75 8 76 9 77 17 78 24 79 18 80 23 81 19 82 22 83 20 84
REMARK SMILES IDX 21 85 10 86 11 87 12 88 16 89 13 90 15 91 14 92
REMARK H PARENT 84 22 50 33
REMARK Flexibility Score: inf
ROOT
ATOM      1  C   UNL A   1      35.008  31.424  28.083  1.00  0.00     0.275 C 
ENDROOT
BRANCH   1   2
ATOM      2  O   UNL A   1      35.452  30.126  28.494  1.00  0.00    -0.458 OA
BRANCH   2   3
ATOM      3  C   UNL A   1      36.334  29.766  29.452  1.00  0.00     0.338 C 
ATOM      4  O   UNL A   1      35.859  29.460  30.547  1.00  0.00    -0.246 OA
BRANCH   3   5
ATOM      5  C   UNL A   1      37.840  29.755  29.317  1.00  0.00     0.060 A 
ATOM      6  C   UNL A   1      38.805  29.611  30.325  1.00  0.00     0.016 A 
ATOM      7  C   UNL A   1      38.315  29.781  27.993  1.00  0.00     0.016 A 
ATOM      8  C   UNL A   1      40.160  29.335  30.023  1.00  0.00     0.010 A 
ATOM      9  C   UNL A   1      39.657  29.519  27.692  1.00  0.00     0.010 A 
ATOM     10  C   UNL A   1      40.587  29.211  28.700  1.00  0.00    -0.014 A 
BRANCH  10  11
ATOM     11  C   UNL A   1      42.021  28.988  28.340  1.00  0.00     0.031 A 
ATOM     12  C   UNL A   1      42.321  27.630  27.806  1.00  0.00     0.074 A 
ATOM     13  C   UNL A   1      43.046  29.842  28.577  1.00  0.00     0.049 A 
ATOM     14  N   UNL A   1      43.476  27.063  27.613  1.00  0.00    -0.248 NA
ATOM     15  C   UNL A   1      41.155  26.761  27.574  1.00  0.00     0.031 C 
ATOM     16  C   UNL A   1      42.930  31.134  29.218  1.00  0.00     0.029 A 
ATOM     17  N   UNL A   1      44.403  29.763  28.335  1.00  0.00    -0.354 N 
ATOM     18  C   UNL A   1      43.174  25.744  27.325  1.00  0.00     0.074 A 
ATOM     19  C   UNL A   1      41.742  25.589  27.437  1.00  0.00     0.031 C 
ATOM     20  C   UNL A   1      44.116  31.753  29.289  1.00  0.00     0.029 A 
ATOM     21  C   UNL A   1      45.116  30.895  28.697  1.00  0.00     0.049 A 
ATOM     22  H   UNL A   1      44.829  28.968  27.938  1.00  0.00     0.167 HD
ATOM     23  C   UNL A   1      44.023  24.752  26.988  1.00  0.00     0.037 A 
ATOM     24  C   UNL A   1      46.420  31.224  28.569  1.00  0.00     0.037 A 
ATOM     25  C   UNL A   1      45.436  24.940  26.868  1.00  0.00     0.049 A 
ATOM     26  C   UNL A   1      47.335  30.155  28.049  1.00  0.00     0.074 A 
ATOM     27  C   UNL A   1      46.399  24.018  26.514  1.00  0.00     0.029 A 
ATOM     28  N   UNL A   1      46.090  26.146  27.099  1.00  0.00    -0.354 N 
ATOM     29  N   UNL A   1      47.028  28.921  27.727  1.00  0.00    -0.248 NA
ATOM     30  C   UNL A   1      48.758  30.484  27.911  1.00  0.00     0.031 C 
ATOM     31  C   UNL A   1      47.640  24.658  26.558  1.00  0.00     0.029 A 
ATOM     32  C   UNL A   1      47.446  25.994  26.885  1.00  0.00     0.049 A 
ATOM     33  H   UNL A   1      45.651  26.983  27.375  1.00  0.00     0.167 HD
ATOM     34  C   UNL A   1      48.218  28.321  27.354  1.00  0.00     0.074 A 
ATOM     35  C   UNL A   1      49.250  29.336  27.461  1.00  0.00     0.031 C 
ATOM     36  C   UNL A   1      48.437  27.040  26.977  1.00  0.00     0.037 A 
BRANCH  23  37
ATOM     37  C   UNL A   1      43.395  23.407  26.792  1.00  0.00     0.058 A 
ATOM     38  C   UNL A   1      43.041  22.594  27.884  1.00  0.00     0.135 A 
ATOM     39  C   UNL A   1      43.315  22.855  25.505  1.00  0.00     0.135 A 
ATOM     40  F   UNL A   1      43.146  23.063  29.139  1.00  0.00    -0.206 F 
ATOM     41  C   UNL A   1      42.721  21.254  27.713  1.00  0.00     0.059 A 
ATOM     42  C   UNL A   1      42.954  21.527  25.308  1.00  0.00     0.059 A 
ATOM     43  F   UNL A   1      43.655  23.586  24.432  1.00  0.00    -0.206 F 
ATOM     44  C   UNL A   1      42.699  20.726  26.421  1.00  0.00     0.060 A 
BRANCH  44  45
ATOM     45  S   UNL A   1      42.371  18.965  26.217  1.00  0.00     0.124 S 
ATOM     46  O   UNL A   1      43.356  18.603  25.203  1.00  0.00    -0.237 OA
ATOM     47  O   UNL A   1      42.621  18.443  27.557  1.00  0.00    -0.237 OA
ATOM     48  O   UNL A   1      40.978  18.930  25.783  1.00  0.00    -0.744 OA
ENDBRANCH  44  45
ENDBRANCH  23  37
BRANCH  24  49
ATOM     49  C   UNL A   1      46.926  32.598  28.897  1.00  0.00     0.058 A 
ATOM     50  C   UNL A   1      47.427  32.892  30.179  1.00  0.00     0.135 A 
ATOM     51  C   UNL A   1      46.955  33.637  27.954  1.00  0.00     0.135 A 
ATOM     52  F   UNL A   1      47.421  31.947  31.132  1.00  0.00    -0.206 F 
ATOM     53  C   UNL A   1      47.931  34.151  30.510  1.00  0.00     0.059 A 
ATOM     54  C   UNL A   1      47.480  34.898  28.251  1.00  0.00     0.059 A 
ATOM     55  F   UNL A   1      46.501  33.426  26.709  1.00  0.00    -0.206 F 
ATOM     56  C   UNL A   1      47.962  35.147  29.535  1.00  0.00     0.060 A 
BRANCH  56  57
ATOM     57  S   UNL A   1      48.690  36.752  29.949  1.00  0.00     0.124 S 
ATOM     58  O   UNL A   1      48.053  37.048  31.226  1.00  0.00    -0.237 OA
ATOM     59  O   UNL A   1      50.115  36.437  30.005  1.00  0.00    -0.237 OA
ATOM     60  O   UNL A   1      48.290  37.601  28.831  1.00  0.00    -0.744 OA
ENDBRANCH  56  57
ENDBRANCH  24  49
BRANCH  36  61
ATOM     61  C   UNL A   1      49.835  26.661  26.605  1.00  0.00     0.058 A 
ATOM     62  C   UNL A   1      50.736  26.166  27.557  1.00  0.00     0.135 A 
ATOM     63  C   UNL A   1      50.209  26.643  25.253  1.00  0.00     0.135 A 
ATOM     64  F   UNL A   1      50.420  26.179  28.861  1.00  0.00    -0.206 F 
ATOM     65  C   UNL A   1      51.961  25.637  27.174  1.00  0.00     0.059 A 
ATOM     66  C   UNL A   1      51.417  26.095  24.847  1.00  0.00     0.059 A 
ATOM     67  F   UNL A   1      49.370  27.106  24.313  1.00  0.00    -0.206 F 
ATOM     68  C   UNL A   1      52.283  25.586  25.815  1.00  0.00     0.060 A 
BRANCH  68  69
ATOM     69  S   UNL A   1      53.814  24.775  25.323  1.00  0.00     0.124 S 
ATOM     70  O   UNL A   1      54.233  25.597  24.193  1.00  0.00    -0.237 OA
ATOM     71  O   UNL A   1      54.628  24.889  26.529  1.00  0.00    -0.237 OA
ATOM     72  O   UNL A   1      53.388  23.418  24.990  1.00  0.00    -0.744 OA
ENDBRANCH  68  69
ENDBRANCH  36  61
ENDBRANCH  10  11
ENDBRANCH   3   5
ENDBRANCH   2   3
ENDBRANCH   1   2
BRANCH   1  73
ATOM     73  C   UNL A   1      33.579  31.415  27.538  1.00  0.00     0.274 C 
BRANCH  73  74
ATOM     74  O   UNL A   1      33.195  30.119  27.043  1.00  0.00    -0.462 OA
BRANCH  74  75
ATOM     75  C   UNL A   1      32.243  30.078  26.055  1.00  0.00     0.313 C 
ATOM     76  O   UNL A   1      31.450  30.976  25.837  1.00  0.00    -0.252 OA
BRANCH  75  77
ATOM     77  C   UNL A   1      32.204  28.714  25.357  1.00  0.00     0.080 C 
ATOM     78  C   UNL A   1      33.626  28.034  25.407  1.00  0.00     0.055 C 
ATOM     79  C   UNL A   1      31.365  27.730  26.182  1.00  0.00     0.055 C 
ATOM     80  C   UNL A   1      33.347  26.575  25.678  1.00  0.00    -0.044 A 
ATOM     81  C   UNL A   1      32.023  26.398  26.038  1.00  0.00    -0.044 A 
ATOM     82  C   UNL A   1      34.208  25.486  25.676  1.00  0.00     0.004 A 
ATOM     83  C   UNL A   1      31.515  25.133  26.318  1.00  0.00     0.004 A 
ATOM     84  C   UNL A   1      33.709  24.211  25.986  1.00  0.00     0.000 A 
ATOM     85  C   UNL A   1      32.358  24.029  26.283  1.00  0.00     0.000 A 
BRANCH  77  86
ATOM     86  C   UNL A   1      31.709  28.935  23.873  1.00  0.00     0.055 C 
BRANCH  86  87
ATOM     87  C   UNL A   1      30.219  28.837  23.528  1.00  0.00    -0.044 A 
ATOM     88  C   UNL A   1      29.441  29.931  23.158  1.00  0.00     0.024 A 
ATOM     89  C   UNL A   1      29.562  27.604  23.495  1.00  0.00     0.024 A 
ATOM     90  C   UNL A   1      28.063  29.788  23.011  1.00  0.00     0.111 A 
ATOM     91  C   UNL A   1      28.178  27.541  23.361  1.00  0.00     0.111 A 
ATOM     92  N   UNL A   1      27.406  28.625  23.157  1.00  0.00    -0.265 NA
ENDBRANCH  86  87
ENDBRANCH  77  86
ENDBRANCH  75  77
ENDBRANCH  74  75
ENDBRANCH  73  74
ENDBRANCH   1  73
TORSDOF 16
ENDMDL
