MODEL 1
REMARK VINA RESULT:     -12.2      0.000      0.000
REMARK SMILES Cc1ccc(-c2c[nH]c(=O)cc2C(=O)OCCOC(=O)c2ccc(-c3c4nc(c(-c5c(F)cc(S(=O)(=O)[O-])cc5F)c5ccc([nH]5)c(-c5c(F)cc(S(=O)(=O)[O-])cc5F)c5nc(c(-c6c(F)cc(S(=O)(=O)[O-])cc6F)c6ccc3[nH]6)C=C5)C=C4)cc2)cc1Cl
REMARK SMILES IDX 17 1 16 2 15 3 13 4 14 5 12 6 6 7 7 8 8 9 11 10 9 11 10 13
REMARK SMILES IDX 5 14 1 15 2 16 3 17 88 18 4 19 87 20 89 21 18 22 19 23 20 24
REMARK SMILES IDX 21 25 22 26 86 27 23 28 85 29 24 30 25 31 26 32 79 33 27 34
REMARK SMILES IDX 84 35 78 36 80 37 28 38 83 39 77 40 76 41 29 43 63 44 42 45
REMARK SMILES IDX 62 46 43 47 46 48 61 49 81 50 44 51 45 52 60 54 82 55 47 56
REMARK SMILES IDX 30 57 31 58 40 59 32 60 33 61 39 62 41 63 34 64 35 65 36 66
REMARK SMILES IDX 37 67 38 68 64 69 65 70 74 71 66 72 67 73 73 74 75 75 68 76
REMARK SMILES IDX 69 77 70 78 71 79 72 80 48 81 49 82 58 83 50 84 51 85 57 86
REMARK SMILES IDX 59 87 52 88 53 89 54 90 55 91 56 92
REMARK H PARENT 8 12 80 42 46 53
REMARK Flexibility Score: inf
ROOT
ATOM      1  C   UNL A   1      33.413  30.135  27.182  1.00  0.00     0.275 C 
ENDROOT
BRANCH   1   2
ATOM      2  C   UNL A   1      32.140  29.324  26.968  1.00  0.00     0.275 C 
BRANCH   2   3
ATOM      3  O   UNL A   1      32.447  28.093  26.275  1.00  0.00    -0.458 OA
BRANCH   3   4
ATOM      4  C   UNL A   1      31.389  27.277  26.029  1.00  0.00     0.339 C 
ATOM      5  O   UNL A   1      30.725  26.694  26.872  1.00  0.00    -0.246 OA
BRANCH   4   6
ATOM      6  C   UNL A   1      31.172  27.107  24.572  1.00  0.00     0.074 A 
ATOM      7  C   UNL A   1      31.841  26.074  23.768  1.00  0.00     0.013 A 
ATOM      8  C   UNL A   1      31.800  26.196  22.432  1.00  0.00     0.095 A 
ATOM      9  N   UNL A   1      31.115  27.234  21.842  1.00  0.00    -0.328 N 
ATOM     10  C   UNL A   1      30.489  28.114  24.004  1.00  0.00     0.087 A 
ATOM     11  C   UNL A   1      30.433  28.205  22.530  1.00  0.00     0.248 A 
ATOM     12  H   UNL A   1      31.114  27.282  20.858  1.00  0.00     0.169 HD
ATOM     13  O   UNL A   1      29.843  29.129  21.982  1.00  0.00    -0.270 OA
BRANCH   7  14
ATOM     14  C   UNL A   1      32.714  25.039  24.342  1.00  0.00    -0.015 A 
ATOM     15  C   UNL A   1      35.506  20.712  25.153  1.00  0.00     0.046 C 
ATOM     16  C   UNL A   1      34.746  21.938  24.758  1.00  0.00    -0.032 A 
ATOM     17  C   UNL A   1      35.584  23.519  24.834  1.00  0.00     0.005 A 
ATOM     18  C   UNL A   1      33.014  21.939  24.509  1.00  0.00     0.044 A 
ATOM     19  C   UNL A   1      34.493  25.217  24.649  1.00  0.00     0.009 A 
ATOM     20  C   UNL A   1      32.041  23.403  24.303  1.00  0.00     0.029 A 
ATOM     21  Cl  UNL A   1      32.154  20.442  24.565  1.00  0.00    -0.084 Cl
ENDBRANCH   7  14
ENDBRANCH   4   6
ENDBRANCH   3   4
ENDBRANCH   2   3
ENDBRANCH   1   2
BRANCH   1  22
ATOM     22  O   UNL A   1      34.147  29.562  28.277  1.00  0.00    -0.458 OA
BRANCH  22  23
ATOM     23  C   UNL A   1      35.133  30.352  28.745  1.00  0.00     0.338 C 
ATOM     24  O   UNL A   1      35.029  31.480  29.202  1.00  0.00    -0.246 OA
BRANCH  23  25
ATOM     25  C   UNL A   1      36.413  29.644  28.762  1.00  0.00     0.060 A 
ATOM     26  C   UNL A   1      37.276  29.366  30.311  1.00  0.00     0.016 A 
ATOM     27  C   UNL A   1      37.361  29.741  27.289  1.00  0.00     0.016 A 
ATOM     28  C   UNL A   1      39.297  29.246  30.264  1.00  0.00     0.010 A 
ATOM     29  C   UNL A   1      39.126  29.561  27.248  1.00  0.00     0.010 A 
ATOM     30  C   UNL A   1      40.152  29.305  28.674  1.00  0.00    -0.014 A 
BRANCH  30  31
ATOM     31  C   UNL A   1      41.598  28.831  28.495  1.00  0.00     0.031 A 
ATOM     32  C   UNL A   1      42.745  29.837  28.422  1.00  0.00     0.074 A 
ATOM     33  C   UNL A   1      41.916  27.538  28.219  1.00  0.00     0.049 A 
ATOM     34  N   UNL A   1      43.949  29.705  27.910  1.00  0.00    -0.248 NA
ATOM     35  C   UNL A   1      42.488  31.186  28.943  1.00  0.00     0.031 C 
ATOM     36  C   UNL A   1      41.012  26.397  28.200  1.00  0.00     0.029 A 
ATOM     37  N   UNL A   1      43.116  26.951  27.848  1.00  0.00    -0.354 N 
ATOM     38  C   UNL A   1      44.543  30.966  27.973  1.00  0.00     0.074 A 
ATOM     39  C   UNL A   1      43.531  31.864  28.486  1.00  0.00     0.031 C 
ATOM     40  C   UNL A   1      41.644  25.276  27.858  1.00  0.00     0.029 A 
ATOM     41  C   UNL A   1      43.011  25.605  27.548  1.00  0.00     0.049 A 
ATOM     42  H   UNL A   1      43.966  27.447  27.803  1.00  0.00     0.167 HD
ATOM     43  C   UNL A   1      45.822  31.340  27.701  1.00  0.00     0.037 A 
ATOM     44  C   UNL A   1      43.865  24.692  27.050  1.00  0.00     0.037 A 
ATOM     45  C   UNL A   1      46.875  30.419  27.344  1.00  0.00     0.049 A 
ATOM     46  C   UNL A   1      45.273  25.098  26.801  1.00  0.00     0.074 A 
ATOM     47  C   UNL A   1      48.227  30.676  27.181  1.00  0.00     0.029 A 
ATOM     48  N   UNL A   1      46.706  29.057  27.137  1.00  0.00    -0.354 N 
ATOM     49  N   UNL A   1      45.798  26.293  26.879  1.00  0.00    -0.248 NA
ATOM     50  C   UNL A   1      46.215  24.033  26.445  1.00  0.00     0.031 C 
ATOM     51  C   UNL A   1      48.871  29.475  26.860  1.00  0.00     0.029 A 
ATOM     52  C   UNL A   1      47.928  28.463  26.858  1.00  0.00     0.049 A 
ATOM     53  H   UNL A   1      45.845  28.584  27.182  1.00  0.00     0.167 HD
ATOM     54  C   UNL A   1      47.149  26.120  26.635  1.00  0.00     0.074 A 
ATOM     55  C   UNL A   1      47.357  24.704  26.400  1.00  0.00     0.031 C 
ATOM     56  C   UNL A   1      48.129  27.055  26.625  1.00  0.00     0.037 A 
BRANCH  43  57
ATOM     57  C   UNL A   1      46.178  32.807  27.839  1.00  0.00     0.058 A 
ATOM     58  C   UNL A   1      45.944  33.729  26.804  1.00  0.00     0.135 A 
ATOM     59  C   UNL A   1      46.740  33.306  29.027  1.00  0.00     0.135 A 
ATOM     60  F   UNL A   1      45.399  33.323  25.647  1.00  0.00    -0.206 F 
ATOM     61  C   UNL A   1      46.324  35.065  26.910  1.00  0.00     0.059 A 
ATOM     62  C   UNL A   1      47.091  34.650  29.171  1.00  0.00     0.059 A 
ATOM     63  F   UNL A   1      46.964  32.487  30.068  1.00  0.00    -0.206 F 
ATOM     64  C   UNL A   1      46.908  35.513  28.093  1.00  0.00     0.060 A 
BRANCH  64  65
ATOM     65  S   UNL A   1      47.431  37.239  28.196  1.00  0.00     0.124 S 
ATOM     66  O   UNL A   1      46.372  37.908  27.446  1.00  0.00    -0.237 OA
ATOM     67  O   UNL A   1      47.436  37.481  29.636  1.00  0.00    -0.237 OA
ATOM     68  O   UNL A   1      48.745  37.236  27.560  1.00  0.00    -0.744 OA
ENDBRANCH  64  65
ENDBRANCH  43  57
BRANCH  44  69
ATOM     69  C   UNL A   1      43.401  23.289  26.840  1.00  0.00     0.058 A 
ATOM     70  C   UNL A   1      43.245  22.777  25.544  1.00  0.00     0.135 A 
ATOM     71  C   UNL A   1      43.210  22.407  27.917  1.00  0.00     0.135 A 
ATOM     72  F   UNL A   1      43.432  23.575  24.483  1.00  0.00    -0.206 F 
ATOM     73  C   UNL A   1      42.901  21.448  25.320  1.00  0.00     0.059 A 
ATOM     74  C   UNL A   1      42.891  21.065  27.719  1.00  0.00     0.059 A 
ATOM     75  F   UNL A   1      43.392  22.834  29.177  1.00  0.00    -0.206 F 
ATOM     76  C   UNL A   1      42.731  20.597  26.414  1.00  0.00     0.060 A 
BRANCH  76  77
ATOM     77  S   UNL A   1      42.339  18.861  26.100  1.00  0.00     0.124 S 
ATOM     78  O   UNL A   1      42.652  18.253  27.389  1.00  0.00    -0.237 OA
ATOM     79  O   UNL A   1      40.924  18.927  25.752  1.00  0.00    -0.237 OA
ATOM     80  O   UNL A   1      43.233  18.506  25.003  1.00  0.00    -0.744 OA
ENDBRANCH  76  77
ENDBRANCH  44  69
BRANCH  56  81
ATOM     81  C   UNL A   1      49.524  26.555  26.406  1.00  0.00     0.058 A 
ATOM     82  C   UNL A   1      50.114  26.553  25.133  1.00  0.00     0.135 A 
ATOM     83  C   UNL A   1      50.273  26.060  27.483  1.00  0.00     0.135 A 
ATOM     84  F   UNL A   1      49.426  26.996  24.068  1.00  0.00    -0.206 F 
ATOM     85  C   UNL A   1      51.393  26.049  24.931  1.00  0.00     0.059 A 
ATOM     86  C   UNL A   1      51.565  25.578  27.309  1.00  0.00     0.059 A 
ATOM     87  F   UNL A   1      49.750  26.039  28.720  1.00  0.00    -0.206 F 
ATOM     88  C   UNL A   1      52.110  25.563  26.026  1.00  0.00     0.060 A 
BRANCH  88  89
ATOM     89  S   UNL A   1      53.778  24.934  25.754  1.00  0.00     0.124 S 
ATOM     90  O   UNL A   1      54.383  25.135  27.067  1.00  0.00    -0.237 OA
ATOM     91  O   UNL A   1      53.532  23.547  25.374  1.00  0.00    -0.237 OA
ATOM     92  O   UNL A   1      54.292  25.788  24.688  1.00  0.00    -0.744 OA
ENDBRANCH  88  89
ENDBRANCH  56  81
ENDBRANCH  30  31
ENDBRANCH  23  25
ENDBRANCH  22  23
ENDBRANCH   1  22
TORSDOF 15
ENDMDL
MODEL 2
REMARK VINA RESULT:     -11.9      7.015     12.300
REMARK SMILES Cc1ccc(-c2c[nH]c(=O)cc2C(=O)OCCOC(=O)c2ccc(-c3c4nc(c(-c5c(F)cc(S(=O)(=O)[O-])cc5F)c5ccc([nH]5)c(-c5c(F)cc(S(=O)(=O)[O-])cc5F)c5nc(c(-c6c(F)cc(S(=O)(=O)[O-])cc6F)c6ccc3[nH]6)C=C5)C=C4)cc2)cc1Cl
REMARK SMILES IDX 17 1 16 2 15 3 13 4 14 5 12 6 6 7 7 8 8 9 11 10 9 11 10 13
REMARK SMILES IDX 5 14 1 15 2 16 3 17 88 18 4 19 87 20 89 21 18 22 19 23 20 24
REMARK SMILES IDX 21 25 22 26 86 27 23 28 85 29 24 30 25 31 26 32 79 33 27 34
REMARK SMILES IDX 84 35 78 36 80 37 28 38 83 39 77 40 76 41 29 43 63 44 42 45
REMARK SMILES IDX 62 46 43 47 46 48 61 49 81 50 44 51 45 52 60 54 82 55 47 56
REMARK SMILES IDX 30 57 31 58 40 59 32 60 33 61 39 62 41 63 34 64 35 65 36 66
REMARK SMILES IDX 37 67 38 68 64 69 65 70 74 71 66 72 67 73 73 74 75 75 68 76
REMARK SMILES IDX 69 77 70 78 71 79 72 80 48 81 49 82 58 83 50 84 51 85 57 86
REMARK SMILES IDX 59 87 52 88 53 89 54 90 55 91 56 92
REMARK H PARENT 8 12 80 42 46 53
REMARK Flexibility Score: inf
ROOT
ATOM      1  C   UNL A   1      37.582  22.535  25.674  1.00  0.00     0.275 C 
ENDROOT
BRANCH   1   2
ATOM      2  C   UNL A   1      36.145  22.960  25.956  1.00  0.00     0.275 C 
BRANCH   2   3
ATOM      3  O   UNL A   1      35.953  24.341  25.579  1.00  0.00    -0.458 OA
BRANCH   3   4
ATOM      4  C   UNL A   1      34.863  24.596  24.809  1.00  0.00     0.339 C 
ATOM      5  O   UNL A   1      34.801  24.475  23.595  1.00  0.00    -0.246 OA
BRANCH   4   6
ATOM      6  C   UNL A   1      33.744  25.126  25.625  1.00  0.00     0.074 A 
ATOM      7  C   UNL A   1      32.553  24.338  25.974  1.00  0.00     0.013 A 
ATOM      8  C   UNL A   1      31.486  24.996  26.455  1.00  0.00     0.095 A 
ATOM      9  N   UNL A   1      31.530  26.358  26.652  1.00  0.00    -0.328 N 
ATOM     10  C   UNL A   1      33.800  26.452  25.827  1.00  0.00     0.087 A 
ATOM     11  C   UNL A   1      32.622  27.145  26.389  1.00  0.00     0.248 A 
ATOM     12  H   UNL A   1      30.722  26.796  27.006  1.00  0.00     0.169 HD
ATOM     13  O   UNL A   1      32.631  28.359  26.557  1.00  0.00    -0.270 OA
BRANCH   7  14
ATOM     14  C   UNL A   1      32.395  22.914  25.640  1.00  0.00    -0.015 A 
ATOM     15  C   UNL A   1      32.744  18.212  23.418  1.00  0.00     0.046 C 
ATOM     16  C   UNL A   1      32.806  19.581  24.016  1.00  0.00    -0.032 A 
ATOM     17  C   UNL A   1      33.207  19.734  25.755  1.00  0.00     0.005 A 
ATOM     18  C   UNL A   1      32.228  21.006  23.180  1.00  0.00     0.044 A 
ATOM     19  C   UNL A   1      32.953  21.526  26.666  1.00  0.00     0.009 A 
ATOM     20  C   UNL A   1      32.036  22.593  23.938  1.00  0.00     0.029 A 
ATOM     21  Cl  UNL A   1      31.704  20.865  21.540  1.00  0.00    -0.084 Cl
ENDBRANCH   7  14
ENDBRANCH   4   6
ENDBRANCH   3   4
ENDBRANCH   2   3
ENDBRANCH   1   2
BRANCH   1  22
ATOM     22  O   UNL A   1      38.380  23.713  25.469  1.00  0.00    -0.458 OA
BRANCH  22  23
ATOM     23  C   UNL A   1      39.433  23.811  26.303  1.00  0.00     0.338 C 
ATOM     24  O   UNL A   1      40.347  23.013  26.444  1.00  0.00    -0.246 OA
BRANCH  23  25
ATOM     25  C   UNL A   1      39.442  25.100  26.992  1.00  0.00     0.060 A 
ATOM     26  C   UNL A   1      40.756  26.285  26.685  1.00  0.00     0.016 A 
ATOM     27  C   UNL A   1      38.634  25.143  28.549  1.00  0.00     0.016 A 
ATOM     28  C   UNL A   1      41.262  27.551  28.181  1.00  0.00     0.010 A 
ATOM     29  C   UNL A   1      39.036  26.306  29.828  1.00  0.00     0.010 A 
ATOM     30  C   UNL A   1      40.315  27.533  29.718  1.00  0.00    -0.014 A 
BRANCH  30  31
ATOM     31  C   UNL A   1      40.350  28.687  30.726  1.00  0.00     0.031 A 
ATOM     32  C   UNL A   1      41.234  28.609  31.968  1.00  0.00     0.074 A 
ATOM     33  C   UNL A   1      39.488  29.736  30.667  1.00  0.00     0.049 A 
ATOM     34  N   UNL A   1      41.143  29.260  33.107  1.00  0.00    -0.248 NA
ATOM     35  C   UNL A   1      42.332  27.633  31.950  1.00  0.00     0.031 C 
ATOM     36  C   UNL A   1      38.530  30.028  29.610  1.00  0.00     0.029 A 
ATOM     37  N   UNL A   1      39.237  30.765  31.563  1.00  0.00    -0.354 N 
ATOM     38  C   UNL A   1      42.108  28.709  33.952  1.00  0.00     0.074 A 
ATOM     39  C   UNL A   1      42.704  27.611  33.223  1.00  0.00     0.031 C 
ATOM     40  C   UNL A   1      37.816  31.118  29.882  1.00  0.00     0.029 A 
ATOM     41  C   UNL A   1      38.196  31.593  31.187  1.00  0.00     0.049 A 
ATOM     42  H   UNL A   1      39.755  30.893  32.392  1.00  0.00     0.167 HD
ATOM     43  C   UNL A   1      42.516  29.110  35.186  1.00  0.00     0.037 A 
ATOM     44  C   UNL A   1      37.553  32.612  31.786  1.00  0.00     0.037 A 
ATOM     45  C   UNL A   1      42.037  30.300  35.849  1.00  0.00     0.049 A 
ATOM     46  C   UNL A   1      38.037  33.075  33.113  1.00  0.00     0.074 A 
ATOM     47  C   UNL A   1      42.481  30.866  37.033  1.00  0.00     0.029 A 
ATOM     48  N   UNL A   1      41.036  31.132  35.366  1.00  0.00    -0.354 N 
ATOM     49  N   UNL A   1      38.953  32.536  33.876  1.00  0.00    -0.248 NA
ATOM     50  C   UNL A   1      37.439  34.304  33.643  1.00  0.00     0.031 C 
ATOM     51  C   UNL A   1      41.739  32.029  37.274  1.00  0.00     0.029 A 
ATOM     52  C   UNL A   1      40.857  32.208  36.223  1.00  0.00     0.049 A 
ATOM     53  H   UNL A   1      40.528  30.980  34.537  1.00  0.00     0.167 HD
ATOM     54  C   UNL A   1      39.085  33.391  34.956  1.00  0.00     0.074 A 
ATOM     55  C   UNL A   1      38.149  34.479  34.749  1.00  0.00     0.031 C 
ATOM     56  C   UNL A   1      39.924  33.287  36.013  1.00  0.00     0.037 A 
BRANCH  43  57
ATOM     57  C   UNL A   1      43.583  28.291  35.883  1.00  0.00     0.058 A 
ATOM     58  C   UNL A   1      43.260  27.224  36.740  1.00  0.00     0.135 A 
ATOM     59  C   UNL A   1      44.949  28.557  35.679  1.00  0.00     0.135 A 
ATOM     60  F   UNL A   1      41.976  26.908  36.971  1.00  0.00    -0.206 F 
ATOM     61  C   UNL A   1      44.239  26.508  37.425  1.00  0.00     0.059 A 
ATOM     62  C   UNL A   1      45.949  27.826  36.323  1.00  0.00     0.059 A 
ATOM     63  F   UNL A   1      45.330  29.543  34.850  1.00  0.00    -0.206 F 
ATOM     64  C   UNL A   1      45.581  26.825  37.219  1.00  0.00     0.060 A 
BRANCH  64  65
ATOM     65  S   UNL A   1      46.834  25.913  38.148  1.00  0.00     0.124 S 
ATOM     66  O   UNL A   1      46.860  26.657  39.403  1.00  0.00    -0.237 OA
ATOM     67  O   UNL A   1      46.259  24.573  38.219  1.00  0.00    -0.237 OA
ATOM     68  O   UNL A   1      48.029  26.036  37.319  1.00  0.00    -0.744 OA
ENDBRANCH  64  65
ENDBRANCH  43  57
BRANCH  44  69
ATOM     69  C   UNL A   1      36.436  33.297  31.072  1.00  0.00     0.058 A 
ATOM     70  C   UNL A   1      35.127  33.234  31.572  1.00  0.00     0.135 A 
ATOM     71  C   UNL A   1      36.667  34.110  29.949  1.00  0.00     0.135 A 
ATOM     72  F   UNL A   1      34.859  32.485  32.652  1.00  0.00    -0.206 F 
ATOM     73  C   UNL A   1      34.084  33.937  30.978  1.00  0.00     0.059 A 
ATOM     74  C   UNL A   1      35.643  34.844  29.352  1.00  0.00     0.059 A 
ATOM     75  F   UNL A   1      37.909  34.242  29.458  1.00  0.00    -0.206 F 
ATOM     76  C   UNL A   1      34.352  34.744  29.871  1.00  0.00     0.060 A 
BRANCH  76  77
ATOM     77  S   UNL A   1      32.994  35.691  29.148  1.00  0.00     0.124 S 
ATOM     78  O   UNL A   1      33.711  36.783  28.499  1.00  0.00    -0.237 OA
ATOM     79  O   UNL A   1      32.380  34.712  28.257  1.00  0.00    -0.237 OA
ATOM     80  O   UNL A   1      32.190  36.067  30.306  1.00  0.00    -0.744 OA
ENDBRANCH  76  77
ENDBRANCH  44  69
BRANCH  56  81
ATOM     81  C   UNL A   1      39.899  34.416  36.997  1.00  0.00     0.058 A 
ATOM     82  C   UNL A   1      39.078  34.384  38.134  1.00  0.00     0.135 A 
ATOM     83  C   UNL A   1      40.698  35.550  36.790  1.00  0.00     0.135 A 
ATOM     84  F   UNL A   1      38.278  33.329  38.362  1.00  0.00    -0.206 F 
ATOM     85  C   UNL A   1      39.028  35.453  39.020  1.00  0.00     0.059 A 
ATOM     86  C   UNL A   1      40.687  36.619  37.678  1.00  0.00     0.059 A 
ATOM     87  F   UNL A   1      41.498  35.628  35.714  1.00  0.00    -0.206 F 
ATOM     88  C   UNL A   1      39.837  36.567  38.782  1.00  0.00     0.060 A 
BRANCH  88  89
ATOM     89  S   UNL A   1      39.782  37.937  39.953  1.00  0.00     0.124 S 
ATOM     90  O   UNL A   1      38.607  38.669  39.491  1.00  0.00    -0.237 OA
ATOM     91  O   UNL A   1      39.639  37.251  41.233  1.00  0.00    -0.237 OA
ATOM     92  O   UNL A   1      41.062  38.609  39.749  1.00  0.00    -0.744 OA
ENDBRANCH  88  89
ENDBRANCH  56  81
ENDBRANCH  30  31
ENDBRANCH  23  25
ENDBRANCH  22  23
ENDBRANCH   1  22
TORSDOF 15
ENDMDL
MODEL 3
REMARK VINA RESULT:     -11.5      4.982     11.957
REMARK SMILES Cc1ccc(-c2c[nH]c(=O)cc2C(=O)OCCOC(=O)c2ccc(-c3c4nc(c(-c5c(F)cc(S(=O)(=O)[O-])cc5F)c5ccc([nH]5)c(-c5c(F)cc(S(=O)(=O)[O-])cc5F)c5nc(c(-c6c(F)cc(S(=O)(=O)[O-])cc6F)c6ccc3[nH]6)C=C5)C=C4)cc2)cc1Cl
REMARK SMILES IDX 17 1 16 2 15 3 13 4 14 5 12 6 6 7 7 8 8 9 11 10 9 11 10 13
REMARK SMILES IDX 5 14 1 15 2 16 3 17 88 18 4 19 87 20 89 21 18 22 19 23 20 24
REMARK SMILES IDX 21 25 22 26 86 27 23 28 85 29 24 30 25 31 26 32 79 33 27 34
REMARK SMILES IDX 84 35 78 36 80 37 28 38 83 39 77 40 76 41 29 43 63 44 42 45
REMARK SMILES IDX 62 46 43 47 46 48 61 49 81 50 44 51 45 52 60 54 82 55 47 56
REMARK SMILES IDX 30 57 31 58 40 59 32 60 33 61 39 62 41 63 34 64 35 65 36 66
REMARK SMILES IDX 37 67 38 68 64 69 65 70 74 71 66 72 67 73 73 74 75 75 68 76
REMARK SMILES IDX 69 77 70 78 71 79 72 80 48 81 49 82 58 83 50 84 51 85 57 86
REMARK SMILES IDX 59 87 52 88 53 89 54 90 55 91 56 92
REMARK H PARENT 8 12 80 42 46 53
REMARK Flexibility Score: inf
ROOT
ATOM      1  C   UNL A   1      47.629  40.322  28.916  1.00  0.00     0.275 C 
ENDROOT
BRANCH   1   2
ATOM      2  C   UNL A   1      47.475  40.849  27.493  1.00  0.00     0.275 C 
BRANCH   2   3
ATOM      3  O   UNL A   1      46.088  41.145  27.221  1.00  0.00    -0.458 OA
BRANCH   3   4
ATOM      4  C   UNL A   1      45.574  40.582  26.097  1.00  0.00     0.339 C 
ATOM      5  O   UNL A   1      46.121  39.731  25.411  1.00  0.00    -0.246 OA
BRANCH   4   6
ATOM      6  C   UNL A   1      44.269  41.189  25.741  1.00  0.00     0.074 A 
ATOM      7  C   UNL A   1      42.987  40.737  26.300  1.00  0.00     0.013 A 
ATOM      8  C   UNL A   1      41.860  41.149  25.697  1.00  0.00     0.095 A 
ATOM      9  N   UNL A   1      41.913  42.002  24.619  1.00  0.00    -0.328 N 
ATOM     10  C   UNL A   1      44.328  42.033  24.698  1.00  0.00     0.087 A 
ATOM     11  C   UNL A   1      43.072  42.497  24.076  1.00  0.00     0.248 A 
ATOM     12  H   UNL A   1      41.060  42.276  24.210  1.00  0.00     0.169 HD
ATOM     13  O   UNL A   1      43.093  43.243  23.104  1.00  0.00    -0.270 OA
BRANCH   7  14
ATOM     14  C   UNL A   1      42.876  39.707  27.345  1.00  0.00    -0.015 A 
ATOM     15  C   UNL A   1      43.501  35.441  30.274  1.00  0.00     0.046 C 
ATOM     16  C   UNL A   1      43.488  36.657  29.405  1.00  0.00    -0.032 A 
ATOM     17  C   UNL A   1      43.684  38.260  30.180  1.00  0.00     0.005 A 
ATOM     18  C   UNL A   1      43.003  36.614  27.724  1.00  0.00     0.044 A 
ATOM     19  C   UNL A   1      43.319  39.928  29.090  1.00  0.00     0.009 A 
ATOM     20  C   UNL A   1      42.717  38.054  26.735  1.00  0.00     0.029 A 
ATOM     21  Cl  UNL A   1      42.672  35.090  26.982  1.00  0.00    -0.084 Cl
ENDBRANCH   7  14
ENDBRANCH   4   6
ENDBRANCH   3   4
ENDBRANCH   2   3
ENDBRANCH   1   2
BRANCH   1  22
ATOM     22  O   UNL A   1      46.965  39.051  29.012  1.00  0.00    -0.458 OA
BRANCH  22  23
ATOM     23  C   UNL A   1      47.804  38.006  29.147  1.00  0.00     0.338 C 
ATOM     24  O   UNL A   1      48.997  38.039  29.408  1.00  0.00    -0.246 OA
BRANCH  23  25
ATOM     25  C   UNL A   1      47.085  36.736  29.058  1.00  0.00     0.060 A 
ATOM     26  C   UNL A   1      47.045  35.614  30.459  1.00  0.00     0.016 A 
ATOM     27  C   UNL A   1      46.923  36.059  27.447  1.00  0.00     0.016 A 
ATOM     28  C   UNL A   1      46.882  33.632  30.084  1.00  0.00     0.010 A 
ATOM     29  C   UNL A   1      46.706  34.326  27.133  1.00  0.00     0.010 A 
ATOM     30  C   UNL A   1      46.665  33.065  28.383  1.00  0.00    -0.014 A 
BRANCH  30  31
ATOM     31  C   UNL A   1      46.141  31.668  28.037  1.00  0.00     0.031 A 
ATOM     32  C   UNL A   1      44.708  31.266  28.379  1.00  0.00     0.074 A 
ATOM     33  C   UNL A   1      46.950  30.675  27.582  1.00  0.00     0.049 A 
ATOM     34  N   UNL A   1      44.183  30.070  28.529  1.00  0.00    -0.248 NA
ATOM     35  C   UNL A   1      43.752  32.350  28.641  1.00  0.00     0.031 C 
ATOM     36  C   UNL A   1      48.353  30.787  27.208  1.00  0.00     0.029 A 
ATOM     37  N   UNL A   1      46.717  29.321  27.390  1.00  0.00    -0.354 N 
ATOM     38  C   UNL A   1      42.877  30.268  28.981  1.00  0.00     0.074 A 
ATOM     39  C   UNL A   1      42.727  31.695  29.170  1.00  0.00     0.031 C 
ATOM     40  C   UNL A   1      48.857  29.613  26.835  1.00  0.00     0.029 A 
ATOM     41  C   UNL A   1      47.839  28.609  27.008  1.00  0.00     0.049 A 
ATOM     42  H   UNL A   1      45.833  28.905  27.513  1.00  0.00     0.167 HD
ATOM     43  C   UNL A   1      41.872  29.370  29.160  1.00  0.00     0.037 A 
ATOM     44  C   UNL A   1      48.096  27.300  26.829  1.00  0.00     0.037 A 
ATOM     45  C   UNL A   1      41.968  27.970  28.820  1.00  0.00     0.049 A 
ATOM     46  C   UNL A   1      46.979  26.330  26.979  1.00  0.00     0.074 A 
ATOM     47  C   UNL A   1      40.971  27.007  28.834  1.00  0.00     0.029 A 
ATOM     48  N   UNL A   1      43.117  27.339  28.362  1.00  0.00    -0.354 N 
ATOM     49  N   UNL A   1      45.761  26.555  27.400  1.00  0.00    -0.248 NA
ATOM     50  C   UNL A   1      47.250  24.943  26.589  1.00  0.00     0.031 C 
ATOM     51  C   UNL A   1      41.520  25.794  28.402  1.00  0.00     0.029 A 
ATOM     52  C   UNL A   1      42.850  26.007  28.084  1.00  0.00     0.049 A 
ATOM     53  H   UNL A   1      43.993  27.774  28.251  1.00  0.00     0.167 HD
ATOM     54  C   UNL A   1      45.098  25.347  27.274  1.00  0.00     0.074 A 
ATOM     55  C   UNL A   1      46.054  24.394  26.744  1.00  0.00     0.031 C 
ATOM     56  C   UNL A   1      43.805  25.064  27.557  1.00  0.00     0.037 A 
BRANCH  43  57
ATOM     57  C   UNL A   1      40.549  29.881  29.693  1.00  0.00     0.058 A 
ATOM     58  C   UNL A   1      39.419  30.021  28.868  1.00  0.00     0.135 A 
ATOM     59  C   UNL A   1      40.397  30.216  31.050  1.00  0.00     0.135 A 
ATOM     60  F   UNL A   1      39.491  29.708  27.565  1.00  0.00    -0.206 F 
ATOM     61  C   UNL A   1      38.220  30.545  29.345  1.00  0.00     0.059 A 
ATOM     62  C   UNL A   1      39.192  30.705  31.560  1.00  0.00     0.059 A 
ATOM     63  F   UNL A   1      41.426  30.079  31.902  1.00  0.00    -0.206 F 
ATOM     64  C   UNL A   1      38.120  30.895  30.691  1.00  0.00     0.060 A 
BRANCH  64  65
ATOM     65  S   UNL A   1      36.570  31.612  31.282  1.00  0.00     0.124 S 
ATOM     66  O   UNL A   1      37.056  32.741  32.069  1.00  0.00    -0.237 OA
ATOM     67  O   UNL A   1      35.888  31.955  30.038  1.00  0.00    -0.237 OA
ATOM     68  O   UNL A   1      35.963  30.527  32.048  1.00  0.00    -0.744 OA
ENDBRANCH  64  65
ENDBRANCH  43  57
BRANCH  44  69
ATOM     69  C   UNL A   1      49.461  26.870  26.408  1.00  0.00     0.058 A 
ATOM     70  C   UNL A   1      50.363  26.347  27.346  1.00  0.00     0.135 A 
ATOM     71  C   UNL A   1      49.851  26.870  25.058  1.00  0.00     0.135 A 
ATOM     72  F   UNL A   1      50.031  26.310  28.644  1.00  0.00    -0.206 F 
ATOM     73  C   UNL A   1      51.608  25.855  26.966  1.00  0.00     0.059 A 
ATOM     74  C   UNL A   1      51.082  26.360  24.650  1.00  0.00     0.059 A 
ATOM     75  F   UNL A   1      49.007  27.317  24.114  1.00  0.00    -0.206 F 
ATOM     76  C   UNL A   1      51.957  25.861  25.615  1.00  0.00     0.060 A 
BRANCH  76  77
ATOM     77  S   UNL A   1      53.556  25.167  25.137  1.00  0.00     0.124 S 
ATOM     78  O   UNL A   1      54.434  25.721  26.162  1.00  0.00    -0.237 OA
ATOM     79  O   UNL A   1      53.303  23.732  25.221  1.00  0.00    -0.237 OA
ATOM     80  O   UNL A   1      53.758  25.684  23.787  1.00  0.00    -0.744 OA
ENDBRANCH  76  77
ENDBRANCH  44  69
BRANCH  56  81
ATOM     81  C   UNL A   1      43.342  23.674  27.243  1.00  0.00     0.058 A 
ATOM     82  C   UNL A   1      43.043  23.275  25.932  1.00  0.00     0.135 A 
ATOM     83  C   UNL A   1      43.185  22.734  28.273  1.00  0.00     0.135 A 
ATOM     84  F   UNL A   1      43.157  24.147  24.917  1.00  0.00    -0.206 F 
ATOM     85  C   UNL A   1      42.575  21.997  25.655  1.00  0.00     0.059 A 
ATOM     86  C   UNL A   1      42.745  21.441  28.015  1.00  0.00     0.059 A 
ATOM     87  F   UNL A   1      43.455  23.070  29.545  1.00  0.00    -0.206 F 
ATOM     88  C   UNL A   1      42.429  21.087  26.704  1.00  0.00     0.060 A 
BRANCH  88  89
ATOM     89  S   UNL A   1      41.843  19.423  26.328  1.00  0.00     0.124 S 
ATOM     90  O   UNL A   1      42.294  18.683  27.502  1.00  0.00    -0.237 OA
ATOM     91  O   UNL A   1      40.401  19.617  26.215  1.00  0.00    -0.237 OA
ATOM     92  O   UNL A   1      42.526  19.099  25.079  1.00  0.00    -0.744 OA
ENDBRANCH  88  89
ENDBRANCH  56  81
ENDBRANCH  30  31
ENDBRANCH  23  25
ENDBRANCH  22  23
ENDBRANCH   1  22
TORSDOF 15
ENDMDL
