MODEL 1
REMARK VINA RESULT:     -11.2      0.000      0.000
REMARK SMILES O=C(COc1ccc(Br)cc1)NC(=S)Nc1ccc(Cl)cc1C(=O)OCCOC(=O)c1ccc(-c2c3nc(c(-c4c(F)cc(S(=O)(=O)[O-])cc4F)c4ccc([nH]4)c(-c4c(F)cc(S(=O)(=O)[O-])cc4F)c4nc(c(-c5c(F)cc(S(=O)(=O)[O-])cc5F)c5ccc2[nH]5)C=C4)C=C3)cc1
REMARK SMILES IDX 25 1 23 2 24 3 22 4 16 5 17 6 18 7 21 8 19 9 20 10 15 11
REMARK SMILES IDX 13 13 14 14 12 15 1 16 2 17 3 19 4 20 5 21 6 22 11 23 7 24
REMARK SMILES IDX 10 25 8 26 9 27 26 28 27 29 28 30 29 31 30 32 31 33 32 34
REMARK SMILES IDX 96 35 33 36 95 37 34 38 35 39 36 40 89 41 37 42 94 43 88 44
REMARK SMILES IDX 90 45 38 46 93 47 87 48 86 49 39 51 73 52 52 53 72 54 53 55
REMARK SMILES IDX 56 56 71 57 91 58 54 59 55 60 70 62 92 63 57 64 40 65 41 66
REMARK SMILES IDX 50 67 42 68 43 69 49 70 51 71 44 72 45 73 46 74 47 75 48 76
REMARK SMILES IDX 74 77 75 78 84 79 76 80 77 81 83 82 85 83 78 84 79 85 80 86
REMARK SMILES IDX 81 87 82 88 58 89 59 90 68 91 60 92 61 93 67 94 69 95 62 96
REMARK SMILES IDX 63 97 64 98 65 99 66 100
REMARK H PARENT 15 12 12 18 90 50 56 61
REMARK Flexibility Score: inf
ROOT
ATOM      1  O   UNL A   1      36.864  21.024  24.972  1.00  0.00    -0.458 OA
ENDROOT
BRANCH   1   2
ATOM      2  C   UNL A   1      35.665  21.266  25.563  1.00  0.00     0.340 C 
ATOM      3  O   UNL A   1      35.474  22.080  26.453  1.00  0.00    -0.246 OA
BRANCH   2   4
ATOM      4  C   UNL A   1      34.557  20.427  25.020  1.00  0.00     0.085 A 
ATOM      5  C   UNL A   1      33.235  20.858  24.807  1.00  0.00     0.055 A 
ATOM      6  C   UNL A   1      32.322  19.987  24.181  1.00  0.00     0.028 A 
ATOM      7  C   UNL A   1      32.664  18.661  23.917  1.00  0.00     0.023 A 
ATOM      8  C   UNL A   1      34.892  19.090  24.734  1.00  0.00     0.038 A 
ATOM      9  C   UNL A   1      33.938  18.209  24.231  1.00  0.00     0.042 A 
ATOM     10  Cl  UNL A   1      34.336  16.553  24.000  1.00  0.00    -0.084 Cl
BRANCH   5  11
ATOM     11  N   UNL A   1      32.799  22.134  25.216  1.00  0.00    -0.332 N 
ATOM     12  H   UNL A   1      32.609  22.227  26.177  1.00  0.00     0.169 HD
BRANCH  11  13
ATOM     13  C   UNL A   1      32.603  23.251  24.474  1.00  0.00     0.177 C 
ATOM     14  S   UNL A   1      33.487  23.467  23.071  1.00  0.00    -0.040 S 
BRANCH  13  15
ATOM     15  N   UNL A   1      31.778  24.269  24.880  1.00  0.00    -0.300 N 
ATOM     16  O   UNL A   1      31.486  24.015  27.193  1.00  0.00    -0.271 OA
ATOM     17  C   UNL A   1      31.272  24.609  26.142  1.00  0.00     0.264 C 
ATOM     18  H   UNL A   1      31.490  24.870  24.154  1.00  0.00     0.172 HD
BRANCH  17  19
ATOM     19  C   UNL A   1      30.457  25.901  26.127  1.00  0.00     0.329 C 
BRANCH  19  20
ATOM     20  O   UNL A   1      30.888  26.799  25.101  1.00  0.00    -0.484 OA
BRANCH  20  21
ATOM     21  C   UNL A   1      31.676  27.785  25.643  1.00  0.00     0.120 A 
ATOM     22  C   UNL A   1      32.672  27.444  26.559  1.00  0.00     0.047 A 
ATOM     23  C   UNL A   1      31.490  29.111  25.258  1.00  0.00     0.047 A 
ATOM     24  C   UNL A   1      33.438  28.447  27.150  1.00  0.00     0.019 A 
ATOM     25  C   UNL A   1      32.267  30.114  25.842  1.00  0.00     0.019 A 
ATOM     26  C   UNL A   1      33.229  29.779  26.797  1.00  0.00     0.018 A 
ATOM     27  Br  UNL A   1      34.253  31.132  27.627  1.00  0.00    -0.051 Br
ENDBRANCH  20  21
ENDBRANCH  19  20
ENDBRANCH  17  19
ENDBRANCH  13  15
ENDBRANCH  11  13
ENDBRANCH   5  11
ENDBRANCH   2   4
ENDBRANCH   1   2
BRANCH   1  28
ATOM     28  C   UNL A   1      37.782  22.139  24.941  1.00  0.00     0.275 C 
BRANCH  28  29
ATOM     29  C   UNL A   1      38.908  21.981  25.960  1.00  0.00     0.275 C 
BRANCH  29  30
ATOM     30  O   UNL A   1      39.016  23.168  26.764  1.00  0.00    -0.458 OA
BRANCH  30  31
ATOM     31  C   UNL A   1      40.255  23.695  26.862  1.00  0.00     0.338 C 
ATOM     32  O   UNL A   1      41.282  23.264  26.359  1.00  0.00    -0.246 OA
BRANCH  31  33
ATOM     33  C   UNL A   1      40.213  24.912  27.683  1.00  0.00     0.060 A 
ATOM     34  C   UNL A   1      41.325  25.753  27.702  1.00  0.00     0.016 A 
ATOM     35  C   UNL A   1      39.127  25.159  28.522  1.00  0.00     0.016 A 
ATOM     36  C   UNL A   1      41.372  26.828  28.589  1.00  0.00     0.010 A 
ATOM     37  C   UNL A   1      39.154  26.269  29.374  1.00  0.00     0.010 A 
ATOM     38  C   UNL A   1      40.286  27.101  29.436  1.00  0.00    -0.014 A 
BRANCH  38  39
ATOM     39  C   UNL A   1      40.368  28.217  30.421  1.00  0.00     0.031 A 
ATOM     40  C   UNL A   1      41.462  28.230  31.457  1.00  0.00     0.074 A 
ATOM     41  C   UNL A   1      39.488  29.238  30.372  1.00  0.00     0.049 A 
ATOM     42  N   UNL A   1      41.624  29.030  32.481  1.00  0.00    -0.248 NA
ATOM     43  C   UNL A   1      42.510  27.204  31.329  1.00  0.00     0.031 C 
ATOM     44  C   UNL A   1      38.407  29.378  29.393  1.00  0.00     0.029 A 
ATOM     45  N   UNL A   1      39.368  30.358  31.157  1.00  0.00    -0.354 N 
ATOM     46  C   UNL A   1      42.761  28.578  33.143  1.00  0.00     0.074 A 
ATOM     47  C   UNL A   1      43.248  27.431  32.407  1.00  0.00     0.031 C 
ATOM     48  C   UNL A   1      37.763  30.536  29.612  1.00  0.00     0.029 A 
ATOM     49  C   UNL A   1      38.332  31.185  30.789  1.00  0.00     0.049 A 
ATOM     50  H   UNL A   1      39.968  30.553  31.913  1.00  0.00     0.167 HD
ATOM     51  C   UNL A   1      43.346  29.076  34.260  1.00  0.00     0.037 A 
ATOM     52  C   UNL A   1      37.869  32.319  31.351  1.00  0.00     0.037 A 
ATOM     53  C   UNL A   1      42.888  30.249  34.961  1.00  0.00     0.049 A 
ATOM     54  C   UNL A   1      38.522  32.839  32.602  1.00  0.00     0.074 A 
ATOM     55  C   UNL A   1      43.407  30.823  36.109  1.00  0.00     0.029 A 
ATOM     56  N   UNL A   1      41.820  31.040  34.567  1.00  0.00    -0.354 N 
ATOM     57  N   UNL A   1      39.550  32.356  33.257  1.00  0.00    -0.248 NA
ATOM     58  C   UNL A   1      37.936  34.046  33.205  1.00  0.00     0.031 C 
ATOM     59  C   UNL A   1      42.639  31.951  36.422  1.00  0.00     0.029 A 
ATOM     60  C   UNL A   1      41.662  32.097  35.450  1.00  0.00     0.049 A 
ATOM     61  H   UNL A   1      41.256  30.876  33.778  1.00  0.00     0.167 HD
ATOM     62  C   UNL A   1      39.739  33.204  34.343  1.00  0.00     0.074 A 
ATOM     63  C   UNL A   1      38.733  34.241  34.247  1.00  0.00     0.031 C 
ATOM     64  C   UNL A   1      40.659  33.125  35.335  1.00  0.00     0.037 A 
BRANCH  51  65
ATOM     65  C   UNL A   1      44.534  28.339  34.813  1.00  0.00     0.058 A 
ATOM     66  C   UNL A   1      44.392  27.265  35.704  1.00  0.00     0.135 A 
ATOM     67  C   UNL A   1      45.834  28.689  34.411  1.00  0.00     0.135 A 
ATOM     68  F   UNL A   1      43.174  26.900  36.133  1.00  0.00    -0.206 F 
ATOM     69  C   UNL A   1      45.498  26.577  36.195  1.00  0.00     0.059 A 
ATOM     70  C   UNL A   1      46.953  28.001  34.872  1.00  0.00     0.059 A 
ATOM     71  F   UNL A   1      46.026  29.708  33.559  1.00  0.00    -0.206 F 
ATOM     72  C   UNL A   1      46.775  26.953  35.773  1.00  0.00     0.060 A 
BRANCH  72  73
ATOM     73  S   UNL A   1      48.201  26.044  36.409  1.00  0.00     0.124 S 
ATOM     74  O   UNL A   1      48.451  25.099  35.325  1.00  0.00    -0.237 OA
ATOM     75  O   UNL A   1      49.197  27.097  36.574  1.00  0.00    -0.237 OA
ATOM     76  O   UNL A   1      47.704  25.459  37.650  1.00  0.00    -0.744 OA
ENDBRANCH  72  73
ENDBRANCH  51  65
BRANCH  52  77
ATOM     77  C   UNL A   1      36.701  33.022  30.757  1.00  0.00     0.058 A 
ATOM     78  C   UNL A   1      35.406  32.827  31.259  1.00  0.00     0.135 A 
ATOM     79  C   UNL A   1      36.856  33.904  29.677  1.00  0.00     0.135 A 
ATOM     80  F   UNL A   1      35.203  31.982  32.282  1.00  0.00    -0.206 F 
ATOM     81  C   UNL A   1      34.304  33.471  30.704  1.00  0.00     0.059 A 
ATOM     82  C   UNL A   1      35.774  34.581  29.122  1.00  0.00     0.059 A 
ATOM     83  F   UNL A   1      38.076  34.133  29.164  1.00  0.00    -0.206 F 
ATOM     84  C   UNL A   1      34.500  34.348  29.635  1.00  0.00     0.060 A 
BRANCH  84  85
ATOM     85  S   UNL A   1      33.075  35.220  28.947  1.00  0.00     0.124 S 
ATOM     86  O   UNL A   1      32.276  35.464  30.141  1.00  0.00    -0.237 OA
ATOM     87  O   UNL A   1      33.691  36.395  28.340  1.00  0.00    -0.237 OA
ATOM     88  O   UNL A   1      32.522  34.255  28.000  1.00  0.00    -0.744 OA
ENDBRANCH  84  85
ENDBRANCH  52  77
BRANCH  64  89
ATOM     89  C   UNL A   1      40.636  34.203  36.381  1.00  0.00     0.058 A 
ATOM     90  C   UNL A   1      39.834  34.096  37.526  1.00  0.00     0.135 A 
ATOM     91  C   UNL A   1      41.451  35.339  36.251  1.00  0.00     0.135 A 
ATOM     92  F   UNL A   1      39.031  33.032  37.693  1.00  0.00    -0.206 F 
ATOM     93  C   UNL A   1      39.824  35.088  38.501  1.00  0.00     0.059 A 
ATOM     94  C   UNL A   1      41.473  36.333  37.223  1.00  0.00     0.059 A 
ATOM     95  F   UNL A   1      42.242  35.484  35.177  1.00  0.00    -0.206 F 
ATOM     96  C   UNL A   1      40.647  36.206  38.339  1.00  0.00     0.060 A 
BRANCH  96  97
ATOM     97  S   UNL A   1      40.648  37.476  39.622  1.00  0.00     0.124 S 
ATOM     98  O   UNL A   1      39.427  38.211  39.309  1.00  0.00    -0.237 OA
ATOM     99  O   UNL A   1      40.617  36.687  40.849  1.00  0.00    -0.237 OA
ATOM    100  O   UNL A   1      41.894  38.198  39.381  1.00  0.00    -0.744 OA
ENDBRANCH  96  97
ENDBRANCH  64  89
ENDBRANCH  38  39
ENDBRANCH  31  33
ENDBRANCH  30  31
ENDBRANCH  29  30
ENDBRANCH  28  29
ENDBRANCH   1  28
TORSDOF 20
ENDMDL
MODEL 2
REMARK VINA RESULT:     -11.2      2.915      4.907
REMARK SMILES O=C(COc1ccc(Br)cc1)NC(=S)Nc1ccc(Cl)cc1C(=O)OCCOC(=O)c1ccc(-c2c3nc(c(-c4c(F)cc(S(=O)(=O)[O-])cc4F)c4ccc([nH]4)c(-c4c(F)cc(S(=O)(=O)[O-])cc4F)c4nc(c(-c5c(F)cc(S(=O)(=O)[O-])cc5F)c5ccc2[nH]5)C=C4)C=C3)cc1
REMARK SMILES IDX 25 1 23 2 24 3 22 4 16 5 17 6 18 7 21 8 19 9 20 10 15 11
REMARK SMILES IDX 13 13 14 14 12 15 1 16 2 17 3 19 4 20 5 21 6 22 11 23 7 24
REMARK SMILES IDX 10 25 8 26 9 27 26 28 27 29 28 30 29 31 30 32 31 33 32 34
REMARK SMILES IDX 96 35 33 36 95 37 34 38 35 39 36 40 89 41 37 42 94 43 88 44
REMARK SMILES IDX 90 45 38 46 93 47 87 48 86 49 39 51 73 52 52 53 72 54 53 55
REMARK SMILES IDX 56 56 71 57 91 58 54 59 55 60 70 62 92 63 57 64 40 65 41 66
REMARK SMILES IDX 50 67 42 68 43 69 49 70 51 71 44 72 45 73 46 74 47 75 48 76
REMARK SMILES IDX 74 77 75 78 84 79 76 80 77 81 83 82 85 83 78 84 79 85 80 86
REMARK SMILES IDX 81 87 82 88 58 89 59 90 68 91 60 92 61 93 67 94 69 95 62 96
REMARK SMILES IDX 63 97 64 98 65 99 66 100
REMARK H PARENT 15 12 12 18 90 50 56 61
REMARK Flexibility Score: inf
ROOT
ATOM      1  O   UNL A   1      34.782  25.595  25.513  1.00  0.00    -0.458 OA
ENDROOT
BRANCH   1   2
ATOM      2  C   UNL A   1      33.479  25.713  25.880  1.00  0.00     0.340 C 
ATOM      3  O   UNL A   1      32.739  24.780  26.147  1.00  0.00    -0.246 OA
BRANCH   2   4
ATOM      4  C   UNL A   1      33.004  27.127  25.933  1.00  0.00     0.085 A 
ATOM      5  C   UNL A   1      31.814  27.612  25.362  1.00  0.00     0.055 A 
ATOM      6  C   UNL A   1      31.439  28.951  25.590  1.00  0.00     0.028 A 
ATOM      7  C   UNL A   1      32.303  29.836  26.233  1.00  0.00     0.023 A 
ATOM      8  C   UNL A   1      33.860  28.030  26.594  1.00  0.00     0.038 A 
ATOM      9  C   UNL A   1      33.528  29.378  26.699  1.00  0.00     0.042 A 
ATOM     10  Cl  UNL A   1      34.639  30.483  27.404  1.00  0.00    -0.084 Cl
BRANCH   5  11
ATOM     11  N   UNL A   1      30.994  26.794  24.558  1.00  0.00    -0.332 N 
ATOM     12  H   UNL A   1      30.143  26.517  24.968  1.00  0.00     0.169 HD
BRANCH  11  13
ATOM     13  C   UNL A   1      31.211  26.334  23.302  1.00  0.00     0.177 C 
ATOM     14  S   UNL A   1      30.882  27.329  21.999  1.00  0.00    -0.040 S 
BRANCH  13  15
ATOM     15  N   UNL A   1      31.595  25.043  23.047  1.00  0.00    -0.300 N 
ATOM     16  O   UNL A   1      33.636  25.164  21.898  1.00  0.00    -0.271 OA
ATOM     17  C   UNL A   1      32.721  24.518  22.397  1.00  0.00     0.264 C 
ATOM     18  H   UNL A   1      30.967  24.361  23.380  1.00  0.00     0.172 HD
BRANCH  17  19
ATOM     19  C   UNL A   1      32.772  22.992  22.435  1.00  0.00     0.329 C 
BRANCH  19  20
ATOM     20  O   UNL A   1      32.310  22.468  23.684  1.00  0.00    -0.484 OA
BRANCH  20  21
ATOM     21  C   UNL A   1      32.739  21.172  23.835  1.00  0.00     0.120 A 
ATOM     22  C   UNL A   1      33.767  20.888  24.735  1.00  0.00     0.047 A 
ATOM     23  C   UNL A   1      32.132  20.151  23.106  1.00  0.00     0.047 A 
ATOM     24  C   UNL A   1      34.240  19.582  24.853  1.00  0.00     0.019 A 
ATOM     25  C   UNL A   1      32.600  18.841  23.234  1.00  0.00     0.019 A 
ATOM     26  C   UNL A   1      33.662  18.565  24.096  1.00  0.00     0.018 A 
ATOM     27  Br  UNL A   1      34.332  16.804  24.242  1.00  0.00    -0.051 Br
ENDBRANCH  20  21
ENDBRANCH  19  20
ENDBRANCH  17  19
ENDBRANCH  13  15
ENDBRANCH  11  13
ENDBRANCH   5  11
ENDBRANCH   2   4
ENDBRANCH   1   2
BRANCH   1  28
ATOM     28  C   UNL A   1      35.146  24.341  24.894  1.00  0.00     0.275 C 
BRANCH  28  29
ATOM     29  C   UNL A   1      36.205  23.592  25.699  1.00  0.00     0.275 C 
BRANCH  29  30
ATOM     30  O   UNL A   1      37.506  23.816  25.132  1.00  0.00    -0.458 OA
BRANCH  30  31
ATOM     31  C   UNL A   1      38.542  23.296  25.825  1.00  0.00     0.338 C 
ATOM     32  O   UNL A   1      38.966  22.151  25.770  1.00  0.00    -0.246 OA
BRANCH  31  33
ATOM     33  C   UNL A   1      39.127  24.328  26.690  1.00  0.00     0.060 A 
ATOM     34  C   UNL A   1      38.785  24.352  28.041  1.00  0.00     0.016 A 
ATOM     35  C   UNL A   1      39.917  25.340  26.144  1.00  0.00     0.016 A 
ATOM     36  C   UNL A   1      39.201  25.409  28.848  1.00  0.00     0.010 A 
ATOM     37  C   UNL A   1      40.378  26.373  26.969  1.00  0.00     0.010 A 
ATOM     38  C   UNL A   1      40.004  26.433  28.324  1.00  0.00    -0.014 A 
BRANCH  38  39
ATOM     39  C   UNL A   1      40.397  27.589  29.179  1.00  0.00     0.031 A 
ATOM     40  C   UNL A   1      41.731  27.587  29.883  1.00  0.00     0.074 A 
ATOM     41  C   UNL A   1      39.583  28.656  29.303  1.00  0.00     0.049 A 
ATOM     42  N   UNL A   1      42.198  28.425  30.775  1.00  0.00    -0.248 NA
ATOM     43  C   UNL A   1      42.658  26.496  29.545  1.00  0.00     0.031 C 
ATOM     44  C   UNL A   1      38.286  28.813  28.641  1.00  0.00     0.029 A 
ATOM     45  N   UNL A   1      39.730  29.819  30.019  1.00  0.00    -0.354 N 
ATOM     46  C   UNL A   1      43.450  27.940  31.136  1.00  0.00     0.074 A 
ATOM     47  C   UNL A   1      43.669  26.730  30.371  1.00  0.00     0.031 C 
ATOM     48  C   UNL A   1      37.776  30.017  28.951  1.00  0.00     0.029 A 
ATOM     49  C   UNL A   1      38.670  30.687  29.889  1.00  0.00     0.049 A 
ATOM     50  H   UNL A   1      40.519  30.015  30.573  1.00  0.00     0.167 HD
ATOM     51  C   UNL A   1      44.336  28.455  32.022  1.00  0.00     0.037 A 
ATOM     52  C   UNL A   1      38.426  31.873  30.482  1.00  0.00     0.037 A 
ATOM     53  C   UNL A   1      44.137  29.686  32.745  1.00  0.00     0.049 A 
ATOM     54  C   UNL A   1      39.415  32.414  31.479  1.00  0.00     0.074 A 
ATOM     55  C   UNL A   1      44.971  30.285  33.674  1.00  0.00     0.029 A 
ATOM     56  N   UNL A   1      43.038  30.519  32.602  1.00  0.00    -0.354 N 
ATOM     57  N   UNL A   1      40.559  31.903  31.864  1.00  0.00    -0.248 NA
ATOM     58  C   UNL A   1      39.068  33.681  32.139  1.00  0.00     0.031 C 
ATOM     59  C   UNL A   1      44.366  31.470  34.109  1.00  0.00     0.029 A 
ATOM     60  C   UNL A   1      43.171  31.625  33.426  1.00  0.00     0.049 A 
ATOM     61  H   UNL A   1      42.275  30.351  32.003  1.00  0.00     0.167 HD
ATOM     62  C   UNL A   1      41.072  32.790  32.805  1.00  0.00     0.074 A 
ATOM     63  C   UNL A   1      40.123  33.879  32.915  1.00  0.00     0.031 C 
ATOM     64  C   UNL A   1      42.221  32.704  33.518  1.00  0.00     0.037 A 
BRANCH  51  65
ATOM     65  C   UNL A   1      45.596  27.677  32.284  1.00  0.00     0.058 A 
ATOM     66  C   UNL A   1      46.774  27.908  31.558  1.00  0.00     0.135 A 
ATOM     67  C   UNL A   1      45.634  26.715  33.306  1.00  0.00     0.135 A 
ATOM     68  F   UNL A   1      46.787  28.805  30.560  1.00  0.00    -0.206 F 
ATOM     69  C   UNL A   1      47.941  27.197  31.822  1.00  0.00     0.059 A 
ATOM     70  C   UNL A   1      46.796  26.007  33.602  1.00  0.00     0.059 A 
ATOM     71  F   UNL A   1      44.535  26.456  34.032  1.00  0.00    -0.206 F 
ATOM     72  C   UNL A   1      47.941  26.247  32.846  1.00  0.00     0.060 A 
BRANCH  72  73
ATOM     73  S   UNL A   1      49.466  25.339  33.185  1.00  0.00     0.124 S 
ATOM     74  O   UNL A   1      50.115  25.360  31.877  1.00  0.00    -0.237 OA
ATOM     75  O   UNL A   1      50.095  26.154  34.218  1.00  0.00    -0.237 OA
ATOM     76  O   UNL A   1      48.990  24.032  33.628  1.00  0.00    -0.744 OA
ENDBRANCH  72  73
ENDBRANCH  51  65
BRANCH  52  77
ATOM     77  C   UNL A   1      37.174  32.614  30.179  1.00  0.00     0.058 A 
ATOM     78  C   UNL A   1      37.124  33.560  29.145  1.00  0.00     0.135 A 
ATOM     79  C   UNL A   1      36.001  32.392  30.916  1.00  0.00     0.135 A 
ATOM     80  F   UNL A   1      38.223  33.819  28.419  1.00  0.00    -0.206 F 
ATOM     81  C   UNL A   1      35.960  34.269  28.859  1.00  0.00     0.059 A 
ATOM     82  C   UNL A   1      34.818  33.068  30.633  1.00  0.00     0.059 A 
ATOM     83  F   UNL A   1      35.993  31.491  31.912  1.00  0.00    -0.206 F 
ATOM     84  C   UNL A   1      34.811  34.013  29.610  1.00  0.00     0.060 A 
BRANCH  84  85
ATOM     85  S   UNL A   1      33.289  34.899  29.208  1.00  0.00     0.124 S 
ATOM     86  O   UNL A   1      33.811  36.135  28.639  1.00  0.00    -0.237 OA
ATOM     87  O   UNL A   1      32.637  33.990  28.270  1.00  0.00    -0.237 OA
ATOM     88  O   UNL A   1      32.628  35.027  30.503  1.00  0.00    -0.744 OA
ENDBRANCH  84  85
ENDBRANCH  52  77
BRANCH  64  89
ATOM     89  C   UNL A   1      42.528  33.832  34.462  1.00  0.00     0.058 A 
ATOM     90  C   UNL A   1      42.101  33.806  35.798  1.00  0.00     0.135 A 
ATOM     91  C   UNL A   1      43.287  34.933  34.034  1.00  0.00     0.135 A 
ATOM     92  F   UNL A   1      41.367  32.780  36.254  1.00  0.00    -0.206 F 
ATOM     93  C   UNL A   1      42.399  34.845  36.675  1.00  0.00     0.059 A 
ATOM     94  C   UNL A   1      43.614  35.972  34.899  1.00  0.00     0.059 A 
ATOM     95  F   UNL A   1      43.725  35.000  32.767  1.00  0.00    -0.206 F 
ATOM     96  C   UNL A   1      43.156  35.925  36.215  1.00  0.00     0.060 A 
BRANCH  96  97
ATOM     97  S   UNL A   1      43.560  37.255  37.366  1.00  0.00     0.124 S 
ATOM     98  O   UNL A   1      44.776  36.745  37.991  1.00  0.00    -0.237 OA
ATOM     99  O   UNL A   1      43.737  38.400  36.478  1.00  0.00    -0.237 OA
ATOM    100  O   UNL A   1      42.387  37.320  38.234  1.00  0.00    -0.744 OA
ENDBRANCH  96  97
ENDBRANCH  64  89
ENDBRANCH  38  39
ENDBRANCH  31  33
ENDBRANCH  30  31
ENDBRANCH  29  30
ENDBRANCH  28  29
ENDBRANCH   1  28
TORSDOF 20
ENDMDL
MODEL 3
REMARK VINA RESULT:     -10.6      6.863     13.337
REMARK SMILES O=C(COc1ccc(Br)cc1)NC(=S)Nc1ccc(Cl)cc1C(=O)OCCOC(=O)c1ccc(-c2c3nc(c(-c4c(F)cc(S(=O)(=O)[O-])cc4F)c4ccc([nH]4)c(-c4c(F)cc(S(=O)(=O)[O-])cc4F)c4nc(c(-c5c(F)cc(S(=O)(=O)[O-])cc5F)c5ccc2[nH]5)C=C4)C=C3)cc1
REMARK SMILES IDX 25 1 23 2 24 3 22 4 16 5 17 6 18 7 21 8 19 9 20 10 15 11
REMARK SMILES IDX 13 13 14 14 12 15 1 16 2 17 3 19 4 20 5 21 6 22 11 23 7 24
REMARK SMILES IDX 10 25 8 26 9 27 26 28 27 29 28 30 29 31 30 32 31 33 32 34
REMARK SMILES IDX 96 35 33 36 95 37 34 38 35 39 36 40 89 41 37 42 94 43 88 44
REMARK SMILES IDX 90 45 38 46 93 47 87 48 86 49 39 51 73 52 52 53 72 54 53 55
REMARK SMILES IDX 56 56 71 57 91 58 54 59 55 60 70 62 92 63 57 64 40 65 41 66
REMARK SMILES IDX 50 67 42 68 43 69 49 70 51 71 44 72 45 73 46 74 47 75 48 76
REMARK SMILES IDX 74 77 75 78 84 79 76 80 77 81 83 82 85 83 78 84 79 85 80 86
REMARK SMILES IDX 81 87 82 88 58 89 59 90 68 91 60 92 61 93 67 94 69 95 62 96
REMARK SMILES IDX 63 97 64 98 65 99 66 100
REMARK H PARENT 15 12 12 18 90 50 56 61
REMARK Flexibility Score: inf
ROOT
ATOM      1  O   UNL A   1      34.082  32.384  29.080  1.00  0.00    -0.458 OA
ENDROOT
BRANCH   1   2
ATOM      2  C   UNL A   1      34.104  33.742  29.143  1.00  0.00     0.340 C 
ATOM      3  O   UNL A   1      33.976  34.490  28.187  1.00  0.00    -0.246 OA
BRANCH   2   4
ATOM      4  C   UNL A   1      34.304  34.267  30.526  1.00  0.00     0.085 A 
ATOM      5  C   UNL A   1      35.331  33.880  31.406  1.00  0.00     0.055 A 
ATOM      6  C   UNL A   1      35.463  34.545  32.641  1.00  0.00     0.028 A 
ATOM      7  C   UNL A   1      34.501  35.461  33.066  1.00  0.00     0.023 A 
ATOM      8  C   UNL A   1      33.349  35.205  30.963  1.00  0.00     0.038 A 
ATOM      9  C   UNL A   1      33.427  35.758  32.239  1.00  0.00     0.042 A 
ATOM     10  Cl  UNL A   1      32.187  36.809  32.796  1.00  0.00    -0.084 Cl
BRANCH   5  11
ATOM     11  N   UNL A   1      36.223  32.837  31.087  1.00  0.00    -0.332 N 
ATOM     12  H   UNL A   1      35.822  31.939  31.035  1.00  0.00     0.169 HD
BRANCH  11  13
ATOM     13  C   UNL A   1      37.555  32.893  30.842  1.00  0.00     0.177 C 
ATOM     14  S   UNL A   1      38.092  33.486  29.373  1.00  0.00    -0.040 S 
BRANCH  13  15
ATOM     15  N   UNL A   1      38.485  32.386  31.712  1.00  0.00    -0.300 N 
ATOM     16  O   UNL A   1      37.356  30.858  33.087  1.00  0.00    -0.271 OA
ATOM     17  C   UNL A   1      38.377  31.445  32.745  1.00  0.00     0.264 C 
ATOM     18  H   UNL A   1      39.393  32.750  31.591  1.00  0.00     0.172 HD
BRANCH  17  19
ATOM     19  C   UNL A   1      39.721  31.117  33.393  1.00  0.00     0.329 C 
BRANCH  19  20
ATOM     20  O   UNL A   1      40.751  32.024  32.989  1.00  0.00    -0.484 OA
BRANCH  20  21
ATOM     21  C   UNL A   1      41.858  31.322  32.579  1.00  0.00     0.120 A 
ATOM     22  C   UNL A   1      41.737  29.970  32.262  1.00  0.00     0.047 A 
ATOM     23  C   UNL A   1      43.086  31.971  32.464  1.00  0.00     0.047 A 
ATOM     24  C   UNL A   1      42.868  29.242  31.896  1.00  0.00     0.019 A 
ATOM     25  C   UNL A   1      44.217  31.243  32.086  1.00  0.00     0.019 A 
ATOM     26  C   UNL A   1      44.106  29.878  31.817  1.00  0.00     0.018 A 
ATOM     27  Br  UNL A   1      45.638  28.875  31.350  1.00  0.00    -0.051 Br
ENDBRANCH  20  21
ENDBRANCH  19  20
ENDBRANCH  17  19
ENDBRANCH  13  15
ENDBRANCH  11  13
ENDBRANCH   5  11
ENDBRANCH   2   4
ENDBRANCH   1   2
BRANCH   1  28
ATOM     28  C   UNL A   1      33.674  31.825  27.812  1.00  0.00     0.275 C 
BRANCH  28  29
ATOM     29  C   UNL A   1      34.228  30.417  27.603  1.00  0.00     0.275 C 
BRANCH  29  30
ATOM     30  O   UNL A   1      35.663  30.437  27.677  1.00  0.00    -0.458 OA
BRANCH  30  31
ATOM     31  C   UNL A   1      36.194  29.959  28.823  1.00  0.00     0.338 C 
ATOM     32  O   UNL A   1      35.602  29.713  29.864  1.00  0.00    -0.246 OA
BRANCH  31  33
ATOM     33  C   UNL A   1      37.638  29.755  28.653  1.00  0.00     0.060 A 
ATOM     34  C   UNL A   1      38.167  29.708  27.364  1.00  0.00     0.016 A 
ATOM     35  C   UNL A   1      38.448  29.493  29.758  1.00  0.00     0.016 A 
ATOM     36  C   UNL A   1      39.503  29.362  27.171  1.00  0.00     0.010 A 
ATOM     37  C   UNL A   1      39.803  29.198  29.564  1.00  0.00     0.010 A 
ATOM     38  C   UNL A   1      40.340  29.104  28.268  1.00  0.00    -0.014 A 
BRANCH  38  39
ATOM     39  C   UNL A   1      41.752  28.679  28.050  1.00  0.00     0.031 A 
ATOM     40  C   UNL A   1      42.869  29.683  28.175  1.00  0.00     0.074 A 
ATOM     41  C   UNL A   1      42.044  27.392  27.774  1.00  0.00     0.049 A 
ATOM     42  N   UNL A   1      44.140  29.548  27.891  1.00  0.00    -0.248 NA
ATOM     43  C   UNL A   1      42.508  31.018  28.679  1.00  0.00     0.031 C 
ATOM     44  C   UNL A   1      41.067  26.306  27.671  1.00  0.00     0.029 A 
ATOM     45  N   UNL A   1      43.249  26.775  27.542  1.00  0.00    -0.354 N 
ATOM     46  C   UNL A   1      44.721  30.787  28.138  1.00  0.00     0.074 A 
ATOM     47  C   UNL A   1      43.663  31.665  28.591  1.00  0.00     0.031 C 
ATOM     48  C   UNL A   1      41.715  25.152  27.435  1.00  0.00     0.029 A 
ATOM     49  C   UNL A   1      43.142  25.426  27.297  1.00  0.00     0.049 A 
ATOM     50  H   UNL A   1      44.109  27.253  27.550  1.00  0.00     0.167 HD
ATOM     51  C   UNL A   1      46.017  31.159  28.001  1.00  0.00     0.037 A 
ATOM     52  C   UNL A   1      44.078  24.515  26.966  1.00  0.00     0.037 A 
ATOM     53  C   UNL A   1      47.078  30.270  27.599  1.00  0.00     0.049 A 
ATOM     54  C   UNL A   1      45.507  24.955  26.800  1.00  0.00     0.074 A 
ATOM     55  C   UNL A   1      48.421  30.555  27.420  1.00  0.00     0.029 A 
ATOM     56  N   UNL A   1      46.919  28.917  27.336  1.00  0.00    -0.354 N 
ATOM     57  N   UNL A   1      46.025  26.148  26.965  1.00  0.00    -0.248 NA
ATOM     58  C   UNL A   1      46.474  23.931  26.379  1.00  0.00     0.031 C 
ATOM     59  C   UNL A   1      49.072  29.379  27.028  1.00  0.00     0.029 A 
ATOM     60  C   UNL A   1      48.139  28.355  26.995  1.00  0.00     0.049 A 
ATOM     61  H   UNL A   1      46.067  28.428  27.384  1.00  0.00     0.167 HD
ATOM     62  C   UNL A   1      47.379  26.016  26.676  1.00  0.00     0.074 A 
ATOM     63  C   UNL A   1      47.604  24.624  26.346  1.00  0.00     0.031 C 
ATOM     64  C   UNL A   1      48.347  26.965  26.677  1.00  0.00     0.037 A 
BRANCH  51  65
ATOM     65  C   UNL A   1      46.363  32.598  28.265  1.00  0.00     0.058 A 
ATOM     66  C   UNL A   1      46.241  33.584  27.274  1.00  0.00     0.135 A 
ATOM     67  C   UNL A   1      46.783  33.002  29.543  1.00  0.00     0.135 A 
ATOM     68  F   UNL A   1      45.860  33.249  26.032  1.00  0.00    -0.206 F 
ATOM     69  C   UNL A   1      46.545  34.917  27.534  1.00  0.00     0.059 A 
ATOM     70  C   UNL A   1      47.071  34.333  29.832  1.00  0.00     0.059 A 
ATOM     71  F   UNL A   1      46.915  32.100  30.528  1.00  0.00    -0.206 F 
ATOM     72  C   UNL A   1      46.960  35.282  28.817  1.00  0.00     0.060 A 
BRANCH  72  73
ATOM     73  S   UNL A   1      47.340  37.017  29.144  1.00  0.00     0.124 S 
ATOM     74  O   UNL A   1      46.015  37.626  29.063  1.00  0.00    -0.237 OA
ATOM     75  O   UNL A   1      47.932  36.964  30.476  1.00  0.00    -0.237 OA
ATOM     76  O   UNL A   1      48.260  37.372  28.068  1.00  0.00    -0.744 OA
ENDBRANCH  72  73
ENDBRANCH  51  65
BRANCH  52  77
ATOM     77  C   UNL A   1      43.691  23.098  26.732  1.00  0.00     0.058 A 
ATOM     78  C   UNL A   1      43.702  22.547  25.443  1.00  0.00     0.135 A 
ATOM     79  C   UNL A   1      43.302  22.266  27.794  1.00  0.00     0.135 A 
ATOM     80  F   UNL A   1      44.052  23.306  24.392  1.00  0.00    -0.206 F 
ATOM     81  C   UNL A   1      43.330  21.227  25.210  1.00  0.00     0.059 A 
ATOM     82  C   UNL A   1      42.952  20.935  27.591  1.00  0.00     0.059 A 
ATOM     83  F   UNL A   1      43.282  22.742  29.049  1.00  0.00    -0.206 F 
ATOM     84  C   UNL A   1      42.958  20.428  26.293  1.00  0.00     0.060 A 
BRANCH  84  85
ATOM     85  S   UNL A   1      42.521  18.700  25.996  1.00  0.00     0.124 S 
ATOM     86  O   UNL A   1      41.106  18.808  25.664  1.00  0.00    -0.237 OA
ATOM     87  O   UNL A   1      43.410  18.337  24.897  1.00  0.00    -0.237 OA
ATOM     88  O   UNL A   1      42.824  18.058  27.272  1.00  0.00    -0.744 OA
ENDBRANCH  84  85
ENDBRANCH  52  77
BRANCH  64  89
ATOM     89  C   UNL A   1      49.741  26.524  26.335  1.00  0.00     0.058 A 
ATOM     90  C   UNL A   1      50.589  25.962  27.301  1.00  0.00     0.135 A 
ATOM     91  C   UNL A   1      50.221  26.632  25.020  1.00  0.00     0.135 A 
ATOM     92  F   UNL A   1      50.180  25.843  28.574  1.00  0.00    -0.206 F 
ATOM     93  C   UNL A   1      51.876  25.539  26.980  1.00  0.00     0.059 A 
ATOM     94  C   UNL A   1      51.496  26.197  24.673  1.00  0.00     0.059 A 
ATOM     95  F   UNL A   1      49.445  27.156  24.059  1.00  0.00    -0.206 F 
ATOM     96  C   UNL A   1      52.321  25.663  25.661  1.00  0.00     0.060 A 
BRANCH  96  97
ATOM     97  S   UNL A   1      53.981  25.089  25.248  1.00  0.00     0.124 S 
ATOM     98  O   UNL A   1      54.293  25.905  24.079  1.00  0.00    -0.237 OA
ATOM     99  O   UNL A   1      54.735  25.401  26.459  1.00  0.00    -0.237 OA
ATOM    100  O   UNL A   1      53.791  23.664  24.987  1.00  0.00    -0.744 OA
ENDBRANCH  96  97
ENDBRANCH  64  89
ENDBRANCH  38  39
ENDBRANCH  31  33
ENDBRANCH  30  31
ENDBRANCH  29  30
ENDBRANCH  28  29
ENDBRANCH   1  28
TORSDOF 20
ENDMDL
