MODEL 1
REMARK VINA RESULT:     -12.2      0.000      0.000
REMARK SMILES O=C(OCCOC(=O)c1ccc(-c2c3nc(c(-c4c(F)cc(S(=O)(=O)[O-])cc4F)c4ccc([nH]4)c(-c4c(F)cc(S(=O)(=O)[O-])cc4F)c4nc(c(-c5c(F)cc(S(=O)(=O)[O-])cc5F)c5ccc2[nH]5)C=C4)C=C3)cc1)C1=Cc2cc(Cl)cc(-c3ccc(O)cc3)c2O[C@@H]1C(F)(F)F
REMARK SMILES IDX 5 1 4 2 3 3 2 4 1 5 75 6 76 7 92 8 77 9 91 10 78 11 90 12
REMARK SMILES IDX 79 13 82 14 80 15 81 16 93 17 94 18 95 19 96 20 83 21 84 22
REMARK SMILES IDX 89 23 85 24 88 25 86 26 87 27 6 29 7 30 8 31 9 32 10 33
REMARK SMILES IDX 74 34 11 35 73 36 12 37 13 38 14 39 67 40 15 41 72 42 66 43
REMARK SMILES IDX 68 44 16 45 71 46 65 47 64 48 17 50 51 51 30 52 50 53 31 54
REMARK SMILES IDX 34 55 49 56 69 57 32 58 33 59 48 61 70 62 35 63 18 64 19 65
REMARK SMILES IDX 28 66 20 67 21 68 27 69 29 70 22 71 23 72 24 73 25 74 26 75
REMARK SMILES IDX 52 76 53 77 62 78 54 79 55 80 61 81 63 82 56 83 57 84 58 85
REMARK SMILES IDX 59 86 60 87 36 88 37 89 46 90 38 91 39 92 45 93 47 94 40 95
REMARK SMILES IDX 41 96 42 97 43 98 44 99
REMARK H PARENT 87 28 68 49 34 60
REMARK Flexibility Score: inf
ROOT
ATOM      1  C   UNL A   1      33.439  28.945  25.151  1.00  0.00     0.275 C 
ENDROOT
BRANCH   1   2
ATOM      2  C   UNL A   1      33.914  28.331  23.813  1.00  0.00     0.275 C 
BRANCH   2   3
ATOM      3  O   UNL A   1      32.866  27.652  23.074  1.00  0.00    -0.459 OA
BRANCH   3   4
ATOM      4  C   UNL A   1      33.101  26.358  22.716  1.00  0.00     0.338 C 
ATOM      5  O   UNL A   1      33.907  26.033  21.860  1.00  0.00    -0.246 OA
BRANCH   4   6
ATOM      6  C   UNL A   1      32.323  25.390  23.522  1.00  0.00     0.087 C 
ATOM      7  C   UNL A   1      31.939  24.249  22.926  1.00  0.00     0.027 C 
ATOM      8  C   UNL A   1      32.410  25.425  25.011  1.00  0.00     0.316 C 
ATOM      9  C   UNL A   1      32.216  23.040  23.737  1.00  0.00     0.019 A 
ATOM     10  O   UNL A   1      33.324  24.380  25.436  1.00  0.00    -0.475 OA
ATOM     11  C   UNL A   1      31.912  21.773  23.247  1.00  0.00     0.032 A 
ATOM     12  C   UNL A   1      33.174  23.187  24.764  1.00  0.00     0.135 A 
ATOM     13  C   UNL A   1      32.650  20.682  23.697  1.00  0.00     0.042 A 
ATOM     14  C   UNL A   1      34.095  22.153  24.994  1.00  0.00     0.026 A 
ATOM     15  Cl  UNL A   1      32.324  19.113  23.074  1.00  0.00    -0.084 Cl
ATOM     16  C   UNL A   1      33.766  20.874  24.514  1.00  0.00     0.033 A 
BRANCH   8  17
ATOM     17  C   UNL A   1      31.048  25.472  25.727  1.00  0.00     0.430 C 
ATOM     18  F   UNL A   1      30.984  26.554  26.545  1.00  0.00    -0.167 F 
ATOM     19  F   UNL A   1      29.993  25.544  24.887  1.00  0.00    -0.167 F 
ATOM     20  F   UNL A   1      30.870  24.381  26.509  1.00  0.00    -0.167 F 
ENDBRANCH   8  17
BRANCH  14  21
ATOM     21  C   UNL A   1      35.516  22.433  25.298  1.00  0.00    -0.014 A 
ATOM     22  C   UNL A   1      36.460  21.420  24.994  1.00  0.00     0.012 A 
ATOM     23  C   UNL A   1      35.994  23.620  25.860  1.00  0.00     0.012 A 
ATOM     24  C   UNL A   1      37.819  21.575  25.261  1.00  0.00     0.047 A 
ATOM     25  C   UNL A   1      37.367  23.781  26.128  1.00  0.00     0.047 A 
ATOM     26  C   UNL A   1      38.264  22.755  25.832  1.00  0.00     0.115 A 
BRANCH  26  27
ATOM     27  O   UNL A   1      39.599  22.862  26.086  1.00  0.00    -0.508 OA
ATOM     28  H   UNL A   1      40.174  22.153  25.876  1.00  0.00     0.293 HD
ENDBRANCH  26  27
ENDBRANCH  14  21
ENDBRANCH   4   6
ENDBRANCH   3   4
ENDBRANCH   2   3
ENDBRANCH   1   2
BRANCH   1  29
ATOM     29  O   UNL A   1      34.369  28.746  26.221  1.00  0.00    -0.458 OA
BRANCH  29  30
ATOM     30  C   UNL A   1      34.348  29.738  27.146  1.00  0.00     0.338 C 
ATOM     31  O   UNL A   1      33.390  30.409  27.451  1.00  0.00    -0.246 OA
BRANCH  30  32
ATOM     32  C   UNL A   1      35.624  29.702  27.905  1.00  0.00     0.060 A 
ATOM     33  C   UNL A   1      36.765  30.097  27.205  1.00  0.00     0.016 A 
ATOM     34  C   UNL A   1      35.717  29.343  29.257  1.00  0.00     0.016 A 
ATOM     35  C   UNL A   1      38.008  30.067  27.828  1.00  0.00     0.010 A 
ATOM     36  C   UNL A   1      36.967  29.344  29.892  1.00  0.00     0.010 A 
ATOM     37  C   UNL A   1      38.126  29.655  29.163  1.00  0.00    -0.014 A 
BRANCH  37  38
ATOM     38  C   UNL A   1      39.495  29.381  29.675  1.00  0.00     0.031 A 
ATOM     39  C   UNL A   1      39.962  30.113  30.905  1.00  0.00     0.074 A 
ATOM     40  C   UNL A   1      40.237  28.381  29.161  1.00  0.00     0.049 A 
ATOM     41  N   UNL A   1      40.967  29.842  31.697  1.00  0.00    -0.248 NA
ATOM     42  C   UNL A   1      39.189  31.300  31.303  1.00  0.00     0.031 C 
ATOM     43  C   UNL A   1      39.908  27.612  27.961  1.00  0.00     0.029 A 
ATOM     44  N   UNL A   1      41.408  27.822  29.608  1.00  0.00    -0.354 N 
ATOM     45  C   UNL A   1      40.912  30.789  32.712  1.00  0.00     0.074 A 
ATOM     46  C   UNL A   1      39.832  31.695  32.390  1.00  0.00     0.031 C 
ATOM     47  C   UNL A   1      40.846  26.664  27.780  1.00  0.00     0.029 A 
ATOM     48  C   UNL A   1      41.832  26.752  28.854  1.00  0.00     0.049 A 
ATOM     49  H   UNL A   1      41.899  28.154  30.394  1.00  0.00     0.167 HD
ATOM     50  C   UNL A   1      41.661  30.875  33.837  1.00  0.00     0.037 A 
ATOM     51  C   UNL A   1      42.882  25.924  29.029  1.00  0.00     0.037 A 
ATOM     52  C   UNL A   1      42.755  29.997  34.144  1.00  0.00     0.049 A 
ATOM     53  C   UNL A   1      43.739  26.070  30.265  1.00  0.00     0.074 A 
ATOM     54  C   UNL A   1      43.591  30.012  35.245  1.00  0.00     0.029 A 
ATOM     55  N   UNL A   1      43.171  28.948  33.338  1.00  0.00    -0.354 N 
ATOM     56  N   UNL A   1      43.621  26.921  31.257  1.00  0.00    -0.248 NA
ATOM     57  C   UNL A   1      44.852  25.122  30.418  1.00  0.00     0.031 C 
ATOM     58  C   UNL A   1      44.537  28.993  35.087  1.00  0.00     0.029 A 
ATOM     59  C   UNL A   1      44.261  28.316  33.908  1.00  0.00     0.049 A 
ATOM     60  H   UNL A   1      42.752  28.692  32.485  1.00  0.00     0.167 HD
ATOM     61  C   UNL A   1      44.625  26.591  32.164  1.00  0.00     0.074 A 
ATOM     62  C   UNL A   1      45.328  25.452  31.610  1.00  0.00     0.031 C 
ATOM     63  C   UNL A   1      44.940  27.175  33.347  1.00  0.00     0.037 A 
BRANCH  50  64
ATOM     64  C   UNL A   1      41.296  31.956  34.814  1.00  0.00     0.058 A 
ATOM     65  C   UNL A   1      40.331  31.735  35.813  1.00  0.00     0.135 A 
ATOM     66  C   UNL A   1      41.896  33.222  34.752  1.00  0.00     0.135 A 
ATOM     67  F   UNL A   1      39.711  30.548  35.902  1.00  0.00    -0.206 F 
ATOM     68  C   UNL A   1      39.951  32.742  36.693  1.00  0.00     0.059 A 
ATOM     69  C   UNL A   1      41.548  34.238  35.637  1.00  0.00     0.059 A 
ATOM     70  F   UNL A   1      42.818  33.488  33.813  1.00  0.00    -0.206 F 
ATOM     71  C   UNL A   1      40.560  33.993  36.593  1.00  0.00     0.060 A 
BRANCH  71  72
ATOM     72  S   UNL A   1      40.037  35.297  37.725  1.00  0.00     0.124 S 
ATOM     73  O   UNL A   1      39.846  36.418  36.809  1.00  0.00    -0.237 OA
ATOM     74  O   UNL A   1      38.820  34.739  38.305  1.00  0.00    -0.237 OA
ATOM     75  O   UNL A   1      41.165  35.424  38.643  1.00  0.00    -0.744 OA
ENDBRANCH  71  72
ENDBRANCH  50  64
BRANCH  51  76
ATOM     76  C   UNL A   1      43.181  24.864  28.027  1.00  0.00     0.058 A 
ATOM     77  C   UNL A   1      42.652  23.570  28.142  1.00  0.00     0.135 A 
ATOM     78  C   UNL A   1      44.049  25.120  26.953  1.00  0.00     0.135 A 
ATOM     79  F   UNL A   1      41.824  23.272  29.155  1.00  0.00    -0.206 F 
ATOM     80  C   UNL A   1      43.000  22.557  27.253  1.00  0.00     0.059 A 
ATOM     81  C   UNL A   1      44.391  24.131  26.036  1.00  0.00     0.059 A 
ATOM     82  F   UNL A   1      44.571  26.344  26.787  1.00  0.00    -0.206 F 
ATOM     83  C   UNL A   1      43.877  22.846  26.206  1.00  0.00     0.060 A 
BRANCH  83  84
ATOM     84  S   UNL A   1      44.326  21.527  25.057  1.00  0.00     0.124 S 
ATOM     85  O   UNL A   1      43.297  20.533  25.334  1.00  0.00    -0.237 OA
ATOM     86  O   UNL A   1      44.233  22.199  23.764  1.00  0.00    -0.237 OA
ATOM     87  O   UNL A   1      45.679  21.167  25.470  1.00  0.00    -0.744 OA
ENDBRANCH  83  84
ENDBRANCH  51  76
BRANCH  63  88
ATOM     88  C   UNL A   1      46.072  26.578  34.137  1.00  0.00     0.058 A 
ATOM     89  C   UNL A   1      47.394  27.026  33.990  1.00  0.00     0.135 A 
ATOM     90  C   UNL A   1      45.823  25.576  35.091  1.00  0.00     0.135 A 
ATOM     91  F   UNL A   1      47.687  27.981  33.092  1.00  0.00    -0.206 F 
ATOM     92  C   UNL A   1      48.434  26.481  34.735  1.00  0.00     0.059 A 
ATOM     93  C   UNL A   1      46.844  25.037  35.867  1.00  0.00     0.059 A 
ATOM     94  F   UNL A   1      44.574  25.122  35.284  1.00  0.00    -0.206 F 
ATOM     95  C   UNL A   1      48.149  25.485  35.671  1.00  0.00     0.060 A 
BRANCH  95  96
ATOM     96  S   UNL A   1      49.503  24.802  36.651  1.00  0.00     0.124 S 
ATOM     97  O   UNL A   1      48.839  23.702  37.342  1.00  0.00    -0.237 OA
ATOM     98  O   UNL A   1      50.468  24.416  35.627  1.00  0.00    -0.237 OA
ATOM     99  O   UNL A   1      49.909  25.921  37.495  1.00  0.00    -0.744 OA
ENDBRANCH  95  96
ENDBRANCH  63  88
ENDBRANCH  37  38
ENDBRANCH  30  32
ENDBRANCH  29  30
ENDBRANCH   1  29
TORSDOF 17
ENDMDL
MODEL 2
REMARK VINA RESULT:     -12.1      3.352      8.475
REMARK SMILES O=C(OCCOC(=O)c1ccc(-c2c3nc(c(-c4c(F)cc(S(=O)(=O)[O-])cc4F)c4ccc([nH]4)c(-c4c(F)cc(S(=O)(=O)[O-])cc4F)c4nc(c(-c5c(F)cc(S(=O)(=O)[O-])cc5F)c5ccc2[nH]5)C=C4)C=C3)cc1)C1=Cc2cc(Cl)cc(-c3ccc(O)cc3)c2O[C@@H]1C(F)(F)F
REMARK SMILES IDX 5 1 4 2 3 3 2 4 1 5 75 6 76 7 92 8 77 9 91 10 78 11 90 12
REMARK SMILES IDX 79 13 82 14 80 15 81 16 93 17 94 18 95 19 96 20 83 21 84 22
REMARK SMILES IDX 89 23 85 24 88 25 86 26 87 27 6 29 7 30 8 31 9 32 10 33
REMARK SMILES IDX 74 34 11 35 73 36 12 37 13 38 14 39 67 40 15 41 72 42 66 43
REMARK SMILES IDX 68 44 16 45 71 46 65 47 64 48 17 50 51 51 30 52 50 53 31 54
REMARK SMILES IDX 34 55 49 56 69 57 32 58 33 59 48 61 70 62 35 63 18 64 19 65
REMARK SMILES IDX 28 66 20 67 21 68 27 69 29 70 22 71 23 72 24 73 25 74 26 75
REMARK SMILES IDX 52 76 53 77 62 78 54 79 55 80 61 81 63 82 56 83 57 84 58 85
REMARK SMILES IDX 59 86 60 87 36 88 37 89 46 90 38 91 39 92 45 93 47 94 40 95
REMARK SMILES IDX 41 96 42 97 43 98 44 99
REMARK H PARENT 87 28 68 49 34 60
REMARK Flexibility Score: inf
ROOT
ATOM      1  C   UNL A   1      33.195  30.194  26.419  1.00  0.00     0.275 C 
ENDROOT
BRANCH   1   2
ATOM      2  C   UNL A   1      32.916  29.529  25.051  1.00  0.00     0.275 C 
BRANCH   2   3
ATOM      3  O   UNL A   1      33.949  28.601  24.628  1.00  0.00    -0.459 OA
BRANCH   3   4
ATOM      4  C   UNL A   1      33.611  27.697  23.666  1.00  0.00     0.338 C 
ATOM      5  O   UNL A   1      34.070  27.715  22.535  1.00  0.00    -0.246 OA
BRANCH   4   6
ATOM      6  C   UNL A   1      32.682  26.655  24.159  1.00  0.00     0.087 C 
ATOM      7  C   UNL A   1      32.177  25.794  23.259  1.00  0.00     0.027 C 
ATOM      8  C   UNL A   1      32.713  26.253  25.595  1.00  0.00     0.316 C 
ATOM      9  C   UNL A   1      32.262  24.378  23.689  1.00  0.00     0.019 A 
ATOM     10  O   UNL A   1      33.466  25.016  25.702  1.00  0.00    -0.475 OA
ATOM     11  C   UNL A   1      31.815  23.357  22.855  1.00  0.00     0.032 A 
ATOM     12  C   UNL A   1      33.189  24.095  24.716  1.00  0.00     0.135 A 
ATOM     13  C   UNL A   1      32.387  22.093  22.974  1.00  0.00     0.042 A 
ATOM     14  C   UNL A   1      33.958  22.923  24.640  1.00  0.00     0.026 A 
ATOM     15  Cl  UNL A   1      31.884  20.826  21.925  1.00  0.00    -0.084 Cl
ATOM     16  C   UNL A   1      33.485  21.891  23.812  1.00  0.00     0.033 A 
BRANCH   8  17
ATOM     17  C   UNL A   1      31.341  26.279  26.293  1.00  0.00     0.430 C 
ATOM     18  F   UNL A   1      31.344  27.188  27.301  1.00  0.00    -0.167 F 
ATOM     19  F   UNL A   1      30.318  26.597  25.471  1.00  0.00    -0.167 F 
ATOM     20  F   UNL A   1      31.056  25.079  26.851  1.00  0.00    -0.167 F 
ENDBRANCH   8  17
BRANCH  14  21
ATOM     21  C   UNL A   1      35.390  22.908  25.012  1.00  0.00    -0.014 A 
ATOM     22  C   UNL A   1      36.171  21.817  24.558  1.00  0.00     0.012 A 
ATOM     23  C   UNL A   1      36.027  23.891  25.777  1.00  0.00     0.012 A 
ATOM     24  C   UNL A   1      37.524  21.698  24.872  1.00  0.00     0.047 A 
ATOM     25  C   UNL A   1      37.393  23.775  26.093  1.00  0.00     0.047 A 
ATOM     26  C   UNL A   1      38.126  22.677  25.644  1.00  0.00     0.115 A 
BRANCH  26  27
ATOM     27  O   UNL A   1      39.448  22.517  25.936  1.00  0.00    -0.508 OA
ATOM     28  H   UNL A   1      39.851  23.054  26.589  1.00  0.00     0.293 HD
ENDBRANCH  26  27
ENDBRANCH  14  21
ENDBRANCH   4   6
ENDBRANCH   3   4
ENDBRANCH   2   3
ENDBRANCH   1   2
BRANCH   1  29
ATOM     29  O   UNL A   1      34.256  29.564  27.144  1.00  0.00    -0.458 OA
BRANCH  29  30
ATOM     30  C   UNL A   1      34.915  30.406  27.979  1.00  0.00     0.338 C 
ATOM     31  O   UNL A   1      34.421  31.299  28.627  1.00  0.00    -0.246 OA
BRANCH  30  32
ATOM     32  C   UNL A   1      36.298  29.899  28.164  1.00  0.00     0.060 A 
ATOM     33  C   UNL A   1      36.604  29.401  29.432  1.00  0.00     0.016 A 
ATOM     34  C   UNL A   1      37.258  29.860  27.143  1.00  0.00     0.016 A 
ATOM     35  C   UNL A   1      37.884  28.930  29.703  1.00  0.00     0.010 A 
ATOM     36  C   UNL A   1      38.539  29.356  27.411  1.00  0.00     0.010 A 
ATOM     37  C   UNL A   1      38.873  28.939  28.709  1.00  0.00    -0.014 A 
BRANCH  37  38
ATOM     38  C   UNL A   1      40.275  28.689  29.136  1.00  0.00     0.031 A 
ATOM     39  C   UNL A   1      40.894  27.353  28.826  1.00  0.00     0.074 A 
ATOM     40  C   UNL A   1      41.032  29.686  29.635  1.00  0.00     0.049 A 
ATOM     41  N   UNL A   1      42.155  27.005  28.828  1.00  0.00    -0.248 NA
ATOM     42  C   UNL A   1      39.974  26.267  28.451  1.00  0.00     0.031 C 
ATOM     43  C   UNL A   1      40.548  31.017  30.000  1.00  0.00     0.029 A 
ATOM     44  N   UNL A   1      42.381  29.738  29.886  1.00  0.00    -0.354 N 
ATOM     45  C   UNL A   1      42.180  25.682  28.404  1.00  0.00     0.074 A 
ATOM     46  C   UNL A   1      40.807  25.262  28.240  1.00  0.00     0.031 C 
ATOM     47  C   UNL A   1      41.591  31.763  30.410  1.00  0.00     0.029 A 
ATOM     48  C   UNL A   1      42.814  30.968  30.324  1.00  0.00     0.049 A 
ATOM     49  H   UNL A   1      42.982  28.968  29.765  1.00  0.00     0.167 HD
ATOM     50  C   UNL A   1      43.249  24.897  28.130  1.00  0.00     0.037 A 
ATOM     51  C   UNL A   1      44.060  31.407  30.597  1.00  0.00     0.037 A 
ATOM     52  C   UNL A   1      44.614  25.300  28.324  1.00  0.00     0.049 A 
ATOM     53  C   UNL A   1      45.236  30.497  30.336  1.00  0.00     0.074 A 
ATOM     54  C   UNL A   1      45.769  24.574  28.099  1.00  0.00     0.029 A 
ATOM     55  N   UNL A   1      45.007  26.542  28.800  1.00  0.00    -0.354 N 
ATOM     56  N   UNL A   1      45.247  29.275  29.855  1.00  0.00    -0.248 NA
ATOM     57  C   UNL A   1      46.572  31.038  30.625  1.00  0.00     0.031 C 
ATOM     58  C   UNL A   1      46.861  25.366  28.473  1.00  0.00     0.029 A 
ATOM     59  C   UNL A   1      46.386  26.600  28.889  1.00  0.00     0.049 A 
ATOM     60  H   UNL A   1      44.394  27.275  29.038  1.00  0.00     0.167 HD
ATOM     61  C   UNL A   1      46.588  28.915  29.757  1.00  0.00     0.074 A 
ATOM     62  C   UNL A   1      47.359  30.054  30.211  1.00  0.00     0.031 C 
ATOM     63  C   UNL A   1      47.136  27.749  29.332  1.00  0.00     0.037 A 
BRANCH  50  64
ATOM     64  C   UNL A   1      42.964  23.529  27.580  1.00  0.00     0.058 A 
ATOM     65  C   UNL A   1      42.552  22.481  28.421  1.00  0.00     0.135 A 
ATOM     66  C   UNL A   1      43.112  23.253  26.213  1.00  0.00     0.135 A 
ATOM     67  F   UNL A   1      42.415  22.687  29.740  1.00  0.00    -0.206 F 
ATOM     68  C   UNL A   1      42.330  21.199  27.930  1.00  0.00     0.059 A 
ATOM     69  C   UNL A   1      42.873  21.982  25.696  1.00  0.00     0.059 A 
ATOM     70  F   UNL A   1      43.509  24.216  25.367  1.00  0.00    -0.206 F 
ATOM     71  C   UNL A   1      42.500  20.958  26.568  1.00  0.00     0.060 A 
BRANCH  71  72
ATOM     72  S   UNL A   1      42.233  19.282  25.951  1.00  0.00     0.124 S 
ATOM     73  O   UNL A   1      42.703  18.481  27.077  1.00  0.00    -0.237 OA
ATOM     74  O   UNL A   1      40.794  19.261  25.715  1.00  0.00    -0.237 OA
ATOM     75  O   UNL A   1      43.063  19.225  24.751  1.00  0.00    -0.744 OA
ENDBRANCH  71  72
ENDBRANCH  50  64
BRANCH  51  76
ATOM     76  C   UNL A   1      44.274  32.781  31.130  1.00  0.00     0.058 A 
ATOM     77  C   UNL A   1      44.282  33.043  32.508  1.00  0.00     0.135 A 
ATOM     78  C   UNL A   1      44.427  33.871  30.259  1.00  0.00     0.135 A 
ATOM     79  F   UNL A   1      44.132  32.036  33.383  1.00  0.00    -0.206 F 
ATOM     80  C   UNL A   1      44.396  34.338  33.005  1.00  0.00     0.059 A 
ATOM     81  C   UNL A   1      44.569  35.172  30.732  1.00  0.00     0.059 A 
ATOM     82  F   UNL A   1      44.441  33.675  28.932  1.00  0.00    -0.206 F 
ATOM     83  C   UNL A   1      44.532  35.399  32.107  1.00  0.00     0.060 A 
BRANCH  83  84
ATOM     84  S   UNL A   1      44.678  37.077  32.756  1.00  0.00     0.124 S 
ATOM     85  O   UNL A   1      43.308  37.351  33.174  1.00  0.00    -0.237 OA
ATOM     86  O   UNL A   1      45.651  36.910  33.831  1.00  0.00    -0.237 OA
ATOM     87  O   UNL A   1      45.152  37.842  31.607  1.00  0.00    -0.744 OA
ENDBRANCH  83  84
ENDBRANCH  51  76
BRANCH  63  88
ATOM     88  C   UNL A   1      48.637  27.654  29.308  1.00  0.00     0.058 A 
ATOM     89  C   UNL A   1      49.360  27.097  30.374  1.00  0.00     0.135 A 
ATOM     90  C   UNL A   1      49.359  28.084  28.182  1.00  0.00     0.135 A 
ATOM     91  F   UNL A   1      48.719  26.670  31.474  1.00  0.00    -0.206 F 
ATOM     92  C   UNL A   1      50.747  26.997  30.339  1.00  0.00     0.059 A 
ATOM     93  C   UNL A   1      50.743  27.968  28.113  1.00  0.00     0.059 A 
ATOM     94  F   UNL A   1      48.716  28.612  27.128  1.00  0.00    -0.206 F 
ATOM     95  C   UNL A   1      51.430  27.437  29.204  1.00  0.00     0.060 A 
BRANCH  95  96
ATOM     96  S   UNL A   1      53.229  27.281  29.159  1.00  0.00     0.124 S 
ATOM     97  O   UNL A   1      53.512  26.771  30.496  1.00  0.00    -0.237 OA
ATOM     98  O   UNL A   1      53.435  26.338  28.065  1.00  0.00    -0.237 OA
ATOM     99  O   UNL A   1      53.681  28.644  28.897  1.00  0.00    -0.744 OA
ENDBRANCH  95  96
ENDBRANCH  63  88
ENDBRANCH  37  38
ENDBRANCH  30  32
ENDBRANCH  29  30
ENDBRANCH   1  29
TORSDOF 17
ENDMDL
MODEL 3
REMARK VINA RESULT:     -11.9      4.542      9.907
REMARK SMILES O=C(OCCOC(=O)c1ccc(-c2c3nc(c(-c4c(F)cc(S(=O)(=O)[O-])cc4F)c4ccc([nH]4)c(-c4c(F)cc(S(=O)(=O)[O-])cc4F)c4nc(c(-c5c(F)cc(S(=O)(=O)[O-])cc5F)c5ccc2[nH]5)C=C4)C=C3)cc1)C1=Cc2cc(Cl)cc(-c3ccc(O)cc3)c2O[C@@H]1C(F)(F)F
REMARK SMILES IDX 5 1 4 2 3 3 2 4 1 5 75 6 76 7 92 8 77 9 91 10 78 11 90 12
REMARK SMILES IDX 79 13 82 14 80 15 81 16 93 17 94 18 95 19 96 20 83 21 84 22
REMARK SMILES IDX 89 23 85 24 88 25 86 26 87 27 6 29 7 30 8 31 9 32 10 33
REMARK SMILES IDX 74 34 11 35 73 36 12 37 13 38 14 39 67 40 15 41 72 42 66 43
REMARK SMILES IDX 68 44 16 45 71 46 65 47 64 48 17 50 51 51 30 52 50 53 31 54
REMARK SMILES IDX 34 55 49 56 69 57 32 58 33 59 48 61 70 62 35 63 18 64 19 65
REMARK SMILES IDX 28 66 20 67 21 68 27 69 29 70 22 71 23 72 24 73 25 74 26 75
REMARK SMILES IDX 52 76 53 77 62 78 54 79 55 80 61 81 63 82 56 83 57 84 58 85
REMARK SMILES IDX 59 86 60 87 36 88 37 89 46 90 38 91 39 92 45 93 47 94 40 95
REMARK SMILES IDX 41 96 42 97 43 98 44 99
REMARK H PARENT 87 28 68 49 34 60
REMARK Flexibility Score: inf
ROOT
ATOM      1  C   UNL A   1      35.577  22.722  26.106  1.00  0.00     0.275 C 
ENDROOT
BRANCH   1   2
ATOM      2  C   UNL A   1      34.341  23.093  26.959  1.00  0.00     0.275 C 
BRANCH   2   3
ATOM      3  O   UNL A   1      33.080  22.665  26.382  1.00  0.00    -0.459 OA
BRANCH   3   4
ATOM      4  C   UNL A   1      32.091  23.599  26.297  1.00  0.00     0.338 C 
ATOM      5  O   UNL A   1      31.443  23.982  27.258  1.00  0.00    -0.246 OA
BRANCH   4   6
ATOM      6  C   UNL A   1      31.933  24.144  24.930  1.00  0.00     0.087 C 
ATOM      7  C   UNL A   1      30.705  24.544  24.557  1.00  0.00     0.027 C 
ATOM      8  C   UNL A   1      33.116  24.701  24.212  1.00  0.00     0.316 C 
ATOM      9  C   UNL A   1      30.693  25.880  23.915  1.00  0.00     0.019 A 
ATOM     10  O   UNL A   1      33.074  26.148  24.324  1.00  0.00    -0.475 OA
ATOM     11  C   UNL A   1      29.494  26.456  23.502  1.00  0.00     0.032 A 
ATOM     12  C   UNL A   1      31.821  26.695  24.153  1.00  0.00     0.135 A 
ATOM     13  C   UNL A   1      29.398  27.844  23.449  1.00  0.00     0.042 A 
ATOM     14  C   UNL A   1      31.639  28.068  24.378  1.00  0.00     0.026 A 
ATOM     15  Cl  UNL A   1      27.915  28.581  22.985  1.00  0.00    -0.084 Cl
ATOM     16  C   UNL A   1      30.435  28.642  23.937  1.00  0.00     0.033 A 
BRANCH   8  17
ATOM     17  C   UNL A   1      33.326  24.132  22.797  1.00  0.00     0.430 C 
ATOM     18  F   UNL A   1      32.394  23.182  22.529  1.00  0.00    -0.167 F 
ATOM     19  F   UNL A   1      33.243  25.060  21.820  1.00  0.00    -0.167 F 
ATOM     20  F   UNL A   1      34.536  23.533  22.687  1.00  0.00    -0.167 F 
ENDBRANCH   8  17
BRANCH  14  21
ATOM     21  C   UNL A   1      32.415  28.796  25.407  1.00  0.00    -0.014 A 
ATOM     22  C   UNL A   1      31.854  29.990  25.924  1.00  0.00     0.012 A 
ATOM     23  C   UNL A   1      33.658  28.392  25.904  1.00  0.00     0.012 A 
ATOM     24  C   UNL A   1      32.514  30.761  26.880  1.00  0.00     0.047 A 
ATOM     25  C   UNL A   1      34.326  29.166  26.871  1.00  0.00     0.047 A 
ATOM     26  C   UNL A   1      33.751  30.346  27.343  1.00  0.00     0.115 A 
BRANCH  26  27
ATOM     27  O   UNL A   1      34.367  31.134  28.270  1.00  0.00    -0.508 OA
ATOM     28  H   UNL A   1      33.892  31.825  28.687  1.00  0.00     0.293 HD
ENDBRANCH  26  27
ENDBRANCH  14  21
ENDBRANCH   4   6
ENDBRANCH   3   4
ENDBRANCH   2   3
ENDBRANCH   1   2
BRANCH   1  29
ATOM     29  O   UNL A   1      36.592  23.731  26.121  1.00  0.00    -0.458 OA
BRANCH  29  30
ATOM     30  C   UNL A   1      37.853  23.229  26.128  1.00  0.00     0.338 C 
ATOM     31  O   UNL A   1      38.215  22.204  25.600  1.00  0.00    -0.246 OA
BRANCH  30  32
ATOM     32  C   UNL A   1      38.768  24.263  26.673  1.00  0.00     0.060 A 
ATOM     33  C   UNL A   1      38.725  24.452  28.056  1.00  0.00     0.016 A 
ATOM     34  C   UNL A   1      39.671  24.996  25.890  1.00  0.00     0.016 A 
ATOM     35  C   UNL A   1      39.528  25.420  28.650  1.00  0.00     0.010 A 
ATOM     36  C   UNL A   1      40.502  25.949  26.497  1.00  0.00     0.010 A 
ATOM     37  C   UNL A   1      40.395  26.203  27.873  1.00  0.00    -0.014 A 
BRANCH  37  38
ATOM     38  C   UNL A   1      41.009  27.392  28.521  1.00  0.00     0.031 A 
ATOM     39  C   UNL A   1      42.504  27.556  28.454  1.00  0.00     0.074 A 
ATOM     40  C   UNL A   1      40.240  28.386  29.007  1.00  0.00     0.049 A 
ATOM     41  N   UNL A   1      43.229  28.621  28.675  1.00  0.00    -0.248 NA
ATOM     42  C   UNL A   1      43.284  26.367  28.076  1.00  0.00     0.031 C 
ATOM     43  C   UNL A   1      38.785  28.342  29.148  1.00  0.00     0.029 A 
ATOM     44  N   UNL A   1      40.582  29.643  29.441  1.00  0.00    -0.354 N 
ATOM     45  C   UNL A   1      44.540  28.244  28.409  1.00  0.00     0.074 A 
ATOM     46  C   UNL A   1      44.522  26.832  28.100  1.00  0.00     0.031 C 
ATOM     47  C   UNL A   1      38.356  29.528  29.616  1.00  0.00     0.029 A 
ATOM     48  C   UNL A   1      39.502  30.418  29.795  1.00  0.00     0.049 A 
ATOM     49  H   UNL A   1      41.512  29.961  29.493  1.00  0.00     0.167 HD
ATOM     50  C   UNL A   1      45.656  29.010  28.381  1.00  0.00     0.037 A 
ATOM     51  C   UNL A   1      39.445  31.706  30.191  1.00  0.00     0.037 A 
ATOM     52  C   UNL A   1      45.683  30.406  28.721  1.00  0.00     0.049 A 
ATOM     53  C   UNL A   1      40.711  32.529  30.204  1.00  0.00     0.074 A 
ATOM     54  C   UNL A   1      46.764  31.268  28.745  1.00  0.00     0.029 A 
ATOM     55  N   UNL A   1      44.573  31.143  29.105  1.00  0.00    -0.354 N 
ATOM     56  N   UNL A   1      41.931  32.178  29.870  1.00  0.00    -0.248 NA
ATOM     57  C   UNL A   1      40.585  33.934  30.618  1.00  0.00     0.031 C 
ATOM     58  C   UNL A   1      46.313  32.519  29.180  1.00  0.00     0.029 A 
ATOM     59  C   UNL A   1      44.943  32.446  29.383  1.00  0.00     0.049 A 
ATOM     60  H   UNL A   1      43.656  30.789  29.170  1.00  0.00     0.167 HD
ATOM     61  C   UNL A   1      42.709  33.325  30.006  1.00  0.00     0.074 A 
ATOM     62  C   UNL A   1      41.818  34.383  30.434  1.00  0.00     0.031 C 
ATOM     63  C   UNL A   1      44.039  33.490  29.796  1.00  0.00     0.037 A 
BRANCH  50  64
ATOM     64  C   UNL A   1      46.930  28.339  27.952  1.00  0.00     0.058 A 
ATOM     65  C   UNL A   1      47.309  28.302  26.599  1.00  0.00     0.135 A 
ATOM     66  C   UNL A   1      47.771  27.717  28.885  1.00  0.00     0.135 A 
ATOM     67  F   UNL A   1      46.528  28.864  25.662  1.00  0.00    -0.206 F 
ATOM     68  C   UNL A   1      48.461  27.643  26.184  1.00  0.00     0.059 A 
ATOM     69  C   UNL A   1      48.941  27.071  28.495  1.00  0.00     0.059 A 
ATOM     70  F   UNL A   1      47.452  27.717  30.189  1.00  0.00    -0.206 F 
ATOM     71  C   UNL A   1      49.267  27.025  27.139  1.00  0.00     0.060 A 
BRANCH  71  72
ATOM     72  S   UNL A   1      50.745  26.151  26.582  1.00  0.00     0.124 S 
ATOM     73  O   UNL A   1      50.577  26.191  25.132  1.00  0.00    -0.237 OA
ATOM     74  O   UNL A   1      51.820  26.980  27.118  1.00  0.00    -0.237 OA
ATOM     75  O   UNL A   1      50.611  24.832  27.192  1.00  0.00    -0.744 OA
ENDBRANCH  71  72
ENDBRANCH  50  64
BRANCH  51  76
ATOM     76  C   UNL A   1      38.146  32.313  30.593  1.00  0.00     0.058 A 
ATOM     77  C   UNL A   1      37.353  33.025  29.681  1.00  0.00     0.135 A 
ATOM     78  C   UNL A   1      37.698  32.231  31.921  1.00  0.00     0.135 A 
ATOM     79  F   UNL A   1      37.741  33.140  28.401  1.00  0.00    -0.206 F 
ATOM     80  C   UNL A   1      36.182  33.666  30.076  1.00  0.00     0.059 A 
ATOM     81  C   UNL A   1      36.518  32.842  32.335  1.00  0.00     0.059 A 
ATOM     82  F   UNL A   1      38.411  31.550  32.831  1.00  0.00    -0.206 F 
ATOM     83  C   UNL A   1      35.776  33.574  31.409  1.00  0.00     0.060 A 
BRANCH  83  84
ATOM     84  S   UNL A   1      34.257  34.409  31.917  1.00  0.00     0.124 S 
ATOM     85  O   UNL A   1      34.781  35.621  32.535  1.00  0.00    -0.237 OA
ATOM     86  O   UNL A   1      33.563  34.589  30.646  1.00  0.00    -0.237 OA
ATOM     87  O   UNL A   1      33.638  33.452  32.830  1.00  0.00    -0.744 OA
ENDBRANCH  83  84
ENDBRANCH  51  76
BRANCH  63  88
ATOM     88  C   UNL A   1      44.608  34.868  29.997  1.00  0.00     0.058 A 
ATOM     89  C   UNL A   1      44.642  35.812  28.960  1.00  0.00     0.135 A 
ATOM     90  C   UNL A   1      45.081  35.264  31.260  1.00  0.00     0.135 A 
ATOM     91  F   UNL A   1      44.202  35.485  27.734  1.00  0.00    -0.206 F 
ATOM     92  C   UNL A   1      45.154  37.090  29.157  1.00  0.00     0.059 A 
ATOM     93  C   UNL A   1      45.571  36.546  31.486  1.00  0.00     0.059 A 
ATOM     94  F   UNL A   1      45.058  34.405  32.291  1.00  0.00    -0.206 F 
ATOM     95  C   UNL A   1      45.619  37.448  30.424  1.00  0.00     0.060 A 
BRANCH  95  96
ATOM     96  S   UNL A   1      46.259  39.117  30.674  1.00  0.00     0.124 S 
ATOM     97  O   UNL A   1      45.283  39.918  29.941  1.00  0.00    -0.237 OA
ATOM     98  O   UNL A   1      46.226  39.252  32.127  1.00  0.00    -0.237 OA
ATOM     99  O   UNL A   1      47.594  39.061  30.087  1.00  0.00    -0.744 OA
ENDBRANCH  95  96
ENDBRANCH  63  88
ENDBRANCH  37  38
ENDBRANCH  30  32
ENDBRANCH  29  30
ENDBRANCH   1  29
TORSDOF 17
ENDMDL
