MODEL 1
REMARK VINA RESULT:     -11.8      0.000      0.000
REMARK SMILES CC1=C(C#N)C(=O)N(C)C(=O)/C1=C\Nc1ccc(C(=O)OCCOC(=O)c2ccc(-c3c4nc(c(-c5c(F)cc(S(=O)(=O)[O-])cc5F)c5ccc([nH]5)c(-c5c(F)cc(S(=O)(=O)[O-])cc5F)c5nc(c(-c6c(F)cc(S(=O)(=O)[O-])cc6F)c6ccc3[nH]6)C=C5)C=C4)cc2)c(O)c1
REMARK SMILES IDX 22 1 21 2 19 3 20 4 18 5 15 6 16 7 95 8 17 9 93 10 14 11
REMARK SMILES IDX 13 13 1 14 2 15 3 16 12 17 6 18 10 19 7 20 8 21 11 22 9 23
REMARK SMILES IDX 4 24 5 25 94 26 23 28 24 29 25 30 26 31 27 32 28 33 92 34
REMARK SMILES IDX 29 35 91 36 30 37 31 38 32 39 85 40 33 41 90 42 84 43 86 44
REMARK SMILES IDX 34 45 89 46 83 47 82 48 35 50 69 51 48 52 68 53 49 54 52 55
REMARK SMILES IDX 67 56 87 57 50 58 51 59 66 61 88 62 53 63 36 64 37 65 46 66
REMARK SMILES IDX 38 67 39 68 45 69 47 70 40 71 41 72 42 73 43 74 44 75 70 76
REMARK SMILES IDX 71 77 80 78 72 79 73 80 79 81 81 82 74 83 75 84 76 85 77 86
REMARK SMILES IDX 78 87 54 88 55 89 64 90 56 91 57 92 63 93 65 94 58 95 59 96
REMARK SMILES IDX 60 97 61 98 62 99
REMARK H PARENT 14 12 94 27 86 49 52 60
REMARK Flexibility Score: inf
ROOT
ATOM      1  C   UNL A   1      33.581  32.277  27.905  1.00  0.00     0.275 C 
ENDROOT
BRANCH   1   2
ATOM      2  O   UNL A   1      33.269  30.881  27.701  1.00  0.00    -0.458 OA
BRANCH   2   3
ATOM      3  C   UNL A   1      32.299  30.623  26.779  1.00  0.00     0.342 C 
ATOM      4  O   UNL A   1      31.458  31.404  26.382  1.00  0.00    -0.246 OA
BRANCH   3   5
ATOM      5  C   UNL A   1      32.472  29.256  26.223  1.00  0.00     0.101 A 
ATOM      6  C   UNL A   1      32.934  26.736  25.047  1.00  0.00     0.042 A 
ATOM      7  C   UNL A   1      33.297  27.903  24.377  1.00  0.00     0.027 A 
ATOM      8  C   UNL A   1      32.323  26.842  26.304  1.00  0.00     0.073 A 
ATOM      9  C   UNL A   1      33.013  29.150  24.934  1.00  0.00     0.022 A 
ATOM     10  C   UNL A   1      32.124  28.088  26.904  1.00  0.00     0.132 A 
BRANCH   6  11
ATOM     11  N   UNL A   1      33.190  25.472  24.512  1.00  0.00    -0.361 N 
ATOM     12  H   UNL A   1      33.784  25.449  23.727  1.00  0.00     0.166 HD
BRANCH  11  13
ATOM     13  C   UNL A   1      32.716  24.255  24.944  1.00  0.00     0.097 C 
ATOM     14  C   UNL A   1      31.253  21.783  25.632  1.00  0.00     0.047 C 
ATOM     15  C   UNL A   1      32.724  21.785  25.279  1.00  0.00    -0.013 C 
ATOM     16  C   UNL A   1      33.446  20.650  25.204  1.00  0.00     0.121 C 
ATOM     17  C   UNL A   1      33.362  23.068  24.957  1.00  0.00     0.060 C 
ATOM     18  C   UNL A   1      34.901  20.660  24.893  1.00  0.00     0.271 C 
ATOM     19  C   UNL A   1      34.823  23.094  24.570  1.00  0.00     0.262 C 
ATOM     20  O   UNL A   1      35.527  19.602  24.822  1.00  0.00    -0.268 OA
ATOM     21  N   UNL A   1      35.498  21.890  24.675  1.00  0.00    -0.277 N 
ATOM     22  O   UNL A   1      35.371  24.121  24.168  1.00  0.00    -0.269 OA
ATOM     23  C   UNL A   1      36.930  21.880  24.428  1.00  0.00     0.157 C 
BRANCH  16  24
ATOM     24  C   UNL A   1      32.856  19.263  25.399  1.00  0.00     0.105 C 
ATOM     25  N   UNL A   1      32.366  18.112  25.561  1.00  0.00    -0.192 NA
ENDBRANCH  16  24
ENDBRANCH  11  13
ENDBRANCH   6  11
BRANCH  10  26
ATOM     26  O   UNL A   1      31.573  28.075  28.157  1.00  0.00    -0.507 OA
ATOM     27  H   UNL A   1      30.827  28.610  28.345  1.00  0.00     0.293 HD
ENDBRANCH  10  26
ENDBRANCH   3   5
ENDBRANCH   2   3
ENDBRANCH   1   2
BRANCH   1  28
ATOM     28  C   UNL A   1      34.837  32.445  28.760  1.00  0.00     0.275 C 
BRANCH  28  29
ATOM     29  O   UNL A   1      35.446  31.165  29.012  1.00  0.00    -0.458 OA
BRANCH  29  30
ATOM     30  C   UNL A   1      36.259  31.102  30.092  1.00  0.00     0.338 C 
ATOM     31  O   UNL A   1      36.010  31.469  31.227  1.00  0.00    -0.246 OA
BRANCH  30  32
ATOM     32  C   UNL A   1      37.518  30.436  29.727  1.00  0.00     0.060 A 
ATOM     33  C   UNL A   1      38.380  30.062  30.750  1.00  0.00     0.016 A 
ATOM     34  C   UNL A   1      37.919  30.316  28.400  1.00  0.00     0.016 A 
ATOM     35  C   UNL A   1      39.685  29.666  30.467  1.00  0.00     0.010 A 
ATOM     36  C   UNL A   1      39.195  29.809  28.110  1.00  0.00     0.010 A 
ATOM     37  C   UNL A   1      40.110  29.512  29.140  1.00  0.00    -0.014 A 
BRANCH  37  38
ATOM     38  C   UNL A   1      41.508  29.075  28.842  1.00  0.00     0.031 A 
ATOM     39  C   UNL A   1      42.651  30.058  28.931  1.00  0.00     0.074 A 
ATOM     40  C   UNL A   1      41.769  27.793  28.504  1.00  0.00     0.049 A 
ATOM     41  N   UNL A   1      43.894  29.921  28.548  1.00  0.00    -0.248 NA
ATOM     42  C   UNL A   1      42.352  31.374  29.521  1.00  0.00     0.031 C 
ATOM     43  C   UNL A   1      40.776  26.720  28.416  1.00  0.00     0.029 A 
ATOM     44  N   UNL A   1      42.950  27.171  28.176  1.00  0.00    -0.354 N 
ATOM     45  C   UNL A   1      44.509  31.145  28.788  1.00  0.00     0.074 A 
ATOM     46  C   UNL A   1      43.501  32.016  29.353  1.00  0.00     0.031 C 
ATOM     47  C   UNL A   1      41.391  25.571  28.100  1.00  0.00     0.029 A 
ATOM     48  C   UNL A   1      42.804  25.839  27.863  1.00  0.00     0.049 A 
ATOM     49  H   UNL A   1      43.819  27.635  28.166  1.00  0.00     0.167 HD
ATOM     50  C   UNL A   1      45.795  31.509  28.558  1.00  0.00     0.037 A 
ATOM     51  C   UNL A   1      43.689  24.940  27.388  1.00  0.00     0.037 A 
ATOM     52  C   UNL A   1      46.810  30.620  28.051  1.00  0.00     0.049 A 
ATOM     53  C   UNL A   1      45.101  25.374  27.114  1.00  0.00     0.074 A 
ATOM     54  C   UNL A   1      48.146  30.892  27.806  1.00  0.00     0.029 A 
ATOM     55  N   UNL A   1      46.609  29.288  27.724  1.00  0.00    -0.354 N 
ATOM     56  N   UNL A   1      45.651  26.550  27.300  1.00  0.00    -0.248 NA
ATOM     57  C   UNL A   1      46.008  24.367  26.546  1.00  0.00     0.031 C 
ATOM     58  C   UNL A   1      48.743  29.734  27.296  1.00  0.00     0.029 A 
ATOM     59  C   UNL A   1      47.791  28.728  27.267  1.00  0.00     0.049 A 
ATOM     60  H   UNL A   1      45.752  28.810  27.805  1.00  0.00     0.167 HD
ATOM     61  C   UNL A   1      46.970  26.421  26.880  1.00  0.00     0.074 A 
ATOM     62  C   UNL A   1      47.141  25.049  26.451  1.00  0.00     0.031 C 
ATOM     63  C   UNL A   1      47.949  27.358  26.847  1.00  0.00     0.037 A 
BRANCH  50  64
ATOM     64  C   UNL A   1      46.179  32.941  28.821  1.00  0.00     0.058 A 
ATOM     65  C   UNL A   1      46.712  33.360  30.049  1.00  0.00     0.135 A 
ATOM     66  C   UNL A   1      46.052  33.901  27.802  1.00  0.00     0.135 A 
ATOM     67  F   UNL A   1      46.839  32.489  31.063  1.00  0.00    -0.206 F 
ATOM     68  C   UNL A   1      47.083  34.684  30.267  1.00  0.00     0.059 A 
ATOM     69  C   UNL A   1      46.441  35.224  27.988  1.00  0.00     0.059 A 
ATOM     70  F   UNL A   1      45.549  33.555  26.605  1.00  0.00    -0.206 F 
ATOM     71  C   UNL A   1      46.942  35.610  29.230  1.00  0.00     0.060 A 
BRANCH  71  72
ATOM     72  S   UNL A   1      47.429  37.323  29.527  1.00  0.00     0.124 S 
ATOM     73  O   UNL A   1      46.134  37.957  29.752  1.00  0.00    -0.237 OA
ATOM     74  O   UNL A   1      48.289  37.205  30.700  1.00  0.00    -0.237 OA
ATOM     75  O   UNL A   1      48.108  37.702  28.292  1.00  0.00    -0.744 OA
ENDBRANCH  71  72
ENDBRANCH  50  64
BRANCH  51  76
ATOM     76  C   UNL A   1      43.247  23.550  27.090  1.00  0.00     0.058 A 
ATOM     77  C   UNL A   1      43.010  23.130  25.773  1.00  0.00     0.135 A 
ATOM     78  C   UNL A   1      43.066  22.610  28.118  1.00  0.00     0.135 A 
ATOM     79  F   UNL A   1      43.155  23.995  24.758  1.00  0.00    -0.206 F 
ATOM     80  C   UNL A   1      42.603  21.831  25.484  1.00  0.00     0.059 A 
ATOM     81  C   UNL A   1      42.691  21.297  27.852  1.00  0.00     0.059 A 
ATOM     82  F   UNL A   1      43.290  22.957  29.395  1.00  0.00    -0.206 F 
ATOM     83  C   UNL A   1      42.451  20.920  26.532  1.00  0.00     0.060 A 
BRANCH  83  84
ATOM     84  S   UNL A   1      41.979  19.220  26.146  1.00  0.00     0.124 S 
ATOM     85  O   UNL A   1      42.780  18.957  24.956  1.00  0.00    -0.237 OA
ATOM     86  O   UNL A   1      42.378  18.507  27.355  1.00  0.00    -0.237 OA
ATOM     87  O   UNL A   1      40.538  19.315  25.930  1.00  0.00    -0.744 OA
ENDBRANCH  83  84
ENDBRANCH  51  76
BRANCH  63  88
ATOM     88  C   UNL A   1      49.303  26.923  26.361  1.00  0.00     0.058 A 
ATOM     89  C   UNL A   1      50.250  26.359  27.230  1.00  0.00     0.135 A 
ATOM     90  C   UNL A   1      49.640  27.034  25.003  1.00  0.00     0.135 A 
ATOM     91  F   UNL A   1      49.980  26.239  28.538  1.00  0.00    -0.206 F 
ATOM     92  C   UNL A   1      51.495  25.939  26.772  1.00  0.00     0.059 A 
ATOM     93  C   UNL A   1      50.869  26.599  24.518  1.00  0.00     0.059 A 
ATOM     94  F   UNL A   1      48.766  27.560  24.130  1.00  0.00    -0.206 F 
ATOM     95  C   UNL A   1      51.794  26.063  25.413  1.00  0.00     0.060 A 
BRANCH  95  96
ATOM     96  S   UNL A   1      53.401  25.487  24.824  1.00  0.00     0.124 S 
ATOM     97  O   UNL A   1      53.326  24.058  25.114  1.00  0.00    -0.237 OA
ATOM     98  O   UNL A   1      53.366  25.850  23.411  1.00  0.00    -0.237 OA
ATOM     99  O   UNL A   1      54.351  26.243  25.637  1.00  0.00    -0.744 OA
ENDBRANCH  95  96
ENDBRANCH  63  88
ENDBRANCH  37  38
ENDBRANCH  30  32
ENDBRANCH  29  30
ENDBRANCH  28  29
ENDBRANCH   1  28
TORSDOF 18
ENDMDL
MODEL 2
REMARK VINA RESULT:     -11.8      6.155     11.989
REMARK SMILES CC1=C(C#N)C(=O)N(C)C(=O)/C1=C\Nc1ccc(C(=O)OCCOC(=O)c2ccc(-c3c4nc(c(-c5c(F)cc(S(=O)(=O)[O-])cc5F)c5ccc([nH]5)c(-c5c(F)cc(S(=O)(=O)[O-])cc5F)c5nc(c(-c6c(F)cc(S(=O)(=O)[O-])cc6F)c6ccc3[nH]6)C=C5)C=C4)cc2)c(O)c1
REMARK SMILES IDX 22 1 21 2 19 3 20 4 18 5 15 6 16 7 95 8 17 9 93 10 14 11
REMARK SMILES IDX 13 13 1 14 2 15 3 16 12 17 6 18 10 19 7 20 8 21 11 22 9 23
REMARK SMILES IDX 4 24 5 25 94 26 23 28 24 29 25 30 26 31 27 32 28 33 92 34
REMARK SMILES IDX 29 35 91 36 30 37 31 38 32 39 85 40 33 41 90 42 84 43 86 44
REMARK SMILES IDX 34 45 89 46 83 47 82 48 35 50 69 51 48 52 68 53 49 54 52 55
REMARK SMILES IDX 67 56 87 57 50 58 51 59 66 61 88 62 53 63 36 64 37 65 46 66
REMARK SMILES IDX 38 67 39 68 45 69 47 70 40 71 41 72 42 73 43 74 44 75 70 76
REMARK SMILES IDX 71 77 80 78 72 79 73 80 79 81 81 82 74 83 75 84 76 85 77 86
REMARK SMILES IDX 78 87 54 88 55 89 64 90 56 91 57 92 63 93 65 94 58 95 59 96
REMARK SMILES IDX 60 97 61 98 62 99
REMARK H PARENT 14 12 94 27 86 49 52 60
REMARK Flexibility Score: inf
ROOT
ATOM      1  C   UNL A   1      39.947  21.255  26.402  1.00  0.00     0.275 C 
ENDROOT
BRANCH   1   2
ATOM      2  O   UNL A   1      38.704  21.921  26.086  1.00  0.00    -0.458 OA
BRANCH   2   3
ATOM      3  C   UNL A   1      37.814  21.192  25.356  1.00  0.00     0.342 C 
ATOM      4  O   UNL A   1      38.008  20.095  24.874  1.00  0.00    -0.246 OA
BRANCH   3   5
ATOM      5  C   UNL A   1      36.500  21.883  25.313  1.00  0.00     0.101 A 
ATOM      6  C   UNL A   1      34.099  23.355  25.182  1.00  0.00     0.042 A 
ATOM      7  C   UNL A   1      35.320  24.010  25.330  1.00  0.00     0.027 A 
ATOM      8  C   UNL A   1      34.088  21.955  25.116  1.00  0.00     0.073 A 
ATOM      9  C   UNL A   1      36.500  23.277  25.454  1.00  0.00     0.022 A 
ATOM     10  C   UNL A   1      35.279  21.225  25.146  1.00  0.00     0.132 A 
BRANCH   6  11
ATOM     11  N   UNL A   1      32.898  24.058  25.069  1.00  0.00    -0.361 N 
ATOM     12  H   UNL A   1      32.243  23.909  25.788  1.00  0.00     0.166 HD
BRANCH  11  13
ATOM     13  C   UNL A   1      32.516  24.933  24.078  1.00  0.00     0.097 C 
ATOM     14  C   UNL A   1      31.445  26.398  21.748  1.00  0.00     0.047 C 
ATOM     15  C   UNL A   1      31.567  27.029  23.118  1.00  0.00    -0.013 C 
ATOM     16  C   UNL A   1      31.144  28.282  23.372  1.00  0.00     0.121 C 
ATOM     17  C   UNL A   1      32.118  26.217  24.211  1.00  0.00     0.060 C 
ATOM     18  C   UNL A   1      31.301  28.911  24.712  1.00  0.00     0.271 C 
ATOM     19  C   UNL A   1      32.222  26.813  25.597  1.00  0.00     0.262 C 
ATOM     20  O   UNL A   1      30.892  30.055  24.910  1.00  0.00    -0.268 OA
ATOM     21  N   UNL A   1      31.900  28.155  25.705  1.00  0.00    -0.277 N 
ATOM     22  O   UNL A   1      32.556  26.138  26.572  1.00  0.00    -0.269 OA
ATOM     23  C   UNL A   1      32.092  28.808  26.988  1.00  0.00     0.157 C 
BRANCH  16  24
ATOM     24  C   UNL A   1      30.451  29.161  22.344  1.00  0.00     0.105 C 
ATOM     25  N   UNL A   1      29.876  29.890  21.490  1.00  0.00    -0.192 NA
ENDBRANCH  16  24
ENDBRANCH  11  13
ENDBRANCH   6  11
BRANCH  10  26
ATOM     26  O   UNL A   1      35.160  19.868  25.016  1.00  0.00    -0.507 OA
ATOM     27  H   UNL A   1      35.484  19.303  25.690  1.00  0.00     0.293 HD
ENDBRANCH  10  26
ENDBRANCH   3   5
ENDBRANCH   2   3
ENDBRANCH   1   2
BRANCH   1  28
ATOM     28  C   UNL A   1      41.136  22.206  26.265  1.00  0.00     0.275 C 
BRANCH  28  29
ATOM     29  O   UNL A   1      40.695  23.574  26.340  1.00  0.00    -0.458 OA
BRANCH  29  30
ATOM     30  C   UNL A   1      41.671  24.510  26.332  1.00  0.00     0.338 C 
ATOM     31  O   UNL A   1      42.662  24.539  25.621  1.00  0.00    -0.246 OA
BRANCH  30  32
ATOM     32  C   UNL A   1      41.340  25.582  27.283  1.00  0.00     0.060 A 
ATOM     33  C   UNL A   1      42.124  26.729  27.274  1.00  0.00     0.016 A 
ATOM     34  C   UNL A   1      40.376  25.405  28.270  1.00  0.00     0.016 A 
ATOM     35  C   UNL A   1      42.029  27.660  28.305  1.00  0.00     0.010 A 
ATOM     36  C   UNL A   1      40.201  26.398  29.246  1.00  0.00     0.010 A 
ATOM     37  C   UNL A   1      41.050  27.521  29.299  1.00  0.00    -0.014 A 
BRANCH  37  38
ATOM     38  C   UNL A   1      40.944  28.530  30.398  1.00  0.00     0.031 A 
ATOM     39  C   UNL A   1      41.901  28.491  31.565  1.00  0.00     0.074 A 
ATOM     40  C   UNL A   1      40.001  29.497  30.352  1.00  0.00     0.049 A 
ATOM     41  N   UNL A   1      41.865  29.160  32.689  1.00  0.00    -0.248 NA
ATOM     42  C   UNL A   1      43.045  27.571  31.458  1.00  0.00     0.031 C 
ATOM     43  C   UNL A   1      39.033  29.688  29.270  1.00  0.00     0.029 A 
ATOM     44  N   UNL A   1      39.704  30.507  31.237  1.00  0.00    -0.354 N 
ATOM     45  C   UNL A   1      42.936  28.700  33.447  1.00  0.00     0.074 A 
ATOM     46  C   UNL A   1      43.607  27.692  32.653  1.00  0.00     0.031 C 
ATOM     47  C   UNL A   1      38.280  30.767  29.533  1.00  0.00     0.029 A 
ATOM     48  C   UNL A   1      38.641  31.288  30.846  1.00  0.00     0.049 A 
ATOM     49  H   UNL A   1      40.206  30.657  32.071  1.00  0.00     0.167 HD
ATOM     50  C   UNL A   1      43.324  29.080  34.689  1.00  0.00     0.037 A 
ATOM     51  C   UNL A   1      37.989  32.279  31.486  1.00  0.00     0.037 A 
ATOM     52  C   UNL A   1      42.688  30.125  35.451  1.00  0.00     0.049 A 
ATOM     53  C   UNL A   1      38.418  32.664  32.874  1.00  0.00     0.074 A 
ATOM     54  C   UNL A   1      43.024  30.597  36.709  1.00  0.00     0.029 A 
ATOM     55  N   UNL A   1      41.600  30.870  35.024  1.00  0.00    -0.354 N 
ATOM     56  N   UNL A   1      39.402  32.181  33.593  1.00  0.00    -0.248 NA
ATOM     57  C   UNL A   1      37.637  33.712  33.544  1.00  0.00     0.031 C 
ATOM     58  C   UNL A   1      42.115  31.601  37.058  1.00  0.00     0.029 A 
ATOM     59  C   UNL A   1      41.242  31.787  35.999  1.00  0.00     0.049 A 
ATOM     60  H   UNL A   1      41.148  30.763  34.157  1.00  0.00     0.167 HD
ATOM     61  C   UNL A   1      39.364  32.873  34.799  1.00  0.00     0.074 A 
ATOM     62  C   UNL A   1      38.274  33.822  34.702  1.00  0.00     0.031 C 
ATOM     63  C   UNL A   1      40.157  32.730  35.889  1.00  0.00     0.037 A 
BRANCH  50  64
ATOM     64  C   UNL A   1      44.473  28.342  35.325  1.00  0.00     0.058 A 
ATOM     65  C   UNL A   1      44.282  27.191  36.104  1.00  0.00     0.135 A 
ATOM     66  C   UNL A   1      45.792  28.774  35.108  1.00  0.00     0.135 A 
ATOM     67  F   UNL A   1      43.042  26.744  36.357  1.00  0.00    -0.206 F 
ATOM     68  C   UNL A   1      45.357  26.507  36.665  1.00  0.00     0.059 A 
ATOM     69  C   UNL A   1      46.884  28.092  35.637  1.00  0.00     0.059 A 
ATOM     70  F   UNL A   1      46.033  29.870  34.369  1.00  0.00    -0.206 F 
ATOM     71  C   UNL A   1      46.655  26.966  36.427  1.00  0.00     0.060 A 
BRANCH  71  72
ATOM     72  S   UNL A   1      48.039  26.069  37.161  1.00  0.00     0.124 S 
ATOM     73  O   UNL A   1      47.348  25.177  38.088  1.00  0.00    -0.237 OA
ATOM     74  O   UNL A   1      48.648  25.428  36.000  1.00  0.00    -0.237 OA
ATOM     75  O   UNL A   1      48.837  27.123  37.781  1.00  0.00    -0.744 OA
ENDBRANCH  71  72
ENDBRANCH  50  64
BRANCH  51  76
ATOM     76  C   UNL A   1      36.822  32.939  30.838  1.00  0.00     0.058 A 
ATOM     77  C   UNL A   1      35.508  32.598  31.188  1.00  0.00     0.135 A 
ATOM     78  C   UNL A   1      37.001  33.936  29.865  1.00  0.00     0.135 A 
ATOM     79  F   UNL A   1      35.285  31.642  32.103  1.00  0.00    -0.206 F 
ATOM     80  C   UNL A   1      34.412  33.214  30.593  1.00  0.00     0.059 A 
ATOM     81  C   UNL A   1      35.922  34.589  29.278  1.00  0.00     0.059 A 
ATOM     82  F   UNL A   1      38.238  34.307  29.501  1.00  0.00    -0.206 F 
ATOM     83  C   UNL A   1      34.630  34.213  29.642  1.00  0.00     0.060 A 
BRANCH  83  84
ATOM     84  S   UNL A   1      33.204  35.050  28.915  1.00  0.00     0.124 S 
ATOM     85  O   UNL A   1      32.727  34.047  27.970  1.00  0.00    -0.237 OA
ATOM     86  O   UNL A   1      32.357  35.284  30.079  1.00  0.00    -0.237 OA
ATOM     87  O   UNL A   1      33.788  36.250  28.323  1.00  0.00    -0.744 OA
ENDBRANCH  83  84
ENDBRANCH  51  76
BRANCH  63  88
ATOM     88  C   UNL A   1      39.897  33.643  37.054  1.00  0.00     0.058 A 
ATOM     89  C   UNL A   1      40.542  34.884  37.175  1.00  0.00     0.135 A 
ATOM     90  C   UNL A   1      38.961  33.291  38.039  1.00  0.00     0.135 A 
ATOM     91  F   UNL A   1      41.452  35.264  36.265  1.00  0.00    -0.206 F 
ATOM     92  C   UNL A   1      40.284  35.734  38.245  1.00  0.00     0.059 A 
ATOM     93  C   UNL A   1      38.668  34.135  39.103  1.00  0.00     0.059 A 
ATOM     94  F   UNL A   1      38.311  32.118  37.964  1.00  0.00    -0.206 F 
ATOM     95  C   UNL A   1      39.343  35.351  39.204  1.00  0.00     0.060 A 
BRANCH  95  96
ATOM     96  S   UNL A   1      38.994  36.476  40.572  1.00  0.00     0.124 S 
ATOM     97  O   UNL A   1      40.289  36.536  41.242  1.00  0.00    -0.237 OA
ATOM     98  O   UNL A   1      38.581  37.693  39.879  1.00  0.00    -0.237 OA
ATOM     99  O   UNL A   1      37.935  35.793  41.311  1.00  0.00    -0.744 OA
ENDBRANCH  95  96
ENDBRANCH  63  88
ENDBRANCH  37  38
ENDBRANCH  30  32
ENDBRANCH  29  30
ENDBRANCH  28  29
ENDBRANCH   1  28
TORSDOF 18
ENDMDL
MODEL 3
REMARK VINA RESULT:     -11.7      0.960      2.044
REMARK SMILES CC1=C(C#N)C(=O)N(C)C(=O)/C1=C\Nc1ccc(C(=O)OCCOC(=O)c2ccc(-c3c4nc(c(-c5c(F)cc(S(=O)(=O)[O-])cc5F)c5ccc([nH]5)c(-c5c(F)cc(S(=O)(=O)[O-])cc5F)c5nc(c(-c6c(F)cc(S(=O)(=O)[O-])cc6F)c6ccc3[nH]6)C=C5)C=C4)cc2)c(O)c1
REMARK SMILES IDX 22 1 21 2 19 3 20 4 18 5 15 6 16 7 95 8 17 9 93 10 14 11
REMARK SMILES IDX 13 13 1 14 2 15 3 16 12 17 6 18 10 19 7 20 8 21 11 22 9 23
REMARK SMILES IDX 4 24 5 25 94 26 23 28 24 29 25 30 26 31 27 32 28 33 92 34
REMARK SMILES IDX 29 35 91 36 30 37 31 38 32 39 85 40 33 41 90 42 84 43 86 44
REMARK SMILES IDX 34 45 89 46 83 47 82 48 35 50 69 51 48 52 68 53 49 54 52 55
REMARK SMILES IDX 67 56 87 57 50 58 51 59 66 61 88 62 53 63 36 64 37 65 46 66
REMARK SMILES IDX 38 67 39 68 45 69 47 70 40 71 41 72 42 73 43 74 44 75 70 76
REMARK SMILES IDX 71 77 80 78 72 79 73 80 79 81 81 82 74 83 75 84 76 85 77 86
REMARK SMILES IDX 78 87 54 88 55 89 64 90 56 91 57 92 63 93 65 94 58 95 59 96
REMARK SMILES IDX 60 97 61 98 62 99
REMARK H PARENT 14 12 94 27 86 49 52 60
REMARK Flexibility Score: inf
ROOT
ATOM      1  C   UNL A   1      33.703  32.449  27.702  1.00  0.00     0.275 C 
ENDROOT
BRANCH   1   2
ATOM      2  O   UNL A   1      33.146  31.116  27.724  1.00  0.00    -0.458 OA
BRANCH   2   3
ATOM      3  C   UNL A   1      32.209  30.853  26.770  1.00  0.00     0.342 C 
ATOM      4  O   UNL A   1      31.367  31.625  26.358  1.00  0.00    -0.246 OA
BRANCH   3   5
ATOM      5  C   UNL A   1      32.423  29.498  26.202  1.00  0.00     0.101 A 
ATOM      6  C   UNL A   1      32.878  26.866  25.301  1.00  0.00     0.042 A 
ATOM      7  C   UNL A   1      33.449  27.311  26.491  1.00  0.00     0.027 A 
ATOM      8  C   UNL A   1      32.090  27.754  24.556  1.00  0.00     0.073 A 
ATOM      9  C   UNL A   1      33.271  28.631  26.905  1.00  0.00     0.022 A 
ATOM     10  C   UNL A   1      31.834  29.047  25.017  1.00  0.00     0.132 A 
BRANCH   6  11
ATOM     11  N   UNL A   1      33.048  25.554  24.851  1.00  0.00    -0.361 N 
ATOM     12  H   UNL A   1      32.227  25.079  24.590  1.00  0.00     0.166 HD
BRANCH  11  13
ATOM     13  C   UNL A   1      34.221  24.845  24.726  1.00  0.00     0.097 C 
ATOM     14  C   UNL A   1      36.936  23.685  24.784  1.00  0.00     0.047 C 
ATOM     15  C   UNL A   1      35.688  22.830  24.741  1.00  0.00    -0.013 C 
ATOM     16  C   UNL A   1      35.737  21.485  24.782  1.00  0.00     0.121 C 
ATOM     17  C   UNL A   1      34.383  23.504  24.709  1.00  0.00     0.060 C 
ATOM     18  C   UNL A   1      34.509  20.648  24.701  1.00  0.00     0.271 C 
ATOM     19  C   UNL A   1      33.120  22.674  24.698  1.00  0.00     0.262 C 
ATOM     20  O   UNL A   1      34.591  19.421  24.753  1.00  0.00    -0.268 OA
ATOM     21  N   UNL A   1      33.296  21.305  24.588  1.00  0.00    -0.277 N 
ATOM     22  O   UNL A   1      32.004  23.186  24.800  1.00  0.00    -0.269 OA
ATOM     23  C   UNL A   1      32.116  20.468  24.456  1.00  0.00     0.157 C 
BRANCH  16  24
ATOM     24  C   UNL A   1      37.026  20.694  24.937  1.00  0.00     0.105 C 
ATOM     25  N   UNL A   1      38.096  20.039  25.066  1.00  0.00    -0.192 NA
ENDBRANCH  16  24
ENDBRANCH  11  13
ENDBRANCH   6  11
BRANCH  10  26
ATOM     26  O   UNL A   1      31.005  29.813  24.243  1.00  0.00    -0.507 OA
ATOM     27  H   UNL A   1      30.130  29.527  24.071  1.00  0.00     0.293 HD
ENDBRANCH  10  26
ENDBRANCH   3   5
ENDBRANCH   2   3
ENDBRANCH   1   2
BRANCH   1  28
ATOM     28  C   UNL A   1      35.184  32.437  28.081  1.00  0.00     0.275 C 
BRANCH  28  29
ATOM     29  O   UNL A   1      35.680  31.087  28.120  1.00  0.00    -0.458 OA
BRANCH  29  30
ATOM     30  C   UNL A   1      36.254  30.703  29.284  1.00  0.00     0.338 C 
ATOM     31  O   UNL A   1      35.790  30.805  30.406  1.00  0.00    -0.246 OA
BRANCH  30  32
ATOM     32  C   UNL A   1      37.542  30.049  29.010  1.00  0.00     0.060 A 
ATOM     33  C   UNL A   1      38.367  29.751  30.088  1.00  0.00     0.016 A 
ATOM     34  C   UNL A   1      38.004  29.869  27.710  1.00  0.00     0.016 A 
ATOM     35  C   UNL A   1      39.690  29.371  29.883  1.00  0.00     0.010 A 
ATOM     36  C   UNL A   1      39.302  29.377  27.503  1.00  0.00     0.010 A 
ATOM     37  C   UNL A   1      40.176  29.157  28.585  1.00  0.00    -0.014 A 
BRANCH  37  38
ATOM     38  C   UNL A   1      41.596  28.738  28.371  1.00  0.00     0.031 A 
ATOM     39  C   UNL A   1      42.714  29.747  28.478  1.00  0.00     0.074 A 
ATOM     40  C   UNL A   1      41.896  27.450  28.096  1.00  0.00     0.049 A 
ATOM     41  N   UNL A   1      43.977  29.621  28.160  1.00  0.00    -0.248 NA
ATOM     42  C   UNL A   1      42.363  31.077  29.003  1.00  0.00     0.031 C 
ATOM     43  C   UNL A   1      40.929  26.354  28.001  1.00  0.00     0.029 A 
ATOM     44  N   UNL A   1      43.104  26.841  27.848  1.00  0.00    -0.354 N 
ATOM     45  C   UNL A   1      44.557  30.865  28.383  1.00  0.00     0.074 A 
ATOM     46  C   UNL A   1      43.506  31.736  28.867  1.00  0.00     0.031 C 
ATOM     47  C   UNL A   1      41.580  25.207  27.758  1.00  0.00     0.029 A 
ATOM     48  C   UNL A   1      42.998  25.495  27.579  1.00  0.00     0.049 A 
ATOM     49  H   UNL A   1      43.963  27.322  27.862  1.00  0.00     0.167 HD
ATOM     50  C   UNL A   1      45.845  31.247  28.202  1.00  0.00     0.037 A 
ATOM     51  C   UNL A   1      43.921  24.597  27.182  1.00  0.00     0.037 A 
ATOM     52  C   UNL A   1      46.900  30.361  27.778  1.00  0.00     0.049 A 
ATOM     53  C   UNL A   1      45.337  25.050  26.959  1.00  0.00     0.074 A 
ATOM     54  C   UNL A   1      48.241  30.651  27.587  1.00  0.00     0.029 A 
ATOM     55  N   UNL A   1      46.740  29.014  27.493  1.00  0.00    -0.354 N 
ATOM     56  N   UNL A   1      45.855  26.243  27.127  1.00  0.00    -0.248 NA
ATOM     57  C   UNL A   1      46.289  24.041  26.474  1.00  0.00     0.031 C 
ATOM     58  C   UNL A   1      48.884  29.487  27.151  1.00  0.00     0.029 A 
ATOM     59  C   UNL A   1      47.953  28.462  27.115  1.00  0.00     0.049 A 
ATOM     60  H   UNL A   1      45.889  28.522  27.551  1.00  0.00     0.167 HD
ATOM     61  C   UNL A   1      47.195  26.126  26.777  1.00  0.00     0.074 A 
ATOM     62  C   UNL A   1      47.413  24.742  26.408  1.00  0.00     0.031 C 
ATOM     63  C   UNL A   1      48.157  27.081  26.755  1.00  0.00     0.037 A 
BRANCH  50  64
ATOM     64  C   UNL A   1      46.189  32.695  28.428  1.00  0.00     0.058 A 
ATOM     65  C   UNL A   1      46.117  33.650  27.403  1.00  0.00     0.135 A 
ATOM     66  C   UNL A   1      46.551  33.141  29.711  1.00  0.00     0.135 A 
ATOM     67  F   UNL A   1      45.793  33.278  26.155  1.00  0.00    -0.206 F 
ATOM     68  C   UNL A   1      46.416  34.990  27.635  1.00  0.00     0.059 A 
ATOM     69  C   UNL A   1      46.829  34.479  29.972  1.00  0.00     0.059 A 
ATOM     70  F   UNL A   1      46.635  32.270  30.731  1.00  0.00    -0.206 F 
ATOM     71  C   UNL A   1      46.772  35.395  28.923  1.00  0.00     0.060 A 
BRANCH  71  72
ATOM     72  S   UNL A   1      47.156  37.136  29.209  1.00  0.00     0.124 S 
ATOM     73  O   UNL A   1      48.575  37.069  29.541  1.00  0.00    -0.237 OA
ATOM     74  O   UNL A   1      46.834  37.743  27.921  1.00  0.00    -0.237 OA
ATOM     75  O   UNL A   1      46.270  37.503  30.309  1.00  0.00    -0.744 OA
ENDBRANCH  71  72
ENDBRANCH  50  64
BRANCH  51  76
ATOM     76  C   UNL A   1      43.520  23.188  26.915  1.00  0.00     0.058 A 
ATOM     77  C   UNL A   1      43.431  22.694  25.606  1.00  0.00     0.135 A 
ATOM     78  C   UNL A   1      43.232  22.305  27.968  1.00  0.00     0.135 A 
ATOM     79  F   UNL A   1      43.684  23.503  24.566  1.00  0.00    -0.206 F 
ATOM     80  C   UNL A   1      43.064  21.377  25.348  1.00  0.00     0.059 A 
ATOM     81  C   UNL A   1      42.893  20.976  27.738  1.00  0.00     0.059 A 
ATOM     82  F   UNL A   1      43.312  22.725  29.241  1.00  0.00    -0.206 F 
ATOM     83  C   UNL A   1      42.802  20.524  26.422  1.00  0.00     0.060 A 
BRANCH  83  84
ATOM     84  S   UNL A   1      42.382  18.800  26.083  1.00  0.00     0.124 S 
ATOM     85  O   UNL A   1      43.333  18.470  25.029  1.00  0.00    -0.237 OA
ATOM     86  O   UNL A   1      42.615  18.166  27.375  1.00  0.00    -0.237 OA
ATOM     87  O   UNL A   1      40.983  18.873  25.672  1.00  0.00    -0.744 OA
ENDBRANCH  83  84
ENDBRANCH  51  76
BRANCH  63  88
ATOM     88  C   UNL A   1      49.541  26.656  26.351  1.00  0.00     0.058 A 
ATOM     89  C   UNL A   1      49.983  26.756  25.023  1.00  0.00     0.135 A 
ATOM     90  C   UNL A   1      50.448  26.182  27.311  1.00  0.00     0.135 A 
ATOM     91  F   UNL A   1      49.151  27.195  24.065  1.00  0.00    -0.206 F 
ATOM     92  C   UNL A   1      51.271  26.380  24.656  1.00  0.00     0.059 A 
ATOM     93  C   UNL A   1      51.748  25.823  26.973  1.00  0.00     0.059 A 
ATOM     94  F   UNL A   1      50.077  26.075  28.597  1.00  0.00    -0.206 F 
ATOM     95  C   UNL A   1      52.147  25.915  25.640  1.00  0.00     0.060 A 
BRANCH  95  96
ATOM     96  S   UNL A   1      53.826  25.459  25.158  1.00  0.00     0.124 S 
ATOM     97  O   UNL A   1      53.836  25.824  23.745  1.00  0.00    -0.237 OA
ATOM     98  O   UNL A   1      54.642  26.294  26.035  1.00  0.00    -0.237 OA
ATOM     99  O   UNL A   1      53.881  24.026  25.437  1.00  0.00    -0.744 OA
ENDBRANCH  95  96
ENDBRANCH  63  88
ENDBRANCH  37  38
ENDBRANCH  30  32
ENDBRANCH  29  30
ENDBRANCH  28  29
ENDBRANCH   1  28
TORSDOF 18
ENDMDL
