MODEL 1
REMARK VINA RESULT:      -8.6      0.000      0.000
REMARK SMILES C[C@@H](C(=O)OCCOC(=O)c1ccc(-c2c3nc(c(-c4c(F)cc(S(=O)(=O)[O-])cc4F)c4ccc([nH]4)c(-c4c(F)cc(S(=O)(=O)[O-])cc4F)c4nc(c(-c5c(F)cc(S(=O)(=O)[O-])cc5F)c5ccc2[nH]5)C=C4)C=C3)cc1)[C@@H](C)c1ccc(OC(F)(F)F)cc1
REMARK SMILES IDX 6 1 5 2 3 3 4 4 2 5 1 6 77 7 78 8 79 9 80 10 89 11 81 12
REMARK SMILES IDX 88 13 82 14 83 15 84 16 85 17 86 18 87 19 7 20 8 21 9 22
REMARK SMILES IDX 10 23 11 24 12 25 76 26 13 27 75 28 14 29 15 30 16 31 69 32
REMARK SMILES IDX 17 33 74 34 68 35 70 36 18 37 73 38 67 39 66 40 19 42 53 43
REMARK SMILES IDX 32 44 52 45 33 46 36 47 51 48 71 49 34 50 35 51 50 53 72 54
REMARK SMILES IDX 37 55 20 56 21 57 30 58 22 59 23 60 29 61 31 62 24 63 25 64
REMARK SMILES IDX 26 65 27 66 28 67 54 68 55 69 64 70 56 71 57 72 63 73 65 74
REMARK SMILES IDX 58 75 59 76 60 77 61 78 62 79 38 80 39 81 48 82 40 83 41 84
REMARK SMILES IDX 47 85 49 86 42 87 43 88 44 89 45 90 46 91
REMARK H PARENT 70 41 36 52
REMARK Flexibility Score: inf
ROOT
ATOM      1  C   UNL A   1      34.548  33.559  28.218  1.00  0.00     0.274 C 
ENDROOT
BRANCH   1   2
ATOM      2  O   UNL A   1      34.799  33.772  29.622  1.00  0.00    -0.462 OA
BRANCH   2   3
ATOM      3  C   UNL A   1      35.938  33.174  30.080  1.00  0.00     0.309 C 
ATOM      4  O   UNL A   1      36.942  32.998  29.399  1.00  0.00    -0.252 OA
BRANCH   3   5
ATOM      5  C   UNL A   1      35.813  32.700  31.525  1.00  0.00     0.103 C 
ATOM      6  C   UNL A   1      34.404  33.045  32.036  1.00  0.00     0.020 C 
BRANCH   5   7
ATOM      7  C   UNL A   1      36.923  33.209  32.487  1.00  0.00     0.030 C 
ATOM      8  C   UNL A   1      36.322  34.097  33.596  1.00  0.00     0.013 C 
BRANCH   7   9
ATOM      9  C   UNL A   1      37.849  32.128  33.039  1.00  0.00    -0.044 A 
ATOM     10  C   UNL A   1      37.512  30.776  32.862  1.00  0.00     0.008 A 
ATOM     11  C   UNL A   1      39.067  32.413  33.670  1.00  0.00     0.008 A 
ATOM     12  C   UNL A   1      38.348  29.756  33.325  1.00  0.00     0.047 A 
ATOM     13  C   UNL A   1      39.916  31.389  34.114  1.00  0.00     0.047 A 
ATOM     14  C   UNL A   1      39.551  30.053  33.963  1.00  0.00     0.129 A 
BRANCH  14  15
ATOM     15  O   UNL A   1      40.258  28.963  34.378  1.00  0.00    -0.406 OA
BRANCH  15  16
ATOM     16  C   UNL A   1      41.213  28.416  33.483  1.00  0.00     0.573 C 
ATOM     17  F   UNL A   1      42.195  29.303  33.221  1.00  0.00    -0.132 F 
ATOM     18  F   UNL A   1      41.755  27.282  33.983  1.00  0.00    -0.132 F 
ATOM     19  F   UNL A   1      40.593  28.098  32.327  1.00  0.00    -0.132 F 
ENDBRANCH  15  16
ENDBRANCH  14  15
ENDBRANCH   7   9
ENDBRANCH   5   7
ENDBRANCH   3   5
ENDBRANCH   2   3
ENDBRANCH   1   2
BRANCH   1  20
ATOM     20  C   UNL A   1      33.587  32.386  28.016  1.00  0.00     0.275 C 
BRANCH  20  21
ATOM     21  O   UNL A   1      34.194  31.425  27.135  1.00  0.00    -0.458 OA
BRANCH  21  22
ATOM     22  C   UNL A   1      34.267  30.166  27.625  1.00  0.00     0.338 C 
ATOM     23  O   UNL A   1      33.433  29.277  27.529  1.00  0.00    -0.246 OA
BRANCH  22  24
ATOM     24  C   UNL A   1      35.639  29.942  28.091  1.00  0.00     0.060 A 
ATOM     25  C   UNL A   1      36.654  30.125  27.151  1.00  0.00     0.016 A 
ATOM     26  C   UNL A   1      35.937  29.537  29.388  1.00  0.00     0.016 A 
ATOM     27  C   UNL A   1      37.988  29.942  27.505  1.00  0.00     0.010 A 
ATOM     28  C   UNL A   1      37.275  29.311  29.736  1.00  0.00     0.010 A 
ATOM     29  C   UNL A   1      38.307  29.509  28.796  1.00  0.00    -0.014 A 
BRANCH  29  30
ATOM     30  C   UNL A   1      39.701  29.125  29.122  1.00  0.00     0.031 A 
ATOM     31  C   UNL A   1      40.598  30.139  29.776  1.00  0.00     0.074 A 
ATOM     32  C   UNL A   1      40.161  27.887  28.865  1.00  0.00     0.049 A 
ATOM     33  N   UNL A   1      41.877  30.071  30.034  1.00  0.00    -0.248 NA
ATOM     34  C   UNL A   1      39.960  31.394  30.204  1.00  0.00     0.031 C 
ATOM     35  C   UNL A   1      39.370  26.782  28.328  1.00  0.00     0.029 A 
ATOM     36  N   UNL A   1      41.419  27.356  29.019  1.00  0.00    -0.354 N 
ATOM     37  C   UNL A   1      42.205  31.279  30.636  1.00  0.00     0.074 A 
ATOM     38  C   UNL A   1      40.990  32.062  30.704  1.00  0.00     0.031 C 
ATOM     39  C   UNL A   1      40.167  25.709  28.177  1.00  0.00     0.029 A 
ATOM     40  C   UNL A   1      41.532  26.064  28.562  1.00  0.00     0.049 A 
ATOM     41  H   UNL A   1      42.169  27.855  29.418  1.00  0.00     0.167 HD
ATOM     42  C   UNL A   1      43.411  31.700  31.085  1.00  0.00     0.037 A 
ATOM     43  C   UNL A   1      42.619  25.277  28.434  1.00  0.00     0.037 A 
ATOM     44  C   UNL A   1      44.619  30.920  31.014  1.00  0.00     0.049 A 
ATOM     45  C   UNL A   1      43.972  25.807  28.841  1.00  0.00     0.074 A 
ATOM     46  C   UNL A   1      45.894  31.269  31.425  1.00  0.00     0.029 A 
ATOM     47  N   UNL A   1      44.704  29.638  30.495  1.00  0.00    -0.354 N 
ATOM     48  N   UNL A   1      44.280  26.965  29.377  1.00  0.00    -0.248 NA
ATOM     49  C   UNL A   1      45.129  24.928  28.611  1.00  0.00     0.031 C 
ATOM     50  C   UNL A   1      46.758  30.213  31.117  1.00  0.00     0.029 A 
ATOM     51  C   UNL A   1      46.013  29.189  30.554  1.00  0.00     0.049 A 
ATOM     52  H   UNL A   1      43.946  29.122  30.136  1.00  0.00     0.167 HD
ATOM     53  C   UNL A   1      45.658  26.941  29.573  1.00  0.00     0.074 A 
ATOM     54  C   UNL A   1      46.125  25.653  29.104  1.00  0.00     0.031 C 
ATOM     55  C   UNL A   1      46.463  27.898  30.096  1.00  0.00     0.037 A 
BRANCH  42  56
ATOM     56  C   UNL A   1      43.490  33.089  31.644  1.00  0.00     0.058 A 
ATOM     57  C   UNL A   1      43.310  33.350  33.012  1.00  0.00     0.135 A 
ATOM     58  C   UNL A   1      43.767  34.176  30.799  1.00  0.00     0.135 A 
ATOM     59  F   UNL A   1      43.023  32.349  33.858  1.00  0.00    -0.206 F 
ATOM     60  C   UNL A   1      43.377  34.644  33.518  1.00  0.00     0.059 A 
ATOM     61  C   UNL A   1      43.860  35.475  31.286  1.00  0.00     0.059 A 
ATOM     62  F   UNL A   1      43.942  33.980  29.482  1.00  0.00    -0.206 F 
ATOM     63  C   UNL A   1      43.650  35.700  32.645  1.00  0.00     0.060 A 
BRANCH  63  64
ATOM     64  S   UNL A   1      43.725  37.376  33.312  1.00  0.00     0.124 S 
ATOM     65  O   UNL A   1      42.481  37.442  34.073  1.00  0.00    -0.237 OA
ATOM     66  O   UNL A   1      44.950  37.344  34.105  1.00  0.00    -0.237 OA
ATOM     67  O   UNL A   1      43.776  38.215  32.120  1.00  0.00    -0.744 OA
ENDBRANCH  63  64
ENDBRANCH  42  56
BRANCH  43  68
ATOM     68  C   UNL A   1      42.491  23.913  27.852  1.00  0.00     0.058 A 
ATOM     69  C   UNL A   1      42.464  22.776  28.672  1.00  0.00     0.135 A 
ATOM     70  C   UNL A   1      42.428  23.720  26.463  1.00  0.00     0.135 A 
ATOM     71  F   UNL A   1      42.540  22.907  30.004  1.00  0.00    -0.206 F 
ATOM     72  C   UNL A   1      42.394  21.494  28.135  1.00  0.00     0.059 A 
ATOM     73  C   UNL A   1      42.333  22.450  25.904  1.00  0.00     0.059 A 
ATOM     74  F   UNL A   1      42.449  24.777  25.635  1.00  0.00    -0.206 F 
ATOM     75  C   UNL A   1      42.331  21.341  26.749  1.00  0.00     0.060 A 
BRANCH  75  76
ATOM     76  S   UNL A   1      42.216  19.675  26.061  1.00  0.00     0.124 S 
ATOM     77  O   UNL A   1      40.808  19.610  25.686  1.00  0.00    -0.237 OA
ATOM     78  O   UNL A   1      43.168  19.730  24.957  1.00  0.00    -0.237 OA
ATOM     79  O   UNL A   1      42.612  18.824  27.179  1.00  0.00    -0.744 OA
ENDBRANCH  75  76
ENDBRANCH  43  68
BRANCH  55  80
ATOM     80  C   UNL A   1      47.928  27.583  30.229  1.00  0.00     0.058 A 
ATOM     81  C   UNL A   1      48.454  26.993  31.388  1.00  0.00     0.135 A 
ATOM     82  C   UNL A   1      48.804  27.816  29.156  1.00  0.00     0.135 A 
ATOM     83  F   UNL A   1      47.660  26.754  32.444  1.00  0.00    -0.206 F 
ATOM     84  C   UNL A   1      49.801  26.659  31.486  1.00  0.00     0.059 A 
ATOM     85  C   UNL A   1      50.150  27.469  29.223  1.00  0.00     0.059 A 
ATOM     86  F   UNL A   1      48.350  28.368  28.020  1.00  0.00    -0.206 F 
ATOM     87  C   UNL A   1      50.642  26.899  30.397  1.00  0.00     0.060 A 
BRANCH  87  88
ATOM     88  S   UNL A   1      52.380  26.421  30.518  1.00  0.00     0.124 S 
ATOM     89  O   UNL A   1      52.291  25.185  31.289  1.00  0.00    -0.237 OA
ATOM     90  O   UNL A   1      52.762  26.267  29.118  1.00  0.00    -0.237 OA
ATOM     91  O   UNL A   1      52.995  27.550  31.208  1.00  0.00    -0.744 OA
ENDBRANCH  87  88
ENDBRANCH  55  80
ENDBRANCH  29  30
ENDBRANCH  22  24
ENDBRANCH  21  22
ENDBRANCH  20  21
ENDBRANCH   1  20
TORSDOF 18
ENDMDL
MODEL 2
REMARK VINA RESULT:      -8.6      4.061      6.621
REMARK SMILES C[C@@H](C(=O)OCCOC(=O)c1ccc(-c2c3nc(c(-c4c(F)cc(S(=O)(=O)[O-])cc4F)c4ccc([nH]4)c(-c4c(F)cc(S(=O)(=O)[O-])cc4F)c4nc(c(-c5c(F)cc(S(=O)(=O)[O-])cc5F)c5ccc2[nH]5)C=C4)C=C3)cc1)[C@@H](C)c1ccc(OC(F)(F)F)cc1
REMARK SMILES IDX 6 1 5 2 3 3 4 4 2 5 1 6 77 7 78 8 79 9 80 10 89 11 81 12
REMARK SMILES IDX 88 13 82 14 83 15 84 16 85 17 86 18 87 19 7 20 8 21 9 22
REMARK SMILES IDX 10 23 11 24 12 25 76 26 13 27 75 28 14 29 15 30 16 31 69 32
REMARK SMILES IDX 17 33 74 34 68 35 70 36 18 37 73 38 67 39 66 40 19 42 53 43
REMARK SMILES IDX 32 44 52 45 33 46 36 47 51 48 71 49 34 50 35 51 50 53 72 54
REMARK SMILES IDX 37 55 20 56 21 57 30 58 22 59 23 60 29 61 31 62 24 63 25 64
REMARK SMILES IDX 26 65 27 66 28 67 54 68 55 69 64 70 56 71 57 72 63 73 65 74
REMARK SMILES IDX 58 75 59 76 60 77 61 78 62 79 38 80 39 81 48 82 40 83 41 84
REMARK SMILES IDX 47 85 49 86 42 87 43 88 44 89 45 90 46 91
REMARK H PARENT 70 41 36 52
REMARK Flexibility Score: inf
ROOT
ATOM      1  C   UNL A   1      31.894  28.466  26.245  1.00  0.00     0.274 C 
ENDROOT
BRANCH   1   2
ATOM      2  O   UNL A   1      32.719  27.621  25.417  1.00  0.00    -0.462 OA
BRANCH   2   3
ATOM      3  C   UNL A   1      32.579  26.287  25.671  1.00  0.00     0.309 C 
ATOM      4  O   UNL A   1      33.457  25.586  26.161  1.00  0.00    -0.252 OA
BRANCH   3   5
ATOM      5  C   UNL A   1      31.222  25.746  25.234  1.00  0.00     0.103 C 
ATOM      6  C   UNL A   1      31.062  24.316  25.778  1.00  0.00     0.020 C 
BRANCH   5   7
ATOM      7  C   UNL A   1      30.938  25.824  23.707  1.00  0.00     0.030 C 
ATOM      8  C   UNL A   1      30.231  24.543  23.215  1.00  0.00     0.013 C 
BRANCH   7   9
ATOM      9  C   UNL A   1      30.235  27.096  23.242  1.00  0.00    -0.044 A 
ATOM     10  C   UNL A   1      28.892  27.309  23.593  1.00  0.00     0.008 A 
ATOM     11  C   UNL A   1      30.884  28.110  22.525  1.00  0.00     0.008 A 
ATOM     12  C   UNL A   1      28.221  28.475  23.213  1.00  0.00     0.047 A 
ATOM     13  C   UNL A   1      30.217  29.290  22.164  1.00  0.00     0.047 A 
ATOM     14  C   UNL A   1      28.874  29.470  22.488  1.00  0.00     0.129 A 
BRANCH  14  15
ATOM     15  O   UNL A   1      28.096  30.545  22.171  1.00  0.00    -0.406 OA
BRANCH  15  16
ATOM     16  C   UNL A   1      28.073  31.634  23.079  1.00  0.00     0.573 C 
ATOM     17  F   UNL A   1      29.124  31.583  23.923  1.00  0.00    -0.132 F 
ATOM     18  F   UNL A   1      28.083  32.816  22.422  1.00  0.00    -0.132 F 
ATOM     19  F   UNL A   1      26.932  31.575  23.799  1.00  0.00    -0.132 F 
ENDBRANCH  15  16
ENDBRANCH  14  15
ENDBRANCH   7   9
ENDBRANCH   5   7
ENDBRANCH   3   5
ENDBRANCH   2   3
ENDBRANCH   1   2
BRANCH   1  20
ATOM     20  C   UNL A   1      32.535  28.664  27.620  1.00  0.00     0.275 C 
BRANCH  20  21
ATOM     21  O   UNL A   1      33.956  28.822  27.458  1.00  0.00    -0.458 OA
BRANCH  21  22
ATOM     22  C   UNL A   1      34.454  30.000  27.899  1.00  0.00     0.338 C 
ATOM     23  O   UNL A   1      33.837  31.022  28.162  1.00  0.00    -0.246 OA
BRANCH  22  24
ATOM     24  C   UNL A   1      35.860  29.788  28.259  1.00  0.00     0.060 A 
ATOM     25  C   UNL A   1      36.801  30.011  27.255  1.00  0.00     0.016 A 
ATOM     26  C   UNL A   1      36.256  29.356  29.522  1.00  0.00     0.016 A 
ATOM     27  C   UNL A   1      38.160  29.841  27.508  1.00  0.00     0.010 A 
ATOM     28  C   UNL A   1      37.619  29.145  29.767  1.00  0.00     0.010 A 
ATOM     29  C   UNL A   1      38.578  29.382  28.762  1.00  0.00    -0.014 A 
BRANCH  29  30
ATOM     30  C   UNL A   1      39.997  29.014  28.977  1.00  0.00     0.031 A 
ATOM     31  C   UNL A   1      40.942  30.054  29.511  1.00  0.00     0.074 A 
ATOM     32  C   UNL A   1      40.440  27.768  28.727  1.00  0.00     0.049 A 
ATOM     33  N   UNL A   1      42.240  29.999  29.657  1.00  0.00    -0.248 NA
ATOM     34  C   UNL A   1      40.338  31.323  29.946  1.00  0.00     0.031 C 
ATOM     35  C   UNL A   1      39.610  26.642  28.304  1.00  0.00     0.029 A 
ATOM     36  N   UNL A   1      41.709  27.247  28.789  1.00  0.00    -0.354 N 
ATOM     37  C   UNL A   1      42.613  31.230  30.182  1.00  0.00     0.074 A 
ATOM     38  C   UNL A   1      41.404  32.012  30.328  1.00  0.00     0.031 C 
ATOM     39  C   UNL A   1      40.396  25.566  28.124  1.00  0.00     0.029 A 
ATOM     40  C   UNL A   1      41.788  25.939  28.373  1.00  0.00     0.049 A 
ATOM     41  H   UNL A   1      42.489  27.761  29.102  1.00  0.00     0.167 HD
ATOM     42  C   UNL A   1      43.851  31.670  30.506  1.00  0.00     0.037 A 
ATOM     43  C   UNL A   1      42.864  25.150  28.179  1.00  0.00     0.037 A 
ATOM     44  C   UNL A   1      45.053  30.891  30.358  1.00  0.00     0.049 A 
ATOM     45  C   UNL A   1      44.245  25.697  28.445  1.00  0.00     0.074 A 
ATOM     46  C   UNL A   1      46.357  31.257  30.642  1.00  0.00     0.029 A 
ATOM     47  N   UNL A   1      45.098  29.590  29.882  1.00  0.00    -0.354 N 
ATOM     48  N   UNL A   1      44.592  26.875  28.907  1.00  0.00    -0.248 NA
ATOM     49  C   UNL A   1      45.382  24.813  28.146  1.00  0.00     0.031 C 
ATOM     50  C   UNL A   1      47.196  30.193  30.298  1.00  0.00     0.029 A 
ATOM     51  C   UNL A   1      46.410  29.147  29.842  1.00  0.00     0.049 A 
ATOM     52  H   UNL A   1      44.315  29.059  29.612  1.00  0.00     0.167 HD
ATOM     53  C   UNL A   1      45.982  26.862  28.982  1.00  0.00     0.074 A 
ATOM     54  C   UNL A   1      46.413  25.559  28.522  1.00  0.00     0.031 C 
ATOM     55  C   UNL A   1      46.826  27.840  29.395  1.00  0.00     0.037 A 
BRANCH  42  56
ATOM     56  C   UNL A   1      43.972  33.080  31.004  1.00  0.00     0.058 A 
ATOM     57  C   UNL A   1      44.132  34.165  30.128  1.00  0.00     0.135 A 
ATOM     58  C   UNL A   1      43.911  33.349  32.381  1.00  0.00     0.135 A 
ATOM     59  F   UNL A   1      44.218  33.958  28.805  1.00  0.00    -0.206 F 
ATOM     60  C   UNL A   1      44.253  35.467  30.602  1.00  0.00     0.059 A 
ATOM     61  C   UNL A   1      44.008  34.645  32.876  1.00  0.00     0.059 A 
ATOM     62  F   UNL A   1      43.764  32.345  33.260  1.00  0.00    -0.206 F 
ATOM     63  C   UNL A   1      44.193  35.696  31.979  1.00  0.00     0.060 A 
BRANCH  63  64
ATOM     64  S   UNL A   1      44.359  37.389  32.582  1.00  0.00     0.124 S 
ATOM     65  O   UNL A   1      44.122  38.157  31.364  1.00  0.00    -0.237 OA
ATOM     66  O   UNL A   1      43.310  37.467  33.594  1.00  0.00    -0.237 OA
ATOM     67  O   UNL A   1      45.724  37.434  33.095  1.00  0.00    -0.744 OA
ENDBRANCH  63  64
ENDBRANCH  42  56
BRANCH  43  68
ATOM     68  C   UNL A   1      42.693  23.764  27.662  1.00  0.00     0.058 A 
ATOM     69  C   UNL A   1      42.628  23.508  26.285  1.00  0.00     0.135 A 
ATOM     70  C   UNL A   1      42.559  22.675  28.537  1.00  0.00     0.135 A 
ATOM     71  F   UNL A   1      42.733  24.519  25.409  1.00  0.00    -0.206 F 
ATOM     72  C   UNL A   1      42.419  22.224  25.793  1.00  0.00     0.059 A 
ATOM     73  C   UNL A   1      42.373  21.378  28.068  1.00  0.00     0.059 A 
ATOM     74  F   UNL A   1      42.616  22.867  29.864  1.00  0.00    -0.206 F 
ATOM     75  C   UNL A   1      42.291  21.164  26.693  1.00  0.00     0.060 A 
BRANCH  75  76
ATOM     76  S   UNL A   1      42.044  19.496  26.046  1.00  0.00     0.124 S 
ATOM     77  O   UNL A   1      40.617  19.508  25.746  1.00  0.00    -0.237 OA
ATOM     78  O   UNL A   1      42.938  19.477  24.895  1.00  0.00    -0.237 OA
ATOM     79  O   UNL A   1      42.448  18.643  27.160  1.00  0.00    -0.744 OA
ENDBRANCH  75  76
ENDBRANCH  43  68
BRANCH  55  80
ATOM     80  C   UNL A   1      48.298  27.533  29.411  1.00  0.00     0.058 A 
ATOM     81  C   UNL A   1      49.143  27.915  28.358  1.00  0.00     0.135 A 
ATOM     82  C   UNL A   1      48.880  26.906  30.525  1.00  0.00     0.135 A 
ATOM     83  F   UNL A   1      48.636  28.512  27.268  1.00  0.00    -0.206 F 
ATOM     84  C   UNL A   1      50.512  27.671  28.401  1.00  0.00     0.059 A 
ATOM     85  C   UNL A   1      50.250  26.673  30.600  1.00  0.00     0.059 A 
ATOM     86  F   UNL A   1      48.118  26.531  31.564  1.00  0.00    -0.206 F 
ATOM     87  C   UNL A   1      51.058  27.051  29.528  1.00  0.00     0.060 A 
BRANCH  87  88
ATOM     88  S   UNL A   1      52.843  26.780  29.594  1.00  0.00     0.124 S 
ATOM     89  O   UNL A   1      52.975  25.993  30.815  1.00  0.00    -0.237 OA
ATOM     90  O   UNL A   1      53.098  26.064  28.348  1.00  0.00    -0.237 OA
ATOM     91  O   UNL A   1      53.389  28.132  29.655  1.00  0.00    -0.744 OA
ENDBRANCH  87  88
ENDBRANCH  55  80
ENDBRANCH  29  30
ENDBRANCH  22  24
ENDBRANCH  21  22
ENDBRANCH  20  21
ENDBRANCH   1  20
TORSDOF 18
ENDMDL
MODEL 3
REMARK VINA RESULT:      -8.5      2.836      3.961
REMARK SMILES C[C@@H](C(=O)OCCOC(=O)c1ccc(-c2c3nc(c(-c4c(F)cc(S(=O)(=O)[O-])cc4F)c4ccc([nH]4)c(-c4c(F)cc(S(=O)(=O)[O-])cc4F)c4nc(c(-c5c(F)cc(S(=O)(=O)[O-])cc5F)c5ccc2[nH]5)C=C4)C=C3)cc1)[C@@H](C)c1ccc(OC(F)(F)F)cc1
REMARK SMILES IDX 6 1 5 2 3 3 4 4 2 5 1 6 77 7 78 8 79 9 80 10 89 11 81 12
REMARK SMILES IDX 88 13 82 14 83 15 84 16 85 17 86 18 87 19 7 20 8 21 9 22
REMARK SMILES IDX 10 23 11 24 12 25 76 26 13 27 75 28 14 29 15 30 16 31 69 32
REMARK SMILES IDX 17 33 74 34 68 35 70 36 18 37 73 38 67 39 66 40 19 42 53 43
REMARK SMILES IDX 32 44 52 45 33 46 36 47 51 48 71 49 34 50 35 51 50 53 72 54
REMARK SMILES IDX 37 55 20 56 21 57 30 58 22 59 23 60 29 61 31 62 24 63 25 64
REMARK SMILES IDX 26 65 27 66 28 67 54 68 55 69 64 70 56 71 57 72 63 73 65 74
REMARK SMILES IDX 58 75 59 76 60 77 61 78 62 79 38 80 39 81 48 82 40 83 41 84
REMARK SMILES IDX 47 85 49 86 42 87 43 88 44 89 45 90 46 91
REMARK H PARENT 70 41 36 52
REMARK Flexibility Score: inf
ROOT
ATOM      1  C   UNL A   1      34.423  34.045  29.593  1.00  0.00     0.274 C 
ENDROOT
BRANCH   1   2
ATOM      2  O   UNL A   1      33.527  34.590  30.584  1.00  0.00    -0.462 OA
BRANCH   2   3
ATOM      3  C   UNL A   1      34.156  35.071  31.697  1.00  0.00     0.309 C 
ATOM      4  O   UNL A   1      33.996  36.202  32.140  1.00  0.00    -0.252 OA
BRANCH   3   5
ATOM      5  C   UNL A   1      35.122  34.060  32.307  1.00  0.00     0.103 C 
ATOM      6  C   UNL A   1      34.330  33.113  33.225  1.00  0.00     0.020 C 
BRANCH   5   7
ATOM      7  C   UNL A   1      36.355  34.675  33.028  1.00  0.00     0.030 C 
ATOM      8  C   UNL A   1      36.466  34.144  34.472  1.00  0.00     0.013 C 
BRANCH   7   9
ATOM      9  C   UNL A   1      37.672  34.572  32.263  1.00  0.00    -0.044 A 
ATOM     10  C   UNL A   1      38.885  34.624  32.969  1.00  0.00     0.008 A 
ATOM     11  C   UNL A   1      37.738  34.362  30.879  1.00  0.00     0.008 A 
ATOM     12  C   UNL A   1      40.111  34.502  32.310  1.00  0.00     0.047 A 
ATOM     13  C   UNL A   1      38.968  34.216  30.221  1.00  0.00     0.047 A 
ATOM     14  C   UNL A   1      40.164  34.307  30.931  1.00  0.00     0.129 A 
BRANCH  14  15
ATOM     15  O   UNL A   1      41.424  34.221  30.417  1.00  0.00    -0.406 OA
BRANCH  15  16
ATOM     16  C   UNL A   1      41.999  32.931  30.290  1.00  0.00     0.573 C 
ATOM     17  F   UNL A   1      42.493  32.503  31.469  1.00  0.00    -0.132 F 
ATOM     18  F   UNL A   1      41.092  32.036  29.834  1.00  0.00    -0.132 F 
ATOM     19  F   UNL A   1      43.004  32.989  29.390  1.00  0.00    -0.132 F 
ENDBRANCH  15  16
ENDBRANCH  14  15
ENDBRANCH   7   9
ENDBRANCH   5   7
ENDBRANCH   3   5
ENDBRANCH   2   3
ENDBRANCH   1   2
BRANCH   1  20
ATOM     20  C   UNL A   1      33.641  33.554  28.374  1.00  0.00     0.275 C 
BRANCH  20  21
ATOM     21  O   UNL A   1      34.522  32.802  27.521  1.00  0.00    -0.458 OA
BRANCH  21  22
ATOM     22  C   UNL A   1      34.401  31.458  27.618  1.00  0.00     0.338 C 
ATOM     23  O   UNL A   1      33.506  30.753  27.174  1.00  0.00    -0.246 OA
BRANCH  22  24
ATOM     24  C   UNL A   1      35.667  30.928  28.136  1.00  0.00     0.060 A 
ATOM     25  C   UNL A   1      35.606  29.698  28.792  1.00  0.00     0.016 A 
ATOM     26  C   UNL A   1      36.873  31.612  28.020  1.00  0.00     0.016 A 
ATOM     27  C   UNL A   1      36.758  29.115  29.311  1.00  0.00     0.010 A 
ATOM     28  C   UNL A   1      38.027  31.047  28.578  1.00  0.00     0.010 A 
ATOM     29  C   UNL A   1      37.976  29.798  29.229  1.00  0.00    -0.014 A 
BRANCH  29  30
ATOM     30  C   UNL A   1      39.164  29.277  29.946  1.00  0.00     0.031 A 
ATOM     31  C   UNL A   1      39.544  29.895  31.263  1.00  0.00     0.074 A 
ATOM     32  C   UNL A   1      39.884  28.254  29.451  1.00  0.00     0.049 A 
ATOM     33  N   UNL A   1      40.604  29.692  31.999  1.00  0.00    -0.248 NA
ATOM     34  C   UNL A   1      38.592  30.865  31.827  1.00  0.00     0.031 C 
ATOM     35  C   UNL A   1      39.567  27.502  28.238  1.00  0.00     0.029 A 
ATOM     36  N   UNL A   1      41.042  27.677  29.911  1.00  0.00    -0.354 N 
ATOM     37  C   UNL A   1      40.461  30.521  33.104  1.00  0.00     0.074 A 
ATOM     38  C   UNL A   1      39.210  31.231  32.941  1.00  0.00     0.031 C 
ATOM     39  C   UNL A   1      40.521  26.575  28.039  1.00  0.00     0.029 A 
ATOM     40  C   UNL A   1      41.538  26.699  29.082  1.00  0.00     0.049 A 
ATOM     41  H   UNL A   1      41.477  27.939  30.756  1.00  0.00     0.167 HD
ATOM     42  C   UNL A   1      41.298  30.681  34.155  1.00  0.00     0.037 A 
ATOM     43  C   UNL A   1      42.698  26.013  29.140  1.00  0.00     0.037 A 
ATOM     44  C   UNL A   1      42.543  29.975  34.315  1.00  0.00     0.049 A 
ATOM     45  C   UNL A   1      43.667  26.286  30.263  1.00  0.00     0.074 A 
ATOM     46  C   UNL A   1      43.469  30.084  35.337  1.00  0.00     0.029 A 
ATOM     47  N   UNL A   1      43.037  29.033  33.427  1.00  0.00    -0.354 N 
ATOM     48  N   UNL A   1      43.540  27.099  31.286  1.00  0.00    -0.248 NA
ATOM     49  C   UNL A   1      44.946  25.559  30.232  1.00  0.00     0.031 C 
ATOM     50  C   UNL A   1      44.544  29.238  35.046  1.00  0.00     0.029 A 
ATOM     51  C   UNL A   1      44.266  28.569  33.865  1.00  0.00     0.049 A 
ATOM     52  H   UNL A   1      42.583  28.737  32.605  1.00  0.00     0.167 HD
ATOM     53  C   UNL A   1      44.707  26.959  32.033  1.00  0.00     0.074 A 
ATOM     54  C   UNL A   1      45.527  25.981  31.348  1.00  0.00     0.031 C 
ATOM     55  C   UNL A   1      45.067  27.583  33.181  1.00  0.00     0.037 A 
BRANCH  42  56
ATOM     56  C   UNL A   1      40.918  31.699  35.189  1.00  0.00     0.058 A 
ATOM     57  C   UNL A   1      39.938  31.440  36.161  1.00  0.00     0.135 A 
ATOM     58  C   UNL A   1      41.557  32.949  35.217  1.00  0.00     0.135 A 
ATOM     59  F   UNL A   1      39.283  30.269  36.164  1.00  0.00    -0.206 F 
ATOM     60  C   UNL A   1      39.588  32.395  37.109  1.00  0.00     0.059 A 
ATOM     61  C   UNL A   1      41.239  33.911  36.169  1.00  0.00     0.059 A 
ATOM     62  F   UNL A   1      42.498  33.247  34.306  1.00  0.00    -0.206 F 
ATOM     63  C   UNL A   1      40.242  33.630  37.102  1.00  0.00     0.060 A 
BRANCH  63  64
ATOM     64  S   UNL A   1      39.772  34.865  38.332  1.00  0.00     0.124 S 
ATOM     65  O   UNL A   1      38.511  34.318  38.826  1.00  0.00    -0.237 OA
ATOM     66  O   UNL A   1      40.891  34.818  39.268  1.00  0.00    -0.237 OA
ATOM     67  O   UNL A   1      39.661  36.094  37.555  1.00  0.00    -0.744 OA
ENDBRANCH  63  64
ENDBRANCH  42  56
BRANCH  43  68
ATOM     68  C   UNL A   1      43.040  25.029  28.077  1.00  0.00     0.058 A 
ATOM     69  C   UNL A   1      42.716  23.672  28.215  1.00  0.00     0.135 A 
ATOM     70  C   UNL A   1      43.725  25.423  26.917  1.00  0.00     0.135 A 
ATOM     71  F   UNL A   1      42.077  23.243  29.314  1.00  0.00    -0.206 F 
ATOM     72  C   UNL A   1      43.074  22.736  27.250  1.00  0.00     0.059 A 
ATOM     73  C   UNL A   1      44.073  24.510  25.927  1.00  0.00     0.059 A 
ATOM     74  F   UNL A   1      44.056  26.711  26.735  1.00  0.00    -0.206 F 
ATOM     75  C   UNL A   1      43.755  23.165  26.109  1.00  0.00     0.060 A 
BRANCH  75  76
ATOM     76  S   UNL A   1      44.195  21.948  24.848  1.00  0.00     0.124 S 
ATOM     77  O   UNL A   1      43.341  20.825  25.216  1.00  0.00    -0.237 OA
ATOM     78  O   UNL A   1      43.842  22.641  23.614  1.00  0.00    -0.237 OA
ATOM     79  O   UNL A   1      45.626  21.750  25.061  1.00  0.00    -0.744 OA
ENDBRANCH  75  76
ENDBRANCH  43  68
BRANCH  55  80
ATOM     80  C   UNL A   1      46.384  27.204  33.800  1.00  0.00     0.058 A 
ATOM     81  C   UNL A   1      47.561  27.917  33.526  1.00  0.00     0.135 A 
ATOM     82  C   UNL A   1      46.455  26.153  34.730  1.00  0.00     0.135 A 
ATOM     83  F   UNL A   1      47.549  28.927  32.642  1.00  0.00    -0.206 F 
ATOM     84  C   UNL A   1      48.767  27.591  34.139  1.00  0.00     0.059 A 
ATOM     85  C   UNL A   1      47.645  25.825  35.372  1.00  0.00     0.059 A 
ATOM     86  F   UNL A   1      45.356  25.446  35.036  1.00  0.00    -0.206 F 
ATOM     87  C   UNL A   1      48.799  26.545  35.064  1.00  0.00     0.060 A 
BRANCH  87  88
ATOM     88  S   UNL A   1      50.360  26.159  35.888  1.00  0.00     0.124 S 
ATOM     89  O   UNL A   1      50.850  25.046  35.082  1.00  0.00    -0.237 OA
ATOM     90  O   UNL A   1      51.100  27.410  35.759  1.00  0.00    -0.237 OA
ATOM     91  O   UNL A   1      49.950  25.818  37.247  1.00  0.00    -0.744 OA
ENDBRANCH  87  88
ENDBRANCH  55  80
ENDBRANCH  29  30
ENDBRANCH  22  24
ENDBRANCH  21  22
ENDBRANCH  20  21
ENDBRANCH   1  20
TORSDOF 18
ENDMDL
