MODEL 1
REMARK VINA RESULT:     -11.5      0.000      0.000
REMARK SMILES C[C@@H](C(=O)OCCOC(=O)c1ccc(-c2c3nc(c(-c4c(F)cc(S(=O)(=O)[O-])cc4F)c4ccc([nH]4)c(-c4c(F)cc(S(=O)(=O)[O-])cc4F)c4nc(c(-c5c(F)cc(S(=O)(=O)[O-])cc5F)c5ccc2[nH]5)C=C4)C=C3)cc1)N1C(=O)/C(=C/c2ccc(N(C)C)cc2)SC1=S
REMARK SMILES IDX 6 1 5 2 3 3 4 4 2 5 1 6 77 7 78 8 92 9 79 10 80 11 91 12
REMARK SMILES IDX 93 13 81 14 82 15 83 16 90 17 84 18 89 19 85 20 86 21 87 22
REMARK SMILES IDX 88 23 7 24 8 25 9 26 10 27 11 28 12 29 76 30 13 31 75 32
REMARK SMILES IDX 14 33 15 34 16 35 69 36 17 37 74 38 68 39 70 40 18 41 73 42
REMARK SMILES IDX 67 43 66 44 19 46 53 47 32 48 52 49 33 50 36 51 51 52 71 53
REMARK SMILES IDX 34 54 35 55 50 57 72 58 37 59 20 60 21 61 30 62 22 63 23 64
REMARK SMILES IDX 29 65 31 66 24 67 25 68 26 69 27 70 28 71 54 72 55 73 64 74
REMARK SMILES IDX 56 75 57 76 63 77 65 78 58 79 59 80 60 81 61 82 62 83 38 84
REMARK SMILES IDX 39 85 48 86 40 87 41 88 47 89 49 90 42 91 43 92 44 93 45 94
REMARK SMILES IDX 46 95
REMARK H PARENT 70 45 36 56
REMARK Flexibility Score: inf
ROOT
ATOM      1  C   UNL A   1      39.041  21.660  26.144  1.00  0.00     0.274 C 
ENDROOT
BRANCH   1   2
ATOM      2  O   UNL A   1      38.214  22.353  25.184  1.00  0.00    -0.461 OA
BRANCH   2   3
ATOM      3  C   UNL A   1      37.156  23.059  25.682  1.00  0.00     0.329 C 
ATOM      4  O   UNL A   1      37.247  24.204  26.103  1.00  0.00    -0.250 OA
BRANCH   3   5
ATOM      5  C   UNL A   1      35.866  22.196  25.751  1.00  0.00     0.199 C 
ATOM      6  C   UNL A   1      36.047  20.987  24.823  1.00  0.00     0.044 C 
BRANCH   5   7
ATOM      7  N   UNL A   1      34.661  23.047  25.473  1.00  0.00    -0.279 N 
ATOM      8  C   UNL A   1      34.466  23.700  24.269  1.00  0.00     0.266 C 
ATOM      9  C   UNL A   1      33.604  23.180  26.363  1.00  0.00     0.149 C 
ATOM     10  O   UNL A   1      35.088  23.532  23.230  1.00  0.00    -0.268 OA
ATOM     11  C   UNL A   1      33.337  24.667  24.358  1.00  0.00     0.081 C 
ATOM     12  S   UNL A   1      32.549  24.506  25.861  1.00  0.00    -0.054 SA
ATOM     13  S   UNL A   1      33.265  22.246  27.708  1.00  0.00    -0.052 S 
ATOM     14  C   UNL A   1      33.165  25.564  23.377  1.00  0.00     0.029 C 
BRANCH  14  15
ATOM     15  C   UNL A   1      32.327  26.767  23.349  1.00  0.00    -0.024 A 
ATOM     16  C   UNL A   1      32.427  27.828  24.242  1.00  0.00     0.010 A 
ATOM     17  C   UNL A   1      31.310  26.801  22.394  1.00  0.00     0.010 A 
ATOM     18  C   UNL A   1      31.515  28.902  24.172  1.00  0.00     0.026 A 
ATOM     19  C   UNL A   1      30.417  27.874  22.331  1.00  0.00     0.026 A 
ATOM     20  C   UNL A   1      30.479  28.958  23.220  1.00  0.00     0.036 A 
BRANCH  20  21
ATOM     21  N   UNL A   1      29.546  29.989  23.174  1.00  0.00    -0.378 N 
ATOM     22  C   UNL A   1      29.657  31.181  24.004  1.00  0.00     0.143 C 
ATOM     23  C   UNL A   1      28.701  30.136  21.986  1.00  0.00     0.143 C 
ENDBRANCH  20  21
ENDBRANCH  14  15
ENDBRANCH   5   7
ENDBRANCH   3   5
ENDBRANCH   2   3
ENDBRANCH   1   2
BRANCH   1  24
ATOM     24  C   UNL A   1      40.447  22.251  26.299  1.00  0.00     0.275 C 
BRANCH  24  25
ATOM     25  O   UNL A   1      40.513  23.256  27.327  1.00  0.00    -0.458 OA
BRANCH  25  26
ATOM     26  C   UNL A   1      41.106  24.411  26.952  1.00  0.00     0.338 C 
ATOM     27  O   UNL A   1      41.668  24.624  25.883  1.00  0.00    -0.246 OA
BRANCH  26  28
ATOM     28  C   UNL A   1      40.809  25.483  27.917  1.00  0.00     0.060 A 
ATOM     29  C   UNL A   1      41.826  26.411  28.150  1.00  0.00     0.016 A 
ATOM     30  C   UNL A   1      39.603  25.575  28.614  1.00  0.00     0.016 A 
ATOM     31  C   UNL A   1      41.640  27.445  29.057  1.00  0.00     0.010 A 
ATOM     32  C   UNL A   1      39.430  26.601  29.557  1.00  0.00     0.010 A 
ATOM     33  C   UNL A   1      40.451  27.539  29.785  1.00  0.00    -0.014 A 
BRANCH  33  34
ATOM     34  C   UNL A   1      40.354  28.577  30.838  1.00  0.00     0.031 A 
ATOM     35  C   UNL A   1      41.308  28.544  31.997  1.00  0.00     0.074 A 
ATOM     36  C   UNL A   1      39.492  29.602  30.703  1.00  0.00     0.049 A 
ATOM     37  N   UNL A   1      41.369  29.324  33.045  1.00  0.00    -0.248 NA
ATOM     38  C   UNL A   1      42.345  27.499  31.962  1.00  0.00     0.031 C 
ATOM     39  C   UNL A   1      38.593  29.802  29.566  1.00  0.00     0.029 A 
ATOM     40  N   UNL A   1      39.245  30.675  31.520  1.00  0.00    -0.354 N 
ATOM     41  C   UNL A   1      42.438  28.860  33.800  1.00  0.00     0.074 A 
ATOM     42  C   UNL A   1      42.994  27.724  33.095  1.00  0.00     0.031 C 
ATOM     43  C   UNL A   1      37.892  30.932  29.760  1.00  0.00     0.029 A 
ATOM     44  C   UNL A   1      38.258  31.508  31.052  1.00  0.00     0.049 A 
ATOM     45  H   UNL A   1      39.730  30.835  32.362  1.00  0.00     0.167 HD
ATOM     46  C   UNL A   1      42.914  29.343  34.973  1.00  0.00     0.037 A 
ATOM     47  C   UNL A   1      37.690  32.591  31.618  1.00  0.00     0.037 A 
ATOM     48  C   UNL A   1      42.364  30.482  35.660  1.00  0.00     0.049 A 
ATOM     49  C   UNL A   1      38.162  33.041  32.977  1.00  0.00     0.074 A 
ATOM     50  C   UNL A   1      42.809  31.080  36.826  1.00  0.00     0.029 A 
ATOM     51  N   UNL A   1      41.243  31.189  35.251  1.00  0.00    -0.354 N 
ATOM     52  N   UNL A   1      39.106  32.535  33.735  1.00  0.00    -0.248 NA
ATOM     53  C   UNL A   1      37.479  34.202  33.568  1.00  0.00     0.031 C 
ATOM     54  C   UNL A   1      41.957  32.151  37.120  1.00  0.00     0.029 A 
ATOM     55  C   UNL A   1      41.012  32.249  36.111  1.00  0.00     0.049 A 
ATOM     56  H   UNL A   1      40.693  30.968  34.465  1.00  0.00     0.167 HD
ATOM     57  C   UNL A   1      39.151  33.330  34.873  1.00  0.00     0.074 A 
ATOM     58  C   UNL A   1      38.136  34.350  34.710  1.00  0.00     0.031 C 
ATOM     59  C   UNL A   1      39.974  33.237  35.946  1.00  0.00     0.037 A 
BRANCH  46  60
ATOM     60  C   UNL A   1      44.076  28.625  35.597  1.00  0.00     0.058 A 
ATOM     61  C   UNL A   1      45.404  28.953  35.287  1.00  0.00     0.135 A 
ATOM     62  C   UNL A   1      43.852  27.604  36.534  1.00  0.00     0.135 A 
ATOM     63  F   UNL A   1      45.671  29.911  34.384  1.00  0.00    -0.206 F 
ATOM     64  C   UNL A   1      46.473  28.273  35.863  1.00  0.00     0.059 A 
ATOM     65  C   UNL A   1      44.906  26.926  37.140  1.00  0.00     0.059 A 
ATOM     66  F   UNL A   1      42.600  27.253  36.865  1.00  0.00    -0.206 F 
ATOM     67  C   UNL A   1      46.213  27.257  36.785  1.00  0.00     0.060 A 
BRANCH  67  68
ATOM     68  S   UNL A   1      47.606  26.369  37.514  1.00  0.00     0.124 S 
ATOM     69  O   UNL A   1      47.334  26.525  38.940  1.00  0.00    -0.237 OA
ATOM     70  O   UNL A   1      47.435  25.023  36.979  1.00  0.00    -0.237 OA
ATOM     71  O   UNL A   1      48.769  27.096  37.015  1.00  0.00    -0.744 OA
ENDBRANCH  67  68
ENDBRANCH  46  60
BRANCH  47  72
ATOM     72  C   UNL A   1      36.571  33.291  30.932  1.00  0.00     0.058 A 
ATOM     73  C   UNL A   1      36.798  34.127  29.828  1.00  0.00     0.135 A 
ATOM     74  C   UNL A   1      35.250  33.153  31.387  1.00  0.00     0.135 A 
ATOM     75  F   UNL A   1      38.045  34.307  29.367  1.00  0.00    -0.206 F 
ATOM     76  C   UNL A   1      35.757  34.816  29.212  1.00  0.00     0.059 A 
ATOM     77  C   UNL A   1      34.190  33.811  30.771  1.00  0.00     0.059 A 
ATOM     78  F   UNL A   1      34.978  32.363  32.436  1.00  0.00    -0.206 F 
ATOM     79  C   UNL A   1      34.456  34.653  29.692  1.00  0.00     0.060 A 
BRANCH  79  80
ATOM     80  S   UNL A   1      33.108  35.537  28.878  1.00  0.00     0.124 S 
ATOM     81  O   UNL A   1      33.839  36.527  28.095  1.00  0.00    -0.237 OA
ATOM     82  O   UNL A   1      32.457  34.476  28.117  1.00  0.00    -0.237 OA
ATOM     83  O   UNL A   1      32.331  36.065  29.995  1.00  0.00    -0.744 OA
ENDBRANCH  79  80
ENDBRANCH  47  72
BRANCH  59  84
ATOM     84  C   UNL A   1      39.837  34.290  37.010  1.00  0.00     0.058 A 
ATOM     85  C   UNL A   1      40.497  35.523  36.916  1.00  0.00     0.135 A 
ATOM     86  C   UNL A   1      38.993  34.075  38.113  1.00  0.00     0.135 A 
ATOM     87  F   UNL A   1      41.326  35.769  35.889  1.00  0.00    -0.206 F 
ATOM     88  C   UNL A   1      40.333  36.508  37.886  1.00  0.00     0.059 A 
ATOM     89  C   UNL A   1      38.796  35.054  39.080  1.00  0.00     0.059 A 
ATOM     90  F   UNL A   1      38.338  32.910  38.245  1.00  0.00    -0.206 F 
ATOM     91  C   UNL A   1      39.477  36.265  38.962  1.00  0.00     0.060 A 
BRANCH  91  92
ATOM     92  S   UNL A   1      39.234  37.568  40.189  1.00  0.00     0.124 S 
ATOM     93  O   UNL A   1      38.828  36.798  41.359  1.00  0.00    -0.237 OA
ATOM     94  O   UNL A   1      40.556  38.182  40.259  1.00  0.00    -0.237 OA
ATOM     95  O   UNL A   1      38.194  38.402  39.593  1.00  0.00    -0.744 OA
ENDBRANCH  91  92
ENDBRANCH  59  84
ENDBRANCH  33  34
ENDBRANCH  26  28
ENDBRANCH  25  26
ENDBRANCH  24  25
ENDBRANCH   1  24
TORSDOF 17
ENDMDL
MODEL 2
REMARK VINA RESULT:     -11.4      2.286      8.980
REMARK SMILES C[C@@H](C(=O)OCCOC(=O)c1ccc(-c2c3nc(c(-c4c(F)cc(S(=O)(=O)[O-])cc4F)c4ccc([nH]4)c(-c4c(F)cc(S(=O)(=O)[O-])cc4F)c4nc(c(-c5c(F)cc(S(=O)(=O)[O-])cc5F)c5ccc2[nH]5)C=C4)C=C3)cc1)N1C(=O)/C(=C/c2ccc(N(C)C)cc2)SC1=S
REMARK SMILES IDX 6 1 5 2 3 3 4 4 2 5 1 6 77 7 78 8 92 9 79 10 80 11 91 12
REMARK SMILES IDX 93 13 81 14 82 15 83 16 90 17 84 18 89 19 85 20 86 21 87 22
REMARK SMILES IDX 88 23 7 24 8 25 9 26 10 27 11 28 12 29 76 30 13 31 75 32
REMARK SMILES IDX 14 33 15 34 16 35 69 36 17 37 74 38 68 39 70 40 18 41 73 42
REMARK SMILES IDX 67 43 66 44 19 46 53 47 32 48 52 49 33 50 36 51 51 52 71 53
REMARK SMILES IDX 34 54 35 55 50 57 72 58 37 59 20 60 21 61 30 62 22 63 23 64
REMARK SMILES IDX 29 65 31 66 24 67 25 68 26 69 27 70 28 71 54 72 55 73 64 74
REMARK SMILES IDX 56 75 57 76 63 77 65 78 58 79 59 80 60 81 61 82 62 83 38 84
REMARK SMILES IDX 39 85 48 86 40 87 41 88 47 89 49 90 42 91 43 92 44 93 45 94
REMARK SMILES IDX 46 95
REMARK H PARENT 70 45 36 56
REMARK Flexibility Score: inf
ROOT
ATOM      1  C   UNL A   1      44.173  22.677  25.372  1.00  0.00     0.274 C 
ENDROOT
BRANCH   1   2
ATOM      2  O   UNL A   1      43.245  21.711  24.833  1.00  0.00    -0.461 OA
BRANCH   2   3
ATOM      3  C   UNL A   1      43.349  20.432  25.300  1.00  0.00     0.329 C 
ATOM      4  O   UNL A   1      43.813  19.509  24.642  1.00  0.00    -0.250 OA
BRANCH   3   5
ATOM      5  C   UNL A   1      42.709  20.274  26.705  1.00  0.00     0.199 C 
ATOM      6  C   UNL A   1      42.627  18.776  27.030  1.00  0.00     0.044 C 
BRANCH   5   7
ATOM      7  N   UNL A   1      41.407  21.018  26.766  1.00  0.00    -0.279 N 
ATOM      8  C   UNL A   1      40.256  20.568  26.144  1.00  0.00     0.266 C 
ATOM      9  C   UNL A   1      41.225  22.172  27.517  1.00  0.00     0.149 C 
ATOM     10  O   UNL A   1      40.065  19.461  25.660  1.00  0.00    -0.268 OA
ATOM     11  C   UNL A   1      39.197  21.614  26.146  1.00  0.00     0.081 C 
ATOM     12  S   UNL A   1      39.700  22.949  27.080  1.00  0.00    -0.054 SA
ATOM     13  S   UNL A   1      42.217  22.789  28.714  1.00  0.00    -0.052 S 
ATOM     14  C   UNL A   1      38.114  21.451  25.375  1.00  0.00     0.029 C 
BRANCH  14  15
ATOM     15  C   UNL A   1      37.084  22.423  24.993  1.00  0.00    -0.024 A 
ATOM     16  C   UNL A   1      36.473  23.317  25.863  1.00  0.00     0.010 A 
ATOM     17  C   UNL A   1      36.644  22.383  23.669  1.00  0.00     0.010 A 
ATOM     18  C   UNL A   1      35.435  24.155  25.405  1.00  0.00     0.026 A 
ATOM     19  C   UNL A   1      35.619  23.223  23.226  1.00  0.00     0.026 A 
ATOM     20  C   UNL A   1      34.971  24.133  24.076  1.00  0.00     0.036 A 
BRANCH  20  21
ATOM     21  N   UNL A   1      33.916  24.920  23.627  1.00  0.00    -0.378 N 
ATOM     22  C   UNL A   1      33.262  24.693  22.345  1.00  0.00     0.143 C 
ATOM     23  C   UNL A   1      33.128  25.683  24.599  1.00  0.00     0.143 C 
ENDBRANCH  20  21
ENDBRANCH  14  15
ENDBRANCH   5   7
ENDBRANCH   3   5
ENDBRANCH   2   3
ENDBRANCH   1   2
BRANCH   1  24
ATOM     24  C   UNL A   1      43.840  24.131  25.014  1.00  0.00     0.275 C 
BRANCH  24  25
ATOM     25  O   UNL A   1      43.075  24.789  26.040  1.00  0.00    -0.458 OA
BRANCH  25  26
ATOM     26  C   UNL A   1      42.712  26.058  25.749  1.00  0.00     0.338 C 
ATOM     27  O   UNL A   1      42.585  26.537  24.626  1.00  0.00    -0.246 OA
BRANCH  26  28
ATOM     28  C   UNL A   1      42.269  26.762  26.964  1.00  0.00     0.060 A 
ATOM     29  C   UNL A   1      42.815  28.029  27.184  1.00  0.00     0.016 A 
ATOM     30  C   UNL A   1      41.384  26.209  27.892  1.00  0.00     0.016 A 
ATOM     31  C   UNL A   1      42.468  28.757  28.313  1.00  0.00     0.010 A 
ATOM     32  C   UNL A   1      41.062  26.934  29.051  1.00  0.00     0.010 A 
ATOM     33  C   UNL A   1      41.607  28.211  29.267  1.00  0.00    -0.014 A 
BRANCH  33  34
ATOM     34  C   UNL A   1      41.374  28.970  30.519  1.00  0.00     0.031 A 
ATOM     35  C   UNL A   1      40.241  29.952  30.586  1.00  0.00     0.074 A 
ATOM     36  C   UNL A   1      42.103  28.705  31.618  1.00  0.00     0.049 A 
ATOM     37  N   UNL A   1      39.889  30.750  31.561  1.00  0.00    -0.248 NA
ATOM     38  C   UNL A   1      39.375  30.035  29.398  1.00  0.00     0.031 C 
ATOM     39  C   UNL A   1      43.158  27.694  31.706  1.00  0.00     0.029 A 
ATOM     40  N   UNL A   1      42.055  29.251  32.875  1.00  0.00    -0.354 N 
ATOM     41  C   UNL A   1      38.773  31.438  31.104  1.00  0.00     0.074 A 
ATOM     42  C   UNL A   1      38.509  30.971  29.760  1.00  0.00     0.031 C 
ATOM     43  C   UNL A   1      43.657  27.693  32.955  1.00  0.00     0.029 A 
ATOM     44  C   UNL A   1      42.992  28.733  33.737  1.00  0.00     0.049 A 
ATOM     45  H   UNL A   1      41.410  29.948  33.136  1.00  0.00     0.167 HD
ATOM     46  C   UNL A   1      38.035  32.371  31.751  1.00  0.00     0.037 A 
ATOM     47  C   UNL A   1      43.300  29.083  35.002  1.00  0.00     0.037 A 
ATOM     48  C   UNL A   1      38.297  32.820  33.094  1.00  0.00     0.049 A 
ATOM     49  C   UNL A   1      42.536  30.202  35.661  1.00  0.00     0.074 A 
ATOM     50  C   UNL A   1      37.575  33.722  33.856  1.00  0.00     0.029 A 
ATOM     51  N   UNL A   1      39.370  32.409  33.872  1.00  0.00    -0.354 N 
ATOM     52  N   UNL A   1      41.547  30.921  35.185  1.00  0.00    -0.248 NA
ATOM     53  C   UNL A   1      42.942  30.572  37.025  1.00  0.00     0.031 C 
ATOM     54  C   UNL A   1      38.210  33.854  35.096  1.00  0.00     0.029 A 
ATOM     55  C   UNL A   1      39.300  32.998  35.123  1.00  0.00     0.049 A 
ATOM     56  H   UNL A   1      40.076  31.790  33.576  1.00  0.00     0.167 HD
ATOM     57  C   UNL A   1      41.193  31.804  36.198  1.00  0.00     0.074 A 
ATOM     58  C   UNL A   1      42.077  31.535  37.313  1.00  0.00     0.031 C 
ATOM     59  C   UNL A   1      40.210  32.737  36.211  1.00  0.00     0.037 A 
BRANCH  46  60
ATOM     60  C   UNL A   1      36.886  32.984  31.005  1.00  0.00     0.058 A 
ATOM     61  C   UNL A   1      35.556  32.615  31.256  1.00  0.00     0.135 A 
ATOM     62  C   UNL A   1      37.121  33.971  30.036  1.00  0.00     0.135 A 
ATOM     63  F   UNL A   1      35.278  31.663  32.163  1.00  0.00    -0.206 F 
ATOM     64  C   UNL A   1      34.499  33.182  30.550  1.00  0.00     0.059 A 
ATOM     65  C   UNL A   1      36.079  34.569  29.334  1.00  0.00     0.059 A 
ATOM     66  F   UNL A   1      38.375  34.360  29.758  1.00  0.00    -0.206 F 
ATOM     67  C   UNL A   1      34.772  34.155  29.586  1.00  0.00     0.060 A 
BRANCH  67  68
ATOM     68  S   UNL A   1      33.395  34.872  28.664  1.00  0.00     0.124 S 
ATOM     69  O   UNL A   1      32.466  35.201  29.742  1.00  0.00    -0.237 OA
ATOM     70  O   UNL A   1      34.022  36.008  27.998  1.00  0.00    -0.237 OA
ATOM     71  O   UNL A   1      32.974  33.787  27.784  1.00  0.00    -0.744 OA
ENDBRANCH  67  68
ENDBRANCH  46  60
BRANCH  47  72
ATOM     72  C   UNL A   1      44.421  28.408  35.710  1.00  0.00     0.058 A 
ATOM     73  C   UNL A   1      45.746  28.843  35.563  1.00  0.00     0.135 A 
ATOM     74  C   UNL A   1      44.186  27.295  36.532  1.00  0.00     0.135 A 
ATOM     75  F   UNL A   1      46.026  29.892  34.774  1.00  0.00    -0.206 F 
ATOM     76  C   UNL A   1      46.801  28.187  36.191  1.00  0.00     0.059 A 
ATOM     77  C   UNL A   1      45.220  26.639  37.192  1.00  0.00     0.059 A 
ATOM     78  F   UNL A   1      42.936  26.841  36.710  1.00  0.00    -0.206 F 
ATOM     79  C   UNL A   1      46.528  27.083  37.002  1.00  0.00     0.060 A 
BRANCH  79  80
ATOM     80  S   UNL A   1      47.899  26.246  37.827  1.00  0.00     0.124 S 
ATOM     81  O   UNL A   1      48.977  27.214  37.658  1.00  0.00    -0.237 OA
ATOM     82  O   UNL A   1      47.392  26.087  39.187  1.00  0.00    -0.237 OA
ATOM     83  O   UNL A   1      48.040  25.007  37.070  1.00  0.00    -0.744 OA
ENDBRANCH  79  80
ENDBRANCH  47  72
BRANCH  59  84
ATOM     84  C   UNL A   1      40.014  33.510  37.486  1.00  0.00     0.058 A 
ATOM     85  C   UNL A   1      39.109  33.089  38.470  1.00  0.00     0.135 A 
ATOM     86  C   UNL A   1      40.779  34.659  37.741  1.00  0.00     0.135 A 
ATOM     87  F   UNL A   1      38.344  32.005  38.266  1.00  0.00    -0.206 F 
ATOM     88  C   UNL A   1      38.961  33.788  39.664  1.00  0.00     0.059 A 
ATOM     89  C   UNL A   1      40.666  35.359  38.937  1.00  0.00     0.059 A 
ATOM     90  F   UNL A   1      41.661  35.100  36.829  1.00  0.00    -0.206 F 
ATOM     91  C   UNL A   1      39.748  34.920  39.890  1.00  0.00     0.060 A 
BRANCH  91  92
ATOM     92  S   UNL A   1      39.584  35.790  41.464  1.00  0.00     0.124 S 
ATOM     93  O   UNL A   1      40.088  34.796  42.404  1.00  0.00    -0.237 OA
ATOM     94  O   UNL A   1      40.432  36.962  41.263  1.00  0.00    -0.237 OA
ATOM     95  O   UNL A   1      38.153  36.068  41.548  1.00  0.00    -0.744 OA
ENDBRANCH  91  92
ENDBRANCH  59  84
ENDBRANCH  33  34
ENDBRANCH  26  28
ENDBRANCH  25  26
ENDBRANCH  24  25
ENDBRANCH   1  24
TORSDOF 17
ENDMDL
MODEL 3
REMARK VINA RESULT:     -11.4      6.550     12.126
REMARK SMILES C[C@@H](C(=O)OCCOC(=O)c1ccc(-c2c3nc(c(-c4c(F)cc(S(=O)(=O)[O-])cc4F)c4ccc([nH]4)c(-c4c(F)cc(S(=O)(=O)[O-])cc4F)c4nc(c(-c5c(F)cc(S(=O)(=O)[O-])cc5F)c5ccc2[nH]5)C=C4)C=C3)cc1)N1C(=O)/C(=C/c2ccc(N(C)C)cc2)SC1=S
REMARK SMILES IDX 6 1 5 2 3 3 4 4 2 5 1 6 77 7 78 8 92 9 79 10 80 11 91 12
REMARK SMILES IDX 93 13 81 14 82 15 83 16 90 17 84 18 89 19 85 20 86 21 87 22
REMARK SMILES IDX 88 23 7 24 8 25 9 26 10 27 11 28 12 29 76 30 13 31 75 32
REMARK SMILES IDX 14 33 15 34 16 35 69 36 17 37 74 38 68 39 70 40 18 41 73 42
REMARK SMILES IDX 67 43 66 44 19 46 53 47 32 48 52 49 33 50 36 51 51 52 71 53
REMARK SMILES IDX 34 54 35 55 50 57 72 58 37 59 20 60 21 61 30 62 22 63 23 64
REMARK SMILES IDX 29 65 31 66 24 67 25 68 26 69 27 70 28 71 54 72 55 73 64 74
REMARK SMILES IDX 56 75 57 76 63 77 65 78 58 79 59 80 60 81 61 82 62 83 38 84
REMARK SMILES IDX 39 85 48 86 40 87 41 88 47 89 49 90 42 91 43 92 44 93 45 94
REMARK SMILES IDX 46 95
REMARK H PARENT 70 45 36 56
REMARK Flexibility Score: inf
ROOT
ATOM      1  C   UNL A   1      35.254  33.239  32.385  1.00  0.00     0.274 C 
ENDROOT
BRANCH   1   2
ATOM      2  O   UNL A   1      34.280  33.153  31.322  1.00  0.00    -0.461 OA
BRANCH   2   3
ATOM      3  C   UNL A   1      33.841  34.333  30.794  1.00  0.00     0.329 C 
ATOM      4  O   UNL A   1      33.001  35.042  31.333  1.00  0.00    -0.250 OA
BRANCH   3   5
ATOM      5  C   UNL A   1      34.447  34.601  29.390  1.00  0.00     0.199 C 
ATOM      6  C   UNL A   1      33.823  35.888  28.835  1.00  0.00     0.044 C 
BRANCH   5   7
ATOM      7  N   UNL A   1      34.295  33.385  28.523  1.00  0.00    -0.279 N 
ATOM      8  C   UNL A   1      33.113  33.067  27.877  1.00  0.00     0.266 C 
ATOM      9  C   UNL A   1      35.346  32.527  28.227  1.00  0.00     0.149 C 
ATOM     10  O   UNL A   1      32.133  33.785  27.740  1.00  0.00    -0.268 OA
ATOM     11  C   UNL A   1      33.164  31.693  27.306  1.00  0.00     0.081 C 
ATOM     12  S   UNL A   1      34.732  31.047  27.482  1.00  0.00    -0.054 SA
ATOM     13  S   UNL A   1      36.982  32.784  28.456  1.00  0.00    -0.052 S 
ATOM     14  C   UNL A   1      32.032  31.124  26.869  1.00  0.00     0.029 C 
BRANCH  14  15
ATOM     15  C   UNL A   1      31.764  29.724  26.525  1.00  0.00    -0.024 A 
ATOM     16  C   UNL A   1      31.872  28.654  27.405  1.00  0.00     0.010 A 
ATOM     17  C   UNL A   1      31.450  29.454  25.192  1.00  0.00     0.010 A 
ATOM     18  C   UNL A   1      31.667  27.335  26.946  1.00  0.00     0.026 A 
ATOM     19  C   UNL A   1      31.243  28.144  24.752  1.00  0.00     0.026 A 
ATOM     20  C   UNL A   1      31.352  27.037  25.608  1.00  0.00     0.036 A 
BRANCH  20  21
ATOM     21  N   UNL A   1      31.196  25.738  25.136  1.00  0.00    -0.378 N 
ATOM     22  C   UNL A   1      30.355  25.419  23.989  1.00  0.00     0.143 C 
ATOM     23  C   UNL A   1      32.213  24.733  25.460  1.00  0.00     0.143 C 
ENDBRANCH  20  21
ENDBRANCH  14  15
ENDBRANCH   5   7
ENDBRANCH   3   5
ENDBRANCH   2   3
ENDBRANCH   1   2
BRANCH   1  24
ATOM     24  C   UNL A   1      36.693  32.959  31.937  1.00  0.00     0.275 C 
BRANCH  24  25
ATOM     25  O   UNL A   1      37.239  31.773  32.544  1.00  0.00    -0.458 OA
BRANCH  25  26
ATOM     26  C   UNL A   1      37.005  30.630  31.863  1.00  0.00     0.338 C 
ATOM     27  O   UNL A   1      35.915  30.088  31.708  1.00  0.00    -0.246 OA
BRANCH  26  28
ATOM     28  C   UNL A   1      38.210  30.206  31.132  1.00  0.00     0.060 A 
ATOM     29  C   UNL A   1      39.348  29.952  31.900  1.00  0.00     0.016 A 
ATOM     30  C   UNL A   1      38.263  30.094  29.741  1.00  0.00     0.016 A 
ATOM     31  C   UNL A   1      40.535  29.565  31.291  1.00  0.00     0.010 A 
ATOM     32  C   UNL A   1      39.473  29.736  29.125  1.00  0.00     0.010 A 
ATOM     33  C   UNL A   1      40.616  29.473  29.900  1.00  0.00    -0.014 A 
BRANCH  33  34
ATOM     34  C   UNL A   1      41.937  29.190  29.292  1.00  0.00     0.031 A 
ATOM     35  C   UNL A   1      42.223  27.816  28.756  1.00  0.00     0.074 A 
ATOM     36  C   UNL A   1      42.833  30.180  29.124  1.00  0.00     0.049 A 
ATOM     37  N   UNL A   1      43.323  27.343  28.228  1.00  0.00    -0.248 NA
ATOM     38  C   UNL A   1      41.114  26.850  28.807  1.00  0.00     0.031 C 
ATOM     39  C   UNL A   1      42.625  31.577  29.503  1.00  0.00     0.029 A 
ATOM     40  N   UNL A   1      44.090  30.163  28.575  1.00  0.00    -0.354 N 
ATOM     41  C   UNL A   1      43.045  26.024  27.896  1.00  0.00     0.074 A 
ATOM     42  C   UNL A   1      41.676  25.767  28.288  1.00  0.00     0.031 C 
ATOM     43  C   UNL A   1      43.720  32.285  29.173  1.00  0.00     0.029 A 
ATOM     44  C   UNL A   1      44.720  31.384  28.606  1.00  0.00     0.049 A 
ATOM     45  H   UNL A   1      44.502  29.354  28.194  1.00  0.00     0.167 HD
ATOM     46  C   UNL A   1      43.859  25.113  27.311  1.00  0.00     0.037 A 
ATOM     47  C   UNL A   1      45.974  31.727  28.249  1.00  0.00     0.037 A 
ATOM     48  C   UNL A   1      45.216  25.381  26.911  1.00  0.00     0.049 A 
ATOM     49  C   UNL A   1      46.898  30.668  27.705  1.00  0.00     0.074 A 
ATOM     50  C   UNL A   1      46.104  24.540  26.263  1.00  0.00     0.029 A 
ATOM     51  N   UNL A   1      45.885  26.577  27.129  1.00  0.00    -0.354 N 
ATOM     52  N   UNL A   1      46.662  29.395  27.489  1.00  0.00    -0.248 NA
ATOM     53  C   UNL A   1      48.267  31.087  27.372  1.00  0.00     0.031 C 
ATOM     54  C   UNL A   1      47.309  25.229  26.088  1.00  0.00     0.029 A 
ATOM     55  C   UNL A   1      47.155  26.515  26.582  1.00  0.00     0.049 A 
ATOM     56  H   UNL A   1      45.510  27.354  27.604  1.00  0.00     0.167 HD
ATOM     57  C   UNL A   1      47.838  28.871  26.968  1.00  0.00     0.074 A 
ATOM     58  C   UNL A   1      48.790  29.960  26.906  1.00  0.00     0.031 C 
ATOM     59  C   UNL A   1      48.099  27.605  26.558  1.00  0.00     0.037 A 
BRANCH  46  60
ATOM     60  C   UNL A   1      43.309  23.733  27.090  1.00  0.00     0.058 A 
ATOM     61  C   UNL A   1      43.152  22.820  28.143  1.00  0.00     0.135 A 
ATOM     62  C   UNL A   1      42.917  23.329  25.805  1.00  0.00     0.135 A 
ATOM     63  F   UNL A   1      43.527  23.153  29.389  1.00  0.00    -0.206 F 
ATOM     64  C   UNL A   1      42.652  21.540  27.925  1.00  0.00     0.059 A 
ATOM     65  C   UNL A   1      42.393  22.062  25.566  1.00  0.00     0.059 A 
ATOM     66  F   UNL A   1      43.047  24.165  24.764  1.00  0.00    -0.206 F 
ATOM     67  C   UNL A   1      42.280  21.168  26.631  1.00  0.00     0.060 A 
BRANCH  67  68
ATOM     68  S   UNL A   1      41.648  19.499  26.356  1.00  0.00     0.124 S 
ATOM     69  O   UNL A   1      41.949  18.862  27.635  1.00  0.00    -0.237 OA
ATOM     70  O   UNL A   1      40.235  19.740  26.084  1.00  0.00    -0.237 OA
ATOM     71  O   UNL A   1      42.430  19.024  25.219  1.00  0.00    -0.744 OA
ENDBRANCH  67  68
ENDBRANCH  46  60
BRANCH  47  72
ATOM     72  C   UNL A   1      46.451  33.122  28.448  1.00  0.00     0.058 A 
ATOM     73  C   UNL A   1      47.024  33.532  29.661  1.00  0.00     0.135 A 
ATOM     74  C   UNL A   1      46.319  34.080  27.430  1.00  0.00     0.135 A 
ATOM     75  F   UNL A   1      47.155  32.660  30.672  1.00  0.00    -0.206 F 
ATOM     76  C   UNL A   1      47.432  34.848  29.864  1.00  0.00     0.059 A 
ATOM     77  C   UNL A   1      46.744  35.393  27.600  1.00  0.00     0.059 A 
ATOM     78  F   UNL A   1      45.782  33.738  26.249  1.00  0.00    -0.206 F 
ATOM     79  C   UNL A   1      47.286  35.772  28.828  1.00  0.00     0.060 A 
BRANCH  79  80
ATOM     80  S   UNL A   1      47.832  37.473  29.091  1.00  0.00     0.124 S 
ATOM     81  O   UNL A   1      47.613  37.631  30.525  1.00  0.00    -0.237 OA
ATOM     82  O   UNL A   1      49.225  37.422  28.660  1.00  0.00    -0.237 OA
ATOM     83  O   UNL A   1      46.944  38.248  28.230  1.00  0.00    -0.744 OA
ENDBRANCH  79  80
ENDBRANCH  47  72
BRANCH  59  84
ATOM     84  C   UNL A   1      49.457  27.340  25.969  1.00  0.00     0.058 A 
ATOM     85  C   UNL A   1      50.548  26.977  26.770  1.00  0.00     0.135 A 
ATOM     86  C   UNL A   1      49.650  27.405  24.579  1.00  0.00     0.135 A 
ATOM     87  F   UNL A   1      50.418  26.916  28.104  1.00  0.00    -0.206 F 
ATOM     88  C   UNL A   1      51.792  26.695  26.213  1.00  0.00     0.059 A 
ATOM     89  C   UNL A   1      50.877  27.103  24.000  1.00  0.00     0.059 A 
ATOM     90  F   UNL A   1      48.633  27.747  23.771  1.00  0.00    -0.206 F 
ATOM     91  C   UNL A   1      51.945  26.757  24.826  1.00  0.00     0.060 A 
BRANCH  91  92
ATOM     92  S   UNL A   1      53.550  26.341  24.110  1.00  0.00     0.124 S 
ATOM     93  O   UNL A   1      54.422  27.313  24.761  1.00  0.00    -0.237 OA
ATOM     94  O   UNL A   1      53.727  24.952  24.524  1.00  0.00    -0.237 OA
ATOM     95  O   UNL A   1      53.344  26.540  22.678  1.00  0.00    -0.744 OA
ENDBRANCH  91  92
ENDBRANCH  59  84
ENDBRANCH  33  34
ENDBRANCH  26  28
ENDBRANCH  25  26
ENDBRANCH  24  25
ENDBRANCH   1  24
TORSDOF 17
ENDMDL
