MODEL 1
REMARK VINA RESULT:     -11.2      0.000      0.000
REMARK SMILES C[C@@H]1[C@H](C(=O)OCCOC(=O)c2ccc(-c3c4nc(c(-c5c(F)cc(S(=O)(=O)[O-])cc5F)c5ccc([nH]5)c(-c5c(F)cc(S(=O)(=O)[O-])cc5F)c5nc(c(-c6c(F)cc(S(=O)(=O)[O-])cc6F)c6ccc3[nH]6)C=C5)C=C4)cc2)CCN1C(=O)/C=C/c1cccc(Br)c1
REMARK SMILES IDX 7 1 6 2 4 3 5 4 3 5 1 6 2 7 80 8 78 9 79 10 81 11 82 12
REMARK SMILES IDX 83 13 84 14 85 15 86 16 91 17 87 18 89 19 88 20 90 21 8 22
REMARK SMILES IDX 9 23 10 24 11 25 12 26 13 27 77 28 14 29 76 30 15 31 16 32
REMARK SMILES IDX 17 33 70 34 18 35 75 36 69 37 71 38 19 39 74 40 68 41 67 42
REMARK SMILES IDX 20 44 54 45 33 46 53 47 34 48 37 49 52 50 72 51 35 52 36 53
REMARK SMILES IDX 51 55 73 56 38 57 21 58 22 59 31 60 23 61 24 62 30 63 32 64
REMARK SMILES IDX 25 65 26 66 27 67 28 68 29 69 55 70 56 71 65 72 57 73 58 74
REMARK SMILES IDX 64 75 66 76 59 77 60 78 61 79 62 80 63 81 39 82 40 83 49 84
REMARK SMILES IDX 41 85 42 86 48 87 50 88 43 89 44 90 45 91 46 92 47 93
REMARK H PARENT 71 43 37 54
REMARK Flexibility Score: inf
ROOT
ATOM      1  C   UNL A   1      33.536  31.924  27.969  1.00  0.00     0.274 C 
ENDROOT
BRANCH   1   2
ATOM      2  O   UNL A   1      33.105  30.605  27.584  1.00  0.00    -0.462 OA
BRANCH   2   3
ATOM      3  C   UNL A   1      32.069  30.504  26.724  1.00  0.00     0.311 C 
ATOM      4  O   UNL A   1      31.419  31.457  26.309  1.00  0.00    -0.252 OA
BRANCH   3   5
ATOM      5  C   UNL A   1      31.791  29.087  26.278  1.00  0.00     0.123 C 
ATOM      6  C   UNL A   1      34.162  28.566  25.314  1.00  0.00     0.032 C 
ATOM      7  C   UNL A   1      32.643  28.429  25.181  1.00  0.00     0.096 C 
ATOM      8  N   UNL A   1      32.275  27.010  25.297  1.00  0.00    -0.336 N 
ATOM      9  C   UNL A   1      31.810  28.051  27.389  1.00  0.00     0.039 C 
ATOM     10  C   UNL A   1      31.666  26.752  26.601  1.00  0.00     0.121 C 
BRANCH   8  11
ATOM     11  C   UNL A   1      32.386  25.977  24.396  1.00  0.00     0.246 C 
ATOM     12  O   UNL A   1      31.599  25.881  23.448  1.00  0.00    -0.270 OA
BRANCH  11  13
ATOM     13  C   UNL A   1      33.403  24.883  24.514  1.00  0.00     0.072 C 
ATOM     14  C   UNL A   1      34.669  24.880  24.956  1.00  0.00     0.014 C 
BRANCH  14  15
ATOM     15  C   UNL A   1      35.529  23.690  25.023  1.00  0.00    -0.024 A 
ATOM     16  C   UNL A   1      34.979  22.456  24.644  1.00  0.00     0.008 A 
ATOM     17  C   UNL A   1      36.827  23.728  25.543  1.00  0.00     0.023 A 
ATOM     18  C   UNL A   1      35.715  21.277  24.772  1.00  0.00     0.002 A 
ATOM     19  C   UNL A   1      37.557  22.544  25.673  1.00  0.00     0.018 A 
ATOM     20  C   UNL A   1      37.007  21.320  25.291  1.00  0.00     0.016 A 
ATOM     21  Br  UNL A   1      39.303  22.595  26.394  1.00  0.00    -0.051 Br
ENDBRANCH  14  15
ENDBRANCH  11  13
ENDBRANCH   8  11
ENDBRANCH   3   5
ENDBRANCH   2   3
ENDBRANCH   1   2
BRANCH   1  22
ATOM     22  C   UNL A   1      35.055  31.930  28.157  1.00  0.00     0.275 C 
BRANCH  22  23
ATOM     23  O   UNL A   1      35.535  30.633  28.559  1.00  0.00    -0.458 OA
BRANCH  23  24
ATOM     24  C   UNL A   1      36.320  30.620  29.663  1.00  0.00     0.338 C 
ATOM     25  O   UNL A   1      35.988  30.885  30.805  1.00  0.00    -0.246 OA
BRANCH  24  26
ATOM     26  C   UNL A   1      37.650  30.093  29.314  1.00  0.00     0.060 A 
ATOM     27  C   UNL A   1      38.591  29.946  30.336  1.00  0.00     0.016 A 
ATOM     28  C   UNL A   1      37.992  29.806  27.991  1.00  0.00     0.016 A 
ATOM     29  C   UNL A   1      39.879  29.507  30.044  1.00  0.00     0.010 A 
ATOM     30  C   UNL A   1      39.287  29.366  27.699  1.00  0.00     0.010 A 
ATOM     31  C   UNL A   1      40.240  29.220  28.722  1.00  0.00    -0.014 A 
BRANCH  31  32
ATOM     32  C   UNL A   1      41.631  28.806  28.413  1.00  0.00     0.031 A 
ATOM     33  C   UNL A   1      42.737  29.822  28.439  1.00  0.00     0.074 A 
ATOM     34  C   UNL A   1      41.898  27.515  28.138  1.00  0.00     0.049 A 
ATOM     35  N   UNL A   1      43.999  29.676  28.128  1.00  0.00    -0.248 NA
ATOM     36  C   UNL A   1      42.375  31.180  28.874  1.00  0.00     0.031 C 
ATOM     37  C   UNL A   1      40.914  26.431  28.132  1.00  0.00     0.029 A 
ATOM     38  N   UNL A   1      43.079  26.896  27.813  1.00  0.00    -0.354 N 
ATOM     39  C   UNL A   1      44.582  30.924  28.317  1.00  0.00     0.074 A 
ATOM     40  C   UNL A   1      43.530  31.819  28.751  1.00  0.00     0.031 C 
ATOM     41  C   UNL A   1      41.532  25.281  27.823  1.00  0.00     0.029 A 
ATOM     42  C   UNL A   1      42.944  25.551  27.565  1.00  0.00     0.049 A 
ATOM     43  H   UNL A   1      43.939  27.370  27.762  1.00  0.00     0.167 HD
ATOM     44  C   UNL A   1      45.877  31.285  28.148  1.00  0.00     0.037 A 
ATOM     45  C   UNL A   1      43.852  24.645  27.152  1.00  0.00     0.037 A 
ATOM     46  C   UNL A   1      46.918  30.385  27.723  1.00  0.00     0.049 A 
ATOM     47  C   UNL A   1      45.270  25.086  26.910  1.00  0.00     0.074 A 
ATOM     48  C   UNL A   1      48.259  30.657  27.512  1.00  0.00     0.029 A 
ATOM     49  N   UNL A   1      46.737  29.037  27.451  1.00  0.00    -0.354 N 
ATOM     50  N   UNL A   1      45.802  26.275  27.068  1.00  0.00    -0.248 NA
ATOM     51  C   UNL A   1      46.210  24.066  26.425  1.00  0.00     0.031 C 
ATOM     52  C   UNL A   1      48.882  29.481  27.080  1.00  0.00     0.029 A 
ATOM     53  C   UNL A   1      47.938  28.467  27.060  1.00  0.00     0.049 A 
ATOM     54  H   UNL A   1      45.881  28.556  27.524  1.00  0.00     0.167 HD
ATOM     55  C   UNL A   1      47.142  26.140  26.722  1.00  0.00     0.074 A 
ATOM     56  C   UNL A   1      47.342  24.753  26.357  1.00  0.00     0.031 C 
ATOM     57  C   UNL A   1      48.118  27.081  26.707  1.00  0.00     0.037 A 
BRANCH  44  58
ATOM     58  C   UNL A   1      46.235  32.722  28.399  1.00  0.00     0.058 A 
ATOM     59  C   UNL A   1      46.677  33.163  29.656  1.00  0.00     0.135 A 
ATOM     60  C   UNL A   1      46.162  33.665  27.362  1.00  0.00     0.135 A 
ATOM     61  F   UNL A   1      46.747  32.306  30.687  1.00  0.00    -0.206 F 
ATOM     62  C   UNL A   1      47.014  34.494  29.881  1.00  0.00     0.059 A 
ATOM     63  C   UNL A   1      46.515  34.996  27.559  1.00  0.00     0.059 A 
ATOM     64  F   UNL A   1      45.742  33.296  26.141  1.00  0.00    -0.206 F 
ATOM     65  C   UNL A   1      46.927  35.404  28.827  1.00  0.00     0.060 A 
BRANCH  65  66
ATOM     66  S   UNL A   1      47.366  37.129  29.131  1.00  0.00     0.124 S 
ATOM     67  O   UNL A   1      48.311  37.384  28.048  1.00  0.00    -0.237 OA
ATOM     68  O   UNL A   1      46.077  37.806  29.020  1.00  0.00    -0.237 OA
ATOM     69  O   UNL A   1      47.942  37.102  30.473  1.00  0.00    -0.744 OA
ENDBRANCH  65  66
ENDBRANCH  44  58
BRANCH  45  70
ATOM     70  C   UNL A   1      43.444  23.235  26.918  1.00  0.00     0.058 A 
ATOM     71  C   UNL A   1      43.183  22.369  27.990  1.00  0.00     0.135 A 
ATOM     72  C   UNL A   1      43.308  22.726  25.616  1.00  0.00     0.135 A 
ATOM     73  F   UNL A   1      43.310  22.807  29.251  1.00  0.00    -0.206 F 
ATOM     74  C   UNL A   1      42.818  21.042  27.782  1.00  0.00     0.059 A 
ATOM     75  C   UNL A   1      42.921  21.410  25.383  1.00  0.00     0.059 A 
ATOM     76  F   UNL A   1      43.536  23.517  24.557  1.00  0.00    -0.206 F 
ATOM     77  C   UNL A   1      42.689  20.572  26.473  1.00  0.00     0.060 A 
BRANCH  77  78
ATOM     78  S   UNL A   1      42.176  18.861  26.208  1.00  0.00     0.124 S 
ATOM     79  O   UNL A   1      40.793  19.034  25.778  1.00  0.00    -0.237 OA
ATOM     80  O   UNL A   1      43.112  18.412  25.181  1.00  0.00    -0.237 OA
ATOM     81  O   UNL A   1      42.359  18.251  27.521  1.00  0.00    -0.744 OA
ENDBRANCH  77  78
ENDBRANCH  45  70
BRANCH  57  82
ATOM     82  C   UNL A   1      49.498  26.634  26.312  1.00  0.00     0.058 A 
ATOM     83  C   UNL A   1      49.986  26.823  25.010  1.00  0.00     0.135 A 
ATOM     84  C   UNL A   1      50.356  26.055  27.260  1.00  0.00     0.135 A 
ATOM     85  F   UNL A   1      49.201  27.367  24.067  1.00  0.00    -0.206 F 
ATOM     86  C   UNL A   1      51.273  26.435  24.656  1.00  0.00     0.059 A 
ATOM     87  C   UNL A   1      51.655  25.679  26.933  1.00  0.00     0.059 A 
ATOM     88  F   UNL A   1      49.938  25.861  28.520  1.00  0.00    -0.206 F 
ATOM     89  C   UNL A   1      52.100  25.863  25.625  1.00  0.00     0.060 A 
BRANCH  89  90
ATOM     90  S   UNL A   1      53.783  25.394  25.163  1.00  0.00     0.124 S 
ATOM     91  O   UNL A   1      54.563  26.017  26.225  1.00  0.00    -0.237 OA
ATOM     92  O   UNL A   1      53.722  23.936  25.192  1.00  0.00    -0.237 OA
ATOM     93  O   UNL A   1      53.945  25.981  23.836  1.00  0.00    -0.744 OA
ENDBRANCH  89  90
ENDBRANCH  57  82
ENDBRANCH  31  32
ENDBRANCH  24  26
ENDBRANCH  23  24
ENDBRANCH  22  23
ENDBRANCH   1  22
TORSDOF 17
ENDMDL
MODEL 2
REMARK VINA RESULT:     -11.0      6.638     12.291
REMARK SMILES C[C@@H]1[C@H](C(=O)OCCOC(=O)c2ccc(-c3c4nc(c(-c5c(F)cc(S(=O)(=O)[O-])cc5F)c5ccc([nH]5)c(-c5c(F)cc(S(=O)(=O)[O-])cc5F)c5nc(c(-c6c(F)cc(S(=O)(=O)[O-])cc6F)c6ccc3[nH]6)C=C5)C=C4)cc2)CCN1C(=O)/C=C/c1cccc(Br)c1
REMARK SMILES IDX 7 1 6 2 4 3 5 4 3 5 1 6 2 7 80 8 78 9 79 10 81 11 82 12
REMARK SMILES IDX 83 13 84 14 85 15 86 16 91 17 87 18 89 19 88 20 90 21 8 22
REMARK SMILES IDX 9 23 10 24 11 25 12 26 13 27 77 28 14 29 76 30 15 31 16 32
REMARK SMILES IDX 17 33 70 34 18 35 75 36 69 37 71 38 19 39 74 40 68 41 67 42
REMARK SMILES IDX 20 44 54 45 33 46 53 47 34 48 37 49 52 50 72 51 35 52 36 53
REMARK SMILES IDX 51 55 73 56 38 57 21 58 22 59 31 60 23 61 24 62 30 63 32 64
REMARK SMILES IDX 25 65 26 66 27 67 28 68 29 69 55 70 56 71 65 72 57 73 58 74
REMARK SMILES IDX 64 75 66 76 59 77 60 78 61 79 62 80 63 81 39 82 40 83 49 84
REMARK SMILES IDX 41 85 42 86 48 87 50 88 43 89 44 90 45 91 46 92 47 93
REMARK H PARENT 71 43 37 54
REMARK Flexibility Score: inf
ROOT
ATOM      1  C   UNL A   1      39.941  21.488  26.474  1.00  0.00     0.274 C 
ENDROOT
BRANCH   1   2
ATOM      2  O   UNL A   1      38.774  22.245  26.101  1.00  0.00    -0.462 OA
BRANCH   2   3
ATOM      3  C   UNL A   1      37.768  21.591  25.482  1.00  0.00     0.311 C 
ATOM      4  O   UNL A   1      37.834  20.432  25.088  1.00  0.00    -0.252 OA
BRANCH   3   5
ATOM      5  C   UNL A   1      36.508  22.414  25.344  1.00  0.00     0.123 C 
ATOM      6  C   UNL A   1      36.693  22.885  22.781  1.00  0.00     0.032 C 
ATOM      7  C   UNL A   1      36.341  23.402  24.178  1.00  0.00     0.096 C 
ATOM      8  N   UNL A   1      34.906  23.718  24.229  1.00  0.00    -0.336 N 
ATOM      9  C   UNL A   1      35.220  21.610  25.293  1.00  0.00     0.039 C 
ATOM     10  C   UNL A   1      34.191  22.695  24.990  1.00  0.00     0.121 C 
BRANCH   8  11
ATOM     11  C   UNL A   1      34.203  24.787  23.722  1.00  0.00     0.246 C 
ATOM     12  O   UNL A   1      33.847  24.803  22.539  1.00  0.00    -0.270 OA
BRANCH  11  13
ATOM     13  C   UNL A   1      33.870  26.010  24.522  1.00  0.00     0.072 C 
ATOM     14  C   UNL A   1      33.450  27.231  24.159  1.00  0.00     0.014 C 
BRANCH  14  15
ATOM     15  C   UNL A   1      33.145  28.323  25.094  1.00  0.00    -0.024 A 
ATOM     16  C   UNL A   1      31.886  28.936  25.005  1.00  0.00     0.008 A 
ATOM     17  C   UNL A   1      34.092  28.834  25.988  1.00  0.00     0.023 A 
ATOM     18  C   UNL A   1      31.570  30.037  25.802  1.00  0.00     0.002 A 
ATOM     19  C   UNL A   1      33.770  29.939  26.781  1.00  0.00     0.018 A 
ATOM     20  C   UNL A   1      32.516  30.542  26.691  1.00  0.00     0.016 A 
ATOM     21  Br  UNL A   1      35.057  30.640  27.975  1.00  0.00    -0.051 Br
ENDBRANCH  14  15
ENDBRANCH  11  13
ENDBRANCH   8  11
ENDBRANCH   3   5
ENDBRANCH   2   3
ENDBRANCH   1   2
BRANCH   1  22
ATOM     22  C   UNL A   1      41.165  22.408  26.484  1.00  0.00     0.275 C 
BRANCH  22  23
ATOM     23  O   UNL A   1      40.774  23.792  26.565  1.00  0.00    -0.458 OA
BRANCH  23  24
ATOM     24  C   UNL A   1      41.794  24.683  26.603  1.00  0.00     0.338 C 
ATOM     25  O   UNL A   1      42.755  24.734  25.855  1.00  0.00    -0.246 OA
BRANCH  24  26
ATOM     26  C   UNL A   1      41.513  25.707  27.623  1.00  0.00     0.060 A 
ATOM     27  C   UNL A   1      42.454  26.723  27.814  1.00  0.00     0.016 A 
ATOM     28  C   UNL A   1      40.373  25.638  28.426  1.00  0.00     0.016 A 
ATOM     29  C   UNL A   1      42.259  27.678  28.808  1.00  0.00     0.010 A 
ATOM     30  C   UNL A   1      40.179  26.598  29.425  1.00  0.00     0.010 A 
ATOM     31  C   UNL A   1      41.124  27.620  29.626  1.00  0.00    -0.014 A 
BRANCH  31  32
ATOM     32  C   UNL A   1      40.952  28.610  30.717  1.00  0.00     0.031 A 
ATOM     33  C   UNL A   1      41.857  28.567  31.915  1.00  0.00     0.074 A 
ATOM     34  C   UNL A   1      40.004  29.560  30.614  1.00  0.00     0.049 A 
ATOM     35  N   UNL A   1      41.822  29.292  33.003  1.00  0.00    -0.248 NA
ATOM     36  C   UNL A   1      42.946  27.577  31.884  1.00  0.00     0.031 C 
ATOM     37  C   UNL A   1      39.100  29.732  29.476  1.00  0.00     0.029 A 
ATOM     38  N   UNL A   1      39.645  30.563  31.479  1.00  0.00    -0.354 N 
ATOM     39  C   UNL A   1      42.874  28.842  33.793  1.00  0.00     0.074 A 
ATOM     40  C   UNL A   1      43.516  27.767  33.066  1.00  0.00     0.031 C 
ATOM     41  C   UNL A   1      38.293  30.779  29.711  1.00  0.00     0.029 A 
ATOM     42  C   UNL A   1      38.591  31.324  31.033  1.00  0.00     0.049 A 
ATOM     43  H   UNL A   1      40.099  30.721  32.338  1.00  0.00     0.167 HD
ATOM     44  C   UNL A   1      43.268  29.290  35.009  1.00  0.00     0.037 A 
ATOM     45  C   UNL A   1      37.926  32.330  31.634  1.00  0.00     0.037 A 
ATOM     46  C   UNL A   1      42.627  30.366  35.720  1.00  0.00     0.049 A 
ATOM     47  C   UNL A   1      38.343  32.766  33.012  1.00  0.00     0.074 A 
ATOM     48  C   UNL A   1      42.945  30.886  36.964  1.00  0.00     0.029 A 
ATOM     49  N   UNL A   1      41.543  31.091  35.250  1.00  0.00    -0.354 N 
ATOM     50  N   UNL A   1      39.323  32.313  33.757  1.00  0.00    -0.248 NA
ATOM     51  C   UNL A   1      37.560  33.842  33.634  1.00  0.00     0.031 C 
ATOM     52  C   UNL A   1      42.032  31.904  37.259  1.00  0.00     0.029 A 
ATOM     53  C   UNL A   1      41.170  32.045  36.183  1.00  0.00     0.049 A 
ATOM     54  H   UNL A   1      41.102  30.949  34.381  1.00  0.00     0.167 HD
ATOM     55  C   UNL A   1      39.286  33.064  34.928  1.00  0.00     0.074 A 
ATOM     56  C   UNL A   1      38.195  34.006  34.787  1.00  0.00     0.031 C 
ATOM     57  C   UNL A   1      40.084  32.979  36.021  1.00  0.00     0.037 A 
BRANCH  44  58
ATOM     58  C   UNL A   1      44.432  28.598  35.659  1.00  0.00     0.058 A 
ATOM     59  C   UNL A   1      45.758  28.955  35.368  1.00  0.00     0.135 A 
ATOM     60  C   UNL A   1      44.220  27.585  36.606  1.00  0.00     0.135 A 
ATOM     61  F   UNL A   1      46.018  29.907  34.456  1.00  0.00    -0.206 F 
ATOM     62  C   UNL A   1      46.833  28.317  35.979  1.00  0.00     0.059 A 
ATOM     63  C   UNL A   1      45.279  26.947  37.245  1.00  0.00     0.059 A 
ATOM     64  F   UNL A   1      42.971  27.202  36.918  1.00  0.00    -0.206 F 
ATOM     65  C   UNL A   1      46.583  27.312  36.914  1.00  0.00     0.060 A 
BRANCH  65  66
ATOM     66  S   UNL A   1      47.986  26.488  37.698  1.00  0.00     0.124 S 
ATOM     67  O   UNL A   1      49.112  27.162  37.060  1.00  0.00    -0.237 OA
ATOM     68  O   UNL A   1      47.782  26.796  39.111  1.00  0.00    -0.237 OA
ATOM     69  O   UNL A   1      47.805  25.086  37.334  1.00  0.00    -0.744 OA
ENDBRANCH  65  66
ENDBRANCH  44  58
BRANCH  45  70
ATOM     70  C   UNL A   1      36.779  32.979  30.945  1.00  0.00     0.058 A 
ATOM     71  C   UNL A   1      36.985  33.912  29.918  1.00  0.00     0.135 A 
ATOM     72  C   UNL A   1      35.455  32.681  31.303  1.00  0.00     0.135 A 
ATOM     73  F   UNL A   1      38.232  34.237  29.548  1.00  0.00    -0.206 F 
ATOM     74  C   UNL A   1      35.919  34.539  29.280  1.00  0.00     0.059 A 
ATOM     75  C   UNL A   1      34.372  33.277  30.664  1.00  0.00     0.059 A 
ATOM     76  F   UNL A   1      35.205  31.788  32.274  1.00  0.00    -0.206 F 
ATOM     77  C   UNL A   1      34.615  34.214  29.660  1.00  0.00     0.060 A 
BRANCH  77  78
ATOM     78  S   UNL A   1      33.235  35.000  28.801  1.00  0.00     0.124 S 
ATOM     79  O   UNL A   1      32.333  35.299  29.907  1.00  0.00    -0.237 OA
ATOM     80  O   UNL A   1      33.877  36.150  28.171  1.00  0.00    -0.237 OA
ATOM     81  O   UNL A   1      32.783  33.963  27.878  1.00  0.00    -0.744 OA
ENDBRANCH  77  78
ENDBRANCH  45  70
BRANCH  57  82
ATOM     82  C   UNL A   1      39.825  33.951  37.138  1.00  0.00     0.058 A 
ATOM     83  C   UNL A   1      38.995  33.622  38.220  1.00  0.00     0.135 A 
ATOM     84  C   UNL A   1      40.453  35.206  37.147  1.00  0.00     0.135 A 
ATOM     85  F   UNL A   1      38.368  32.436  38.254  1.00  0.00    -0.206 F 
ATOM     86  C   UNL A   1      38.781  34.512  39.266  1.00  0.00     0.059 A 
ATOM     87  C   UNL A   1      40.270  36.104  38.194  1.00  0.00     0.059 A 
ATOM     88  F   UNL A   1      41.263  35.564  36.139  1.00  0.00    -0.206 F 
ATOM     89  C   UNL A   1      39.423  35.752  39.244  1.00  0.00     0.060 A 
BRANCH  89  90
ATOM     90  S   UNL A   1      39.166  36.888  40.625  1.00  0.00     0.124 S 
ATOM     91  O   UNL A   1      38.510  36.022  41.598  1.00  0.00    -0.237 OA
ATOM     92  O   UNL A   1      40.527  37.296  40.955  1.00  0.00    -0.237 OA
ATOM     93  O   UNL A   1      38.328  37.936  40.048  1.00  0.00    -0.744 OA
ENDBRANCH  89  90
ENDBRANCH  57  82
ENDBRANCH  31  32
ENDBRANCH  24  26
ENDBRANCH  23  24
ENDBRANCH  22  23
ENDBRANCH   1  22
TORSDOF 17
ENDMDL
MODEL 3
REMARK VINA RESULT:     -10.8      6.913     11.914
REMARK SMILES C[C@@H]1[C@H](C(=O)OCCOC(=O)c2ccc(-c3c4nc(c(-c5c(F)cc(S(=O)(=O)[O-])cc5F)c5ccc([nH]5)c(-c5c(F)cc(S(=O)(=O)[O-])cc5F)c5nc(c(-c6c(F)cc(S(=O)(=O)[O-])cc6F)c6ccc3[nH]6)C=C5)C=C4)cc2)CCN1C(=O)/C=C/c1cccc(Br)c1
REMARK SMILES IDX 7 1 6 2 4 3 5 4 3 5 1 6 2 7 80 8 78 9 79 10 81 11 82 12
REMARK SMILES IDX 83 13 84 14 85 15 86 16 91 17 87 18 89 19 88 20 90 21 8 22
REMARK SMILES IDX 9 23 10 24 11 25 12 26 13 27 77 28 14 29 76 30 15 31 16 32
REMARK SMILES IDX 17 33 70 34 18 35 75 36 69 37 71 38 19 39 74 40 68 41 67 42
REMARK SMILES IDX 20 44 54 45 33 46 53 47 34 48 37 49 52 50 72 51 35 52 36 53
REMARK SMILES IDX 51 55 73 56 38 57 21 58 22 59 31 60 23 61 24 62 30 63 32 64
REMARK SMILES IDX 25 65 26 66 27 67 28 68 29 69 55 70 56 71 65 72 57 73 58 74
REMARK SMILES IDX 64 75 66 76 59 77 60 78 61 79 62 80 63 81 39 82 40 83 49 84
REMARK SMILES IDX 41 85 42 86 48 87 50 88 43 89 44 90 45 91 46 92 47 93
REMARK H PARENT 71 43 37 54
REMARK Flexibility Score: inf
ROOT
ATOM      1  C   UNL A   1      39.465  21.881  26.136  1.00  0.00     0.274 C 
ENDROOT
BRANCH   1   2
ATOM      2  O   UNL A   1      38.106  22.346  26.033  1.00  0.00    -0.462 OA
BRANCH   2   3
ATOM      3  C   UNL A   1      37.221  21.567  25.375  1.00  0.00     0.311 C 
ATOM      4  O   UNL A   1      37.517  20.787  24.477  1.00  0.00    -0.252 OA
BRANCH   3   5
ATOM      5  C   UNL A   1      35.802  21.712  25.875  1.00  0.00     0.123 C 
ATOM      6  C   UNL A   1      35.366  24.118  24.953  1.00  0.00     0.032 C 
ATOM      7  C   UNL A   1      35.184  23.104  26.086  1.00  0.00     0.096 C 
ATOM      8  N   UNL A   1      33.753  22.800  26.236  1.00  0.00    -0.336 N 
ATOM      9  C   UNL A   1      34.753  21.000  25.037  1.00  0.00     0.039 C 
ATOM     10  C   UNL A   1      33.460  21.473  25.696  1.00  0.00     0.121 C 
BRANCH   8  11
ATOM     11  C   UNL A   1      32.735  23.528  26.807  1.00  0.00     0.246 C 
ATOM     12  O   UNL A   1      32.040  23.042  27.705  1.00  0.00    -0.270 OA
BRANCH  11  13
ATOM     13  C   UNL A   1      32.357  24.909  26.362  1.00  0.00     0.072 C 
ATOM     14  C   UNL A   1      31.501  25.347  25.428  1.00  0.00     0.014 C 
BRANCH  14  15
ATOM     15  C   UNL A   1      31.234  26.762  25.135  1.00  0.00    -0.024 A 
ATOM     16  C   UNL A   1      30.568  27.074  23.940  1.00  0.00     0.008 A 
ATOM     17  C   UNL A   1      31.707  27.800  25.945  1.00  0.00     0.023 A 
ATOM     18  C   UNL A   1      30.366  28.403  23.561  1.00  0.00     0.002 A 
ATOM     19  C   UNL A   1      31.505  29.127  25.558  1.00  0.00     0.018 A 
ATOM     20  C   UNL A   1      30.839  29.433  24.372  1.00  0.00     0.016 A 
ATOM     21  Br  UNL A   1      32.161  30.529  26.644  1.00  0.00    -0.051 Br
ENDBRANCH  14  15
ENDBRANCH  11  13
ENDBRANCH   8  11
ENDBRANCH   3   5
ENDBRANCH   2   3
ENDBRANCH   1   2
BRANCH   1  22
ATOM     22  C   UNL A   1      40.334  22.980  26.754  1.00  0.00     0.275 C 
BRANCH  22  23
ATOM     23  O   UNL A   1      39.719  24.274  26.608  1.00  0.00    -0.458 OA
BRANCH  23  24
ATOM     24  C   UNL A   1      40.574  25.305  26.402  1.00  0.00     0.338 C 
ATOM     25  O   UNL A   1      41.159  25.580  25.369  1.00  0.00    -0.246 OA
BRANCH  24  26
ATOM     26  C   UNL A   1      40.604  26.164  27.598  1.00  0.00     0.060 A 
ATOM     27  C   UNL A   1      39.602  25.995  28.556  1.00  0.00     0.016 A 
ATOM     28  C   UNL A   1      41.565  27.165  27.748  1.00  0.00     0.016 A 
ATOM     29  C   UNL A   1      39.555  26.824  29.673  1.00  0.00     0.010 A 
ATOM     30  C   UNL A   1      41.517  27.998  28.871  1.00  0.00     0.010 A 
ATOM     31  C   UNL A   1      40.508  27.837  29.837  1.00  0.00    -0.014 A 
BRANCH  31  32
ATOM     32  C   UNL A   1      40.418  28.750  31.002  1.00  0.00     0.031 A 
ATOM     33  C   UNL A   1      39.413  29.865  31.003  1.00  0.00     0.074 A 
ATOM     34  C   UNL A   1      41.220  28.556  32.066  1.00  0.00     0.049 A 
ATOM     35  N   UNL A   1      39.228  30.811  31.888  1.00  0.00    -0.248 NA
ATOM     36  C   UNL A   1      38.492  29.924  29.856  1.00  0.00     0.031 C 
ATOM     37  C   UNL A   1      42.201  27.477  32.200  1.00  0.00     0.029 A 
ATOM     38  N   UNL A   1      41.337  29.260  33.239  1.00  0.00    -0.354 N 
ATOM     39  C   UNL A   1      38.180  31.585  31.403  1.00  0.00     0.074 A 
ATOM     40  C   UNL A   1      37.782  31.009  30.135  1.00  0.00     0.031 C 
ATOM     41  C   UNL A   1      42.814  27.588  33.389  1.00  0.00     0.029 A 
ATOM     42  C   UNL A   1      42.306  28.769  34.081  1.00  0.00     0.049 A 
ATOM     43  H   UNL A   1      40.779  30.041  33.455  1.00  0.00     0.167 HD
ATOM     44  C   UNL A   1      37.602  32.671  31.968  1.00  0.00     0.037 A 
ATOM     45  C   UNL A   1      42.749  29.235  35.264  1.00  0.00     0.037 A 
ATOM     46  C   UNL A   1      37.999  33.232  33.233  1.00  0.00     0.049 A 
ATOM     47  C   UNL A   1      42.134  30.482  35.840  1.00  0.00     0.074 A 
ATOM     48  C   UNL A   1      37.482  34.339  33.885  1.00  0.00     0.029 A 
ATOM     49  N   UNL A   1      39.006  32.727  34.042  1.00  0.00    -0.354 N 
ATOM     50  N   UNL A   1      41.161  31.218  35.358  1.00  0.00    -0.248 NA
ATOM     51  C   UNL A   1      42.680  30.966  37.115  1.00  0.00     0.031 C 
ATOM     52  C   UNL A   1      38.200  34.522  35.073  1.00  0.00     0.029 A 
ATOM     53  C   UNL A   1      39.136  33.507  35.180  1.00  0.00     0.049 A 
ATOM     54  H   UNL A   1      39.549  31.932  33.837  1.00  0.00     0.167 HD
ATOM     55  C   UNL A   1      40.966  32.240  36.281  1.00  0.00     0.074 A 
ATOM     56  C   UNL A   1      41.914  32.021  37.354  1.00  0.00     0.031 C 
ATOM     57  C   UNL A   1      40.082  33.268  36.242  1.00  0.00     0.037 A 
BRANCH  44  58
ATOM     58  C   UNL A   1      36.493  33.341  31.207  1.00  0.00     0.058 A 
ATOM     59  C   UNL A   1      35.156  33.258  31.627  1.00  0.00     0.135 A 
ATOM     60  C   UNL A   1      36.774  34.100  30.060  1.00  0.00     0.135 A 
ATOM     61  F   UNL A   1      34.831  32.530  32.707  1.00  0.00    -0.206 F 
ATOM     62  C   UNL A   1      34.133  33.887  30.923  1.00  0.00     0.059 A 
ATOM     63  C   UNL A   1      35.770  34.755  29.353  1.00  0.00     0.059 A 
ATOM     64  F   UNL A   1      38.035  34.209  29.614  1.00  0.00    -0.206 F 
ATOM     65  C   UNL A   1      34.450  34.630  29.786  1.00  0.00     0.060 A 
BRANCH  65  66
ATOM     66  S   UNL A   1      33.114  35.440  28.879  1.00  0.00     0.124 S 
ATOM     67  O   UNL A   1      33.852  36.419  28.088  1.00  0.00    -0.237 OA
ATOM     68  O   UNL A   1      32.526  34.334  28.130  1.00  0.00    -0.237 OA
ATOM     69  O   UNL A   1      32.273  35.993  29.936  1.00  0.00    -0.744 OA
ENDBRANCH  65  66
ENDBRANCH  44  58
BRANCH  45  70
ATOM     70  C   UNL A   1      43.851  28.534  35.975  1.00  0.00     0.058 A 
ATOM     71  C   UNL A   1      43.587  27.468  36.848  1.00  0.00     0.135 A 
ATOM     72  C   UNL A   1      45.190  28.917  35.796  1.00  0.00     0.135 A 
ATOM     73  F   UNL A   1      42.323  27.073  37.060  1.00  0.00    -0.206 F 
ATOM     74  C   UNL A   1      44.609  26.817  37.532  1.00  0.00     0.059 A 
ATOM     75  C   UNL A   1      46.230  28.266  36.449  1.00  0.00     0.059 A 
ATOM     76  F   UNL A   1      45.495  29.924  34.963  1.00  0.00    -0.206 F 
ATOM     77  C   UNL A   1      45.929  27.224  37.325  1.00  0.00     0.060 A 
BRANCH  77  78
ATOM     78  S   UNL A   1      47.255  26.348  38.183  1.00  0.00     0.124 S 
ATOM     79  O   UNL A   1      47.630  25.345  37.195  1.00  0.00    -0.237 OA
ATOM     80  O   UNL A   1      48.229  27.412  38.416  1.00  0.00    -0.237 OA
ATOM     81  O   UNL A   1      46.597  25.841  39.384  1.00  0.00    -0.744 OA
ENDBRANCH  77  78
ENDBRANCH  45  70
BRANCH  57  82
ATOM     82  C   UNL A   1      40.078  34.216  37.407  1.00  0.00     0.058 A 
ATOM     83  C   UNL A   1      40.901  35.352  37.433  1.00  0.00     0.135 A 
ATOM     84  C   UNL A   1      39.206  34.010  38.488  1.00  0.00     0.135 A 
ATOM     85  F   UNL A   1      41.756  35.589  36.426  1.00  0.00    -0.206 F 
ATOM     86  C   UNL A   1      40.874  36.242  38.501  1.00  0.00     0.059 A 
ATOM     87  C   UNL A   1      39.147  34.899  39.556  1.00  0.00     0.059 A 
ATOM     88  F   UNL A   1      38.393  32.943  38.506  1.00  0.00    -0.206 F 
ATOM     89  C   UNL A   1      39.993  36.007  39.558  1.00  0.00     0.060 A 
BRANCH  89  90
ATOM     90  S   UNL A   1      39.940  37.189  40.924  1.00  0.00     0.124 S 
ATOM     91  O   UNL A   1      41.346  37.255  41.308  1.00  0.00    -0.237 OA
ATOM     92  O   UNL A   1      39.401  38.385  40.284  1.00  0.00    -0.237 OA
ATOM     93  O   UNL A   1      39.053  36.549  41.890  1.00  0.00    -0.744 OA
ENDBRANCH  89  90
ENDBRANCH  57  82
ENDBRANCH  31  32
ENDBRANCH  24  26
ENDBRANCH  23  24
ENDBRANCH  22  23
ENDBRANCH   1  22
TORSDOF 17
ENDMDL
