MODEL 1
REMARK VINA RESULT:     -13.2      0.000      0.000
REMARK SMILES Cc1ccc(S(=O)(=O)n2cc(C(=O)C(=O)N[C@H](Cc3c[nH]c4ccccc34)C(=O)NCC(=O)OCCOC(=O)c3ccc(-c4c5nc(c(-c6c(F)cc(S(=O)(=O)[O-])cc6F)c6ccc([nH]6)c(-c6c(F)cc(S(=O)(=O)[O-])cc6F)c6nc(c(-c7c(F)cc(S(=O)(=O)[O-])cc7F)c7ccc4[nH]7)C=C6)C=C5)cc3)c3ccccc32)cc1
REMARK SMILES IDX 32 1 33 2 31 3 30 4 28 5 29 6 17 8 16 9 14 10 15 11 12 13
REMARK SMILES IDX 13 14 11 15 9 16 10 17 111 18 106 19 110 20 107 21 109 22
REMARK SMILES IDX 108 23 6 24 7 25 8 26 5 27 1 28 2 29 3 30 113 31 4 32 112 33
REMARK SMILES IDX 18 34 19 35 20 36 27 37 21 38 22 39 26 40 23 42 25 43 24 44
REMARK SMILES IDX 34 45 35 46 36 47 37 48 38 49 39 50 40 51 41 52 105 53 42 54
REMARK SMILES IDX 104 55 43 56 44 57 45 58 98 59 46 60 103 61 97 62 99 63
REMARK SMILES IDX 47 64 102 65 96 66 95 67 48 69 82 70 61 71 81 72 62 73 65 74
REMARK SMILES IDX 80 75 100 76 63 77 64 78 79 80 101 81 66 82 49 83 50 84
REMARK SMILES IDX 59 85 51 86 52 87 58 88 60 89 53 90 54 91 55 92 56 93 57 94
REMARK SMILES IDX 83 95 84 96 93 97 85 98 86 99 92 100 94 101 87 102 88 103
REMARK SMILES IDX 89 104 90 105 91 106 67 107 68 108 77 109 69 110 70 111
REMARK SMILES IDX 76 112 78 113 71 114 72 115 73 116 74 117 75 118
REMARK H PARENT 30 7 16 12 21 41 99 68 65 79
REMARK Flexibility Score: inf
ROOT
ATOM      1  C   UNL A   1      37.088  29.651  32.598  1.00  0.00     0.325 C 
ATOM      2  O   UNL A   1      37.389  28.558  33.050  1.00  0.00    -0.250 OA
ENDROOT
BRANCH   1   3
ATOM      3  C   UNL A   1      36.715  29.981  31.073  1.00  0.00     0.238 C 
BRANCH   3   4
ATOM      4  N   UNL A   1      36.930  29.591  29.678  1.00  0.00    -0.343 N 
ATOM      5  C   UNL A   1      36.359  30.131  28.533  1.00  0.00     0.243 C 
ATOM      6  O   UNL A   1      37.045  30.037  27.501  1.00  0.00    -0.273 OA
ATOM      7  H   UNL A   1      37.562  28.851  29.533  1.00  0.00     0.164 HD
BRANCH   5   8
ATOM      8  C   UNL A   1      34.896  30.791  28.381  1.00  0.00     0.176 C 
BRANCH   8   9
ATOM      9  N   UNL A   1      33.530  29.933  27.876  1.00  0.00    -0.337 N 
ATOM     10  C   UNL A   1      32.956  28.899  26.991  1.00  0.00     0.293 C 
ATOM     11  O   UNL A   1      31.722  28.993  26.920  1.00  0.00    -0.265 OA
ATOM     12  H   UNL A   1      32.780  30.276  28.412  1.00  0.00     0.164 HD
BRANCH  10  13
ATOM     13  C   UNL A   1      33.700  27.534  26.157  1.00  0.00     0.252 C 
ATOM     14  O   UNL A   1      34.870  27.680  25.808  1.00  0.00    -0.283 OA
BRANCH  13  15
ATOM     15  C   UNL A   1      32.991  25.962  26.024  1.00  0.00     0.054 A 
ATOM     16  N   UNL A   1      33.052  24.895  23.164  1.00  0.00    -0.240 N 
ATOM     17  C   UNL A   1      33.011  26.378  24.259  1.00  0.00     0.117 A 
ATOM     18  C   UNL A   1      33.768  23.433  24.296  1.00  0.00     0.065 A 
ATOM     19  C   UNL A   1      33.488  23.928  26.123  1.00  0.00     0.012 A 
ATOM     20  C   UNL A   1      34.201  22.049  24.177  1.00  0.00     0.028 A 
ATOM     21  C   UNL A   1      33.082  22.767  26.916  1.00  0.00     0.011 A 
ATOM     22  C   UNL A   1      33.962  21.132  25.258  1.00  0.00     0.002 A 
ATOM     23  C   UNL A   1      33.386  21.452  26.511  1.00  0.00     0.001 A 
BRANCH  16  24
ATOM     24  S   UNL A   1      31.138  26.030  22.782  1.00  0.00     0.268 S 
ATOM     25  O   UNL A   1      30.222  24.945  23.141  1.00  0.00    -0.201 OA
ATOM     26  O   UNL A   1      31.216  26.358  21.373  1.00  0.00    -0.201 OA
BRANCH  24  27
ATOM     27  C   UNL A   1      29.865  27.716  23.060  1.00  0.00     0.088 A 
ATOM     28  C   UNL A   1      27.652  31.376  22.472  1.00  0.00     0.044 C 
ATOM     29  C   UNL A   1      28.323  30.203  23.125  1.00  0.00    -0.051 A 
ATOM     30  C   UNL A   1      27.663  29.022  23.078  1.00  0.00     0.005 A 
ATOM     31  C   UNL A   1      29.654  30.126  23.563  1.00  0.00     0.005 A 
ATOM     32  C   UNL A   1      28.431  27.843  23.126  1.00  0.00     0.022 A 
ATOM     33  C   UNL A   1      30.416  28.891  23.560  1.00  0.00     0.022 A 
ENDBRANCH  24  27
ENDBRANCH  16  24
ENDBRANCH  13  15
ENDBRANCH  10  13
ENDBRANCH   8   9
BRANCH   8  34
ATOM     34  C   UNL A   1      34.774  32.375  28.363  1.00  0.00     0.072 C 
BRANCH  34  35
ATOM     35  C   UNL A   1      34.540  33.173  29.609  1.00  0.00    -0.020 A 
ATOM     36  C   UNL A   1      34.778  32.755  30.911  1.00  0.00     0.087 A 
ATOM     37  C   UNL A   1      34.077  34.507  29.704  1.00  0.00     0.003 A 
ATOM     38  N   UNL A   1      34.219  33.667  31.762  1.00  0.00    -0.361 N 
ATOM     39  C   UNL A   1      33.809  34.765  31.049  1.00  0.00     0.046 A 
ATOM     40  C   UNL A   1      33.809  35.498  28.748  1.00  0.00     0.010 A 
ATOM     41  H   UNL A   1      34.125  33.554  32.735  1.00  0.00     0.166 HD
ATOM     42  C   UNL A   1      33.221  35.953  31.484  1.00  0.00     0.026 A 
ATOM     43  C   UNL A   1      33.274  36.713  29.171  1.00  0.00     0.001 A 
ATOM     44  C   UNL A   1      32.971  36.928  30.514  1.00  0.00     0.002 A 
ENDBRANCH  34  35
ENDBRANCH   8  34
ENDBRANCH   5   8
ENDBRANCH   3   4
ENDBRANCH   1   3
BRANCH   1  45
ATOM     45  O   UNL A   1      37.254  30.818  33.316  1.00  0.00    -0.461 OA
BRANCH  45  46
ATOM     46  C   UNL A   1      38.345  31.114  34.273  1.00  0.00     0.274 C 
BRANCH  46  47
ATOM     47  C   UNL A   1      39.333  32.290  33.981  1.00  0.00     0.275 C 
BRANCH  47  48
ATOM     48  O   UNL A   1      39.830  32.995  35.126  1.00  0.00    -0.458 OA
BRANCH  48  49
ATOM     49  C   UNL A   1      40.849  33.853  34.888  1.00  0.00     0.338 C 
ATOM     50  O   UNL A   1      40.785  35.023  34.554  1.00  0.00    -0.246 OA
BRANCH  49  51
ATOM     51  C   UNL A   1      41.965  33.278  35.653  1.00  0.00     0.060 A 
ATOM     52  C   UNL A   1      43.228  33.682  35.497  1.00  0.00     0.016 A 
ATOM     53  C   UNL A   1      41.687  32.633  36.893  1.00  0.00     0.016 A 
ATOM     54  C   UNL A   1      44.043  33.213  36.516  1.00  0.00     0.010 A 
ATOM     55  C   UNL A   1      42.565  32.158  37.893  1.00  0.00     0.010 A 
ATOM     56  C   UNL A   1      43.838  32.053  37.450  1.00  0.00    -0.014 A 
BRANCH  56  57
ATOM     57  C   UNL A   1      44.328  30.235  37.239  1.00  0.00     0.031 A 
ATOM     58  C   UNL A   1      45.368  30.041  38.610  1.00  0.00     0.074 A 
ATOM     59  C   UNL A   1      43.477  28.916  36.047  1.00  0.00     0.049 A 
ATOM     60  N   UNL A   1      45.681  28.908  39.143  1.00  0.00    -0.248 NA
ATOM     61  C   UNL A   1      45.980  31.094  39.403  1.00  0.00     0.031 C 
ATOM     62  C   UNL A   1      42.677  27.356  36.620  1.00  0.00     0.029 A 
ATOM     63  N   UNL A   1      42.501  28.857  34.947  1.00  0.00    -0.354 N 
ATOM     64  C   UNL A   1      46.100  29.098  40.444  1.00  0.00     0.074 A 
ATOM     65  C   UNL A   1      46.351  30.497  40.543  1.00  0.00     0.031 C 
ATOM     66  C   UNL A   1      41.535  27.026  36.042  1.00  0.00     0.029 A 
ATOM     67  C   UNL A   1      41.807  27.619  34.823  1.00  0.00     0.049 A 
ATOM     68  H   UNL A   1      42.340  29.616  34.341  1.00  0.00     0.167 HD
ATOM     69  C   UNL A   1      46.082  28.023  41.276  1.00  0.00     0.037 A 
ATOM     70  C   UNL A   1      42.407  26.724  34.019  1.00  0.00     0.037 A 
ATOM     71  C   UNL A   1      45.677  26.843  40.515  1.00  0.00     0.049 A 
ATOM     72  C   UNL A   1      43.472  25.485  34.957  1.00  0.00     0.074 A 
ATOM     73  C   UNL A   1      44.538  26.069  40.529  1.00  0.00     0.029 A 
ATOM     74  N   UNL A   1      46.394  26.481  39.381  1.00  0.00    -0.354 N 
ATOM     75  N   UNL A   1      44.159  25.699  36.104  1.00  0.00    -0.248 NA
ATOM     76  C   UNL A   1      43.937  24.087  34.604  1.00  0.00     0.031 C 
ATOM     77  C   UNL A   1      44.509  25.340  39.316  1.00  0.00     0.029 A 
ATOM     78  C   UNL A   1      45.665  25.604  38.600  1.00  0.00     0.049 A 
ATOM     79  H   UNL A   1      47.297  26.806  39.163  1.00  0.00     0.167 HD
ATOM     80  C   UNL A   1      45.218  24.821  36.384  1.00  0.00     0.074 A 
ATOM     81  C   UNL A   1      45.077  23.874  35.320  1.00  0.00     0.031 C 
ATOM     82  C   UNL A   1      46.192  25.048  37.357  1.00  0.00     0.037 A 
BRANCH  69  83
ATOM     83  C   UNL A   1      46.246  27.957  42.782  1.00  0.00     0.058 A 
ATOM     84  C   UNL A   1      45.089  28.123  43.581  1.00  0.00     0.135 A 
ATOM     85  C   UNL A   1      47.447  27.828  43.511  1.00  0.00     0.135 A 
ATOM     86  F   UNL A   1      43.870  28.246  43.037  1.00  0.00    -0.206 F 
ATOM     87  C   UNL A   1      45.110  28.177  44.968  1.00  0.00     0.059 A 
ATOM     88  C   UNL A   1      47.487  27.839  44.919  1.00  0.00     0.059 A 
ATOM     89  F   UNL A   1      48.634  27.714  42.901  1.00  0.00    -0.206 F 
ATOM     90  C   UNL A   1      46.310  28.021  45.636  1.00  0.00     0.060 A 
BRANCH  90  91
ATOM     91  S   UNL A   1      46.264  28.035  47.436  1.00  0.00     0.124 S 
ATOM     92  O   UNL A   1      47.636  27.667  47.776  1.00  0.00    -0.237 OA
ATOM     93  O   UNL A   1      45.891  29.417  47.720  1.00  0.00    -0.237 OA
ATOM     94  O   UNL A   1      45.250  27.036  47.761  1.00  0.00    -0.744 OA
ENDBRANCH  90  91
ENDBRANCH  69  83
BRANCH  70  95
ATOM     95  C   UNL A   1      42.397  27.837  32.642  1.00  0.00     0.058 A 
ATOM     96  C   UNL A   1      43.601  27.686  31.888  1.00  0.00     0.135 A 
ATOM     97  C   UNL A   1      41.320  28.206  31.755  1.00  0.00     0.135 A 
ATOM     98  F   UNL A   1      44.742  27.451  32.555  1.00  0.00    -0.206 F 
ATOM     99  C   UNL A   1      43.649  27.542  30.476  1.00  0.00     0.059 A 
ATOM    100  C   UNL A   1      41.319  28.011  30.334  1.00  0.00     0.059 A 
ATOM    101  F   UNL A   1      40.328  29.003  32.194  1.00  0.00    -0.206 F 
ATOM    102  C   UNL A   1      42.495  27.647  29.703  1.00  0.00     0.060 A 
BRANCH 102 103
ATOM    103  S   UNL A   1      42.585  27.351  27.909  1.00  0.00     0.124 S 
ATOM    104  O   UNL A   1      41.813  26.121  27.768  1.00  0.00    -0.237 OA
ATOM    105  O   UNL A   1      41.956  28.555  27.369  1.00  0.00    -0.237 OA
ATOM    106  O   UNL A   1      44.011  27.241  27.634  1.00  0.00    -0.744 OA
ENDBRANCH 102 103
ENDBRANCH  70  95
BRANCH  82 107
ATOM    107  C   UNL A   1      47.692  24.612  37.341  1.00  0.00     0.058 A 
ATOM    108  C   UNL A   1      48.740  25.493  37.025  1.00  0.00     0.135 A 
ATOM    109  C   UNL A   1      48.150  23.331  37.779  1.00  0.00     0.135 A 
ATOM    110  F   UNL A   1      48.484  26.778  36.762  1.00  0.00    -0.206 F 
ATOM    111  C   UNL A   1      50.089  25.097  36.955  1.00  0.00     0.059 A 
ATOM    112  C   UNL A   1      49.491  22.924  37.764  1.00  0.00     0.059 A 
ATOM    113  F   UNL A   1      47.310  22.392  38.233  1.00  0.00    -0.206 F 
ATOM    114  C   UNL A   1      50.446  23.789  37.266  1.00  0.00     0.060 A 
BRANCH 114 115
ATOM    115  S   UNL A   1      52.107  23.190  36.879  1.00  0.00     0.124 S 
ATOM    116  O   UNL A   1      52.706  23.132  38.210  1.00  0.00    -0.237 OA
ATOM    117  O   UNL A   1      51.848  21.901  36.247  1.00  0.00    -0.237 OA
ATOM    118  O   UNL A   1      52.654  24.218  35.998  1.00  0.00    -0.744 OA
ENDBRANCH 114 115
ENDBRANCH  82 107
ENDBRANCH  56  57
ENDBRANCH  49  51
ENDBRANCH  48  49
ENDBRANCH  47  48
ENDBRANCH  46  47
ENDBRANCH  45  46
ENDBRANCH   1  45
TORSDOF 23
ENDMDL
MODEL 2
REMARK VINA RESULT:     -13.0      1.040      3.455
REMARK SMILES Cc1ccc(S(=O)(=O)n2cc(C(=O)C(=O)N[C@H](Cc3c[nH]c4ccccc34)C(=O)NCC(=O)OCCOC(=O)c3ccc(-c4c5nc(c(-c6c(F)cc(S(=O)(=O)[O-])cc6F)c6ccc([nH]6)c(-c6c(F)cc(S(=O)(=O)[O-])cc6F)c6nc(c(-c7c(F)cc(S(=O)(=O)[O-])cc7F)c7ccc4[nH]7)C=C6)C=C5)cc3)c3ccccc32)cc1
REMARK SMILES IDX 32 1 33 2 31 3 30 4 28 5 29 6 17 8 16 9 14 10 15 11 12 13
REMARK SMILES IDX 13 14 11 15 9 16 10 17 111 18 106 19 110 20 107 21 109 22
REMARK SMILES IDX 108 23 6 24 7 25 8 26 5 27 1 28 2 29 3 30 113 31 4 32 112 33
REMARK SMILES IDX 18 34 19 35 20 36 27 37 21 38 22 39 26 40 23 42 25 43 24 44
REMARK SMILES IDX 34 45 35 46 36 47 37 48 38 49 39 50 40 51 41 52 105 53 42 54
REMARK SMILES IDX 104 55 43 56 44 57 45 58 98 59 46 60 103 61 97 62 99 63
REMARK SMILES IDX 47 64 102 65 96 66 95 67 48 69 82 70 61 71 81 72 62 73 65 74
REMARK SMILES IDX 80 75 100 76 63 77 64 78 79 80 101 81 66 82 49 83 50 84
REMARK SMILES IDX 59 85 51 86 52 87 58 88 60 89 53 90 54 91 55 92 56 93 57 94
REMARK SMILES IDX 83 95 84 96 93 97 85 98 86 99 92 100 94 101 87 102 88 103
REMARK SMILES IDX 89 104 90 105 91 106 67 107 68 108 77 109 69 110 70 111
REMARK SMILES IDX 76 112 78 113 71 114 72 115 73 116 74 117 75 118
REMARK H PARENT 30 7 16 12 21 41 99 68 65 79
REMARK Flexibility Score: inf
ROOT
ATOM      1  C   UNL A   1      37.120  29.989  32.546  1.00  0.00     0.325 C 
ATOM      2  O   UNL A   1      37.234  28.899  33.085  1.00  0.00    -0.250 OA
ENDROOT
BRANCH   1   3
ATOM      3  C   UNL A   1      36.829  30.256  30.991  1.00  0.00     0.238 C 
BRANCH   3   4
ATOM      4  N   UNL A   1      36.790  29.647  29.659  1.00  0.00    -0.343 N 
ATOM      5  C   UNL A   1      36.274  30.174  28.484  1.00  0.00     0.243 C 
ATOM      6  O   UNL A   1      36.802  29.761  27.437  1.00  0.00    -0.273 OA
ATOM      7  H   UNL A   1      37.182  28.747  29.589  1.00  0.00     0.164 HD
BRANCH   5   8
ATOM      8  C   UNL A   1      35.035  31.195  28.324  1.00  0.00     0.176 C 
BRANCH   8   9
ATOM      9  N   UNL A   1      33.517  30.738  27.738  1.00  0.00    -0.337 N 
ATOM     10  C   UNL A   1      32.717  30.184  26.627  1.00  0.00     0.293 C 
ATOM     11  O   UNL A   1      31.509  30.424  26.770  1.00  0.00    -0.265 OA
ATOM     12  H   UNL A   1      32.878  30.926  28.464  1.00  0.00     0.164 HD
BRANCH  10  13
ATOM     13  C   UNL A   1      33.170  29.173  25.256  1.00  0.00     0.252 C 
ATOM     14  O   UNL A   1      34.196  28.506  25.385  1.00  0.00    -0.283 OA
BRANCH  13  15
ATOM     15  C   UNL A   1      32.164  28.876  23.881  1.00  0.00     0.054 A 
ATOM     16  N   UNL A   1      30.040  26.751  24.428  1.00  0.00    -0.240 N 
ATOM     17  C   UNL A   1      31.714  27.405  24.843  1.00  0.00     0.117 A 
ATOM     18  C   UNL A   1      29.073  28.278  23.613  1.00  0.00     0.065 A 
ATOM     19  C   UNL A   1      30.383  29.523  22.985  1.00  0.00     0.012 A 
ATOM     20  C   UNL A   1      27.739  28.622  23.144  1.00  0.00     0.028 A 
ATOM     21  C   UNL A   1      29.980  30.090  21.697  1.00  0.00     0.011 A 
ATOM     22  C   UNL A   1      27.585  29.484  22.004  1.00  0.00     0.002 A 
ATOM     23  C   UNL A   1      28.631  30.120  21.292  1.00  0.00     0.001 A 
BRANCH  16  24
ATOM     24  S   UNL A   1      31.584  25.186  23.910  1.00  0.00     0.268 S 
ATOM     25  O   UNL A   1      31.430  25.269  22.456  1.00  0.00    -0.201 OA
ATOM     26  O   UNL A   1      31.070  23.985  24.538  1.00  0.00    -0.201 OA
BRANCH  24  27
ATOM     27  C   UNL A   1      33.546  24.365  24.044  1.00  0.00     0.088 A 
ATOM     28  C   UNL A   1      36.931  21.864  25.003  1.00  0.00     0.044 C 
ATOM     29  C   UNL A   1      36.100  23.032  24.561  1.00  0.00    -0.051 A 
ATOM     30  C   UNL A   1      35.561  22.959  23.321  1.00  0.00     0.005 A 
ATOM     31  C   UNL A   1      35.615  24.078  25.362  1.00  0.00     0.005 A 
ATOM     32  C   UNL A   1      34.371  23.674  23.084  1.00  0.00     0.022 A 
ATOM     33  C   UNL A   1      34.363  24.761  25.096  1.00  0.00     0.022 A 
ENDBRANCH  24  27
ENDBRANCH  16  24
ENDBRANCH  13  15
ENDBRANCH  10  13
ENDBRANCH   8   9
BRANCH   8  34
ATOM     34  C   UNL A   1      35.323  32.756  28.382  1.00  0.00     0.072 C 
BRANCH  34  35
ATOM     35  C   UNL A   1      34.437  33.705  29.129  1.00  0.00    -0.020 A 
ATOM     36  C   UNL A   1      33.298  34.328  28.637  1.00  0.00     0.087 A 
ATOM     37  C   UNL A   1      34.558  34.119  30.477  1.00  0.00     0.003 A 
ATOM     38  N   UNL A   1      32.914  35.287  29.532  1.00  0.00    -0.361 N 
ATOM     39  C   UNL A   1      33.651  35.160  30.681  1.00  0.00     0.046 A 
ATOM     40  C   UNL A   1      35.405  33.730  31.525  1.00  0.00     0.010 A 
ATOM     41  H   UNL A   1      32.216  35.964  29.376  1.00  0.00     0.166 HD
ATOM     42  C   UNL A   1      33.592  35.882  31.873  1.00  0.00     0.026 A 
ATOM     43  C   UNL A   1      35.321  34.403  32.742  1.00  0.00     0.001 A 
ATOM     44  C   UNL A   1      34.441  35.471  32.906  1.00  0.00     0.002 A 
ENDBRANCH  34  35
ENDBRANCH   8  34
ENDBRANCH   5   8
ENDBRANCH   3   4
ENDBRANCH   1   3
BRANCH   1  45
ATOM     45  O   UNL A   1      37.462  31.166  33.180  1.00  0.00    -0.461 OA
BRANCH  45  46
ATOM     46  C   UNL A   1      38.606  31.370  34.098  1.00  0.00     0.274 C 
BRANCH  46  47
ATOM     47  C   UNL A   1      39.594  32.556  33.850  1.00  0.00     0.275 C 
BRANCH  47  48
ATOM     48  O   UNL A   1      40.053  33.250  35.018  1.00  0.00    -0.458 OA
BRANCH  48  49
ATOM     49  C   UNL A   1      41.111  34.072  34.834  1.00  0.00     0.338 C 
ATOM     50  O   UNL A   1      41.104  35.245  34.507  1.00  0.00    -0.246 OA
BRANCH  49  51
ATOM     51  C   UNL A   1      42.171  33.451  35.641  1.00  0.00     0.060 A 
ATOM     52  C   UNL A   1      43.449  33.830  35.566  1.00  0.00     0.016 A 
ATOM     53  C   UNL A   1      41.811  32.780  36.846  1.00  0.00     0.016 A 
ATOM     54  C   UNL A   1      44.196  33.315  36.614  1.00  0.00     0.010 A 
ATOM     55  C   UNL A   1      42.622  32.259  37.879  1.00  0.00     0.010 A 
ATOM     56  C   UNL A   1      43.916  32.136  37.503  1.00  0.00    -0.014 A 
BRANCH  56  57
ATOM     57  C   UNL A   1      44.376  30.312  37.269  1.00  0.00     0.031 A 
ATOM     58  C   UNL A   1      45.417  30.087  38.634  1.00  0.00     0.074 A 
ATOM     59  C   UNL A   1      43.502  29.021  36.063  1.00  0.00     0.049 A 
ATOM     60  N   UNL A   1      45.713  28.942  39.153  1.00  0.00    -0.248 NA
ATOM     61  C   UNL A   1      46.047  31.120  39.438  1.00  0.00     0.031 C 
ATOM     62  C   UNL A   1      42.679  27.467  36.620  1.00  0.00     0.029 A 
ATOM     63  N   UNL A   1      42.523  28.991  34.965  1.00  0.00    -0.354 N 
ATOM     64  C   UNL A   1      46.139  29.110  40.455  1.00  0.00     0.074 A 
ATOM     65  C   UNL A   1      46.412  30.504  40.570  1.00  0.00     0.031 C 
ATOM     66  C   UNL A   1      41.531  27.163  36.040  1.00  0.00     0.029 A 
ATOM     67  C   UNL A   1      41.808  27.766  34.829  1.00  0.00     0.049 A 
ATOM     68  H   UNL A   1      42.372  29.760  34.369  1.00  0.00     0.167 HD
ATOM     69  C   UNL A   1      46.107  28.025  41.274  1.00  0.00     0.037 A 
ATOM     70  C   UNL A   1      42.393  26.871  34.012  1.00  0.00     0.037 A 
ATOM     71  C   UNL A   1      45.681  26.861  40.500  1.00  0.00     0.049 A 
ATOM     72  C   UNL A   1      43.440  25.604  34.932  1.00  0.00     0.074 A 
ATOM     73  C   UNL A   1      44.530  26.105  40.508  1.00  0.00     0.029 A 
ATOM     74  N   UNL A   1      46.389  26.502  39.360  1.00  0.00    -0.354 N 
ATOM     75  N   UNL A   1      44.134  25.794  36.079  1.00  0.00    -0.248 NA
ATOM     76  C   UNL A   1      43.883  24.204  34.561  1.00  0.00     0.031 C 
ATOM     77  C   UNL A   1      44.487  25.391  39.286  1.00  0.00     0.029 A 
ATOM     78  C   UNL A   1      45.644  25.645  38.570  1.00  0.00     0.049 A 
ATOM     79  H   UNL A   1      47.297  26.815  39.143  1.00  0.00     0.167 HD
ATOM     80  C   UNL A   1      45.180  24.896  36.346  1.00  0.00     0.074 A 
ATOM     81  C   UNL A   1      45.021  23.964  35.271  1.00  0.00     0.031 C 
ATOM     82  C   UNL A   1      46.160  25.097  37.319  1.00  0.00     0.037 A 
BRANCH  69  83
ATOM     83  C   UNL A   1      46.274  27.939  42.779  1.00  0.00     0.058 A 
ATOM     84  C   UNL A   1      45.116  28.087  43.581  1.00  0.00     0.135 A 
ATOM     85  C   UNL A   1      47.476  27.805  43.504  1.00  0.00     0.135 A 
ATOM     86  F   UNL A   1      43.896  28.212  43.041  1.00  0.00    -0.206 F 
ATOM     87  C   UNL A   1      45.139  28.122  44.970  1.00  0.00     0.059 A 
ATOM     88  C   UNL A   1      47.518  27.796  44.912  1.00  0.00     0.059 A 
ATOM     89  F   UNL A   1      48.662  27.705  42.890  1.00  0.00    -0.206 F 
ATOM     90  C   UNL A   1      46.342  27.962  45.633  1.00  0.00     0.060 A 
BRANCH  90  91
ATOM     91  S   UNL A   1      46.299  27.950  47.433  1.00  0.00     0.124 S 
ATOM     92  O   UNL A   1      45.118  28.763  47.713  1.00  0.00    -0.237 OA
ATOM     93  O   UNL A   1      46.170  26.526  47.725  1.00  0.00    -0.237 OA
ATOM     94  O   UNL A   1      47.574  28.552  47.810  1.00  0.00    -0.744 OA
ENDBRANCH  90  91
ENDBRANCH  69  83
BRANCH  70  95
ATOM     95  C   UNL A   1      42.397  28.001  32.648  1.00  0.00     0.058 A 
ATOM     96  C   UNL A   1      43.587  27.826  31.878  1.00  0.00     0.135 A 
ATOM     97  C   UNL A   1      41.319  28.410  31.779  1.00  0.00     0.135 A 
ATOM     98  F   UNL A   1      44.729  27.552  32.527  1.00  0.00    -0.206 F 
ATOM     99  C   UNL A   1      43.614  27.699  30.463  1.00  0.00     0.059 A 
ATOM    100  C   UNL A   1      41.295  28.232  30.356  1.00  0.00     0.059 A 
ATOM    101  F   UNL A   1      40.355  29.228  32.241  1.00  0.00    -0.206 F 
ATOM    102  C   UNL A   1      42.453  27.844  29.707  1.00  0.00     0.060 A 
BRANCH 102 103
ATOM    103  S   UNL A   1      42.513  27.568  27.908  1.00  0.00     0.124 S 
ATOM    104  O   UNL A   1      41.855  28.766  27.398  1.00  0.00    -0.237 OA
ATOM    105  O   UNL A   1      43.952  27.485  27.660  1.00  0.00    -0.237 OA
ATOM    106  O   UNL A   1      41.795  26.316  27.712  1.00  0.00    -0.744 OA
ENDBRANCH 102 103
ENDBRANCH  70  95
BRANCH  82 107
ATOM    107  C   UNL A   1      47.653  24.637  37.293  1.00  0.00     0.058 A 
ATOM    108  C   UNL A   1      48.116  23.509  37.991  1.00  0.00     0.135 A 
ATOM    109  C   UNL A   1      48.650  25.225  36.455  1.00  0.00     0.135 A 
ATOM    110  F   UNL A   1      47.264  22.749  38.685  1.00  0.00    -0.206 F 
ATOM    111  C   UNL A   1      49.468  23.118  38.018  1.00  0.00     0.059 A 
ATOM    112  C   UNL A   1      49.994  24.827  36.426  1.00  0.00     0.059 A 
ATOM    113  F   UNL A   1      48.373  26.239  35.624  1.00  0.00    -0.206 F 
ATOM    114  C   UNL A   1      50.411  23.825  37.280  1.00  0.00     0.060 A 
BRANCH 114 115
ATOM    115  S   UNL A   1      52.174  23.534  37.551  1.00  0.00     0.124 S 
ATOM    116  O   UNL A   1      52.140  22.633  38.701  1.00  0.00    -0.237 OA
ATOM    117  O   UNL A   1      52.602  22.935  36.292  1.00  0.00    -0.237 OA
ATOM    118  O   UNL A   1      52.711  24.865  37.823  1.00  0.00    -0.744 OA
ENDBRANCH 114 115
ENDBRANCH  82 107
ENDBRANCH  56  57
ENDBRANCH  49  51
ENDBRANCH  48  49
ENDBRANCH  47  48
ENDBRANCH  46  47
ENDBRANCH  45  46
ENDBRANCH   1  45
TORSDOF 23
ENDMDL
MODEL 3
REMARK VINA RESULT:     -12.7     10.851     17.571
REMARK SMILES Cc1ccc(S(=O)(=O)n2cc(C(=O)C(=O)N[C@H](Cc3c[nH]c4ccccc34)C(=O)NCC(=O)OCCOC(=O)c3ccc(-c4c5nc(c(-c6c(F)cc(S(=O)(=O)[O-])cc6F)c6ccc([nH]6)c(-c6c(F)cc(S(=O)(=O)[O-])cc6F)c6nc(c(-c7c(F)cc(S(=O)(=O)[O-])cc7F)c7ccc4[nH]7)C=C6)C=C5)cc3)c3ccccc32)cc1
REMARK SMILES IDX 32 1 33 2 31 3 30 4 28 5 29 6 17 8 16 9 14 10 15 11 12 13
REMARK SMILES IDX 13 14 11 15 9 16 10 17 111 18 106 19 110 20 107 21 109 22
REMARK SMILES IDX 108 23 6 24 7 25 8 26 5 27 1 28 2 29 3 30 113 31 4 32 112 33
REMARK SMILES IDX 18 34 19 35 20 36 27 37 21 38 22 39 26 40 23 42 25 43 24 44
REMARK SMILES IDX 34 45 35 46 36 47 37 48 38 49 39 50 40 51 41 52 105 53 42 54
REMARK SMILES IDX 104 55 43 56 44 57 45 58 98 59 46 60 103 61 97 62 99 63
REMARK SMILES IDX 47 64 102 65 96 66 95 67 48 69 82 70 61 71 81 72 62 73 65 74
REMARK SMILES IDX 80 75 100 76 63 77 64 78 79 80 101 81 66 82 49 83 50 84
REMARK SMILES IDX 59 85 51 86 52 87 58 88 60 89 53 90 54 91 55 92 56 93 57 94
REMARK SMILES IDX 83 95 84 96 93 97 85 98 86 99 92 100 94 101 87 102 88 103
REMARK SMILES IDX 89 104 90 105 91 106 67 107 68 108 77 109 69 110 70 111
REMARK SMILES IDX 76 112 78 113 71 114 72 115 73 116 74 117 75 118
REMARK H PARENT 30 7 16 12 21 41 99 68 65 79
REMARK Flexibility Score: inf
ROOT
ATOM      1  C   UNL A   1      46.444  41.327  23.333  1.00  0.00     0.325 C 
ATOM      2  O   UNL A   1      45.297  41.718  23.479  1.00  0.00    -0.250 OA
ENDROOT
BRANCH   1   3
ATOM      3  C   UNL A   1      47.553  41.970  22.368  1.00  0.00     0.238 C 
BRANCH   3   4
ATOM      4  N   UNL A   1      47.772  42.718  21.128  1.00  0.00    -0.343 N 
ATOM      5  C   UNL A   1      47.236  43.941  20.751  1.00  0.00     0.243 C 
ATOM      6  O   UNL A   1      47.931  44.608  19.966  1.00  0.00    -0.273 OA
ATOM      7  H   UNL A   1      48.379  42.298  20.477  1.00  0.00     0.164 HD
BRANCH   5   8
ATOM      8  C   UNL A   1      45.799  44.552  21.156  1.00  0.00     0.176 C 
BRANCH   8   9
ATOM      9  N   UNL A   1      45.265  44.707  22.752  1.00  0.00    -0.337 N 
ATOM     10  C   UNL A   1      45.604  44.750  24.188  1.00  0.00     0.293 C 
ATOM     11  O   UNL A   1      44.605  44.570  24.899  1.00  0.00    -0.265 OA
ATOM     12  H   UNL A   1      44.288  44.820  22.701  1.00  0.00     0.164 HD
BRANCH  10  13
ATOM     13  C   UNL A   1      47.114  45.126  25.019  1.00  0.00     0.252 C 
ATOM     14  O   UNL A   1      48.141  45.050  24.345  1.00  0.00    -0.283 OA
BRANCH  13  15
ATOM     15  C   UNL A   1      47.218  45.814  26.602  1.00  0.00     0.054 A 
ATOM     16  N   UNL A   1      49.180  44.315  28.398  1.00  0.00    -0.240 N 
ATOM     17  C   UNL A   1      48.023  44.230  26.964  1.00  0.00     0.117 A 
ATOM     18  C   UNL A   1      49.654  46.233  28.569  1.00  0.00     0.065 A 
ATOM     19  C   UNL A   1      48.285  47.247  27.698  1.00  0.00     0.012 A 
ATOM     20  C   UNL A   1      50.553  47.089  29.329  1.00  0.00     0.028 A 
ATOM     21  C   UNL A   1      47.975  48.457  28.460  1.00  0.00     0.011 A 
ATOM     22  C   UNL A   1      50.128  48.409  29.710  1.00  0.00     0.002 A 
ATOM     23  C   UNL A   1      48.903  49.025  29.356  1.00  0.00     0.001 A 
BRANCH  16  24
ATOM     24  S   UNL A   1      47.509  42.879  28.894  1.00  0.00     0.268 S 
ATOM     25  O   UNL A   1      47.402  43.226  30.313  1.00  0.00    -0.201 OA
ATOM     26  O   UNL A   1      48.081  41.582  28.596  1.00  0.00    -0.201 OA
BRANCH  24  27
ATOM     27  C   UNL A   1      45.573  42.058  28.550  1.00  0.00     0.088 A 
ATOM     28  C   UNL A   1      42.298  39.343  27.818  1.00  0.00     0.044 C 
ATOM     29  C   UNL A   1      43.114  40.597  27.929  1.00  0.00    -0.051 A 
ATOM     30  C   UNL A   1      43.278  41.107  29.172  1.00  0.00     0.005 A 
ATOM     31  C   UNL A   1      43.927  41.168  26.937  1.00  0.00     0.005 A 
ATOM     32  C   UNL A   1      44.437  41.869  29.417  1.00  0.00     0.022 A 
ATOM     33  C   UNL A   1      45.133  41.917  27.240  1.00  0.00     0.022 A 
ENDBRANCH  24  27
ENDBRANCH  16  24
ENDBRANCH  13  15
ENDBRANCH  10  13
ENDBRANCH   8   9
BRANCH   8  34
ATOM     34  C   UNL A   1      44.690  44.697  20.028  1.00  0.00     0.072 C 
BRANCH  34  35
ATOM     35  C   UNL A   1      44.479  45.975  19.274  1.00  0.00    -0.020 A 
ATOM     36  C   UNL A   1      45.148  47.173  19.481  1.00  0.00     0.087 A 
ATOM     37  C   UNL A   1      43.598  46.200  18.188  1.00  0.00     0.003 A 
ATOM     38  N   UNL A   1      44.511  48.149  18.766  1.00  0.00    -0.361 N 
ATOM     39  C   UNL A   1      43.576  47.574  17.943  1.00  0.00     0.046 A 
ATOM     40  C   UNL A   1      42.775  45.354  17.433  1.00  0.00     0.010 A 
ATOM     41  H   UNL A   1      44.694  49.113  18.832  1.00  0.00     0.166 HD
ATOM     42  C   UNL A   1      42.716  48.157  17.012  1.00  0.00     0.026 A 
ATOM     43  C   UNL A   1      41.950  45.913  16.459  1.00  0.00     0.001 A 
ATOM     44  C   UNL A   1      41.910  47.292  16.265  1.00  0.00     0.002 A 
ENDBRANCH  34  35
ENDBRANCH   8  34
ENDBRANCH   5   8
ENDBRANCH   3   4
ENDBRANCH   1   3
BRANCH   1  45
ATOM     45  O   UNL A   1      46.878  40.110  23.819  1.00  0.00    -0.461 OA
BRANCH  45  46
ATOM     46  C   UNL A   1      47.255  39.807  25.219  1.00  0.00     0.274 C 
BRANCH  46  47
ATOM     47  C   UNL A   1      46.638  38.561  25.934  1.00  0.00     0.275 C 
BRANCH  47  48
ATOM     48  O   UNL A   1      47.510  37.846  26.819  1.00  0.00    -0.458 OA
BRANCH  48  49
ATOM     49  C   UNL A   1      48.255  36.872  26.247  1.00  0.00     0.338 C 
ATOM     50  O   UNL A   1      49.410  36.935  25.864  1.00  0.00    -0.246 OA
BRANCH  49  51
ATOM     51  C   UNL A   1      47.609  35.634  26.707  1.00  0.00     0.060 A 
ATOM     52  C   UNL A   1      47.058  34.755  25.867  1.00  0.00     0.016 A 
ATOM     53  C   UNL A   1      47.967  35.107  27.982  1.00  0.00     0.016 A 
ATOM     54  C   UNL A   1      46.782  33.551  26.497  1.00  0.00     0.010 A 
ATOM     55  C   UNL A   1      47.642  33.869  28.583  1.00  0.00     0.010 A 
ATOM     56  C   UNL A   1      46.613  33.251  27.960  1.00  0.00    -0.014 A 
BRANCH  56  57
ATOM     57  C   UNL A   1      45.049  33.308  29.029  1.00  0.00     0.031 A 
ATOM     58  C   UNL A   1      44.110  32.076  28.255  1.00  0.00     0.074 A 
ATOM     59  C   UNL A   1      44.843  34.209  30.770  1.00  0.00     0.049 A 
ATOM     60  N   UNL A   1      43.116  31.458  28.798  1.00  0.00    -0.248 NA
ATOM     61  C   UNL A   1      44.329  31.503  26.938  1.00  0.00     0.031 C 
ATOM     62  C   UNL A   1      44.401  33.352  32.342  1.00  0.00     0.029 A 
ATOM     63  N   UNL A   1      45.561  35.153  31.641  1.00  0.00    -0.354 N 
ATOM     64  C   UNL A   1      42.897  30.256  28.154  1.00  0.00     0.074 A 
ATOM     65  C   UNL A   1      43.631  30.360  26.937  1.00  0.00     0.031 C 
ATOM     66  C   UNL A   1      45.053  33.728  33.428  1.00  0.00     0.029 A 
ATOM     67  C   UNL A   1      45.268  35.034  33.030  1.00  0.00     0.049 A 
ATOM     68  H   UNL A   1      46.197  35.818  31.290  1.00  0.00     0.167 HD
ATOM     69  C   UNL A   1      42.182  29.307  28.815  1.00  0.00     0.037 A 
ATOM     70  C   UNL A   1      44.243  35.799  33.448  1.00  0.00     0.037 A 
ATOM     71  C   UNL A   1      41.724  29.861  30.087  1.00  0.00     0.049 A 
ATOM     72  C   UNL A   1      42.605  34.871  33.511  1.00  0.00     0.074 A 
ATOM     73  C   UNL A   1      42.067  29.602  31.395  1.00  0.00     0.029 A 
ATOM     74  N   UNL A   1      40.972  31.029  30.093  1.00  0.00    -0.354 N 
ATOM     75  N   UNL A   1      42.205  33.861  32.703  1.00  0.00    -0.248 NA
ATOM     76  C   UNL A   1      41.341  35.114  34.309  1.00  0.00     0.031 C 
ATOM     77  C   UNL A   1      41.634  30.704  32.171  1.00  0.00     0.029 A 
ATOM     78  C   UNL A   1      40.957  31.595  31.355  1.00  0.00     0.049 A 
ATOM     79  H   UNL A   1      40.513  31.403  29.307  1.00  0.00     0.167 HD
ATOM     80  C   UNL A   1      40.825  33.622  32.619  1.00  0.00     0.074 A 
ATOM     81  C   UNL A   1      40.328  34.537  33.602  1.00  0.00     0.031 C 
ATOM     82  C   UNL A   1      40.222  32.823  31.647  1.00  0.00     0.037 A 
BRANCH  69  83
ATOM     83  C   UNL A   1      41.982  27.840  28.489  1.00  0.00     0.058 A 
ATOM     84  C   UNL A   1      42.905  26.911  29.030  1.00  0.00     0.135 A 
ATOM     85  C   UNL A   1      41.017  27.274  27.630  1.00  0.00     0.135 A 
ATOM     86  F   UNL A   1      43.874  27.292  29.874  1.00  0.00    -0.206 F 
ATOM     87  C   UNL A   1      42.894  25.554  28.738  1.00  0.00     0.059 A 
ATOM     88  C   UNL A   1      40.962  25.894  27.352  1.00  0.00     0.059 A 
ATOM     89  F   UNL A   1      40.106  28.027  27.000  1.00  0.00    -0.206 F 
ATOM     90  C   UNL A   1      41.912  25.045  27.909  1.00  0.00     0.060 A 
BRANCH  90  91
ATOM     91  S   UNL A   1      41.910  23.267  27.620  1.00  0.00     0.124 S 
ATOM     92  O   UNL A   1      42.482  23.179  26.279  1.00  0.00    -0.237 OA
ATOM     93  O   UNL A   1      42.760  22.783  28.703  1.00  0.00    -0.237 OA
ATOM     94  O   UNL A   1      40.500  22.905  27.723  1.00  0.00    -0.744 OA
ENDBRANCH  90  91
ENDBRANCH  69  83
BRANCH  70  95
ATOM     95  C   UNL A   1      45.017  37.285  32.875  1.00  0.00     0.058 A 
ATOM     96  C   UNL A   1      44.099  38.030  32.072  1.00  0.00     0.135 A 
ATOM     97  C   UNL A   1      45.900  38.196  33.562  1.00  0.00     0.135 A 
ATOM     98  F   UNL A   1      43.265  37.353  31.269  1.00  0.00    -0.206 F 
ATOM     99  C   UNL A   1      43.848  39.420  32.223  1.00  0.00     0.059 A 
ATOM    100  C   UNL A   1      45.638  39.589  33.784  1.00  0.00     0.059 A 
ATOM    101  F   UNL A   1      47.169  37.834  33.826  1.00  0.00    -0.206 F 
ATOM    102  C   UNL A   1      44.581  40.188  33.125  1.00  0.00     0.060 A 
BRANCH 102 103
ATOM    103  S   UNL A   1      44.154  41.942  33.363  1.00  0.00     0.124 S 
ATOM    104  O   UNL A   1      45.295  42.614  32.749  1.00  0.00    -0.237 OA
ATOM    105  O   UNL A   1      42.892  42.051  32.634  1.00  0.00    -0.237 OA
ATOM    106  O   UNL A   1      44.031  42.090  34.807  1.00  0.00    -0.744 OA
ENDBRANCH 102 103
ENDBRANCH  70  95
BRANCH  82 107
ATOM    107  C   UNL A   1      38.808  32.987  31.003  1.00  0.00     0.058 A 
ATOM    108  C   UNL A   1      37.663  32.343  31.500  1.00  0.00     0.135 A 
ATOM    109  C   UNL A   1      38.519  33.909  29.950  1.00  0.00     0.135 A 
ATOM    110  F   UNL A   1      37.741  31.580  32.594  1.00  0.00    -0.206 F 
ATOM    111  C   UNL A   1      36.396  32.442  30.896  1.00  0.00     0.059 A 
ATOM    112  C   UNL A   1      37.257  34.063  29.358  1.00  0.00     0.059 A 
ATOM    113  F   UNL A   1      39.459  34.704  29.421  1.00  0.00    -0.206 F 
ATOM    114  C   UNL A   1      36.219  33.258  29.784  1.00  0.00     0.060 A 
BRANCH 114 115
ATOM    115  S   UNL A   1      34.694  33.151  28.818  1.00  0.00     0.124 S 
ATOM    116  O   UNL A   1      34.473  31.707  28.795  1.00  0.00    -0.237 OA
ATOM    117  O   UNL A   1      33.748  33.921  29.618  1.00  0.00    -0.237 OA
ATOM    118  O   UNL A   1      35.051  33.743  27.532  1.00  0.00    -0.744 OA
ENDBRANCH 114 115
ENDBRANCH  82 107
ENDBRANCH  56  57
ENDBRANCH  49  51
ENDBRANCH  48  49
ENDBRANCH  47  48
ENDBRANCH  46  47
ENDBRANCH  45  46
ENDBRANCH   1  45
TORSDOF 23
ENDMDL
