MODEL 1
REMARK VINA RESULT:     -12.4      0.000      0.000
REMARK SMILES Cn1cc(-c2cc(C(F)(F)F)c3c(C4CC4)nn(CC(=O)OCCOC(=O)c4ccc(-c5c6nc(c(-c7c(F)cc(S(=O)(=O)[O-])cc7F)c7ccc([nH]7)c(-c7c(F)cc(S(=O)(=O)[O-])cc7F)c7nc(c(-c8c(F)cc(S(=O)(=O)[O-])cc8F)c8ccc5[nH]8)C=C7)C=C6)cc4)c3n2)cn1
REMARK SMILES IDX 24 1 23 2 22 3 20 4 21 5 19 6 18 7 5 8 6 9 95 10 7 11 94 12
REMARK SMILES IDX 12 13 13 14 17 15 4 16 1 17 2 18 3 19 97 20 96 21 8 22 9 23
REMARK SMILES IDX 10 24 11 25 14 26 15 27 16 28 25 29 26 30 27 31 28 32 29 33
REMARK SMILES IDX 93 34 30 35 92 36 31 37 32 38 33 39 86 40 34 41 91 42 85 43
REMARK SMILES IDX 87 44 35 45 90 46 84 47 83 48 36 50 70 51 49 52 69 53 50 54
REMARK SMILES IDX 53 55 68 56 88 57 51 58 52 59 67 61 89 62 54 63 37 64 38 65
REMARK SMILES IDX 47 66 39 67 40 68 46 69 48 70 41 71 42 72 43 73 44 74 45 75
REMARK SMILES IDX 71 76 72 77 81 78 73 79 74 80 80 81 82 82 75 83 76 84 77 85
REMARK SMILES IDX 78 86 79 87 55 88 56 89 65 90 57 91 58 92 64 93 66 94 59 95
REMARK SMILES IDX 60 96 61 97 62 98 63 99
REMARK H PARENT 87 49 53 60
REMARK Flexibility Score: inf
ROOT
ATOM      1  C   UNL A   1      32.429  30.474  27.062  1.00  0.00     0.275 C 
ENDROOT
BRANCH   1   2
ATOM      2  C   UNL A   1      31.737  29.133  27.262  1.00  0.00     0.274 C 
BRANCH   2   3
ATOM      3  O   UNL A   1      31.784  28.396  26.029  1.00  0.00    -0.461 OA
BRANCH   3   4
ATOM      4  C   UNL A   1      32.820  27.536  25.903  1.00  0.00     0.327 C 
ATOM      5  O   UNL A   1      33.800  27.747  25.187  1.00  0.00    -0.250 OA
BRANCH   4   6
ATOM      6  C   UNL A   1      32.650  26.239  26.613  1.00  0.00     0.269 C 
BRANCH   6   7
ATOM      7  N   UNL A   1      33.176  24.983  26.080  1.00  0.00    -0.236 N 
ATOM      8  C   UNL A   1      30.793  24.061  23.748  1.00  0.00     0.077 A 
ATOM      9  C   UNL A   1      31.284  22.845  23.291  1.00  0.00     0.043 A 
ATOM     10  N   UNL A   1      31.078  24.485  25.001  1.00  0.00    -0.228 NA
ATOM     11  C   UNL A   1      32.414  22.285  23.933  1.00  0.00     0.071 A 
ATOM     12  C   UNL A   1      32.358  24.197  25.307  1.00  0.00     0.159 A 
ATOM     13  C   UNL A   1      33.133  23.216  24.716  1.00  0.00     0.055 A 
ATOM     14  C   UNL A   1      34.453  23.701  24.946  1.00  0.00     0.076 A 
ATOM     15  N   UNL A   1      34.484  24.695  25.864  1.00  0.00    -0.174 NA
BRANCH   8  16
ATOM     16  C   UNL A   1      30.798  25.235  22.858  1.00  0.00     0.038 A 
ATOM     17  C   UNL A   1      33.541  27.250  21.945  1.00  0.00     0.173 C 
ATOM     18  N   UNL A   1      32.192  26.738  22.057  1.00  0.00    -0.275 N 
ATOM     19  C   UNL A   1      31.866  25.410  21.985  1.00  0.00     0.118 A 
ATOM     20  N   UNL A   1      31.219  27.483  22.620  1.00  0.00    -0.181 NA
ATOM     21  C   UNL A   1      30.420  26.563  23.179  1.00  0.00     0.145 A 
ENDBRANCH   8  16
BRANCH  11  22
ATOM     22  C   UNL A   1      32.603  20.794  23.984  1.00  0.00     0.417 C 
ATOM     23  F   UNL A   1      31.930  20.135  24.952  1.00  0.00    -0.166 F 
ATOM     24  F   UNL A   1      32.225  20.210  22.807  1.00  0.00    -0.166 F 
ATOM     25  F   UNL A   1      33.913  20.438  24.143  1.00  0.00    -0.166 F 
ENDBRANCH  11  22
BRANCH  14  26
ATOM     26  C   UNL A   1      35.716  23.461  24.096  1.00  0.00     0.041 C 
ATOM     27  C   UNL A   1      37.136  23.426  24.603  1.00  0.00     0.011 C 
ATOM     28  C   UNL A   1      36.458  22.140  24.299  1.00  0.00     0.011 C 
ENDBRANCH  14  26
ENDBRANCH   6   7
ENDBRANCH   4   6
ENDBRANCH   3   4
ENDBRANCH   2   3
ENDBRANCH   1   2
BRANCH   1  29
ATOM     29  O   UNL A   1      33.865  30.380  27.079  1.00  0.00    -0.458 OA
BRANCH  29  30
ATOM     30  C   UNL A   1      34.485  31.260  27.885  1.00  0.00     0.338 C 
ATOM     31  O   UNL A   1      33.990  32.244  28.432  1.00  0.00    -0.246 OA
BRANCH  30  32
ATOM     32  C   UNL A   1      35.923  31.007  27.943  1.00  0.00     0.060 A 
ATOM     33  C   UNL A   1      36.346  29.715  27.608  1.00  0.00     0.016 A 
ATOM     34  C   UNL A   1      36.805  31.944  28.496  1.00  0.00     0.016 A 
ATOM     35  C   UNL A   1      37.622  29.317  27.931  1.00  0.00     0.010 A 
ATOM     36  C   UNL A   1      38.091  31.547  28.809  1.00  0.00     0.010 A 
ATOM     37  C   UNL A   1      38.468  30.224  28.568  1.00  0.00    -0.014 A 
BRANCH  37  38
ATOM     38  C   UNL A   1      39.819  29.774  28.842  1.00  0.00     0.031 A 
ATOM     39  C   UNL A   1      40.171  29.776  30.289  1.00  0.00     0.074 A 
ATOM     40  C   UNL A   1      40.613  29.273  27.879  1.00  0.00     0.049 A 
ATOM     41  N   UNL A   1      41.143  30.381  30.889  1.00  0.00    -0.248 NA
ATOM     42  C   UNL A   1      39.219  29.116  31.203  1.00  0.00     0.031 C 
ATOM     43  C   UNL A   1      40.254  28.951  26.496  1.00  0.00     0.029 A 
ATOM     44  N   UNL A   1      41.886  28.813  27.985  1.00  0.00    -0.354 N 
ATOM     45  C   UNL A   1      41.039  30.015  32.230  1.00  0.00     0.074 A 
ATOM     46  C   UNL A   1      39.757  29.383  32.390  1.00  0.00     0.031 C 
ATOM     47  C   UNL A   1      41.197  28.132  25.979  1.00  0.00     0.029 A 
ATOM     48  C   UNL A   1      42.266  27.969  26.951  1.00  0.00     0.049 A 
ATOM     49  H   UNL A   1      42.485  29.056  28.728  1.00  0.00     0.167 HD
ATOM     50  C   UNL A   1      42.100  30.051  33.080  1.00  0.00     0.037 A 
ATOM     51  C   UNL A   1      43.319  27.115  26.968  1.00  0.00     0.037 A 
ATOM     52  C   UNL A   1      43.145  30.910  32.599  1.00  0.00     0.049 A 
ATOM     53  C   UNL A   1      44.239  27.569  28.047  1.00  0.00     0.074 A 
ATOM     54  C   UNL A   1      43.233  32.257  32.308  1.00  0.00     0.029 A 
ATOM     55  N   UNL A   1      44.244  30.329  32.015  1.00  0.00    -0.354 N 
ATOM     56  N   UNL A   1      44.908  28.690  28.025  1.00  0.00    -0.248 NA
ATOM     57  C   UNL A   1      44.096  26.960  29.362  1.00  0.00     0.031 C 
ATOM     58  C   UNL A   1      44.104  32.339  31.184  1.00  0.00     0.029 A 
ATOM     59  C   UNL A   1      44.521  31.044  30.877  1.00  0.00     0.049 A 
ATOM     60  H   UNL A   1      44.740  29.547  32.351  1.00  0.00     0.167 HD
ATOM     61  C   UNL A   1      44.919  29.129  29.342  1.00  0.00     0.074 A 
ATOM     62  C   UNL A   1      44.492  27.978  30.130  1.00  0.00     0.031 C 
ATOM     63  C   UNL A   1      45.009  30.458  29.648  1.00  0.00     0.037 A 
BRANCH  50  64
ATOM     64  C   UNL A   1      42.309  29.036  34.175  1.00  0.00     0.058 A 
ATOM     65  C   UNL A   1      42.507  27.681  33.849  1.00  0.00     0.135 A 
ATOM     66  C   UNL A   1      42.049  29.307  35.539  1.00  0.00     0.135 A 
ATOM     67  F   UNL A   1      42.740  27.310  32.581  1.00  0.00    -0.206 F 
ATOM     68  C   UNL A   1      42.397  26.665  34.800  1.00  0.00     0.059 A 
ATOM     69  C   UNL A   1      41.994  28.318  36.511  1.00  0.00     0.059 A 
ATOM     70  F   UNL A   1      41.733  30.533  35.975  1.00  0.00    -0.206 F 
ATOM     71  C   UNL A   1      42.122  26.995  36.126  1.00  0.00     0.060 A 
BRANCH  71  72
ATOM     72  S   UNL A   1      41.848  25.685  37.330  1.00  0.00     0.124 S 
ATOM     73  O   UNL A   1      42.116  24.497  36.527  1.00  0.00    -0.237 OA
ATOM     74  O   UNL A   1      42.838  26.002  38.354  1.00  0.00    -0.237 OA
ATOM     75  O   UNL A   1      40.458  25.880  37.727  1.00  0.00    -0.744 OA
ENDBRANCH  71  72
ENDBRANCH  50  64
BRANCH  51  76
ATOM     76  C   UNL A   1      43.378  25.747  26.386  1.00  0.00     0.058 A 
ATOM     77  C   UNL A   1      44.254  25.453  25.326  1.00  0.00     0.135 A 
ATOM     78  C   UNL A   1      42.784  24.639  27.024  1.00  0.00     0.135 A 
ATOM     79  F   UNL A   1      44.884  26.445  24.678  1.00  0.00    -0.206 F 
ATOM     80  C   UNL A   1      44.562  24.140  24.956  1.00  0.00     0.059 A 
ATOM     81  C   UNL A   1      43.060  23.323  26.660  1.00  0.00     0.059 A 
ATOM     82  F   UNL A   1      41.986  24.792  28.091  1.00  0.00    -0.206 F 
ATOM     83  C   UNL A   1      43.973  23.079  25.644  1.00  0.00     0.060 A 
BRANCH  83  84
ATOM     84  S   UNL A   1      44.497  21.387  25.288  1.00  0.00     0.124 S 
ATOM     85  O   UNL A   1      44.497  21.371  23.829  1.00  0.00    -0.237 OA
ATOM     86  O   UNL A   1      45.806  21.333  25.929  1.00  0.00    -0.237 OA
ATOM     87  O   UNL A   1      43.463  20.572  25.921  1.00  0.00    -0.744 OA
ENDBRANCH  83  84
ENDBRANCH  51  76
BRANCH  63  88
ATOM     88  C   UNL A   1      45.391  31.418  28.551  1.00  0.00     0.058 A 
ATOM     89  C   UNL A   1      44.511  31.848  27.544  1.00  0.00     0.135 A 
ATOM     90  C   UNL A   1      46.639  32.057  28.629  1.00  0.00     0.135 A 
ATOM     91  F   UNL A   1      43.263  31.368  27.466  1.00  0.00    -0.206 F 
ATOM     92  C   UNL A   1      44.867  32.845  26.634  1.00  0.00     0.059 A 
ATOM     93  C   UNL A   1      47.002  33.076  27.752  1.00  0.00     0.059 A 
ATOM     94  F   UNL A   1      47.499  31.734  29.609  1.00  0.00    -0.206 F 
ATOM     95  C   UNL A   1      46.113  33.460  26.751  1.00  0.00     0.060 A 
BRANCH  95  96
ATOM     96  S   UNL A   1      46.520  34.825  25.641  1.00  0.00     0.124 S 
ATOM     97  O   UNL A   1      47.914  34.550  25.314  1.00  0.00    -0.237 OA
ATOM     98  O   UNL A   1      45.566  34.641  24.551  1.00  0.00    -0.237 OA
ATOM     99  O   UNL A   1      46.293  36.012  26.461  1.00  0.00    -0.744 OA
ENDBRANCH  95  96
ENDBRANCH  63  88
ENDBRANCH  37  38
ENDBRANCH  30  32
ENDBRANCH  29  30
ENDBRANCH   1  29
TORSDOF 18
ENDMDL
MODEL 2
REMARK VINA RESULT:     -12.2      3.128      8.971
REMARK SMILES Cn1cc(-c2cc(C(F)(F)F)c3c(C4CC4)nn(CC(=O)OCCOC(=O)c4ccc(-c5c6nc(c(-c7c(F)cc(S(=O)(=O)[O-])cc7F)c7ccc([nH]7)c(-c7c(F)cc(S(=O)(=O)[O-])cc7F)c7nc(c(-c8c(F)cc(S(=O)(=O)[O-])cc8F)c8ccc5[nH]8)C=C7)C=C6)cc4)c3n2)cn1
REMARK SMILES IDX 24 1 23 2 22 3 20 4 21 5 19 6 18 7 5 8 6 9 95 10 7 11 94 12
REMARK SMILES IDX 12 13 13 14 17 15 4 16 1 17 2 18 3 19 97 20 96 21 8 22 9 23
REMARK SMILES IDX 10 24 11 25 14 26 15 27 16 28 25 29 26 30 27 31 28 32 29 33
REMARK SMILES IDX 93 34 30 35 92 36 31 37 32 38 33 39 86 40 34 41 91 42 85 43
REMARK SMILES IDX 87 44 35 45 90 46 84 47 83 48 36 50 70 51 49 52 69 53 50 54
REMARK SMILES IDX 53 55 68 56 88 57 51 58 52 59 67 61 89 62 54 63 37 64 38 65
REMARK SMILES IDX 47 66 39 67 40 68 46 69 48 70 41 71 42 72 43 73 44 74 45 75
REMARK SMILES IDX 71 76 72 77 81 78 73 79 74 80 80 81 82 82 75 83 76 84 77 85
REMARK SMILES IDX 78 86 79 87 55 88 56 89 65 90 57 91 58 92 64 93 66 94 59 95
REMARK SMILES IDX 60 96 61 97 62 98 63 99
REMARK H PARENT 87 49 53 60
REMARK Flexibility Score: inf
ROOT
ATOM      1  C   UNL A   1      37.331  22.332  24.608  1.00  0.00     0.275 C 
ENDROOT
BRANCH   1   2
ATOM      2  C   UNL A   1      36.438  23.443  24.074  1.00  0.00     0.274 C 
BRANCH   2   3
ATOM      3  O   UNL A   1      35.697  22.944  22.948  1.00  0.00    -0.461 OA
BRANCH   3   4
ATOM      4  C   UNL A   1      34.404  22.635  23.191  1.00  0.00     0.327 C 
ATOM      5  O   UNL A   1      34.044  21.810  24.033  1.00  0.00    -0.250 OA
BRANCH   4   6
ATOM      6  C   UNL A   1      33.421  23.286  22.284  1.00  0.00     0.269 C 
BRANCH   6   7
ATOM      7  N   UNL A   1      33.059  24.697  22.409  1.00  0.00    -0.236 N 
ATOM      8  C   UNL A   1      30.208  24.606  24.366  1.00  0.00     0.077 A 
ATOM      9  C   UNL A   1      29.853  25.947  24.432  1.00  0.00     0.043 A 
ATOM     10  N   UNL A   1      30.890  24.131  23.299  1.00  0.00    -0.228 NA
ATOM     11  C   UNL A   1      30.572  26.878  23.644  1.00  0.00     0.071 A 
ATOM     12  C   UNL A   1      31.824  25.022  22.913  1.00  0.00     0.159 A 
ATOM     13  C   UNL A   1      31.808  26.381  23.176  1.00  0.00     0.055 A 
ATOM     14  C   UNL A   1      33.190  26.715  23.095  1.00  0.00     0.076 A 
ATOM     15  N   UNL A   1      33.925  25.735  22.521  1.00  0.00    -0.174 NA
BRANCH   8  16
ATOM     16  C   UNL A   1      30.712  23.922  25.570  1.00  0.00     0.038 A 
ATOM     17  C   UNL A   1      34.032  23.759  26.740  1.00  0.00     0.173 C 
ATOM     18  N   UNL A   1      32.604  23.550  26.631  1.00  0.00    -0.275 N 
ATOM     19  C   UNL A   1      31.705  24.536  26.325  1.00  0.00     0.118 A 
ATOM     20  N   UNL A   1      32.103  22.312  26.442  1.00  0.00    -0.181 NA
ATOM     21  C   UNL A   1      30.997  22.541  25.723  1.00  0.00     0.145 A 
ENDBRANCH   8  16
BRANCH  11  22
ATOM     22  C   UNL A   1      29.905  28.130  23.144  1.00  0.00     0.417 C 
ATOM     23  F   UNL A   1      30.035  29.230  23.916  1.00  0.00    -0.166 F 
ATOM     24  F   UNL A   1      30.383  28.483  21.913  1.00  0.00    -0.166 F 
ATOM     25  F   UNL A   1      28.561  27.969  22.960  1.00  0.00    -0.166 F 
ENDBRANCH  11  22
BRANCH  14  26
ATOM     26  C   UNL A   1      33.939  27.848  23.825  1.00  0.00     0.041 C 
ATOM     27  C   UNL A   1      33.308  28.988  24.582  1.00  0.00     0.011 C 
ATOM     28  C   UNL A   1      33.882  27.856  25.352  1.00  0.00     0.011 C 
ENDBRANCH  14  26
ENDBRANCH   6   7
ENDBRANCH   4   6
ENDBRANCH   3   4
ENDBRANCH   2   3
ENDBRANCH   1   2
BRANCH   1  29
ATOM     29  O   UNL A   1      37.713  22.521  25.982  1.00  0.00    -0.458 OA
BRANCH  29  30
ATOM     30  C   UNL A   1      39.029  22.402  26.231  1.00  0.00     0.338 C 
ATOM     31  O   UNL A   1      39.698  21.370  26.213  1.00  0.00    -0.246 OA
BRANCH  30  32
ATOM     32  C   UNL A   1      39.602  23.665  26.691  1.00  0.00     0.060 A 
ATOM     33  C   UNL A   1      40.789  23.582  27.430  1.00  0.00     0.016 A 
ATOM     34  C   UNL A   1      38.898  24.870  26.573  1.00  0.00     0.016 A 
ATOM     35  C   UNL A   1      41.215  24.673  28.149  1.00  0.00     0.010 A 
ATOM     36  C   UNL A   1      39.333  25.970  27.285  1.00  0.00     0.010 A 
ATOM     37  C   UNL A   1      40.458  25.845  28.103  1.00  0.00    -0.014 A 
BRANCH  37  38
ATOM     38  C   UNL A   1      40.975  26.984  28.837  1.00  0.00     0.031 A 
ATOM     39  C   UNL A   1      42.258  27.514  28.298  1.00  0.00     0.074 A 
ATOM     40  C   UNL A   1      40.275  27.576  29.821  1.00  0.00     0.049 A 
ATOM     41  N   UNL A   1      43.391  27.669  28.900  1.00  0.00    -0.248 NA
ATOM     42  C   UNL A   1      42.307  27.778  26.848  1.00  0.00     0.031 C 
ATOM     43  C   UNL A   1      38.888  27.319  30.217  1.00  0.00     0.029 A 
ATOM     44  N   UNL A   1      40.624  28.641  30.587  1.00  0.00    -0.354 N 
ATOM     45  C   UNL A   1      44.242  28.238  27.953  1.00  0.00     0.074 A 
ATOM     46  C   UNL A   1      43.581  28.126  26.681  1.00  0.00     0.031 C 
ATOM     47  C   UNL A   1      38.448  28.356  30.963  1.00  0.00     0.029 A 
ATOM     48  C   UNL A   1      39.548  29.280  31.183  1.00  0.00     0.049 A 
ATOM     49  H   UNL A   1      41.557  28.933  30.707  1.00  0.00     0.167 HD
ATOM     50  C   UNL A   1      45.337  28.966  28.300  1.00  0.00     0.037 A 
ATOM     51  C   UNL A   1      39.556  30.532  31.704  1.00  0.00     0.037 A 
ATOM     52  C   UNL A   1      45.761  28.690  29.644  1.00  0.00     0.049 A 
ATOM     53  C   UNL A   1      40.978  30.901  31.950  1.00  0.00     0.074 A 
ATOM     54  C   UNL A   1      46.204  27.563  30.307  1.00  0.00     0.029 A 
ATOM     55  N   UNL A   1      45.440  29.598  30.623  1.00  0.00    -0.354 N 
ATOM     56  N   UNL A   1      41.747  30.325  32.834  1.00  0.00    -0.248 NA
ATOM     57  C   UNL A   1      41.677  31.641  30.910  1.00  0.00     0.031 C 
ATOM     58  C   UNL A   1      45.682  27.679  31.628  1.00  0.00     0.029 A 
ATOM     59  C   UNL A   1      44.981  28.883  31.701  1.00  0.00     0.049 A 
ATOM     60  H   UNL A   1      45.523  30.578  30.563  1.00  0.00     0.167 HD
ATOM     61  C   UNL A   1      43.005  30.289  32.248  1.00  0.00     0.074 A 
ATOM     62  C   UNL A   1      42.921  31.198  31.111  1.00  0.00     0.031 C 
ATOM     63  C   UNL A   1      43.913  29.321  32.573  1.00  0.00     0.037 A 
BRANCH  50  64
ATOM     64  C   UNL A   1      45.803  30.169  27.521  1.00  0.00     0.058 A 
ATOM     65  C   UNL A   1      47.168  30.316  27.206  1.00  0.00     0.135 A 
ATOM     66  C   UNL A   1      44.999  31.313  27.312  1.00  0.00     0.135 A 
ATOM     67  F   UNL A   1      48.024  29.300  27.387  1.00  0.00    -0.206 F 
ATOM     68  C   UNL A   1      47.702  31.530  26.771  1.00  0.00     0.059 A 
ATOM     69  C   UNL A   1      45.499  32.512  26.822  1.00  0.00     0.059 A 
ATOM     70  F   UNL A   1      43.708  31.353  27.669  1.00  0.00    -0.206 F 
ATOM     71  C   UNL A   1      46.860  32.627  26.599  1.00  0.00     0.060 A 
BRANCH  71  72
ATOM     72  S   UNL A   1      47.560  34.228  26.166  1.00  0.00     0.124 S 
ATOM     73  O   UNL A   1      48.928  33.857  25.820  1.00  0.00    -0.237 OA
ATOM     74  O   UNL A   1      46.708  34.642  25.056  1.00  0.00    -0.237 OA
ATOM     75  O   UNL A   1      47.406  35.004  27.392  1.00  0.00    -0.744 OA
ENDBRANCH  71  72
ENDBRANCH  50  64
BRANCH  51  76
ATOM     76  C   UNL A   1      38.467  31.543  31.635  1.00  0.00     0.058 A 
ATOM     77  C   UNL A   1      37.804  31.805  30.423  1.00  0.00     0.135 A 
ATOM     78  C   UNL A   1      37.868  32.076  32.796  1.00  0.00     0.135 A 
ATOM     79  F   UNL A   1      38.288  31.316  29.271  1.00  0.00    -0.206 F 
ATOM     80  C   UNL A   1      36.595  32.508  30.370  1.00  0.00     0.059 A 
ATOM     81  C   UNL A   1      36.676  32.795  32.766  1.00  0.00     0.059 A 
ATOM     82  F   UNL A   1      38.371  31.833  34.015  1.00  0.00    -0.206 F 
ATOM     83  C   UNL A   1      36.028  32.982  31.553  1.00  0.00     0.060 A 
BRANCH  83  84
ATOM     84  S   UNL A   1      34.386  33.736  31.512  1.00  0.00     0.124 S 
ATOM     85  O   UNL A   1      33.669  32.952  32.512  1.00  0.00    -0.237 OA
ATOM     86  O   UNL A   1      34.678  35.119  31.872  1.00  0.00    -0.237 OA
ATOM     87  O   UNL A   1      33.954  33.532  30.131  1.00  0.00    -0.744 OA
ENDBRANCH  83  84
ENDBRANCH  51  76
BRANCH  63  88
ATOM     88  C   UNL A   1      43.645  28.470  33.787  1.00  0.00     0.058 A 
ATOM     89  C   UNL A   1      43.910  28.879  35.106  1.00  0.00     0.135 A 
ATOM     90  C   UNL A   1      42.935  27.272  33.618  1.00  0.00     0.135 A 
ATOM     91  F   UNL A   1      44.487  30.061  35.359  1.00  0.00    -0.206 F 
ATOM     92  C   UNL A   1      43.515  28.115  36.205  1.00  0.00     0.059 A 
ATOM     93  C   UNL A   1      42.503  26.510  34.700  1.00  0.00     0.059 A 
ATOM     94  F   UNL A   1      42.596  26.860  32.385  1.00  0.00    -0.206 F 
ATOM     95  C   UNL A   1      42.804  26.935  35.993  1.00  0.00     0.060 A 
BRANCH  95  96
ATOM     96  S   UNL A   1      42.200  26.011  37.423  1.00  0.00     0.124 S 
ATOM     97  O   UNL A   1      42.203  24.640  36.926  1.00  0.00    -0.237 OA
ATOM     98  O   UNL A   1      43.200  26.318  38.442  1.00  0.00    -0.237 OA
ATOM     99  O   UNL A   1      40.879  26.584  37.667  1.00  0.00    -0.744 OA
ENDBRANCH  95  96
ENDBRANCH  63  88
ENDBRANCH  37  38
ENDBRANCH  30  32
ENDBRANCH  29  30
ENDBRANCH   1  29
TORSDOF 18
ENDMDL
MODEL 3
REMARK VINA RESULT:     -12.1      0.667      1.600
REMARK SMILES Cn1cc(-c2cc(C(F)(F)F)c3c(C4CC4)nn(CC(=O)OCCOC(=O)c4ccc(-c5c6nc(c(-c7c(F)cc(S(=O)(=O)[O-])cc7F)c7ccc([nH]7)c(-c7c(F)cc(S(=O)(=O)[O-])cc7F)c7nc(c(-c8c(F)cc(S(=O)(=O)[O-])cc8F)c8ccc5[nH]8)C=C7)C=C6)cc4)c3n2)cn1
REMARK SMILES IDX 24 1 23 2 22 3 20 4 21 5 19 6 18 7 5 8 6 9 95 10 7 11 94 12
REMARK SMILES IDX 12 13 13 14 17 15 4 16 1 17 2 18 3 19 97 20 96 21 8 22 9 23
REMARK SMILES IDX 10 24 11 25 14 26 15 27 16 28 25 29 26 30 27 31 28 32 29 33
REMARK SMILES IDX 93 34 30 35 92 36 31 37 32 38 33 39 86 40 34 41 91 42 85 43
REMARK SMILES IDX 87 44 35 45 90 46 84 47 83 48 36 50 70 51 49 52 69 53 50 54
REMARK SMILES IDX 53 55 68 56 88 57 51 58 52 59 67 61 89 62 54 63 37 64 38 65
REMARK SMILES IDX 47 66 39 67 40 68 46 69 48 70 41 71 42 72 43 73 44 74 45 75
REMARK SMILES IDX 71 76 72 77 81 78 73 79 74 80 80 81 82 82 75 83 76 84 77 85
REMARK SMILES IDX 78 86 79 87 55 88 56 89 65 90 57 91 58 92 64 93 66 94 59 95
REMARK SMILES IDX 60 96 61 97 62 98 63 99
REMARK H PARENT 87 49 53 60
REMARK Flexibility Score: inf
ROOT
ATOM      1  C   UNL A   1      32.565  30.450  26.817  1.00  0.00     0.275 C 
ENDROOT
BRANCH   1   2
ATOM      2  C   UNL A   1      31.977  29.132  27.300  1.00  0.00     0.274 C 
BRANCH   2   3
ATOM      3  O   UNL A   1      31.876  28.230  26.186  1.00  0.00    -0.461 OA
BRANCH   3   4
ATOM      4  C   UNL A   1      32.889  27.343  26.059  1.00  0.00     0.327 C 
ATOM      5  O   UNL A   1      33.913  27.562  25.411  1.00  0.00    -0.250 OA
BRANCH   4   6
ATOM      6  C   UNL A   1      32.638  26.012  26.676  1.00  0.00     0.269 C 
BRANCH   6   7
ATOM      7  N   UNL A   1      33.152  24.773  26.092  1.00  0.00    -0.236 N 
ATOM      8  C   UNL A   1      30.782  23.993  23.696  1.00  0.00     0.077 A 
ATOM      9  C   UNL A   1      31.259  22.791  23.190  1.00  0.00     0.043 A 
ATOM     10  N   UNL A   1      31.058  24.356  24.969  1.00  0.00    -0.228 NA
ATOM     11  C   UNL A   1      32.374  22.186  23.819  1.00  0.00     0.071 A 
ATOM     12  C   UNL A   1      32.331  24.035  25.276  1.00  0.00     0.159 A 
ATOM     13  C   UNL A   1      33.098  23.069  24.650  1.00  0.00     0.055 A 
ATOM     14  C   UNL A   1      34.421  23.523  24.915  1.00  0.00     0.076 A 
ATOM     15  N   UNL A   1      34.457  24.475  25.877  1.00  0.00    -0.174 NA
BRANCH   8  16
ATOM     16  C   UNL A   1      30.814  25.205  22.859  1.00  0.00     0.038 A 
ATOM     17  C   UNL A   1      33.590  27.239  22.099  1.00  0.00     0.173 C 
ATOM     18  N   UNL A   1      32.235  26.732  22.158  1.00  0.00    -0.275 N 
ATOM     19  C   UNL A   1      31.902  25.411  22.019  1.00  0.00     0.118 A 
ATOM     20  N   UNL A   1      31.254  27.458  22.732  1.00  0.00    -0.181 NA
ATOM     21  C   UNL A   1      30.437  26.521  23.231  1.00  0.00     0.145 A 
ENDBRANCH   8  16
BRANCH  11  22
ATOM     22  C   UNL A   1      32.540  20.691  23.805  1.00  0.00     0.417 C 
ATOM     23  F   UNL A   1      33.798  20.224  23.959  1.00  0.00    -0.166 F 
ATOM     24  F   UNL A   1      31.804  20.105  24.795  1.00  0.00    -0.166 F 
ATOM     25  F   UNL A   1      32.080  20.125  22.649  1.00  0.00    -0.166 F 
ENDBRANCH  11  22
BRANCH  14  26
ATOM     26  C   UNL A   1      35.691  23.302  24.069  1.00  0.00     0.041 C 
ATOM     27  C   UNL A   1      37.113  23.385  24.562  1.00  0.00     0.011 C 
ATOM     28  C   UNL A   1      36.512  22.044  24.351  1.00  0.00     0.011 C 
ENDBRANCH  14  26
ENDBRANCH   6   7
ENDBRANCH   4   6
ENDBRANCH   3   4
ENDBRANCH   2   3
ENDBRANCH   1   2
BRANCH   1  29
ATOM     29  O   UNL A   1      34.003  30.472  26.839  1.00  0.00    -0.458 OA
BRANCH  29  30
ATOM     30  C   UNL A   1      34.548  31.300  27.747  1.00  0.00     0.338 C 
ATOM     31  O   UNL A   1      34.153  32.421  28.062  1.00  0.00    -0.246 OA
BRANCH  30  32
ATOM     32  C   UNL A   1      35.814  30.775  28.257  1.00  0.00     0.060 A 
ATOM     33  C   UNL A   1      36.709  31.710  28.791  1.00  0.00     0.016 A 
ATOM     34  C   UNL A   1      36.189  29.444  28.041  1.00  0.00     0.016 A 
ATOM     35  C   UNL A   1      38.018  31.347  29.002  1.00  0.00     0.010 A 
ATOM     36  C   UNL A   1      37.501  29.076  28.264  1.00  0.00     0.010 A 
ATOM     37  C   UNL A   1      38.412  30.044  28.695  1.00  0.00    -0.014 A 
BRANCH  37  38
ATOM     38  C   UNL A   1      39.790  29.694  28.982  1.00  0.00     0.031 A 
ATOM     39  C   UNL A   1      40.093  29.590  30.436  1.00  0.00     0.074 A 
ATOM     40  C   UNL A   1      40.659  29.363  28.011  1.00  0.00     0.049 A 
ATOM     41  N   UNL A   1      40.983  30.221  31.129  1.00  0.00    -0.248 NA
ATOM     42  C   UNL A   1      39.179  28.761  31.245  1.00  0.00     0.031 C 
ATOM     43  C   UNL A   1      40.377  29.144  26.589  1.00  0.00     0.029 A 
ATOM     44  N   UNL A   1      41.966  29.014  28.125  1.00  0.00    -0.354 N 
ATOM     45  C   UNL A   1      40.871  29.721  32.425  1.00  0.00     0.074 A 
ATOM     46  C   UNL A   1      39.651  28.962  32.473  1.00  0.00     0.031 C 
ATOM     47  C   UNL A   1      41.409  28.468  26.039  1.00  0.00     0.029 A 
ATOM     48  C   UNL A   1      42.457  28.311  27.035  1.00  0.00     0.049 A 
ATOM     49  H   UNL A   1      42.514  29.238  28.912  1.00  0.00     0.167 HD
ATOM     50  C   UNL A   1      41.896  29.772  33.317  1.00  0.00     0.037 A 
ATOM     51  C   UNL A   1      43.585  27.560  27.016  1.00  0.00     0.037 A 
ATOM     52  C   UNL A   1      42.870  30.766  32.961  1.00  0.00     0.049 A 
ATOM     53  C   UNL A   1      44.423  27.990  28.169  1.00  0.00     0.074 A 
ATOM     54  C   UNL A   1      42.838  32.137  32.800  1.00  0.00     0.029 A 
ATOM     55  N   UNL A   1      44.037  30.346  32.372  1.00  0.00    -0.354 N 
ATOM     56  N   UNL A   1      44.982  29.165  28.278  1.00  0.00    -0.248 NA
ATOM     57  C   UNL A   1      44.296  27.247  29.415  1.00  0.00     0.031 C 
ATOM     58  C   UNL A   1      43.734  32.405  31.725  1.00  0.00     0.029 A 
ATOM     59  C   UNL A   1      44.282  31.189  31.317  1.00  0.00     0.049 A 
ATOM     60  H   UNL A   1      44.594  29.585  32.654  1.00  0.00     0.167 HD
ATOM     61  C   UNL A   1      44.909  29.474  29.629  1.00  0.00     0.074 A 
ATOM     62  C   UNL A   1      44.568  28.219  30.289  1.00  0.00     0.031 C 
ATOM     63  C   UNL A   1      44.863  30.770  30.060  1.00  0.00     0.037 A 
BRANCH  50  64
ATOM     64  C   UNL A   1      42.165  28.681  34.322  1.00  0.00     0.058 A 
ATOM     65  C   UNL A   1      42.120  28.967  35.700  1.00  0.00     0.135 A 
ATOM     66  C   UNL A   1      42.731  27.432  33.974  1.00  0.00     0.135 A 
ATOM     67  F   UNL A   1      41.623  30.133  36.139  1.00  0.00    -0.206 F 
ATOM     68  C   UNL A   1      42.654  28.102  36.656  1.00  0.00     0.059 A 
ATOM     69  C   UNL A   1      43.212  26.530  34.913  1.00  0.00     0.059 A 
ATOM     70  F   UNL A   1      42.937  27.073  32.700  1.00  0.00    -0.206 F 
ATOM     71  C   UNL A   1      43.213  26.892  36.248  1.00  0.00     0.060 A 
BRANCH  71  72
ATOM     72  S   UNL A   1      44.019  25.831  37.459  1.00  0.00     0.124 S 
ATOM     73  O   UNL A   1      45.416  25.944  37.053  1.00  0.00    -0.237 OA
ATOM     74  O   UNL A   1      43.663  26.480  38.716  1.00  0.00    -0.237 OA
ATOM     75  O   UNL A   1      43.398  24.531  37.232  1.00  0.00    -0.744 OA
ENDBRANCH  71  72
ENDBRANCH  50  64
BRANCH  51  76
ATOM     76  C   UNL A   1      43.793  26.265  26.313  1.00  0.00     0.058 A 
ATOM     77  C   UNL A   1      44.846  26.105  25.395  1.00  0.00     0.135 A 
ATOM     78  C   UNL A   1      43.141  25.082  26.719  1.00  0.00     0.135 A 
ATOM     79  F   UNL A   1      45.540  27.173  24.972  1.00  0.00    -0.206 F 
ATOM     80  C   UNL A   1      45.261  24.846  24.948  1.00  0.00     0.059 A 
ATOM     81  C   UNL A   1      43.523  23.820  26.273  1.00  0.00     0.059 A 
ATOM     82  F   UNL A   1      42.169  25.103  27.643  1.00  0.00    -0.206 F 
ATOM     83  C   UNL A   1      44.604  23.706  25.410  1.00  0.00     0.060 A 
BRANCH  83  84
ATOM     84  S   UNL A   1      45.243  22.073  24.974  1.00  0.00     0.124 S 
ATOM     85  O   UNL A   1      46.170  22.390  23.893  1.00  0.00    -0.237 OA
ATOM     86  O   UNL A   1      45.847  21.638  26.229  1.00  0.00    -0.237 OA
ATOM     87  O   UNL A   1      44.047  21.336  24.574  1.00  0.00    -0.744 OA
ENDBRANCH  83  84
ENDBRANCH  51  76
BRANCH  63  88
ATOM     88  C   UNL A   1      45.187  31.862  29.074  1.00  0.00     0.058 A 
ATOM     89  C   UNL A   1      46.492  32.299  28.788  1.00  0.00     0.135 A 
ATOM     90  C   UNL A   1      44.154  32.359  28.265  1.00  0.00     0.135 A 
ATOM     91  F   UNL A   1      47.547  31.793  29.440  1.00  0.00    -0.206 F 
ATOM     92  C   UNL A   1      46.755  33.213  27.766  1.00  0.00     0.059 A 
ATOM     93  C   UNL A   1      44.396  33.247  27.220  1.00  0.00     0.059 A 
ATOM     94  F   UNL A   1      42.894  31.932  28.447  1.00  0.00    -0.206 F 
ATOM     95  C   UNL A   1      45.700  33.676  26.981  1.00  0.00     0.060 A 
BRANCH  95  96
ATOM     96  S   UNL A   1      46.063  34.770  25.591  1.00  0.00     0.124 S 
ATOM     97  O   UNL A   1      45.088  34.336  24.596  1.00  0.00    -0.237 OA
ATOM     98  O   UNL A   1      45.836  36.093  26.163  1.00  0.00    -0.237 OA
ATOM     99  O   UNL A   1      47.456  34.468  25.272  1.00  0.00    -0.744 OA
ENDBRANCH  95  96
ENDBRANCH  63  88
ENDBRANCH  37  38
ENDBRANCH  30  32
ENDBRANCH  29  30
ENDBRANCH   1  29
TORSDOF 18
ENDMDL
