MODEL 1
REMARK VINA RESULT:     -13.8      0.000      0.000
REMARK SMILES Cc1cccc(-c2ncc(C[NH+]3CCC4(CC3)NC(=O)C[C@H]4C(=O)OCCOC(=O)c3ccc(-c4c5nc(c(-c6c(F)cc(S(=O)(=O)[O-])cc6F)c6ccc([nH]6)c(-c6c(F)cc(S(=O)(=O)[O-])cc6F)c6nc(c(-c7c(F)cc(S(=O)(=O)[O-])cc7F)c7ccc4[nH]7)C=C6)C=C5)cc3)cn2)c1
REMARK SMILES IDX 26 1 25 2 23 3 24 4 22 5 12 6 13 7 17 8 14 10 16 11 15 12
REMARK SMILES IDX 18 13 19 14 21 16 20 17 11 18 10 19 7 20 8 21 98 22 9 23
REMARK SMILES IDX 97 24 6 25 1 26 2 27 3 28 99 29 4 30 5 31 27 32 28 33 29 34
REMARK SMILES IDX 30 35 31 36 32 37 96 38 33 39 95 40 34 41 35 42 36 43 89 44
REMARK SMILES IDX 37 45 94 46 88 47 90 48 38 49 93 50 87 51 86 52 39 54 73 55
REMARK SMILES IDX 52 56 72 57 53 58 56 59 71 60 91 61 54 62 55 63 70 65 92 66
REMARK SMILES IDX 57 67 40 68 41 69 50 70 42 71 43 72 49 73 51 74 44 75 45 76
REMARK SMILES IDX 46 77 47 78 48 79 74 80 75 81 84 82 76 83 77 84 83 85 85 86
REMARK SMILES IDX 78 87 79 88 80 89 81 90 82 91 58 92 59 93 68 94 60 95 61 96
REMARK SMILES IDX 67 97 69 98 62 99 63 100 64 101 65 102 66 103
REMARK H PARENT 12 9 18 15 90 53 56 64
REMARK Flexibility Score: inf
ROOT
ATOM      1  C   UNL A   1      36.579  20.767  24.984  1.00  0.00     0.274 C 
ENDROOT
BRANCH   1   2
ATOM      2  O   UNL A   1      35.176  20.429  24.633  1.00  0.00    -0.462 OA
BRANCH   2   3
ATOM      3  C   UNL A   1      34.266  20.921  25.477  1.00  0.00     0.311 C 
ATOM      4  O   UNL A   1      34.656  21.077  26.624  1.00  0.00    -0.252 OA
BRANCH   3   5
ATOM      5  C   UNL A   1      32.783  21.220  25.082  1.00  0.00     0.134 C 
ATOM      6  N   UNL A   1      33.209  25.139  26.179  1.00  0.00    -0.331 N 
ATOM      7  C   UNL A   1      31.813  24.853  25.821  1.00  0.00     0.264 C 
ATOM      8  C   UNL A   1      33.930  23.903  26.125  1.00  0.00     0.264 C 
ATOM      9  H   UNL A   1      33.048  25.574  27.087  1.00  0.00     0.348 HD
ATOM     10  C   UNL A   1      31.445  23.585  24.918  1.00  0.00     0.091 C 
ATOM     11  C   UNL A   1      33.841  23.417  24.654  1.00  0.00     0.091 C 
ATOM     12  C   UNL A   1      32.600  22.627  24.459  1.00  0.00     0.064 C 
ATOM     13  N   UNL A   1      32.416  22.317  23.055  1.00  0.00    -0.349 N 
ATOM     14  C   UNL A   1      32.153  20.998  22.800  1.00  0.00     0.221 C 
ATOM     15  H   UNL A   1      32.476  22.996  22.344  1.00  0.00     0.164 HD
ATOM     16  C   UNL A   1      32.102  20.271  24.104  1.00  0.00     0.117 C 
ATOM     17  O   UNL A   1      31.947  20.530  21.694  1.00  0.00    -0.275 OA
BRANCH   6  18
ATOM     18  C   UNL A   1      34.027  26.278  25.704  1.00  0.00     0.302 C 
BRANCH  18  19
ATOM     19  C   UNL A   1      33.354  27.307  24.788  1.00  0.00     0.043 A 
ATOM     20  C   UNL A   1      31.270  28.783  23.792  1.00  0.00     0.159 A 
ATOM     21  N   UNL A   1      31.987  29.301  24.815  1.00  0.00    -0.236 NA
ATOM     22  N   UNL A   1      31.636  27.685  23.101  1.00  0.00    -0.236 NA
ATOM     23  C   UNL A   1      33.032  28.561  25.269  1.00  0.00     0.124 A 
ATOM     24  C   UNL A   1      32.676  26.968  23.616  1.00  0.00     0.124 A 
BRANCH  20  25
ATOM     25  C   UNL A   1      29.977  29.433  23.473  1.00  0.00     0.019 A 
ATOM     26  C   UNL A   1      28.401  32.932  22.938  1.00  0.00     0.044 C 
ATOM     27  C   UNL A   1      28.592  31.439  23.013  1.00  0.00    -0.050 A 
ATOM     28  C   UNL A   1      27.533  30.611  22.637  1.00  0.00     0.003 A 
ATOM     29  C   UNL A   1      29.797  30.840  23.441  1.00  0.00     0.015 A 
ATOM     30  C   UNL A   1      27.668  29.227  22.707  1.00  0.00     0.001 A 
ATOM     31  C   UNL A   1      28.873  28.648  23.127  1.00  0.00     0.012 A 
ENDBRANCH  20  25
ENDBRANCH  18  19
ENDBRANCH   6  18
ENDBRANCH   3   5
ENDBRANCH   2   3
ENDBRANCH   1   2
BRANCH   1  32
ATOM     32  C   UNL A   1      37.287  22.185  24.689  1.00  0.00     0.275 C 
BRANCH  32  33
ATOM     33  O   UNL A   1      38.091  22.970  25.636  1.00  0.00    -0.458 OA
BRANCH  33  34
ATOM     34  C   UNL A   1      39.257  22.524  26.200  1.00  0.00     0.338 C 
ATOM     35  O   UNL A   1      39.840  21.502  25.857  1.00  0.00    -0.246 OA
BRANCH  34  36
ATOM     36  C   UNL A   1      39.718  23.502  27.213  1.00  0.00     0.060 A 
ATOM     37  C   UNL A   1      40.809  23.298  28.076  1.00  0.00     0.016 A 
ATOM     38  C   UNL A   1      39.255  24.779  26.972  1.00  0.00     0.016 A 
ATOM     39  C   UNL A   1      41.532  24.405  28.547  1.00  0.00     0.010 A 
ATOM     40  C   UNL A   1      40.145  25.793  27.114  1.00  0.00     0.010 A 
ATOM     41  C   UNL A   1      41.233  25.643  27.983  1.00  0.00    -0.014 A 
BRANCH  41  42
ATOM     42  C   UNL A   1      41.540  26.964  28.513  1.00  0.00     0.031 A 
ATOM     43  C   UNL A   1      40.462  27.942  28.779  1.00  0.00     0.074 A 
ATOM     44  C   UNL A   1      42.759  26.837  29.101  1.00  0.00     0.049 A 
ATOM     45  N   UNL A   1      40.489  29.198  28.473  1.00  0.00    -0.248 NA
ATOM     46  C   UNL A   1      39.162  27.543  29.351  1.00  0.00     0.031 C 
ATOM     47  C   UNL A   1      43.409  27.460  30.228  1.00  0.00     0.029 A 
ATOM     48  N   UNL A   1      43.700  25.859  28.733  1.00  0.00    -0.354 N 
ATOM     49  C   UNL A   1      39.462  29.773  29.216  1.00  0.00     0.074 A 
ATOM     50  C   UNL A   1      38.515  28.712  29.452  1.00  0.00     0.031 C 
ATOM     51  C   UNL A   1      44.722  27.120  30.207  1.00  0.00     0.029 A 
ATOM     52  C   UNL A   1      44.972  26.269  29.040  1.00  0.00     0.049 A 
ATOM     53  H   UNL A   1      43.475  24.999  28.311  1.00  0.00     0.167 HD
ATOM     54  C   UNL A   1      39.731  30.807  30.077  1.00  0.00     0.037 A 
ATOM     55  C   UNL A   1      45.717  26.518  27.923  1.00  0.00     0.037 A 
ATOM     56  C   UNL A   1      41.178  30.903  30.246  1.00  0.00     0.049 A 
ATOM     57  C   UNL A   1      45.687  28.010  27.718  1.00  0.00     0.074 A 
ATOM     58  C   UNL A   1      42.005  30.468  31.268  1.00  0.00     0.029 A 
ATOM     59  N   UNL A   1      41.994  31.175  29.161  1.00  0.00    -0.354 N 
ATOM     60  N   UNL A   1      44.674  28.783  28.020  1.00  0.00    -0.248 NA
ATOM     61  C   UNL A   1      46.886  28.749  27.359  1.00  0.00     0.031 C 
ATOM     62  C   UNL A   1      43.337  30.490  30.783  1.00  0.00     0.029 A 
ATOM     63  C   UNL A   1      43.306  30.852  29.446  1.00  0.00     0.049 A 
ATOM     64  H   UNL A   1      41.683  31.546  28.304  1.00  0.00     0.167 HD
ATOM     65  C   UNL A   1      45.102  30.081  28.035  1.00  0.00     0.074 A 
ATOM     66  C   UNL A   1      46.482  30.009  27.583  1.00  0.00     0.031 C 
ATOM     67  C   UNL A   1      44.350  31.131  28.481  1.00  0.00     0.037 A 
BRANCH  54  68
ATOM     68  C   UNL A   1      38.761  31.462  31.054  1.00  0.00     0.058 A 
ATOM     69  C   UNL A   1      38.122  32.683  30.730  1.00  0.00     0.135 A 
ATOM     70  C   UNL A   1      38.340  30.891  32.276  1.00  0.00     0.135 A 
ATOM     71  F   UNL A   1      38.351  33.314  29.570  1.00  0.00    -0.206 F 
ATOM     72  C   UNL A   1      37.195  33.313  31.560  1.00  0.00     0.059 A 
ATOM     73  C   UNL A   1      37.418  31.516  33.136  1.00  0.00     0.059 A 
ATOM     74  F   UNL A   1      38.778  29.683  32.662  1.00  0.00    -0.206 F 
ATOM     75  C   UNL A   1      36.848  32.729  32.766  1.00  0.00     0.060 A 
BRANCH  75  76
ATOM     76  S   UNL A   1      35.617  33.561  33.789  1.00  0.00     0.124 S 
ATOM     77  O   UNL A   1      35.954  33.078  35.125  1.00  0.00    -0.237 OA
ATOM     78  O   UNL A   1      35.906  34.969  33.536  1.00  0.00    -0.237 OA
ATOM     79  O   UNL A   1      34.346  33.079  33.257  1.00  0.00    -0.744 OA
ENDBRANCH  75  76
ENDBRANCH  54  68
BRANCH  55  80
ATOM     80  C   UNL A   1      45.563  25.431  26.867  1.00  0.00     0.058 A 
ATOM     81  C   UNL A   1      46.320  24.244  27.040  1.00  0.00     0.135 A 
ATOM     82  C   UNL A   1      44.533  25.360  25.913  1.00  0.00     0.135 A 
ATOM     83  F   UNL A   1      47.311  24.212  27.947  1.00  0.00    -0.206 F 
ATOM     84  C   UNL A   1      46.024  23.044  26.386  1.00  0.00     0.059 A 
ATOM     85  C   UNL A   1      44.232  24.167  25.222  1.00  0.00     0.059 A 
ATOM     86  F   UNL A   1      43.739  26.418  25.694  1.00  0.00    -0.206 F 
ATOM     87  C   UNL A   1      44.967  23.007  25.484  1.00  0.00     0.060 A 
BRANCH  87  88
ATOM     88  S   UNL A   1      44.459  21.396  24.809  1.00  0.00     0.124 S 
ATOM     89  O   UNL A   1      45.473  20.506  25.363  1.00  0.00    -0.237 OA
ATOM     90  O   UNL A   1      43.117  21.244  25.363  1.00  0.00    -0.237 OA
ATOM     91  O   UNL A   1      44.527  21.607  23.366  1.00  0.00    -0.744 OA
ENDBRANCH  87  88
ENDBRANCH  55  80
BRANCH  67  92
ATOM     92  C   UNL A   1      44.617  32.568  28.127  1.00  0.00     0.058 A 
ATOM     93  C   UNL A   1      45.283  33.447  28.993  1.00  0.00     0.135 A 
ATOM     94  C   UNL A   1      44.360  33.063  26.823  1.00  0.00     0.135 A 
ATOM     95  F   UNL A   1      45.733  33.054  30.192  1.00  0.00    -0.206 F 
ATOM     96  C   UNL A   1      45.554  34.761  28.644  1.00  0.00     0.059 A 
ATOM     97  C   UNL A   1      44.711  34.343  26.423  1.00  0.00     0.059 A 
ATOM     98  F   UNL A   1      43.778  32.313  25.875  1.00  0.00    -0.206 F 
ATOM     99  C   UNL A   1      45.260  35.201  27.359  1.00  0.00     0.060 A 
BRANCH  99 100
ATOM    100  S   UNL A   1      45.625  36.900  26.921  1.00  0.00     0.124 S 
ATOM    101  O   UNL A   1      46.477  36.711  25.750  1.00  0.00    -0.237 OA
ATOM    102  O   UNL A   1      44.299  37.451  26.657  1.00  0.00    -0.237 OA
ATOM    103  O   UNL A   1      46.290  37.421  28.110  1.00  0.00    -0.744 OA
ENDBRANCH  99 100
ENDBRANCH  67  92
ENDBRANCH  41  42
ENDBRANCH  34  36
ENDBRANCH  33  34
ENDBRANCH  32  33
ENDBRANCH   1  32
TORSDOF 17
ENDMDL
MODEL 2
REMARK VINA RESULT:     -13.8      1.595      2.638
REMARK SMILES Cc1cccc(-c2ncc(C[NH+]3CCC4(CC3)NC(=O)C[C@H]4C(=O)OCCOC(=O)c3ccc(-c4c5nc(c(-c6c(F)cc(S(=O)(=O)[O-])cc6F)c6ccc([nH]6)c(-c6c(F)cc(S(=O)(=O)[O-])cc6F)c6nc(c(-c7c(F)cc(S(=O)(=O)[O-])cc7F)c7ccc4[nH]7)C=C6)C=C5)cc3)cn2)c1
REMARK SMILES IDX 26 1 25 2 23 3 24 4 22 5 12 6 13 7 17 8 14 10 16 11 15 12
REMARK SMILES IDX 18 13 19 14 21 16 20 17 11 18 10 19 7 20 8 21 98 22 9 23
REMARK SMILES IDX 97 24 6 25 1 26 2 27 3 28 99 29 4 30 5 31 27 32 28 33 29 34
REMARK SMILES IDX 30 35 31 36 32 37 96 38 33 39 95 40 34 41 35 42 36 43 89 44
REMARK SMILES IDX 37 45 94 46 88 47 90 48 38 49 93 50 87 51 86 52 39 54 73 55
REMARK SMILES IDX 52 56 72 57 53 58 56 59 71 60 91 61 54 62 55 63 70 65 92 66
REMARK SMILES IDX 57 67 40 68 41 69 50 70 42 71 43 72 49 73 51 74 44 75 45 76
REMARK SMILES IDX 46 77 47 78 48 79 74 80 75 81 84 82 76 83 77 84 83 85 85 86
REMARK SMILES IDX 78 87 79 88 80 89 81 90 82 91 58 92 59 93 68 94 60 95 61 96
REMARK SMILES IDX 67 97 69 98 62 99 63 100 64 101 65 102 66 103
REMARK H PARENT 12 9 18 15 90 53 56 64
REMARK Flexibility Score: inf
ROOT
ATOM      1  C   UNL A   1      36.789  21.120  25.171  1.00  0.00     0.274 C 
ENDROOT
BRANCH   1   2
ATOM      2  O   UNL A   1      35.444  20.609  24.804  1.00  0.00    -0.462 OA
BRANCH   2   3
ATOM      3  C   UNL A   1      34.495  20.867  25.707  1.00  0.00     0.311 C 
ATOM      4  O   UNL A   1      34.904  21.239  26.796  1.00  0.00    -0.252 OA
BRANCH   3   5
ATOM      5  C   UNL A   1      32.967  20.653  25.452  1.00  0.00     0.134 C 
ATOM      6  N   UNL A   1      32.294  24.683  25.683  1.00  0.00    -0.331 N 
ATOM      7  C   UNL A   1      31.023  23.954  25.569  1.00  0.00     0.264 C 
ATOM      8  C   UNL A   1      33.341  23.711  25.786  1.00  0.00     0.264 C 
ATOM      9  H   UNL A   1      32.071  25.251  26.500  1.00  0.00     0.348 HD
ATOM     10  C   UNL A   1      30.987  22.463  24.991  1.00  0.00     0.091 C 
ATOM     11  C   UNL A   1      33.304  22.899  24.464  1.00  0.00     0.091 C 
ATOM     12  C   UNL A   1      32.340  21.777  24.589  1.00  0.00     0.064 C 
ATOM     13  N   UNL A   1      32.166  21.118  23.310  1.00  0.00    -0.349 N 
ATOM     14  C   UNL A   1      32.285  19.756  23.358  1.00  0.00     0.221 C 
ATOM     15  H   UNL A   1      31.978  21.609  22.476  1.00  0.00     0.164 HD
ATOM     16  C   UNL A   1      32.533  19.359  24.776  1.00  0.00     0.117 C 
ATOM     17  O   UNL A   1      32.156  19.011  22.402  1.00  0.00    -0.275 OA
BRANCH   6  18
ATOM     18  C   UNL A   1      32.710  25.863  24.891  1.00  0.00     0.302 C 
BRANCH  18  19
ATOM     19  C   UNL A   1      32.553  27.246  25.535  1.00  0.00     0.043 A 
ATOM     20  C   UNL A   1      33.411  29.568  26.711  1.00  0.00     0.159 A 
ATOM     21  N   UNL A   1      33.295  29.540  25.364  1.00  0.00    -0.236 NA
ATOM     22  N   UNL A   1      32.942  28.599  27.524  1.00  0.00    -0.236 NA
ATOM     23  C   UNL A   1      32.839  28.386  24.810  1.00  0.00     0.124 A 
ATOM     24  C   UNL A   1      32.520  27.454  26.914  1.00  0.00     0.124 A 
BRANCH  20  25
ATOM     25  C   UNL A   1      34.158  30.702  27.304  1.00  0.00     0.019 A 
ATOM     26  C   UNL A   1      33.630  34.288  28.673  1.00  0.00     0.044 C 
ATOM     27  C   UNL A   1      34.263  32.972  28.298  1.00  0.00    -0.050 A 
ATOM     28  C   UNL A   1      35.596  32.751  28.642  1.00  0.00     0.003 A 
ATOM     29  C   UNL A   1      33.562  31.950  27.620  1.00  0.00     0.015 A 
ATOM     30  C   UNL A   1      36.218  31.553  28.299  1.00  0.00     0.001 A 
ATOM     31  C   UNL A   1      35.509  30.546  27.632  1.00  0.00     0.012 A 
ENDBRANCH  20  25
ENDBRANCH  18  19
ENDBRANCH   6  18
ENDBRANCH   3   5
ENDBRANCH   2   3
ENDBRANCH   1   2
BRANCH   1  32
ATOM     32  C   UNL A   1      37.305  22.625  24.911  1.00  0.00     0.275 C 
BRANCH  32  33
ATOM     33  O   UNL A   1      38.182  23.409  25.794  1.00  0.00    -0.458 OA
BRANCH  33  34
ATOM     34  C   UNL A   1      39.290  22.899  26.417  1.00  0.00     0.338 C 
ATOM     35  O   UNL A   1      39.810  21.827  26.127  1.00  0.00    -0.246 OA
BRANCH  34  36
ATOM     36  C   UNL A   1      39.781  23.874  27.419  1.00  0.00     0.060 A 
ATOM     37  C   UNL A   1      40.924  23.685  28.217  1.00  0.00     0.016 A 
ATOM     38  C   UNL A   1      39.275  25.142  27.225  1.00  0.00     0.016 A 
ATOM     39  C   UNL A   1      41.644  24.804  28.665  1.00  0.00     0.010 A 
ATOM     40  C   UNL A   1      40.144  26.177  27.333  1.00  0.00     0.010 A 
ATOM     41  C   UNL A   1      41.283  26.042  28.139  1.00  0.00    -0.014 A 
BRANCH  41  42
ATOM     42  C   UNL A   1      41.586  27.362  28.673  1.00  0.00     0.031 A 
ATOM     43  C   UNL A   1      40.499  28.309  29.009  1.00  0.00     0.074 A 
ATOM     44  C   UNL A   1      42.837  27.257  29.194  1.00  0.00     0.049 A 
ATOM     45  N   UNL A   1      40.480  29.570  28.722  1.00  0.00    -0.248 NA
ATOM     46  C   UNL A   1      39.241  27.870  29.641  1.00  0.00     0.031 C 
ATOM     47  C   UNL A   1      43.529  27.880  30.295  1.00  0.00     0.029 A 
ATOM     48  N   UNL A   1      43.780  26.309  28.762  1.00  0.00    -0.354 N 
ATOM     49  C   UNL A   1      39.481  30.109  29.526  1.00  0.00     0.074 A 
ATOM     50  C   UNL A   1      38.572  29.021  29.794  1.00  0.00     0.031 C 
ATOM     51  C   UNL A   1      44.847  27.573  30.200  1.00  0.00     0.029 A 
ATOM     52  C   UNL A   1      45.056  26.745  29.009  1.00  0.00     0.049 A 
ATOM     53  H   UNL A   1      43.554  25.449  28.340  1.00  0.00     0.167 HD
ATOM     54  C   UNL A   1      39.769  31.136  30.387  1.00  0.00     0.037 A 
ATOM     55  C   UNL A   1      45.735  27.029  27.859  1.00  0.00     0.037 A 
ATOM     56  C   UNL A   1      41.220  31.266  30.483  1.00  0.00     0.049 A 
ATOM     57  C   UNL A   1      45.658  28.522  27.679  1.00  0.00     0.074 A 
ATOM     58  C   UNL A   1      42.109  30.837  31.454  1.00  0.00     0.029 A 
ATOM     59  N   UNL A   1      41.972  31.574  29.361  1.00  0.00    -0.354 N 
ATOM     60  N   UNL A   1      44.645  29.265  28.045  1.00  0.00    -0.248 NA
ATOM     61  C   UNL A   1      46.820  29.295  27.270  1.00  0.00     0.031 C 
ATOM     62  C   UNL A   1      43.413  30.899  30.901  1.00  0.00     0.029 A 
ATOM     63  C   UNL A   1      43.304  31.279  29.573  1.00  0.00     0.049 A 
ATOM     64  H   UNL A   1      41.607  31.949  28.527  1.00  0.00     0.167 HD
ATOM     65  C   UNL A   1      45.041  30.573  28.059  1.00  0.00     0.074 A 
ATOM     66  C   UNL A   1      46.397  30.542  27.534  1.00  0.00     0.031 C 
ATOM     67  C   UNL A   1      44.289  31.597  28.559  1.00  0.00     0.037 A 
BRANCH  54  68
ATOM     68  C   UNL A   1      38.836  31.753  31.424  1.00  0.00     0.058 A 
ATOM     69  C   UNL A   1      38.193  32.989  31.174  1.00  0.00     0.135 A 
ATOM     70  C   UNL A   1      38.454  31.133  32.634  1.00  0.00     0.135 A 
ATOM     71  F   UNL A   1      38.385  33.667  30.034  1.00  0.00    -0.206 F 
ATOM     72  C   UNL A   1      37.297  33.587  32.060  1.00  0.00     0.059 A 
ATOM     73  C   UNL A   1      37.565  31.724  33.551  1.00  0.00     0.059 A 
ATOM     74  F   UNL A   1      38.899  29.908  32.954  1.00  0.00    -0.206 F 
ATOM     75  C   UNL A   1      36.989  32.954  33.252  1.00  0.00     0.060 A 
BRANCH  75  76
ATOM     76  S   UNL A   1      35.798  33.747  34.351  1.00  0.00     0.124 S 
ATOM     77  O   UNL A   1      35.902  35.148  33.953  1.00  0.00    -0.237 OA
ATOM     78  O   UNL A   1      34.552  33.079  33.989  1.00  0.00    -0.237 OA
ATOM     79  O   UNL A   1      36.305  33.441  35.685  1.00  0.00    -0.744 OA
ENDBRANCH  75  76
ENDBRANCH  54  68
BRANCH  55  80
ATOM     80  C   UNL A   1      45.553  25.954  26.796  1.00  0.00     0.058 A 
ATOM     81  C   UNL A   1      46.315  24.765  26.934  1.00  0.00     0.135 A 
ATOM     82  C   UNL A   1      44.496  25.892  25.871  1.00  0.00     0.135 A 
ATOM     83  F   UNL A   1      47.332  24.724  27.812  1.00  0.00    -0.206 F 
ATOM     84  C   UNL A   1      46.002  23.572  26.275  1.00  0.00     0.059 A 
ATOM     85  C   UNL A   1      44.176  24.706  25.175  1.00  0.00     0.059 A 
ATOM     86  F   UNL A   1      43.694  26.951  25.687  1.00  0.00    -0.206 F 
ATOM     87  C   UNL A   1      44.919  23.544  25.403  1.00  0.00     0.060 A 
BRANCH  87  88
ATOM     88  S   UNL A   1      44.394  21.940  24.725  1.00  0.00     0.124 S 
ATOM     89  O   UNL A   1      43.027  21.837  25.224  1.00  0.00    -0.237 OA
ATOM     90  O   UNL A   1      44.523  22.161  23.287  1.00  0.00    -0.237 OA
ATOM     91  O   UNL A   1      45.351  21.006  25.310  1.00  0.00    -0.744 OA
ENDBRANCH  87  88
ENDBRANCH  55  80
BRANCH  67  92
ATOM     92  C   UNL A   1      44.503  33.045  28.214  1.00  0.00     0.058 A 
ATOM     93  C   UNL A   1      44.308  33.552  26.922  1.00  0.00     0.135 A 
ATOM     94  C   UNL A   1      44.747  34.012  29.224  1.00  0.00     0.135 A 
ATOM     95  F   UNL A   1      43.907  32.770  25.909  1.00  0.00    -0.206 F 
ATOM     96  C   UNL A   1      44.475  34.895  26.622  1.00  0.00     0.059 A 
ATOM     97  C   UNL A   1      44.822  35.370  28.961  1.00  0.00     0.059 A 
ATOM     98  F   UNL A   1      44.900  33.676  30.514  1.00  0.00    -0.206 F 
ATOM     99  C   UNL A   1      44.737  35.795  27.647  1.00  0.00     0.060 A 
BRANCH  99 100
ATOM    100  S   UNL A   1      44.941  37.529  27.244  1.00  0.00     0.124 S 
ATOM    101  O   UNL A   1      43.574  37.898  26.887  1.00  0.00    -0.237 OA
ATOM    102  O   UNL A   1      45.441  38.088  28.497  1.00  0.00    -0.237 OA
ATOM    103  O   UNL A   1      45.900  37.511  26.145  1.00  0.00    -0.744 OA
ENDBRANCH  99 100
ENDBRANCH  67  92
ENDBRANCH  41  42
ENDBRANCH  34  36
ENDBRANCH  33  34
ENDBRANCH  32  33
ENDBRANCH   1  32
TORSDOF 17
ENDMDL
MODEL 3
REMARK VINA RESULT:     -13.1      1.576      3.191
REMARK SMILES Cc1cccc(-c2ncc(C[NH+]3CCC4(CC3)NC(=O)C[C@H]4C(=O)OCCOC(=O)c3ccc(-c4c5nc(c(-c6c(F)cc(S(=O)(=O)[O-])cc6F)c6ccc([nH]6)c(-c6c(F)cc(S(=O)(=O)[O-])cc6F)c6nc(c(-c7c(F)cc(S(=O)(=O)[O-])cc7F)c7ccc4[nH]7)C=C6)C=C5)cc3)cn2)c1
REMARK SMILES IDX 26 1 25 2 23 3 24 4 22 5 12 6 13 7 17 8 14 10 16 11 15 12
REMARK SMILES IDX 18 13 19 14 21 16 20 17 11 18 10 19 7 20 8 21 98 22 9 23
REMARK SMILES IDX 97 24 6 25 1 26 2 27 3 28 99 29 4 30 5 31 27 32 28 33 29 34
REMARK SMILES IDX 30 35 31 36 32 37 96 38 33 39 95 40 34 41 35 42 36 43 89 44
REMARK SMILES IDX 37 45 94 46 88 47 90 48 38 49 93 50 87 51 86 52 39 54 73 55
REMARK SMILES IDX 52 56 72 57 53 58 56 59 71 60 91 61 54 62 55 63 70 65 92 66
REMARK SMILES IDX 57 67 40 68 41 69 50 70 42 71 43 72 49 73 51 74 44 75 45 76
REMARK SMILES IDX 46 77 47 78 48 79 74 80 75 81 84 82 76 83 77 84 83 85 85 86
REMARK SMILES IDX 78 87 79 88 80 89 81 90 82 91 58 92 59 93 68 94 60 95 61 96
REMARK SMILES IDX 67 97 69 98 62 99 63 100 64 101 65 102 66 103
REMARK H PARENT 12 9 18 15 90 53 56 64
REMARK Flexibility Score: inf
ROOT
ATOM      1  C   UNL A   1      35.125  22.912  26.367  1.00  0.00     0.274 C 
ENDROOT
BRANCH   1   2
ATOM      2  O   UNL A   1      34.345  24.165  26.201  1.00  0.00    -0.462 OA
BRANCH   2   3
ATOM      3  C   UNL A   1      33.051  23.972  25.935  1.00  0.00     0.311 C 
ATOM      4  O   UNL A   1      32.329  23.877  26.915  1.00  0.00    -0.252 OA
BRANCH   3   5
ATOM      5  C   UNL A   1      32.473  23.805  24.491  1.00  0.00     0.134 C 
ATOM      6  N   UNL A   1      31.186  27.690  24.481  1.00  0.00    -0.331 N 
ATOM      7  C   UNL A   1      30.725  26.992  23.273  1.00  0.00     0.264 C 
ATOM      8  C   UNL A   1      31.845  26.727  25.312  1.00  0.00     0.264 C 
ATOM      9  H   UNL A   1      30.292  28.071  24.787  1.00  0.00     0.348 HD
ATOM     10  C   UNL A   1      31.452  25.656  22.776  1.00  0.00     0.091 C 
ATOM     11  C   UNL A   1      33.058  26.212  24.493  1.00  0.00     0.091 C 
ATOM     12  C   UNL A   1      32.638  25.081  23.627  1.00  0.00     0.064 C 
ATOM     13  N   UNL A   1      33.715  24.706  22.732  1.00  0.00    -0.349 N 
ATOM     14  C   UNL A   1      33.987  23.365  22.711  1.00  0.00     0.221 C 
ATOM     15  H   UNL A   1      34.208  25.360  22.185  1.00  0.00     0.164 HD
ATOM     16  C   UNL A   1      33.028  22.679  23.629  1.00  0.00     0.117 C 
ATOM     17  O   UNL A   1      34.838  22.838  22.016  1.00  0.00    -0.275 OA
BRANCH   6  18
ATOM     18  C   UNL A   1      31.847  29.014  24.538  1.00  0.00     0.302 C 
BRANCH  18  19
ATOM     19  C   UNL A   1      32.450  29.453  25.878  1.00  0.00     0.043 A 
ATOM     20  C   UNL A   1      33.885  31.069  27.564  1.00  0.00     0.159 A 
ATOM     21  N   UNL A   1      32.564  31.315  27.416  1.00  0.00    -0.236 NA
ATOM     22  N   UNL A   1      34.499  29.962  27.096  1.00  0.00    -0.236 NA
ATOM     23  C   UNL A   1      31.872  30.481  26.597  1.00  0.00     0.124 A 
ATOM     24  C   UNL A   1      33.763  29.175  26.260  1.00  0.00     0.124 A 
BRANCH  20  25
ATOM     25  C   UNL A   1      34.701  32.117  28.221  1.00  0.00     0.019 A 
ATOM     26  C   UNL A   1      34.451  34.920  30.884  1.00  0.00     0.044 C 
ATOM     27  C   UNL A   1      34.992  33.955  29.861  1.00  0.00    -0.050 A 
ATOM     28  C   UNL A   1      36.364  33.954  29.606  1.00  0.00     0.003 A 
ATOM     29  C   UNL A   1      34.174  33.045  29.155  1.00  0.00     0.015 A 
ATOM     30  C   UNL A   1      36.899  33.085  28.658  1.00  0.00     0.001 A 
ATOM     31  C   UNL A   1      36.075  32.185  27.970  1.00  0.00     0.012 A 
ENDBRANCH  20  25
ENDBRANCH  18  19
ENDBRANCH   6  18
ENDBRANCH   3   5
ENDBRANCH   2   3
ENDBRANCH   1   2
BRANCH   1  32
ATOM     32  C   UNL A   1      36.508  22.581  25.607  1.00  0.00     0.275 C 
BRANCH  32  33
ATOM     33  O   UNL A   1      37.774  23.317  25.743  1.00  0.00    -0.458 OA
BRANCH  33  34
ATOM     34  C   UNL A   1      38.923  22.771  26.249  1.00  0.00     0.338 C 
ATOM     35  O   UNL A   1      39.421  21.725  25.850  1.00  0.00    -0.246 OA
BRANCH  34  36
ATOM     36  C   UNL A   1      39.484  23.676  27.279  1.00  0.00     0.060 A 
ATOM     37  C   UNL A   1      40.699  23.457  27.953  1.00  0.00     0.016 A 
ATOM     38  C   UNL A   1      38.935  24.941  27.235  1.00  0.00     0.016 A 
ATOM     39  C   UNL A   1      41.433  24.557  28.424  1.00  0.00     0.010 A 
ATOM     40  C   UNL A   1      39.789  25.988  27.350  1.00  0.00     0.010 A 
ATOM     41  C   UNL A   1      41.000  25.822  28.036  1.00  0.00    -0.014 A 
BRANCH  41  42
ATOM     42  C   UNL A   1      41.322  27.104  28.646  1.00  0.00     0.031 A 
ATOM     43  C   UNL A   1      40.258  28.089  28.944  1.00  0.00     0.074 A 
ATOM     44  C   UNL A   1      42.525  26.917  29.252  1.00  0.00     0.049 A 
ATOM     45  N   UNL A   1      40.319  29.359  28.710  1.00  0.00    -0.248 NA
ATOM     46  C   UNL A   1      38.938  27.688  29.464  1.00  0.00     0.031 C 
ATOM     47  C   UNL A   1      43.162  27.461  30.426  1.00  0.00     0.029 A 
ATOM     48  N   UNL A   1      43.453  25.941  28.849  1.00  0.00    -0.354 N 
ATOM     49  C   UNL A   1      39.288  29.915  29.463  1.00  0.00     0.074 A 
ATOM     50  C   UNL A   1      38.314  28.863  29.618  1.00  0.00     0.031 C 
ATOM     51  C   UNL A   1      44.467  27.094  30.413  1.00  0.00     0.029 A 
ATOM     52  C   UNL A   1      44.726  26.304  29.206  1.00  0.00     0.049 A 
ATOM     53  H   UNL A   1      43.220  25.110  28.375  1.00  0.00     0.167 HD
ATOM     54  C   UNL A   1      39.559  30.892  30.386  1.00  0.00     0.037 A 
ATOM     55  C   UNL A   1      45.501  26.599  28.121  1.00  0.00     0.037 A 
ATOM     56  C   UNL A   1      41.003  30.946  30.591  1.00  0.00     0.049 A 
ATOM     57  C   UNL A   1      45.506  28.101  28.001  1.00  0.00     0.074 A 
ATOM     58  C   UNL A   1      41.798  30.436  31.605  1.00  0.00     0.029 A 
ATOM     59  N   UNL A   1      41.850  31.261  29.541  1.00  0.00    -0.354 N 
ATOM     60  N   UNL A   1      44.504  28.877  28.324  1.00  0.00    -0.248 NA
ATOM     61  C   UNL A   1      46.729  28.831  27.710  1.00  0.00     0.031 C 
ATOM     62  C   UNL A   1      43.140  30.455  31.151  1.00  0.00     0.029 A 
ATOM     63  C   UNL A   1      43.147  30.893  29.836  1.00  0.00     0.049 A 
ATOM     64  H   UNL A   1      41.566  31.686  28.700  1.00  0.00     0.167 HD
ATOM     65  C   UNL A   1      44.958  30.163  28.422  1.00  0.00     0.074 A 
ATOM     66  C   UNL A   1      46.346  30.086  27.996  1.00  0.00     0.031 C 
ATOM     67  C   UNL A   1      44.219  31.202  28.910  1.00  0.00     0.037 A 
BRANCH  54  68
ATOM     68  C   UNL A   1      38.582  31.513  31.378  1.00  0.00     0.058 A 
ATOM     69  C   UNL A   1      38.895  32.724  32.042  1.00  0.00     0.135 A 
ATOM     70  C   UNL A   1      37.283  31.024  31.642  1.00  0.00     0.135 A 
ATOM     71  F   UNL A   1      40.056  33.360  31.838  1.00  0.00    -0.206 F 
ATOM     72  C   UNL A   1      38.030  33.365  32.928  1.00  0.00     0.059 A 
ATOM     73  C   UNL A   1      36.399  31.645  32.544  1.00  0.00     0.059 A 
ATOM     74  F   UNL A   1      36.807  29.945  31.002  1.00  0.00    -0.206 F 
ATOM     75  C   UNL A   1      36.783  32.820  33.181  1.00  0.00     0.060 A 
BRANCH  75  76
ATOM     76  S   UNL A   1      35.683  33.704  34.306  1.00  0.00     0.124 S 
ATOM     77  O   UNL A   1      35.910  35.094  33.924  1.00  0.00    -0.237 OA
ATOM     78  O   UNL A   1      34.377  33.158  33.954  1.00  0.00    -0.237 OA
ATOM     79  O   UNL A   1      36.178  33.336  35.630  1.00  0.00    -0.744 OA
ENDBRANCH  75  76
ENDBRANCH  54  68
BRANCH  55  80
ATOM     80  C   UNL A   1      45.348  25.577  27.002  1.00  0.00     0.058 A 
ATOM     81  C   UNL A   1      46.080  24.368  27.121  1.00  0.00     0.135 A 
ATOM     82  C   UNL A   1      44.336  25.580  26.027  1.00  0.00     0.135 A 
ATOM     83  F   UNL A   1      47.053  24.265  28.043  1.00  0.00    -0.206 F 
ATOM     84  C   UNL A   1      45.775  23.213  26.394  1.00  0.00     0.059 A 
ATOM     85  C   UNL A   1      44.027  24.434  25.263  1.00  0.00     0.059 A 
ATOM     86  F   UNL A   1      43.565  26.663  25.854  1.00  0.00    -0.206 F 
ATOM     87  C   UNL A   1      44.735  23.247  25.472  1.00  0.00     0.060 A 
BRANCH  87  88
ATOM     88  S   UNL A   1      44.212  21.687  24.697  1.00  0.00     0.124 S 
ATOM     89  O   UNL A   1      44.289  22.017  23.278  1.00  0.00    -0.237 OA
ATOM     90  O   UNL A   1      45.223  20.752  25.182  1.00  0.00    -0.237 OA
ATOM     91  O   UNL A   1      42.865  21.492  25.226  1.00  0.00    -0.744 OA
ENDBRANCH  87  88
ENDBRANCH  55  80
BRANCH  67  92
ATOM     92  C   UNL A   1      44.524  32.651  28.645  1.00  0.00     0.058 A 
ATOM     93  C   UNL A   1      45.069  33.499  29.619  1.00  0.00     0.135 A 
ATOM     94  C   UNL A   1      44.436  33.191  27.336  1.00  0.00     0.135 A 
ATOM     95  F   UNL A   1      45.361  33.064  30.853  1.00  0.00    -0.206 F 
ATOM     96  C   UNL A   1      45.378  34.824  29.354  1.00  0.00     0.059 A 
ATOM     97  C   UNL A   1      44.831  34.484  27.030  1.00  0.00     0.059 A 
ATOM     98  F   UNL A   1      43.984  32.476  26.295  1.00  0.00    -0.206 F 
ATOM     99  C   UNL A   1      45.251  35.309  28.059  1.00  0.00     0.060 A 
BRANCH  99 100
ATOM    100  S   UNL A   1      45.663  37.022  27.731  1.00  0.00     0.124 S 
ATOM    101  O   UNL A   1      46.147  36.937  26.356  1.00  0.00    -0.237 OA
ATOM    102  O   UNL A   1      44.380  37.696  27.910  1.00  0.00    -0.237 OA
ATOM    103  O   UNL A   1      46.672  37.326  28.740  1.00  0.00    -0.744 OA
ENDBRANCH  99 100
ENDBRANCH  67  92
ENDBRANCH  41  42
ENDBRANCH  34  36
ENDBRANCH  33  34
ENDBRANCH  32  33
ENDBRANCH   1  32
TORSDOF 17
ENDMDL
