MODEL 1
REMARK VINA RESULT:      -9.9      0.000      0.000
REMARK SMILES COC[C@@H](C)N(C)c1nc(C(C)C)c(C(=O)OCCOC(=O)c2ccc(-c3c4nc(c(-c5c(F)cc(S(=O)(=O)[O-])cc5F)c5ccc([nH]5)c(-c5c(F)cc(S(=O)(=O)[O-])cc5F)c5nc(c(-c6c(F)cc(S(=O)(=O)[O-])cc6F)c6ccc3[nH]6)C=C5)C=C4)cc2)s1
REMARK SMILES IDX 18 1 17 2 15 3 16 4 14 5 8 6 9 7 89 8 10 9 6 10 7 11 4 12
REMARK SMILES IDX 5 13 3 14 2 15 1 16 11 17 12 18 13 19 19 20 20 21 21 22
REMARK SMILES IDX 22 23 23 24 24 25 88 26 25 27 87 28 26 29 27 30 28 31 81 32
REMARK SMILES IDX 29 33 86 34 80 35 82 36 30 37 85 38 79 39 78 40 31 42 65 43
REMARK SMILES IDX 44 44 64 45 45 46 48 47 63 48 83 49 46 50 47 51 62 53 84 54
REMARK SMILES IDX 49 55 32 56 33 57 42 58 34 59 35 60 41 61 43 62 36 63 37 64
REMARK SMILES IDX 38 65 39 66 40 67 66 68 67 69 76 70 68 71 69 72 75 73 77 74
REMARK SMILES IDX 70 75 71 76 72 77 73 78 74 79 50 80 51 81 60 82 52 83 53 84
REMARK SMILES IDX 59 85 61 86 54 87 55 88 56 89 57 90 58 91
REMARK H PARENT 82 41 48 52
REMARK Flexibility Score: inf
ROOT
ATOM      1  C   UNL A   1      37.844  22.105  25.351  1.00  0.00     0.275 C 
ENDROOT
BRANCH   1   2
ATOM      2  O   UNL A   1      37.003  23.253  25.121  1.00  0.00    -0.458 OA
BRANCH   2   3
ATOM      3  C   UNL A   1      36.239  23.267  23.996  1.00  0.00     0.350 C 
ATOM      4  O   UNL A   1      36.677  23.017  22.875  1.00  0.00    -0.245 OA
BRANCH   3   5
ATOM      5  C   UNL A   1      34.854  23.536  24.318  1.00  0.00     0.137 A 
ATOM      6  C   UNL A   1      32.733  24.711  24.697  1.00  0.00     0.186 A 
ATOM      7  N   UNL A   1      32.559  23.410  24.751  1.00  0.00    -0.224 NA
ATOM      8  S   UNL A   1      34.378  25.171  24.555  1.00  0.00    -0.089 S 
ATOM      9  C   UNL A   1      33.752  22.720  24.529  1.00  0.00     0.071 A 
BRANCH   6  10
ATOM     10  N   UNL A   1      31.743  25.627  24.887  1.00  0.00    -0.346 N 
ATOM     11  C   UNL A   1      30.469  25.455  24.201  1.00  0.00     0.146 C 
BRANCH  10  12
ATOM     12  C   UNL A   1      32.106  26.982  25.343  1.00  0.00     0.107 C 
ATOM     13  C   UNL A   1      31.416  27.289  26.676  1.00  0.00     0.033 C 
BRANCH  12  14
ATOM     14  C   UNL A   1      31.836  28.030  24.239  1.00  0.00     0.184 C 
BRANCH  14  15
ATOM     15  O   UNL A   1      32.877  29.003  24.092  1.00  0.00    -0.383 OA
ATOM     16  C   UNL A   1      33.778  28.717  23.031  1.00  0.00     0.194 C 
ENDBRANCH  14  15
ENDBRANCH  12  14
ENDBRANCH  10  12
ENDBRANCH   6  10
BRANCH   9  17
ATOM     17  C   UNL A   1      33.673  21.218  24.622  1.00  0.00     0.034 C 
ATOM     18  C   UNL A   1      33.551  20.712  26.058  1.00  0.00     0.014 C 
ATOM     19  C   UNL A   1      32.610  20.624  23.693  1.00  0.00     0.014 C 
ENDBRANCH   9  17
ENDBRANCH   3   5
ENDBRANCH   2   3
ENDBRANCH   1   2
BRANCH   1  20
ATOM     20  C   UNL A   1      39.047  22.476  26.222  1.00  0.00     0.275 C 
BRANCH  20  21
ATOM     21  O   UNL A   1      39.264  23.898  26.220  1.00  0.00    -0.458 OA
BRANCH  21  22
ATOM     22  C   UNL A   1      40.423  24.292  26.793  1.00  0.00     0.338 C 
ATOM     23  O   UNL A   1      41.549  23.917  26.515  1.00  0.00    -0.246 OA
BRANCH  22  24
ATOM     24  C   UNL A   1      40.162  25.415  27.703  1.00  0.00     0.060 A 
ATOM     25  C   UNL A   1      40.999  26.517  27.583  1.00  0.00     0.016 A 
ATOM     26  C   UNL A   1      39.219  25.360  28.721  1.00  0.00     0.016 A 
ATOM     27  C   UNL A   1      40.982  27.536  28.519  1.00  0.00     0.010 A 
ATOM     28  C   UNL A   1      39.141  26.428  29.626  1.00  0.00     0.010 A 
ATOM     29  C   UNL A   1      40.044  27.508  29.552  1.00  0.00    -0.014 A 
BRANCH  29  30
ATOM     30  C   UNL A   1      40.057  28.583  30.576  1.00  0.00     0.031 A 
ATOM     31  C   UNL A   1      41.068  28.538  31.687  1.00  0.00     0.074 A 
ATOM     32  C   UNL A   1      39.193  29.613  30.487  1.00  0.00     0.049 A 
ATOM     33  N   UNL A   1      41.169  29.297  32.748  1.00  0.00    -0.248 NA
ATOM     34  C   UNL A   1      42.097  27.492  31.597  1.00  0.00     0.031 C 
ATOM     35  C   UNL A   1      38.220  29.812  29.410  1.00  0.00     0.029 A 
ATOM     36  N   UNL A   1      38.999  30.693  31.308  1.00  0.00    -0.354 N 
ATOM     37  C   UNL A   1      42.237  28.787  33.477  1.00  0.00     0.074 A 
ATOM     38  C   UNL A   1      42.739  27.644  32.746  1.00  0.00     0.031 C 
ATOM     39  C   UNL A   1      37.556  30.957  29.621  1.00  0.00     0.029 A 
ATOM     40  C   UNL A   1      37.991  31.529  30.889  1.00  0.00     0.049 A 
ATOM     41  H   UNL A   1      39.530  30.855  32.122  1.00  0.00     0.167 HD
ATOM     42  C   UNL A   1      42.747  29.235  34.651  1.00  0.00     0.037 A 
ATOM     43  C   UNL A   1      37.451  32.613  31.478  1.00  0.00     0.037 A 
ATOM     44  C   UNL A   1      42.246  30.391  35.349  1.00  0.00     0.049 A 
ATOM     45  C   UNL A   1      37.979  33.046  32.817  1.00  0.00     0.074 A 
ATOM     46  C   UNL A   1      42.690  30.938  36.540  1.00  0.00     0.029 A 
ATOM     47  N   UNL A   1      41.183  31.177  34.921  1.00  0.00    -0.354 N 
ATOM     48  N   UNL A   1      38.961  32.534  33.520  1.00  0.00    -0.248 NA
ATOM     49  C   UNL A   1      37.317  34.193  33.450  1.00  0.00     0.031 C 
ATOM     50  C   UNL A   1      41.860  32.019  36.860  1.00  0.00     0.029 A 
ATOM     51  C   UNL A   1      40.939  32.188  35.837  1.00  0.00     0.049 A 
ATOM     52  H   UNL A   1      40.677  31.036  34.089  1.00  0.00     0.167 HD
ATOM     53  C   UNL A   1      39.056  33.315  34.666  1.00  0.00     0.074 A 
ATOM     54  C   UNL A   1      38.033  34.336  34.557  1.00  0.00     0.031 C 
ATOM     55  C   UNL A   1      39.915  33.198  35.710  1.00  0.00     0.037 A 
BRANCH  42  56
ATOM     56  C   UNL A   1      43.859  28.428  35.271  1.00  0.00     0.058 A 
ATOM     57  C   UNL A   1      43.617  27.393  36.190  1.00  0.00     0.135 A 
ATOM     58  C   UNL A   1      45.198  28.722  34.961  1.00  0.00     0.135 A 
ATOM     59  F   UNL A   1      42.359  27.076  36.535  1.00  0.00    -0.206 F 
ATOM     60  C   UNL A   1      44.661  26.725  36.826  1.00  0.00     0.059 A 
ATOM     61  C   UNL A   1      46.256  28.042  35.557  1.00  0.00     0.059 A 
ATOM     62  F   UNL A   1      45.492  29.696  34.087  1.00  0.00    -0.206 F 
ATOM     63  C   UNL A   1      45.977  27.064  36.510  1.00  0.00     0.060 A 
BRANCH  63  64
ATOM     64  S   UNL A   1      47.320  26.230  37.382  1.00  0.00     0.124 S 
ATOM     65  O   UNL A   1      47.977  25.519  36.289  1.00  0.00    -0.237 OA
ATOM     66  O   UNL A   1      48.066  27.347  37.950  1.00  0.00    -0.237 OA
ATOM     67  O   UNL A   1      46.626  25.386  38.351  1.00  0.00    -0.744 OA
ENDBRANCH  63  64
ENDBRANCH  42  56
BRANCH  43  68
ATOM     68  C   UNL A   1      36.347  33.347  30.803  1.00  0.00     0.058 A 
ATOM     69  C   UNL A   1      35.036  33.279  31.293  1.00  0.00     0.135 A 
ATOM     70  C   UNL A   1      36.587  34.174  29.693  1.00  0.00     0.135 A 
ATOM     71  F   UNL A   1      34.753  32.494  32.345  1.00  0.00    -0.206 F 
ATOM     72  C   UNL A   1      34.002  34.007  30.715  1.00  0.00     0.059 A 
ATOM     73  C   UNL A   1      35.576  34.935  29.114  1.00  0.00     0.059 A 
ATOM     74  F   UNL A   1      37.828  34.283  29.190  1.00  0.00    -0.206 F 
ATOM     75  C   UNL A   1      34.286  34.843  29.632  1.00  0.00     0.060 A 
BRANCH  75  76
ATOM     76  S   UNL A   1      32.951  35.848  28.944  1.00  0.00     0.124 S 
ATOM     77  O   UNL A   1      32.295  34.898  28.054  1.00  0.00    -0.237 OA
ATOM     78  O   UNL A   1      32.204  36.221  30.142  1.00  0.00    -0.237 OA
ATOM     79  O   UNL A   1      33.658  36.943  28.287  1.00  0.00    -0.744 OA
ENDBRANCH  75  76
ENDBRANCH  43  68
BRANCH  55  80
ATOM     80  C   UNL A   1      39.815  34.230  36.801  1.00  0.00     0.058 A 
ATOM     81  C   UNL A   1      39.066  34.009  37.967  1.00  0.00     0.135 A 
ATOM     82  C   UNL A   1      40.521  35.440  36.694  1.00  0.00     0.135 A 
ATOM     83  F   UNL A   1      38.364  32.874  38.115  1.00  0.00    -0.206 F 
ATOM     84  C   UNL A   1      39.001  34.962  38.978  1.00  0.00     0.059 A 
ATOM     85  C   UNL A   1      40.496  36.392  37.707  1.00  0.00     0.059 A 
ATOM     86  F   UNL A   1      41.260  35.698  35.603  1.00  0.00    -0.206 F 
ATOM     87  C   UNL A   1      39.724  36.149  38.841  1.00  0.00     0.060 A 
BRANCH  87  88
ATOM     88  S   UNL A   1      39.660  37.361  40.177  1.00  0.00     0.124 S 
ATOM     89  O   UNL A   1      39.802  36.510  41.354  1.00  0.00    -0.237 OA
ATOM     90  O   UNL A   1      40.800  38.220  39.873  1.00  0.00    -0.237 OA
ATOM     91  O   UNL A   1      38.351  37.985  40.008  1.00  0.00    -0.744 OA
ENDBRANCH  87  88
ENDBRANCH  55  80
ENDBRANCH  29  30
ENDBRANCH  22  24
ENDBRANCH  21  22
ENDBRANCH  20  21
ENDBRANCH   1  20
TORSDOF 19
ENDMDL
MODEL 2
REMARK VINA RESULT:      -9.7      4.975      6.225
REMARK SMILES COC[C@@H](C)N(C)c1nc(C(C)C)c(C(=O)OCCOC(=O)c2ccc(-c3c4nc(c(-c5c(F)cc(S(=O)(=O)[O-])cc5F)c5ccc([nH]5)c(-c5c(F)cc(S(=O)(=O)[O-])cc5F)c5nc(c(-c6c(F)cc(S(=O)(=O)[O-])cc6F)c6ccc3[nH]6)C=C5)C=C4)cc2)s1
REMARK SMILES IDX 18 1 17 2 15 3 16 4 14 5 8 6 9 7 89 8 10 9 6 10 7 11 4 12
REMARK SMILES IDX 5 13 3 14 2 15 1 16 11 17 12 18 13 19 19 20 20 21 21 22
REMARK SMILES IDX 22 23 23 24 24 25 88 26 25 27 87 28 26 29 27 30 28 31 81 32
REMARK SMILES IDX 29 33 86 34 80 35 82 36 30 37 85 38 79 39 78 40 31 42 65 43
REMARK SMILES IDX 44 44 64 45 45 46 48 47 63 48 83 49 46 50 47 51 62 53 84 54
REMARK SMILES IDX 49 55 32 56 33 57 42 58 34 59 35 60 41 61 43 62 36 63 37 64
REMARK SMILES IDX 38 65 39 66 40 67 66 68 67 69 76 70 68 71 69 72 75 73 77 74
REMARK SMILES IDX 70 75 71 76 72 77 73 78 74 79 50 80 51 81 60 82 52 83 53 84
REMARK SMILES IDX 59 85 61 86 54 87 55 88 56 89 57 90 58 91
REMARK H PARENT 82 41 48 52
REMARK Flexibility Score: inf
ROOT
ATOM      1  C   UNL A   1      36.159  21.155  25.387  1.00  0.00     0.275 C 
ENDROOT
BRANCH   1   2
ATOM      2  O   UNL A   1      35.758  22.343  26.100  1.00  0.00    -0.458 OA
BRANCH   2   3
ATOM      3  C   UNL A   1      34.456  22.451  26.477  1.00  0.00     0.350 C 
ATOM      4  O   UNL A   1      34.024  22.037  27.551  1.00  0.00    -0.245 OA
BRANCH   3   5
ATOM      5  C   UNL A   1      33.692  23.176  25.484  1.00  0.00     0.137 A 
ATOM      6  C   UNL A   1      32.681  25.004  24.197  1.00  0.00     0.186 A 
ATOM      7  N   UNL A   1      32.479  23.851  23.602  1.00  0.00    -0.224 NA
ATOM      8  S   UNL A   1      33.418  24.854  25.738  1.00  0.00    -0.089 S 
ATOM      9  C   UNL A   1      33.054  22.796  24.313  1.00  0.00     0.071 A 
BRANCH   6  10
ATOM     10  N   UNL A   1      32.222  26.200  23.732  1.00  0.00    -0.346 N 
ATOM     11  C   UNL A   1      33.055  26.982  22.829  1.00  0.00     0.146 C 
BRANCH  10  12
ATOM     12  C   UNL A   1      31.177  26.906  24.496  1.00  0.00     0.107 C 
ATOM     13  C   UNL A   1      29.896  26.065  24.533  1.00  0.00     0.033 C 
BRANCH  12  14
ATOM     14  C   UNL A   1      30.971  28.341  23.960  1.00  0.00     0.184 C 
BRANCH  14  15
ATOM     15  O   UNL A   1      29.820  28.491  23.122  1.00  0.00    -0.383 OA
ATOM     16  C   UNL A   1      29.802  29.708  22.389  1.00  0.00     0.194 C 
ENDBRANCH  14  15
ENDBRANCH  12  14
ENDBRANCH  10  12
ENDBRANCH   6  10
BRANCH   9  17
ATOM     17  C   UNL A   1      32.836  21.419  23.741  1.00  0.00     0.034 C 
ATOM     18  C   UNL A   1      32.157  20.464  24.721  1.00  0.00     0.014 C 
ATOM     19  C   UNL A   1      32.150  21.450  22.372  1.00  0.00     0.014 C 
ENDBRANCH   9  17
ENDBRANCH   3   5
ENDBRANCH   2   3
ENDBRANCH   1   2
BRANCH   1  20
ATOM     20  C   UNL A   1      37.645  21.212  25.025  1.00  0.00     0.275 C 
BRANCH  20  21
ATOM     21  O   UNL A   1      38.266  22.384  25.581  1.00  0.00    -0.458 OA
BRANCH  21  22
ATOM     22  C   UNL A   1      39.283  22.131  26.435  1.00  0.00     0.338 C 
ATOM     23  O   UNL A   1      39.871  21.074  26.590  1.00  0.00    -0.246 OA
BRANCH  22  24
ATOM     24  C   UNL A   1      39.736  23.389  27.041  1.00  0.00     0.060 A 
ATOM     25  C   UNL A   1      39.224  24.560  26.497  1.00  0.00     0.016 A 
ATOM     26  C   UNL A   1      40.716  23.445  28.024  1.00  0.00     0.016 A 
ATOM     27  C   UNL A   1      39.737  25.797  26.845  1.00  0.00     0.010 A 
ATOM     28  C   UNL A   1      41.183  24.699  28.440  1.00  0.00     0.010 A 
ATOM     29  C   UNL A   1      40.721  25.884  27.831  1.00  0.00    -0.014 A 
BRANCH  29  30
ATOM     30  C   UNL A   1      41.296  27.209  28.171  1.00  0.00     0.031 A 
ATOM     31  C   UNL A   1      42.762  27.461  27.956  1.00  0.00     0.074 A 
ATOM     32  C   UNL A   1      40.499  28.194  28.633  1.00  0.00     0.049 A 
ATOM     33  N   UNL A   1      43.486  28.493  28.304  1.00  0.00    -0.248 NA
ATOM     34  C   UNL A   1      43.515  26.404  27.265  1.00  0.00     0.031 C 
ATOM     35  C   UNL A   1      39.048  28.099  28.806  1.00  0.00     0.029 A 
ATOM     36  N   UNL A   1      40.795  29.472  29.032  1.00  0.00    -0.354 N 
ATOM     37  C   UNL A   1      44.787  28.187  27.924  1.00  0.00     0.074 A 
ATOM     38  C   UNL A   1      44.755  26.865  27.335  1.00  0.00     0.031 C 
ATOM     39  C   UNL A   1      38.578  29.274  29.245  1.00  0.00     0.029 A 
ATOM     40  C   UNL A   1      39.700  30.178  29.469  1.00  0.00     0.049 A 
ATOM     41  H   UNL A   1      41.704  29.848  29.008  1.00  0.00     0.167 HD
ATOM     42  C   UNL A   1      45.905  28.942  28.059  1.00  0.00     0.037 A 
ATOM     43  C   UNL A   1      39.611  31.402  30.024  1.00  0.00     0.037 A 
ATOM     44  C   UNL A   1      45.911  30.265  28.628  1.00  0.00     0.049 A 
ATOM     45  C   UNL A   1      40.873  32.191  30.236  1.00  0.00     0.074 A 
ATOM     46  C   UNL A   1      46.981  31.123  28.807  1.00  0.00     0.029 A 
ATOM     47  N   UNL A   1      44.787  30.923  29.114  1.00  0.00    -0.354 N 
ATOM     48  N   UNL A   1      42.105  31.878  29.912  1.00  0.00    -0.248 NA
ATOM     49  C   UNL A   1      40.735  33.491  30.903  1.00  0.00     0.031 C 
ATOM     50  C   UNL A   1      46.515  32.274  29.453  1.00  0.00     0.029 A 
ATOM     51  C   UNL A   1      45.143  32.164  29.619  1.00  0.00     0.049 A 
ATOM     52  H   UNL A   1      43.873  30.561  29.103  1.00  0.00     0.167 HD
ATOM     53  C   UNL A   1      42.888  32.955  30.308  1.00  0.00     0.074 A 
ATOM     54  C   UNL A   1      41.987  33.930  30.890  1.00  0.00     0.031 C 
ATOM     55  C   UNL A   1      44.230  33.123  30.195  1.00  0.00     0.037 A 
BRANCH  42  56
ATOM     56  C   UNL A   1      47.213  28.319  27.640  1.00  0.00     0.058 A 
ATOM     57  C   UNL A   1      47.666  28.341  26.311  1.00  0.00     0.135 A 
ATOM     58  C   UNL A   1      48.012  27.656  28.589  1.00  0.00     0.135 A 
ATOM     59  F   UNL A   1      46.939  28.946  25.358  1.00  0.00    -0.206 F 
ATOM     60  C   UNL A   1      48.828  27.676  25.926  1.00  0.00     0.059 A 
ATOM     61  C   UNL A   1      49.195  27.017  28.232  1.00  0.00     0.059 A 
ATOM     62  F   UNL A   1      47.634  27.606  29.875  1.00  0.00    -0.206 F 
ATOM     63  C   UNL A   1      49.580  27.008  26.893  1.00  0.00     0.060 A 
BRANCH  63  64
ATOM     64  S   UNL A   1      51.053  26.103  26.373  1.00  0.00     0.124 S 
ATOM     65  O   UNL A   1      52.116  26.975  26.865  1.00  0.00    -0.237 OA
ATOM     66  O   UNL A   1      50.903  24.832  27.072  1.00  0.00    -0.237 OA
ATOM     67  O   UNL A   1      50.918  26.037  24.921  1.00  0.00    -0.744 OA
ENDBRANCH  63  64
ENDBRANCH  42  56
BRANCH  43  68
ATOM     68  C   UNL A   1      38.282  31.940  30.420  1.00  0.00     0.058 A 
ATOM     69  C   UNL A   1      37.724  31.624  31.665  1.00  0.00     0.135 A 
ATOM     70  C   UNL A   1      37.570  32.821  29.589  1.00  0.00     0.135 A 
ATOM     71  F   UNL A   1      38.359  30.778  32.491  1.00  0.00    -0.206 F 
ATOM     72  C   UNL A   1      36.512  32.166  32.080  1.00  0.00     0.059 A 
ATOM     73  C   UNL A   1      36.371  33.399  29.993  1.00  0.00     0.059 A 
ATOM     74  F   UNL A   1      38.066  33.163  28.389  1.00  0.00    -0.206 F 
ATOM     75  C   UNL A   1      35.848  33.064  31.240  1.00  0.00     0.060 A 
BRANCH  75  76
ATOM     76  S   UNL A   1      34.319  33.826  31.826  1.00  0.00     0.124 S 
ATOM     77  O   UNL A   1      34.829  34.932  32.628  1.00  0.00    -0.237 OA
ATOM     78  O   UNL A   1      33.664  34.193  30.574  1.00  0.00    -0.237 OA
ATOM     79  O   UNL A   1      33.671  32.751  32.572  1.00  0.00    -0.744 OA
ENDBRANCH  75  76
ENDBRANCH  43  68
BRANCH  55  80
ATOM     80  C   UNL A   1      44.802  34.431  30.672  1.00  0.00     0.058 A 
ATOM     81  C   UNL A   1      44.886  35.555  29.836  1.00  0.00     0.135 A 
ATOM     82  C   UNL A   1      45.230  34.569  32.002  1.00  0.00     0.135 A 
ATOM     83  F   UNL A   1      44.500  35.474  28.552  1.00  0.00    -0.206 F 
ATOM     84  C   UNL A   1      45.396  36.764  30.296  1.00  0.00     0.059 A 
ATOM     85  C   UNL A   1      45.714  35.778  32.492  1.00  0.00     0.059 A 
ATOM     86  F   UNL A   1      45.165  33.527  32.846  1.00  0.00    -0.206 F 
ATOM     87  C   UNL A   1      45.804  36.867  31.628  1.00  0.00     0.060 A 
BRANCH  87  88
ATOM     88  S   UNL A   1      46.430  38.453  32.221  1.00  0.00     0.124 S 
ATOM     89  O   UNL A   1      45.222  39.271  32.205  1.00  0.00    -0.237 OA
ATOM     90  O   UNL A   1      46.947  38.108  33.543  1.00  0.00    -0.237 OA
ATOM     91  O   UNL A   1      47.443  38.809  31.232  1.00  0.00    -0.744 OA
ENDBRANCH  87  88
ENDBRANCH  55  80
ENDBRANCH  29  30
ENDBRANCH  22  24
ENDBRANCH  21  22
ENDBRANCH  20  21
ENDBRANCH   1  20
TORSDOF 19
ENDMDL
MODEL 3
REMARK VINA RESULT:      -9.5      3.131      4.125
REMARK SMILES COC[C@@H](C)N(C)c1nc(C(C)C)c(C(=O)OCCOC(=O)c2ccc(-c3c4nc(c(-c5c(F)cc(S(=O)(=O)[O-])cc5F)c5ccc([nH]5)c(-c5c(F)cc(S(=O)(=O)[O-])cc5F)c5nc(c(-c6c(F)cc(S(=O)(=O)[O-])cc6F)c6ccc3[nH]6)C=C5)C=C4)cc2)s1
REMARK SMILES IDX 18 1 17 2 15 3 16 4 14 5 8 6 9 7 89 8 10 9 6 10 7 11 4 12
REMARK SMILES IDX 5 13 3 14 2 15 1 16 11 17 12 18 13 19 19 20 20 21 21 22
REMARK SMILES IDX 22 23 23 24 24 25 88 26 25 27 87 28 26 29 27 30 28 31 81 32
REMARK SMILES IDX 29 33 86 34 80 35 82 36 30 37 85 38 79 39 78 40 31 42 65 43
REMARK SMILES IDX 44 44 64 45 45 46 48 47 63 48 83 49 46 50 47 51 62 53 84 54
REMARK SMILES IDX 49 55 32 56 33 57 42 58 34 59 35 60 41 61 43 62 36 63 37 64
REMARK SMILES IDX 38 65 39 66 40 67 66 68 67 69 76 70 68 71 69 72 75 73 77 74
REMARK SMILES IDX 70 75 71 76 72 77 73 78 74 79 50 80 51 81 60 82 52 83 53 84
REMARK SMILES IDX 59 85 61 86 54 87 55 88 56 89 57 90 58 91
REMARK H PARENT 82 41 48 52
REMARK Flexibility Score: inf
ROOT
ATOM      1  C   UNL A   1      35.560  22.671  24.030  1.00  0.00     0.275 C 
ENDROOT
BRANCH   1   2
ATOM      2  O   UNL A   1      34.929  23.099  22.806  1.00  0.00    -0.458 OA
BRANCH   2   3
ATOM      3  C   UNL A   1      33.571  23.108  22.759  1.00  0.00     0.350 C 
ATOM      4  O   UNL A   1      32.905  22.242  22.195  1.00  0.00    -0.245 OA
BRANCH   3   5
ATOM      5  C   UNL A   1      33.037  24.217  23.520  1.00  0.00     0.137 A 
ATOM      6  C   UNL A   1      32.209  26.446  24.127  1.00  0.00     0.186 A 
ATOM      7  N   UNL A   1      32.011  25.596  25.107  1.00  0.00    -0.224 NA
ATOM      8  S   UNL A   1      33.120  25.789  22.831  1.00  0.00    -0.089 S 
ATOM      9  C   UNL A   1      32.466  24.316  24.781  1.00  0.00     0.071 A 
BRANCH   6  10
ATOM     10  N   UNL A   1      31.873  27.766  24.174  1.00  0.00    -0.346 N 
ATOM     11  C   UNL A   1      32.792  28.715  24.788  1.00  0.00     0.146 C 
BRANCH  10  12
ATOM     12  C   UNL A   1      30.451  28.141  24.080  1.00  0.00     0.107 C 
ATOM     13  C   UNL A   1      29.631  26.961  23.547  1.00  0.00     0.033 C 
BRANCH  12  14
ATOM     14  C   UNL A   1      30.272  29.446  23.270  1.00  0.00     0.184 C 
BRANCH  14  15
ATOM     15  O   UNL A   1      29.585  29.270  22.026  1.00  0.00    -0.383 OA
ATOM     16  C   UNL A   1      29.107  30.483  21.461  1.00  0.00     0.194 C 
ENDBRANCH  14  15
ENDBRANCH  12  14
ENDBRANCH  10  12
ENDBRANCH   6  10
BRANCH   9  17
ATOM     17  C   UNL A   1      32.333  23.274  25.861  1.00  0.00     0.034 C 
ATOM     18  C   UNL A   1      33.447  23.345  26.903  1.00  0.00     0.014 C 
ATOM     19  C   UNL A   1      30.936  23.248  26.487  1.00  0.00     0.014 C 
ENDBRANCH   9  17
ENDBRANCH   3   5
ENDBRANCH   2   3
ENDBRANCH   1   2
BRANCH   1  20
ATOM     20  C   UNL A   1      36.954  23.288  24.169  1.00  0.00     0.275 C 
BRANCH  20  21
ATOM     21  O   UNL A   1      37.209  23.679  25.530  1.00  0.00    -0.458 OA
BRANCH  21  22
ATOM     22  C   UNL A   1      38.364  23.203  26.046  1.00  0.00     0.338 C 
ATOM     23  O   UNL A   1      38.840  22.091  25.889  1.00  0.00    -0.246 OA
BRANCH  22  24
ATOM     24  C   UNL A   1      39.098  24.297  26.694  1.00  0.00     0.060 A 
ATOM     25  C   UNL A   1      38.886  24.464  28.056  1.00  0.00     0.016 A 
ATOM     26  C   UNL A   1      39.873  25.208  25.989  1.00  0.00     0.016 A 
ATOM     27  C   UNL A   1      39.356  25.583  28.723  1.00  0.00     0.010 A 
ATOM     28  C   UNL A   1      40.421  26.301  26.675  1.00  0.00     0.010 A 
ATOM     29  C   UNL A   1      40.139  26.514  28.040  1.00  0.00    -0.014 A 
BRANCH  29  30
ATOM     30  C   UNL A   1      40.607  27.731  28.750  1.00  0.00     0.031 A 
ATOM     31  C   UNL A   1      42.029  27.812  29.230  1.00  0.00     0.074 A 
ATOM     32  C   UNL A   1      39.771  28.774  28.927  1.00  0.00     0.049 A 
ATOM     33  N   UNL A   1      42.602  28.719  29.978  1.00  0.00    -0.248 NA
ATOM     34  C   UNL A   1      42.923  26.718  28.821  1.00  0.00     0.031 C 
ATOM     35  C   UNL A   1      38.394  28.850  28.435  1.00  0.00     0.029 A 
ATOM     36  N   UNL A   1      39.960  29.975  29.561  1.00  0.00    -0.354 N 
ATOM     37  C   UNL A   1      43.905  28.279  30.173  1.00  0.00     0.074 A 
ATOM     38  C   UNL A   1      44.033  27.015  29.480  1.00  0.00     0.031 C 
ATOM     39  C   UNL A   1      37.874  30.043  28.757  1.00  0.00     0.029 A 
ATOM     40  C   UNL A   1      38.847  30.782  29.554  1.00  0.00     0.049 A 
ATOM     41  H   UNL A   1      40.811  30.236  29.982  1.00  0.00     0.167 HD
ATOM     42  C   UNL A   1      44.902  28.877  30.871  1.00  0.00     0.037 A 
ATOM     43  C   UNL A   1      38.620  31.966  30.152  1.00  0.00     0.037 A 
ATOM     44  C   UNL A   1      44.760  30.148  31.535  1.00  0.00     0.049 A 
ATOM     45  C   UNL A   1      39.712  32.575  30.987  1.00  0.00     0.074 A 
ATOM     46  C   UNL A   1      45.703  30.851  32.263  1.00  0.00     0.029 A 
ATOM     47  N   UNL A   1      43.596  30.907  31.553  1.00  0.00    -0.354 N 
ATOM     48  N   UNL A   1      40.928  32.133  31.200  1.00  0.00    -0.248 NA
ATOM     49  C   UNL A   1      39.397  33.834  31.672  1.00  0.00     0.031 C 
ATOM     50  C   UNL A   1      45.093  32.005  32.769  1.00  0.00     0.029 A 
ATOM     51  C   UNL A   1      43.788  32.056  32.303  1.00  0.00     0.049 A 
ATOM     52  H   UNL A   1      42.757  30.663  31.100  1.00  0.00     0.167 HD
ATOM     53  C   UNL A   1      41.536  33.075  32.022  1.00  0.00     0.074 A 
ATOM     54  C   UNL A   1      40.553  34.112  32.260  1.00  0.00     0.031 C 
ATOM     55  C   UNL A   1      42.795  33.081  32.528  1.00  0.00     0.037 A 
BRANCH  42  56
ATOM     56  C   UNL A   1      46.203  28.125  30.998  1.00  0.00     0.058 A 
ATOM     57  C   UNL A   1      47.248  28.268  30.070  1.00  0.00     0.135 A 
ATOM     58  C   UNL A   1      46.390  27.218  32.055  1.00  0.00     0.135 A 
ATOM     59  F   UNL A   1      47.122  29.109  29.032  1.00  0.00    -0.206 F 
ATOM     60  C   UNL A   1      48.403  27.493  30.150  1.00  0.00     0.059 A 
ATOM     61  C   UNL A   1      47.551  26.461  32.174  1.00  0.00     0.059 A 
ATOM     62  F   UNL A   1      45.429  27.043  32.974  1.00  0.00    -0.206 F 
ATOM     63  C   UNL A   1      48.540  26.584  31.200  1.00  0.00     0.060 A 
BRANCH  63  64
ATOM     64  S   UNL A   1      50.016  25.546  31.260  1.00  0.00     0.124 S 
ATOM     65  O   UNL A   1      51.041  26.521  31.622  1.00  0.00    -0.237 OA
ATOM     66  O   UNL A   1      49.674  24.575  32.294  1.00  0.00    -0.237 OA
ATOM     67  O   UNL A   1      50.111  25.009  29.906  1.00  0.00    -0.744 OA
ENDBRANCH  63  64
ENDBRANCH  42  56
BRANCH  43  68
ATOM     68  C   UNL A   1      37.303  32.638  29.986  1.00  0.00     0.058 A 
ATOM     69  C   UNL A   1      36.266  32.420  30.903  1.00  0.00     0.135 A 
ATOM     70  C   UNL A   1      37.072  33.551  28.944  1.00  0.00     0.135 A 
ATOM     71  F   UNL A   1      36.433  31.548  31.909  1.00  0.00    -0.206 F 
ATOM     72  C   UNL A   1      35.049  33.085  30.800  1.00  0.00     0.059 A 
ATOM     73  C   UNL A   1      35.874  34.252  28.836  1.00  0.00     0.059 A 
ATOM     74  F   UNL A   1      38.036  33.804  28.044  1.00  0.00    -0.206 F 
ATOM     75  C   UNL A   1      34.868  34.010  29.769  1.00  0.00     0.060 A 
BRANCH  75  76
ATOM     76  S   UNL A   1      33.315  34.930  29.698  1.00  0.00     0.124 S 
ATOM     77  O   UNL A   1      32.884  34.890  31.090  1.00  0.00    -0.237 OA
ATOM     78  O   UNL A   1      33.755  36.231  29.203  1.00  0.00    -0.237 OA
ATOM     79  O   UNL A   1      32.505  34.153  28.764  1.00  0.00    -0.744 OA
ENDBRANCH  75  76
ENDBRANCH  43  68
BRANCH  55  80
ATOM     80  C   UNL A   1      43.198  34.271  33.357  1.00  0.00     0.058 A 
ATOM     81  C   UNL A   1      43.822  35.394  32.791  1.00  0.00     0.135 A 
ATOM     82  C   UNL A   1      42.911  34.302  34.731  1.00  0.00     0.135 A 
ATOM     83  F   UNL A   1      44.128  35.410  31.484  1.00  0.00    -0.206 F 
ATOM     84  C   UNL A   1      44.168  36.497  33.564  1.00  0.00     0.059 A 
ATOM     85  C   UNL A   1      43.220  35.408  35.516  1.00  0.00     0.059 A 
ATOM     86  F   UNL A   1      42.308  33.258  35.321  1.00  0.00    -0.206 F 
ATOM     87  C   UNL A   1      43.859  36.496  34.926  1.00  0.00     0.060 A 
BRANCH  87  88
ATOM     88  S   UNL A   1      44.281  37.950  35.909  1.00  0.00     0.124 S 
ATOM     89  O   UNL A   1      45.731  37.820  36.019  1.00  0.00    -0.237 OA
ATOM     90  O   UNL A   1      43.803  39.044  35.069  1.00  0.00    -0.237 OA
ATOM     91  O   UNL A   1      43.537  37.750  37.149  1.00  0.00    -0.744 OA
ENDBRANCH  87  88
ENDBRANCH  55  80
ENDBRANCH  29  30
ENDBRANCH  22  24
ENDBRANCH  21  22
ENDBRANCH  20  21
ENDBRANCH   1  20
TORSDOF 19
ENDMDL
