MODEL 1
REMARK VINA RESULT:     -11.5      0.000      0.000
REMARK SMILES C[C@@H](C(=O)OCCOC(=O)c1ccc(-c2c3nc(c(-c4c(F)cc(S(=O)(=O)[O-])cc4F)c4ccc([nH]4)c(-c4c(F)cc(S(=O)(=O)[O-])cc4F)c4nc(c(-c5c(F)cc(S(=O)(=O)[O-])cc5F)c5ccc2[nH]5)C=C4)C=C3)cc1)c1ccc(C[C@H]2CCC[C@H]2O)cc1
REMARK SMILES IDX 6 1 5 2 3 3 4 4 2 5 1 6 77 7 78 8 89 9 79 10 88 11 80 12
REMARK SMILES IDX 81 13 82 14 83 15 86 16 84 17 85 18 87 19 7 21 8 22 9 23
REMARK SMILES IDX 10 24 11 25 12 26 76 27 13 28 75 29 14 30 15 31 16 32 69 33
REMARK SMILES IDX 17 34 74 35 68 36 70 37 18 38 73 39 67 40 66 41 19 43 53 44
REMARK SMILES IDX 32 45 52 46 33 47 36 48 51 49 71 50 34 51 35 52 50 54 72 55
REMARK SMILES IDX 37 56 20 57 21 58 30 59 22 60 23 61 29 62 31 63 24 64 25 65
REMARK SMILES IDX 26 66 27 67 28 68 54 69 55 70 64 71 56 72 57 73 63 74 65 75
REMARK SMILES IDX 58 76 59 77 60 78 61 79 62 80 38 81 39 82 48 83 40 84 41 85
REMARK SMILES IDX 47 86 49 87 42 88 43 89 44 90 45 91 46 92
REMARK H PARENT 87 20 70 42 36 53
REMARK Flexibility Score: inf
ROOT
ATOM      1  C   UNL A   1      38.304  21.764  25.753  1.00  0.00     0.274 C 
ENDROOT
BRANCH   1   2
ATOM      2  O   UNL A   1      37.741  22.872  25.019  1.00  0.00    -0.462 OA
BRANCH   2   3
ATOM      3  C   UNL A   1      36.663  23.482  25.588  1.00  0.00     0.313 C 
ATOM      4  O   UNL A   1      36.589  23.719  26.789  1.00  0.00    -0.252 OA
BRANCH   3   5
ATOM      5  C   UNL A   1      35.527  23.770  24.579  1.00  0.00     0.126 C 
ATOM      6  C   UNL A   1      34.725  25.020  24.962  1.00  0.00     0.025 C 
BRANCH   5   7
ATOM      7  C   UNL A   1      34.667  22.533  24.284  1.00  0.00    -0.034 A 
ATOM      8  C   UNL A   1      34.905  21.349  24.996  1.00  0.00     0.005 A 
ATOM      9  C   UNL A   1      33.629  22.508  23.339  1.00  0.00     0.005 A 
ATOM     10  C   UNL A   1      34.080  20.231  24.851  1.00  0.00     0.004 A 
ATOM     11  C   UNL A   1      32.847  21.355  23.142  1.00  0.00     0.004 A 
ATOM     12  C   UNL A   1      33.055  20.200  23.908  1.00  0.00    -0.048 A 
BRANCH  12  13
ATOM     13  C   UNL A   1      32.118  19.013  23.802  1.00  0.00     0.041 C 
BRANCH  13  14
ATOM     14  C   UNL A   1      32.657  17.594  24.046  1.00  0.00     0.022 C 
ATOM     15  C   UNL A   1      34.131  17.360  23.680  1.00  0.00     0.007 C 
ATOM     16  C   UNL A   1      32.459  16.955  25.433  1.00  0.00     0.117 C 
ATOM     17  C   UNL A   1      34.694  16.435  24.758  1.00  0.00     0.003 C 
ATOM     18  C   UNL A   1      33.477  15.821  25.441  1.00  0.00     0.032 C 
BRANCH  16  19
ATOM     19  O   UNL A   1      32.737  17.812  26.525  1.00  0.00    -0.393 OA
ATOM     20  H   UNL A   1      31.959  17.864  27.102  1.00  0.00     0.210 HD
ENDBRANCH  16  19
ENDBRANCH  13  14
ENDBRANCH  12  13
ENDBRANCH   5   7
ENDBRANCH   3   5
ENDBRANCH   2   3
ENDBRANCH   1   2
BRANCH   1  21
ATOM     21  C   UNL A   1      39.762  22.058  26.088  1.00  0.00     0.275 C 
BRANCH  21  22
ATOM     22  O   UNL A   1      39.822  23.176  26.990  1.00  0.00    -0.458 OA
BRANCH  22  23
ATOM     23  C   UNL A   1      40.839  24.045  26.795  1.00  0.00     0.338 C 
ATOM     24  O   UNL A   1      41.807  23.897  26.058  1.00  0.00    -0.246 OA
BRANCH  23  25
ATOM     25  C   UNL A   1      40.636  25.240  27.632  1.00  0.00     0.060 A 
ATOM     26  C   UNL A   1      41.632  26.208  27.714  1.00  0.00     0.016 A 
ATOM     27  C   UNL A   1      39.488  25.357  28.418  1.00  0.00     0.016 A 
ATOM     28  C   UNL A   1      41.511  27.245  28.638  1.00  0.00     0.010 A 
ATOM     29  C   UNL A   1      39.343  26.448  29.290  1.00  0.00     0.010 A 
ATOM     30  C   UNL A   1      40.376  27.388  29.448  1.00  0.00    -0.014 A 
BRANCH  30  31
ATOM     31  C   UNL A   1      40.325  28.447  30.506  1.00  0.00     0.031 A 
ATOM     32  C   UNL A   1      41.353  28.459  31.616  1.00  0.00     0.074 A 
ATOM     33  C   UNL A   1      39.422  29.451  30.464  1.00  0.00     0.049 A 
ATOM     34  N   UNL A   1      41.376  29.166  32.718  1.00  0.00    -0.248 NA
ATOM     35  C   UNL A   1      42.502  27.550  31.469  1.00  0.00     0.031 C 
ATOM     36  C   UNL A   1      38.416  29.649  29.419  1.00  0.00     0.029 A 
ATOM     37  N   UNL A   1      39.224  30.516  31.312  1.00  0.00    -0.354 N 
ATOM     38  C   UNL A   1      42.489  28.731  33.430  1.00  0.00     0.074 A 
ATOM     39  C   UNL A   1      43.128  27.712  32.625  1.00  0.00     0.031 C 
ATOM     40  C   UNL A   1      37.763  30.799  29.646  1.00  0.00     0.029 A 
ATOM     41  C   UNL A   1      38.217  31.365  30.912  1.00  0.00     0.049 A 
ATOM     42  H   UNL A   1      39.754  30.659  32.129  1.00  0.00     0.167 HD
ATOM     43  C   UNL A   1      42.933  29.133  34.647  1.00  0.00     0.037 A 
ATOM     44  C   UNL A   1      37.681  32.448  31.510  1.00  0.00     0.037 A 
ATOM     45  C   UNL A   1      42.351  30.202  35.416  1.00  0.00     0.049 A 
ATOM     46  C   UNL A   1      38.167  32.863  32.872  1.00  0.00     0.074 A 
ATOM     47  C   UNL A   1      42.728  30.669  36.664  1.00  0.00     0.029 A 
ATOM     48  N   UNL A   1      41.291  30.991  35.000  1.00  0.00    -0.354 N 
ATOM     49  N   UNL A   1      39.145  32.361  33.587  1.00  0.00    -0.248 NA
ATOM     50  C   UNL A   1      37.450  33.968  33.526  1.00  0.00     0.031 C 
ATOM     51  C   UNL A   1      41.879  31.725  37.014  1.00  0.00     0.029 A 
ATOM     52  C   UNL A   1      40.997  31.938  35.968  1.00  0.00     0.049 A 
ATOM     53  H   UNL A   1      40.816  30.893  34.143  1.00  0.00     0.167 HD
ATOM     54  C   UNL A   1      39.156  33.085  34.774  1.00  0.00     0.074 A 
ATOM     55  C   UNL A   1      38.109  34.079  34.672  1.00  0.00     0.031 C 
ATOM     56  C   UNL A   1      39.955  32.927  35.858  1.00  0.00     0.037 A 
BRANCH  43  57
ATOM     57  C   UNL A   1      44.080  28.375  35.253  1.00  0.00     0.058 A 
ATOM     58  C   UNL A   1      43.890  27.244  36.059  1.00  0.00     0.135 A 
ATOM     59  C   UNL A   1      45.400  28.778  34.989  1.00  0.00     0.135 A 
ATOM     60  F   UNL A   1      42.650  26.828  36.358  1.00  0.00    -0.206 F 
ATOM     61  C   UNL A   1      44.968  26.552  36.604  1.00  0.00     0.059 A 
ATOM     62  C   UNL A   1      46.494  28.089  35.503  1.00  0.00     0.059 A 
ATOM     63  F   UNL A   1      45.637  29.853  34.221  1.00  0.00    -0.206 F 
ATOM     64  C   UNL A   1      46.266  26.985  36.322  1.00  0.00     0.060 A 
BRANCH  64  65
ATOM     65  S   UNL A   1      47.659  26.081  37.034  1.00  0.00     0.124 S 
ATOM     66  O   UNL A   1      47.225  25.924  38.419  1.00  0.00    -0.237 OA
ATOM     67  O   UNL A   1      47.682  24.859  36.236  1.00  0.00    -0.237 OA
ATOM     68  O   UNL A   1      48.788  26.981  36.827  1.00  0.00    -0.744 OA
ENDBRANCH  64  65
ENDBRANCH  43  57
BRANCH  44  69
ATOM     69  C   UNL A   1      36.568  33.188  30.853  1.00  0.00     0.058 A 
ATOM     70  C   UNL A   1      35.243  33.032  31.285  1.00  0.00     0.135 A 
ATOM     71  C   UNL A   1      36.807  34.057  29.778  1.00  0.00     0.135 A 
ATOM     72  F   UNL A   1      34.961  32.196  32.297  1.00  0.00    -0.206 F 
ATOM     73  C   UNL A   1      34.191  33.705  30.668  1.00  0.00     0.059 A 
ATOM     74  C   UNL A   1      35.777  34.763  29.166  1.00  0.00     0.059 A 
ATOM     75  F   UNL A   1      38.057  34.244  29.327  1.00  0.00    -0.206 F 
ATOM     76  C   UNL A   1      34.470  34.571  29.610  1.00  0.00     0.060 A 
BRANCH  76  77
ATOM     77  S   UNL A   1      33.114  35.481  28.839  1.00  0.00     0.124 S 
ATOM     78  O   UNL A   1      32.470  34.435  28.052  1.00  0.00    -0.237 OA
ATOM     79  O   UNL A   1      32.362  35.963  29.993  1.00  0.00    -0.237 OA
ATOM     80  O   UNL A   1      33.801  36.516  28.073  1.00  0.00    -0.744 OA
ENDBRANCH  76  77
ENDBRANCH  44  69
BRANCH  56  81
ATOM     81  C   UNL A   1      39.744  33.861  37.016  1.00  0.00     0.058 A 
ATOM     82  C   UNL A   1      38.968  33.487  38.124  1.00  0.00     0.135 A 
ATOM     83  C   UNL A   1      40.362  35.121  37.041  1.00  0.00     0.135 A 
ATOM     84  F   UNL A   1      38.352  32.295  38.147  1.00  0.00    -0.206 F 
ATOM     85  C   UNL A   1      38.796  34.340  39.211  1.00  0.00     0.059 A 
ATOM     86  C   UNL A   1      40.220  35.981  38.126  1.00  0.00     0.059 A 
ATOM     87  F   UNL A   1      41.121  35.522  36.009  1.00  0.00    -0.206 F 
ATOM     88  C   UNL A   1      39.427  35.586  39.202  1.00  0.00     0.060 A 
BRANCH  88  89
ATOM     89  S   UNL A   1      39.225  36.672  40.631  1.00  0.00     0.124 S 
ATOM     90  O   UNL A   1      40.569  36.664  41.197  1.00  0.00    -0.237 OA
ATOM     91  O   UNL A   1      38.803  37.928  40.017  1.00  0.00    -0.237 OA
ATOM     92  O   UNL A   1      38.203  35.998  41.427  1.00  0.00    -0.744 OA
ENDBRANCH  88  89
ENDBRANCH  56  81
ENDBRANCH  30  31
ENDBRANCH  23  25
ENDBRANCH  22  23
ENDBRANCH  21  22
ENDBRANCH   1  21
TORSDOF 18
ENDMDL
MODEL 2
REMARK VINA RESULT:     -11.4      2.142      8.866
REMARK SMILES C[C@@H](C(=O)OCCOC(=O)c1ccc(-c2c3nc(c(-c4c(F)cc(S(=O)(=O)[O-])cc4F)c4ccc([nH]4)c(-c4c(F)cc(S(=O)(=O)[O-])cc4F)c4nc(c(-c5c(F)cc(S(=O)(=O)[O-])cc5F)c5ccc2[nH]5)C=C4)C=C3)cc1)c1ccc(C[C@H]2CCC[C@H]2O)cc1
REMARK SMILES IDX 6 1 5 2 3 3 4 4 2 5 1 6 77 7 78 8 89 9 79 10 88 11 80 12
REMARK SMILES IDX 81 13 82 14 83 15 86 16 84 17 85 18 87 19 7 21 8 22 9 23
REMARK SMILES IDX 10 24 11 25 12 26 76 27 13 28 75 29 14 30 15 31 16 32 69 33
REMARK SMILES IDX 17 34 74 35 68 36 70 37 18 38 73 39 67 40 66 41 19 43 53 44
REMARK SMILES IDX 32 45 52 46 33 47 36 48 51 49 71 50 34 51 35 52 50 54 72 55
REMARK SMILES IDX 37 56 20 57 21 58 30 59 22 60 23 61 29 62 31 63 24 64 25 65
REMARK SMILES IDX 26 66 27 67 28 68 54 69 55 70 64 71 56 72 57 73 63 74 65 75
REMARK SMILES IDX 58 76 59 77 60 78 61 79 62 80 38 81 39 82 48 83 40 84 41 85
REMARK SMILES IDX 47 86 49 87 42 88 43 89 44 90 45 91 46 92
REMARK H PARENT 87 20 70 42 36 53
REMARK Flexibility Score: inf
ROOT
ATOM      1  C   UNL A   1      43.690  23.327  25.792  1.00  0.00     0.274 C 
ENDROOT
BRANCH   1   2
ATOM      2  O   UNL A   1      42.855  22.374  25.101  1.00  0.00    -0.462 OA
BRANCH   2   3
ATOM      3  C   UNL A   1      42.107  21.551  25.888  1.00  0.00     0.313 C 
ATOM      4  O   UNL A   1      42.047  20.338  25.714  1.00  0.00    -0.252 OA
BRANCH   3   5
ATOM      5  C   UNL A   1      41.294  22.311  26.961  1.00  0.00     0.126 C 
ATOM      6  C   UNL A   1      41.379  21.630  28.333  1.00  0.00     0.025 C 
BRANCH   5   7
ATOM      7  C   UNL A   1      39.865  22.635  26.504  1.00  0.00    -0.034 A 
ATOM      8  C   UNL A   1      39.109  21.641  25.864  1.00  0.00     0.005 A 
ATOM      9  C   UNL A   1      39.243  23.879  26.695  1.00  0.00     0.005 A 
ATOM     10  C   UNL A   1      37.768  21.843  25.532  1.00  0.00     0.004 A 
ATOM     11  C   UNL A   1      37.915  24.103  26.291  1.00  0.00     0.004 A 
ATOM     12  C   UNL A   1      37.152  23.080  25.713  1.00  0.00    -0.048 A 
BRANCH  12  13
ATOM     13  C   UNL A   1      35.679  23.277  25.416  1.00  0.00     0.041 C 
BRANCH  13  14
ATOM     14  C   UNL A   1      34.666  23.299  26.573  1.00  0.00     0.022 C 
ATOM     15  C   UNL A   1      33.303  23.938  26.263  1.00  0.00     0.007 C 
ATOM     16  C   UNL A   1      34.359  21.985  27.314  1.00  0.00     0.117 C 
ATOM     17  C   UNL A   1      32.261  23.091  26.994  1.00  0.00     0.003 C 
ATOM     18  C   UNL A   1      33.045  22.287  28.026  1.00  0.00     0.032 C 
BRANCH  16  19
ATOM     19  O   UNL A   1      34.163  20.863  26.474  1.00  0.00    -0.393 OA
ATOM     20  H   UNL A   1      33.693  20.170  26.963  1.00  0.00     0.210 HD
ENDBRANCH  16  19
ENDBRANCH  13  14
ENDBRANCH  12  13
ENDBRANCH   5   7
ENDBRANCH   3   5
ENDBRANCH   2   3
ENDBRANCH   1   2
BRANCH   1  21
ATOM     21  C   UNL A   1      43.987  24.510  24.876  1.00  0.00     0.275 C 
BRANCH  21  22
ATOM     22  O   UNL A   1      43.838  25.731  25.620  1.00  0.00    -0.458 OA
BRANCH  22  23
ATOM     23  C   UNL A   1      42.570  26.147  25.836  1.00  0.00     0.338 C 
ATOM     24  O   UNL A   1      41.616  26.035  25.076  1.00  0.00    -0.246 OA
BRANCH  23  25
ATOM     25  C   UNL A   1      42.481  26.798  27.154  1.00  0.00     0.060 A 
ATOM     26  C   UNL A   1      41.812  26.166  28.197  1.00  0.00     0.016 A 
ATOM     27  C   UNL A   1      42.983  28.089  27.333  1.00  0.00     0.016 A 
ATOM     28  C   UNL A   1      41.579  26.857  29.386  1.00  0.00     0.010 A 
ATOM     29  C   UNL A   1      42.808  28.746  28.561  1.00  0.00     0.010 A 
ATOM     30  C   UNL A   1      42.060  28.156  29.595  1.00  0.00    -0.014 A 
BRANCH  30  31
ATOM     31  C   UNL A   1      41.699  28.910  30.838  1.00  0.00     0.031 A 
ATOM     32  C   UNL A   1      40.444  29.754  30.874  1.00  0.00     0.074 A 
ATOM     33  C   UNL A   1      42.429  28.805  31.970  1.00  0.00     0.049 A 
ATOM     34  N   UNL A   1      40.053  30.622  31.774  1.00  0.00    -0.248 NA
ATOM     35  C   UNL A   1      39.511  29.607  29.746  1.00  0.00     0.031 C 
ATOM     36  C   UNL A   1      43.616  27.967  32.144  1.00  0.00     0.029 A 
ATOM     37  N   UNL A   1      42.259  29.389  33.205  1.00  0.00    -0.354 N 
ATOM     38  C   UNL A   1      38.878  31.181  31.283  1.00  0.00     0.074 A 
ATOM     39  C   UNL A   1      38.607  30.538  30.015  1.00  0.00     0.031 C 
ATOM     40  C   UNL A   1      44.020  28.033  33.422  1.00  0.00     0.029 A 
ATOM     41  C   UNL A   1      43.197  29.003  34.135  1.00  0.00     0.049 A 
ATOM     42  H   UNL A   1      41.532  30.022  33.404  1.00  0.00     0.167 HD
ATOM     43  C   UNL A   1      38.100  32.147  31.830  1.00  0.00     0.037 A 
ATOM     44  C   UNL A   1      43.409  29.413  35.403  1.00  0.00     0.037 A 
ATOM     45  C   UNL A   1      38.316  32.731  33.129  1.00  0.00     0.049 A 
ATOM     46  C   UNL A   1      42.553  30.506  35.983  1.00  0.00     0.074 A 
ATOM     47  C   UNL A   1      37.586  33.725  33.758  1.00  0.00     0.029 A 
ATOM     48  N   UNL A   1      39.318  32.357  34.009  1.00  0.00    -0.354 N 
ATOM     49  N   UNL A   1      41.516  31.111  35.456  1.00  0.00    -0.248 NA
ATOM     50  C   UNL A   1      42.921  31.000  37.319  1.00  0.00     0.031 C 
ATOM     51  C   UNL A   1      38.162  33.969  35.010  1.00  0.00     0.029 A 
ATOM     52  C   UNL A   1      39.229  33.101  35.173  1.00  0.00     0.049 A 
ATOM     53  H   UNL A   1      39.995  31.663  33.833  1.00  0.00     0.167 HD
ATOM     54  C   UNL A   1      41.114  32.058  36.392  1.00  0.00     0.074 A 
ATOM     55  C   UNL A   1      41.997  31.927  37.530  1.00  0.00     0.031 C 
ATOM     56  C   UNL A   1      40.109  32.963  36.305  1.00  0.00     0.037 A 
BRANCH  43  57
ATOM     57  C   UNL A   1      36.964  32.677  31.002  1.00  0.00     0.058 A 
ATOM     58  C   UNL A   1      35.647  32.225  31.157  1.00  0.00     0.135 A 
ATOM     59  C   UNL A   1      37.204  33.688  30.055  1.00  0.00     0.135 A 
ATOM     60  F   UNL A   1      35.366  31.248  32.034  1.00  0.00    -0.206 F 
ATOM     61  C   UNL A   1      34.608  32.737  30.385  1.00  0.00     0.059 A 
ATOM     62  C   UNL A   1      36.178  34.232  29.288  1.00  0.00     0.059 A 
ATOM     63  F   UNL A   1      38.447  34.157  29.869  1.00  0.00    -0.206 F 
ATOM     64  C   UNL A   1      34.885  33.738  29.451  1.00  0.00     0.060 A 
BRANCH  64  65
ATOM     65  S   UNL A   1      33.531  34.396  28.452  1.00  0.00     0.124 S 
ATOM     66  O   UNL A   1      34.215  35.433  27.685  1.00  0.00    -0.237 OA
ATOM     67  O   UNL A   1      33.103  33.226  27.692  1.00  0.00    -0.237 OA
ATOM     68  O   UNL A   1      32.578  34.877  29.447  1.00  0.00    -0.744 OA
ENDBRANCH  64  65
ENDBRANCH  43  57
BRANCH  44  69
ATOM     69  C   UNL A   1      44.526  28.832  36.197  1.00  0.00     0.058 A 
ATOM     70  C   UNL A   1      45.820  29.368  36.123  1.00  0.00     0.135 A 
ATOM     71  C   UNL A   1      44.324  27.726  37.037  1.00  0.00     0.135 A 
ATOM     72  F   UNL A   1      46.068  30.413  35.317  1.00  0.00    -0.206 F 
ATOM     73  C   UNL A   1      46.877  28.823  36.847  1.00  0.00     0.059 A 
ATOM     74  C   UNL A   1      45.356  27.184  37.794  1.00  0.00     0.059 A 
ATOM     75  F   UNL A   1      43.104  27.177  37.146  1.00  0.00    -0.206 F 
ATOM     76  C   UNL A   1      46.634  27.732  37.683  1.00  0.00     0.060 A 
BRANCH  76  77
ATOM     77  S   UNL A   1      47.992  27.053  38.659  1.00  0.00     0.124 S 
ATOM     78  O   UNL A   1      47.273  26.407  39.751  1.00  0.00    -0.237 OA
ATOM     79  O   UNL A   1      48.646  26.157  37.710  1.00  0.00    -0.237 OA
ATOM     80  O   UNL A   1      48.765  28.237  39.023  1.00  0.00    -0.744 OA
ENDBRANCH  76  77
ENDBRANCH  44  69
BRANCH  56  81
ATOM     81  C   UNL A   1      39.896  33.876  37.480  1.00  0.00     0.058 A 
ATOM     82  C   UNL A   1      39.048  33.520  38.539  1.00  0.00     0.135 A 
ATOM     83  C   UNL A   1      40.583  35.097  37.570  1.00  0.00     0.135 A 
ATOM     84  F   UNL A   1      38.363  32.366  38.498  1.00  0.00    -0.206 F 
ATOM     85  C   UNL A   1      38.873  34.351  39.641  1.00  0.00     0.059 A 
ATOM     86  C   UNL A   1      40.439  35.935  38.672  1.00  0.00     0.059 A 
ATOM     87  F   UNL A   1      41.413  35.480  36.587  1.00  0.00    -0.206 F 
ATOM     88  C   UNL A   1      39.573  35.559  39.698  1.00  0.00     0.060 A 
BRANCH  88  89
ATOM     89  S   UNL A   1      39.366  36.616  41.148  1.00  0.00     0.124 S 
ATOM     90  O   UNL A   1      38.758  37.804  40.560  1.00  0.00    -0.237 OA
ATOM     91  O   UNL A   1      38.494  35.814  42.002  1.00  0.00    -0.237 OA
ATOM     92  O   UNL A   1      40.729  36.785  41.641  1.00  0.00    -0.744 OA
ENDBRANCH  88  89
ENDBRANCH  56  81
ENDBRANCH  30  31
ENDBRANCH  23  25
ENDBRANCH  22  23
ENDBRANCH  21  22
ENDBRANCH   1  21
TORSDOF 18
ENDMDL
MODEL 3
REMARK VINA RESULT:     -11.3      1.807      3.911
REMARK SMILES C[C@@H](C(=O)OCCOC(=O)c1ccc(-c2c3nc(c(-c4c(F)cc(S(=O)(=O)[O-])cc4F)c4ccc([nH]4)c(-c4c(F)cc(S(=O)(=O)[O-])cc4F)c4nc(c(-c5c(F)cc(S(=O)(=O)[O-])cc5F)c5ccc2[nH]5)C=C4)C=C3)cc1)c1ccc(C[C@H]2CCC[C@H]2O)cc1
REMARK SMILES IDX 6 1 5 2 3 3 4 4 2 5 1 6 77 7 78 8 89 9 79 10 88 11 80 12
REMARK SMILES IDX 81 13 82 14 83 15 86 16 84 17 85 18 87 19 7 21 8 22 9 23
REMARK SMILES IDX 10 24 11 25 12 26 76 27 13 28 75 29 14 30 15 31 16 32 69 33
REMARK SMILES IDX 17 34 74 35 68 36 70 37 18 38 73 39 67 40 66 41 19 43 53 44
REMARK SMILES IDX 32 45 52 46 33 47 36 48 51 49 71 50 34 51 35 52 50 54 72 55
REMARK SMILES IDX 37 56 20 57 21 58 30 59 22 60 23 61 29 62 31 63 24 64 25 65
REMARK SMILES IDX 26 66 27 67 28 68 54 69 55 70 64 71 56 72 57 73 63 74 65 75
REMARK SMILES IDX 58 76 59 77 60 78 61 79 62 80 38 81 39 82 48 83 40 84 41 85
REMARK SMILES IDX 47 86 49 87 42 88 43 89 44 90 45 91 46 92
REMARK H PARENT 87 20 70 42 36 53
REMARK Flexibility Score: inf
ROOT
ATOM      1  C   UNL A   1      37.726  22.221  25.645  1.00  0.00     0.274 C 
ENDROOT
BRANCH   1   2
ATOM      2  O   UNL A   1      36.349  22.220  26.078  1.00  0.00    -0.462 OA
BRANCH   2   3
ATOM      3  C   UNL A   1      35.531  21.314  25.474  1.00  0.00     0.313 C 
ATOM      4  O   UNL A   1      35.952  20.309  24.910  1.00  0.00    -0.252 OA
BRANCH   3   5
ATOM      5  C   UNL A   1      34.040  21.723  25.511  1.00  0.00     0.126 C 
ATOM      6  C   UNL A   1      33.160  20.752  24.712  1.00  0.00     0.025 C 
BRANCH   5   7
ATOM      7  C   UNL A   1      33.822  23.202  25.166  1.00  0.00    -0.034 A 
ATOM      8  C   UNL A   1      33.657  23.575  23.825  1.00  0.00     0.005 A 
ATOM      9  C   UNL A   1      33.765  24.230  26.122  1.00  0.00     0.005 A 
ATOM     10  C   UNL A   1      33.341  24.887  23.464  1.00  0.00     0.004 A 
ATOM     11  C   UNL A   1      33.521  25.564  25.748  1.00  0.00     0.004 A 
ATOM     12  C   UNL A   1      33.292  25.910  24.409  1.00  0.00    -0.048 A 
BRANCH  12  13
ATOM     13  C   UNL A   1      32.882  27.317  24.026  1.00  0.00     0.041 C 
BRANCH  13  14
ATOM     14  C   UNL A   1      31.398  27.718  24.076  1.00  0.00     0.022 C 
ATOM     15  C   UNL A   1      31.109  29.213  24.286  1.00  0.00     0.007 C 
ATOM     16  C   UNL A   1      30.470  27.264  22.934  1.00  0.00     0.117 C 
ATOM     17  C   UNL A   1      29.901  29.539  23.409  1.00  0.00     0.003 C 
ATOM     18  C   UNL A   1      29.269  28.192  23.073  1.00  0.00     0.032 C 
BRANCH  16  19
ATOM     19  O   UNL A   1      31.008  27.423  21.634  1.00  0.00    -0.393 OA
ATOM     20  H   UNL A   1      30.517  28.114  21.163  1.00  0.00     0.210 HD
ENDBRANCH  16  19
ENDBRANCH  13  14
ENDBRANCH  12  13
ENDBRANCH   5   7
ENDBRANCH   3   5
ENDBRANCH   2   3
ENDBRANCH   1   2
BRANCH   1  21
ATOM     21  C   UNL A   1      38.391  23.532  26.051  1.00  0.00     0.275 C 
BRANCH  21  22
ATOM     22  O   UNL A   1      39.512  23.247  26.906  1.00  0.00    -0.458 OA
BRANCH  22  23
ATOM     23  C   UNL A   1      40.569  24.082  26.802  1.00  0.00     0.338 C 
ATOM     24  O   UNL A   1      41.581  23.913  26.132  1.00  0.00    -0.246 OA
BRANCH  23  25
ATOM     25  C   UNL A   1      40.348  25.268  27.647  1.00  0.00     0.060 A 
ATOM     26  C   UNL A   1      41.157  26.389  27.496  1.00  0.00     0.016 A 
ATOM     27  C   UNL A   1      39.391  25.234  28.664  1.00  0.00     0.016 A 
ATOM     28  C   UNL A   1      41.060  27.438  28.410  1.00  0.00     0.010 A 
ATOM     29  C   UNL A   1      39.251  26.329  29.532  1.00  0.00     0.010 A 
ATOM     30  C   UNL A   1      40.118  27.432  29.447  1.00  0.00    -0.014 A 
BRANCH  30  31
ATOM     31  C   UNL A   1      40.113  28.521  30.477  1.00  0.00     0.031 A 
ATOM     32  C   UNL A   1      41.178  28.551  31.551  1.00  0.00     0.074 A 
ATOM     33  C   UNL A   1      39.220  29.532  30.437  1.00  0.00     0.049 A 
ATOM     34  N   UNL A   1      41.245  29.287  32.632  1.00  0.00    -0.248 NA
ATOM     35  C   UNL A   1      42.312  27.626  31.391  1.00  0.00     0.031 C 
ATOM     36  C   UNL A   1      38.182  29.714  29.421  1.00  0.00     0.029 A 
ATOM     37  N   UNL A   1      39.061  30.623  31.262  1.00  0.00    -0.354 N 
ATOM     38  C   UNL A   1      42.377  28.859  33.318  1.00  0.00     0.074 A 
ATOM     39  C   UNL A   1      42.979  27.812  32.521  1.00  0.00     0.031 C 
ATOM     40  C   UNL A   1      37.548  30.876  29.639  1.00  0.00     0.029 A 
ATOM     41  C   UNL A   1      38.050  31.471  30.873  1.00  0.00     0.049 A 
ATOM     42  H   UNL A   1      39.620  30.782  32.056  1.00  0.00     0.167 HD
ATOM     43  C   UNL A   1      42.866  29.289  34.508  1.00  0.00     0.037 A 
ATOM     44  C   UNL A   1      37.545  32.577  31.458  1.00  0.00     0.037 A 
ATOM     45  C   UNL A   1      42.322  30.386  35.266  1.00  0.00     0.049 A 
ATOM     46  C   UNL A   1      38.082  33.022  32.791  1.00  0.00     0.074 A 
ATOM     47  C   UNL A   1      42.745  30.882  36.487  1.00  0.00     0.029 A 
ATOM     48  N   UNL A   1      41.256  31.175  34.865  1.00  0.00    -0.354 N 
ATOM     49  N   UNL A   1      39.078  32.529  33.487  1.00  0.00    -0.248 NA
ATOM     50  C   UNL A   1      37.399  34.153  33.439  1.00  0.00     0.031 C 
ATOM     51  C   UNL A   1      41.919  31.956  36.837  1.00  0.00     0.029 A 
ATOM     52  C   UNL A   1      41.004  32.150  35.815  1.00  0.00     0.049 A 
ATOM     53  H   UNL A   1      40.751  31.059  34.027  1.00  0.00     0.167 HD
ATOM     54  C   UNL A   1      39.137  33.285  34.653  1.00  0.00     0.074 A 
ATOM     55  C   UNL A   1      38.097  34.287  34.558  1.00  0.00     0.031 C 
ATOM     56  C   UNL A   1      39.970  33.148  35.713  1.00  0.00     0.037 A 
BRANCH  43  57
ATOM     57  C   UNL A   1      44.025  28.536  35.096  1.00  0.00     0.058 A 
ATOM     58  C   UNL A   1      45.357  28.914  34.874  1.00  0.00     0.135 A 
ATOM     59  C   UNL A   1      43.788  27.429  35.929  1.00  0.00     0.135 A 
ATOM     60  F   UNL A   1      45.640  29.952  34.071  1.00  0.00    -0.206 F 
ATOM     61  C   UNL A   1      46.416  28.207  35.437  1.00  0.00     0.059 A 
ATOM     62  C   UNL A   1      44.829  26.721  36.522  1.00  0.00     0.059 A 
ATOM     63  F   UNL A   1      42.532  27.028  36.176  1.00  0.00    -0.206 F 
ATOM     64  C   UNL A   1      46.141  27.110  36.256  1.00  0.00     0.060 A 
BRANCH  64  65
ATOM     65  S   UNL A   1      47.521  26.197  36.982  1.00  0.00     0.124 S 
ATOM     66  O   UNL A   1      48.649  26.728  36.223  1.00  0.00    -0.237 OA
ATOM     67  O   UNL A   1      47.458  26.595  38.384  1.00  0.00    -0.237 OA
ATOM     68  O   UNL A   1      47.184  24.803  36.713  1.00  0.00    -0.744 OA
ENDBRANCH  64  65
ENDBRANCH  43  57
BRANCH  44  69
ATOM     69  C   UNL A   1      36.418  33.311  30.819  1.00  0.00     0.058 A 
ATOM     70  C   UNL A   1      36.632  34.131  29.702  1.00  0.00     0.135 A 
ATOM     71  C   UNL A   1      35.111  33.214  31.319  1.00  0.00     0.135 A 
ATOM     72  F   UNL A   1      37.868  34.272  29.200  1.00  0.00    -0.206 F 
ATOM     73  C   UNL A   1      35.589  34.837  29.107  1.00  0.00     0.059 A 
ATOM     74  C   UNL A   1      34.049  33.885  30.723  1.00  0.00     0.059 A 
ATOM     75  F   UNL A   1      34.853  32.441  32.386  1.00  0.00    -0.206 F 
ATOM     76  C   UNL A   1      34.300  34.704  29.624  1.00  0.00     0.060 A 
BRANCH  76  77
ATOM     77  S   UNL A   1      32.938  35.581  28.825  1.00  0.00     0.124 S 
ATOM     78  O   UNL A   1      33.647  36.651  28.132  1.00  0.00    -0.237 OA
ATOM     79  O   UNL A   1      32.355  34.548  27.974  1.00  0.00    -0.237 OA
ATOM     80  O   UNL A   1      32.105  35.998  29.949  1.00  0.00    -0.744 OA
ENDBRANCH  76  77
ENDBRANCH  44  69
BRANCH  56  81
ATOM     81  C   UNL A   1      39.807  34.115  36.852  1.00  0.00     0.058 A 
ATOM     82  C   UNL A   1      40.368  35.401  36.806  1.00  0.00     0.135 A 
ATOM     83  C   UNL A   1      39.044  33.770  37.978  1.00  0.00     0.135 A 
ATOM     84  F   UNL A   1      41.112  35.777  35.754  1.00  0.00    -0.206 F 
ATOM     85  C   UNL A   1      40.193  36.307  37.847  1.00  0.00     0.059 A 
ATOM     86  C   UNL A   1      38.839  34.668  39.022  1.00  0.00     0.059 A 
ATOM     87  F   UNL A   1      38.479  32.556  38.066  1.00  0.00    -0.206 F 
ATOM     88  C   UNL A   1      39.427  35.930  38.953  1.00  0.00     0.060 A 
BRANCH  88  89
ATOM     89  S   UNL A   1      39.177  37.125  40.284  1.00  0.00     0.124 S 
ATOM     90  O   UNL A   1      38.357  36.358  41.216  1.00  0.00    -0.237 OA
ATOM     91  O   UNL A   1      40.543  37.401  40.721  1.00  0.00    -0.237 OA
ATOM     92  O   UNL A   1      38.503  38.236  39.620  1.00  0.00    -0.744 OA
ENDBRANCH  88  89
ENDBRANCH  56  81
ENDBRANCH  30  31
ENDBRANCH  23  25
ENDBRANCH  22  23
ENDBRANCH  21  22
ENDBRANCH   1  21
TORSDOF 18
ENDMDL
