MODEL 1
REMARK VINA RESULT:     -11.5      0.000      0.000
REMARK SMILES CS(=O)(=O)N1C[C@@H]2C[N@H+](Cc3cccnc3N)C[C@]2(C(=O)OCCOC(=O)c2ccc(-c3c4nc(c(-c5c(F)cc(S(=O)(=O)[O-])cc5F)c5ccc([nH]5)c(-c5c(F)cc(S(=O)(=O)[O-])cc5F)c5nc(c(-c6c(F)cc(S(=O)(=O)[O-])cc6F)c6ccc3[nH]6)C=C5)C=C4)cc2)C1
REMARK SMILES IDX 23 1 22 2 20 3 21 4 19 5 5 6 6 7 94 8 7 9 8 10 18 11 9 12
REMARK SMILES IDX 2 14 1 15 3 16 4 17 10 18 11 19 12 20 16 21 13 22 15 23
REMARK SMILES IDX 14 24 17 25 24 28 25 29 26 30 27 31 28 32 29 33 93 34 30 35
REMARK SMILES IDX 92 36 31 37 32 38 33 39 86 40 34 41 91 42 85 43 87 44 35 45
REMARK SMILES IDX 90 46 84 47 83 48 36 50 70 51 49 52 69 53 50 54 53 55 68 56
REMARK SMILES IDX 88 57 51 58 52 59 67 61 89 62 54 63 37 64 38 65 47 66 39 67
REMARK SMILES IDX 40 68 46 69 48 70 41 71 42 72 43 73 44 74 45 75 71 76 72 77
REMARK SMILES IDX 81 78 73 79 74 80 80 81 82 82 75 83 76 84 77 85 78 86 79 87
REMARK SMILES IDX 55 88 56 89 65 90 57 91 58 92 64 93 66 94 59 95 60 96 61 97
REMARK SMILES IDX 62 98 63 99
REMARK H PARENT 9 13 17 26 17 27 87 49 53 60
REMARK Flexibility Score: inf
ROOT
ATOM      1  C   UNL A   1      33.755  28.600  25.633  1.00  0.00     0.274 C 
ENDROOT
BRANCH   1   2
ATOM      2  O   UNL A   1      33.678  27.233  26.115  1.00  0.00    -0.461 OA
BRANCH   2   3
ATOM      3  C   UNL A   1      32.424  26.679  26.093  1.00  0.00     0.319 C 
ATOM      4  O   UNL A   1      31.851  26.463  27.151  1.00  0.00    -0.251 OA
BRANCH   3   5
ATOM      5  C   UNL A   1      31.907  26.284  24.611  1.00  0.00     0.140 C 
ATOM      6  N   UNL A   1      33.313  24.582  23.279  1.00  0.00    -0.200 NA
ATOM      7  C   UNL A   1      31.937  24.342  22.890  1.00  0.00     0.113 C 
ATOM      8  C   UNL A   1      33.234  25.433  24.495  1.00  0.00     0.127 C 
ATOM      9  C   UNL A   1      31.130  24.974  24.017  1.00  0.00     0.084 C 
ATOM     10  C   UNL A   1      29.761  25.347  23.438  1.00  0.00     0.268 C 
ATOM     11  C   UNL A   1      30.467  26.762  25.055  1.00  0.00     0.283 C 
ATOM     12  N   UNL A   1      29.520  26.675  23.942  1.00  0.00    -0.330 N 
ATOM     13  H   UNL A   1      28.550  26.809  24.226  1.00  0.00     0.348 HD
BRANCH   6  14
ATOM     14  S   UNL A   1      34.293  23.193  23.519  1.00  0.00     0.211 S 
ATOM     15  C   UNL A   1      34.820  23.402  25.201  1.00  0.00     0.176 C 
ATOM     16  O   UNL A   1      35.439  23.318  22.637  1.00  0.00    -0.213 OA
ATOM     17  O   UNL A   1      33.426  22.041  23.467  1.00  0.00    -0.213 OA
ENDBRANCH   6  14
BRANCH  12  18
ATOM     18  C   UNL A   1      29.617  27.768  22.952  1.00  0.00     0.302 C 
BRANCH  18  19
ATOM     19  C   UNL A   1      28.963  29.090  23.293  1.00  0.00     0.048 A 
ATOM     20  C   UNL A   1      29.768  30.202  23.597  1.00  0.00     0.015 A 
ATOM     21  C   UNL A   1      27.583  29.292  23.243  1.00  0.00     0.132 A 
ATOM     22  C   UNL A   1      29.204  31.465  23.707  1.00  0.00     0.021 A 
ATOM     23  N   UNL A   1      27.024  30.512  23.344  1.00  0.00    -0.239 NA
ATOM     24  C   UNL A   1      27.838  31.571  23.545  1.00  0.00     0.113 A 
BRANCH  21  25
ATOM     25  N   UNL A   1      26.685  28.273  23.005  1.00  0.00    -0.383 N 
ATOM     26  H   UNL A   1      25.733  28.393  23.230  1.00  0.00     0.158 HD
ATOM     27  H   UNL A   1      26.994  27.426  22.609  1.00  0.00     0.158 HD
ENDBRANCH  21  25
ENDBRANCH  18  19
ENDBRANCH  12  18
ENDBRANCH   3   5
ENDBRANCH   2   3
ENDBRANCH   1   2
BRANCH   1  28
ATOM     28  C   UNL A   1      33.068  29.651  26.538  1.00  0.00     0.275 C 
BRANCH  28  29
ATOM     29  O   UNL A   1      33.557  29.645  27.902  1.00  0.00    -0.458 OA
BRANCH  29  30
ATOM     30  C   UNL A   1      34.413  30.643  28.241  1.00  0.00     0.338 C 
ATOM     31  O   UNL A   1      34.104  31.790  28.527  1.00  0.00    -0.246 OA
BRANCH  30  32
ATOM     32  C   UNL A   1      35.801  30.148  28.379  1.00  0.00     0.060 A 
ATOM     33  C   UNL A   1      36.255  29.782  29.651  1.00  0.00     0.016 A 
ATOM     34  C   UNL A   1      36.693  30.159  27.311  1.00  0.00     0.016 A 
ATOM     35  C   UNL A   1      37.573  29.394  29.870  1.00  0.00     0.010 A 
ATOM     36  C   UNL A   1      38.027  29.780  27.529  1.00  0.00     0.010 A 
ATOM     37  C   UNL A   1      38.478  29.395  28.809  1.00  0.00    -0.014 A 
BRANCH  37  38
ATOM     38  C   UNL A   1      39.908  29.066  29.044  1.00  0.00     0.031 A 
ATOM     39  C   UNL A   1      40.837  30.141  29.531  1.00  0.00     0.074 A 
ATOM     40  C   UNL A   1      40.370  27.820  28.826  1.00  0.00     0.049 A 
ATOM     41  N   UNL A   1      42.143  30.145  29.591  1.00  0.00    -0.248 NA
ATOM     42  C   UNL A   1      40.209  31.383  30.011  1.00  0.00     0.031 C 
ATOM     43  C   UNL A   1      39.551  26.667  28.448  1.00  0.00     0.029 A 
ATOM     44  N   UNL A   1      41.649  27.318  28.871  1.00  0.00    -0.354 N 
ATOM     45  C   UNL A   1      42.497  31.403  30.067  1.00  0.00     0.074 A 
ATOM     46  C   UNL A   1      41.267  32.134  30.285  1.00  0.00     0.031 C 
ATOM     47  C   UNL A   1      40.348  25.601  28.272  1.00  0.00     0.029 A 
ATOM     48  C   UNL A   1      41.737  26.009  28.455  1.00  0.00     0.049 A 
ATOM     49  H   UNL A   1      42.425  27.843  29.171  1.00  0.00     0.167 HD
ATOM     50  C   UNL A   1      43.738  31.898  30.288  1.00  0.00     0.037 A 
ATOM     51  C   UNL A   1      42.817  25.244  28.193  1.00  0.00     0.037 A 
ATOM     52  C   UNL A   1      44.947  31.139  30.094  1.00  0.00     0.049 A 
ATOM     53  C   UNL A   1      44.190  25.837  28.377  1.00  0.00     0.074 A 
ATOM     54  C   UNL A   1      46.256  31.540  30.296  1.00  0.00     0.029 A 
ATOM     55  N   UNL A   1      44.994  29.822  29.657  1.00  0.00    -0.354 N 
ATOM     56  N   UNL A   1      44.520  27.039  28.787  1.00  0.00    -0.248 NA
ATOM     57  C   UNL A   1      45.338  24.979  28.052  1.00  0.00     0.031 C 
ATOM     58  C   UNL A   1      47.096  30.484  29.930  1.00  0.00     0.029 A 
ATOM     59  C   UNL A   1      46.310  29.404  29.559  1.00  0.00     0.049 A 
ATOM     60  H   UNL A   1      44.207  29.268  29.448  1.00  0.00     0.167 HD
ATOM     61  C   UNL A   1      45.910  27.073  28.796  1.00  0.00     0.074 A 
ATOM     62  C   UNL A   1      46.361  25.769  28.357  1.00  0.00     0.031 C 
ATOM     63  C   UNL A   1      46.737  28.090  29.140  1.00  0.00     0.037 A 
BRANCH  50  64
ATOM     64  C   UNL A   1      43.860  33.337  30.709  1.00  0.00     0.058 A 
ATOM     65  C   UNL A   1      44.020  33.718  32.050  1.00  0.00     0.135 A 
ATOM     66  C   UNL A   1      43.857  34.355  29.739  1.00  0.00     0.135 A 
ATOM     67  F   UNL A   1      44.013  32.790  33.021  1.00  0.00    -0.206 F 
ATOM     68  C   UNL A   1      44.150  35.054  32.417  1.00  0.00     0.059 A 
ATOM     69  C   UNL A   1      44.013  35.695  30.080  1.00  0.00     0.059 A 
ATOM     70  F   UNL A   1      43.705  34.051  28.441  1.00  0.00    -0.206 F 
ATOM     71  C   UNL A   1      44.146  36.037  31.425  1.00  0.00     0.060 A 
BRANCH  71  72
ATOM     72  S   UNL A   1      44.326  37.764  31.916  1.00  0.00     0.124 S 
ATOM     73  O   UNL A   1      43.982  38.457  30.678  1.00  0.00    -0.237 OA
ATOM     74  O   UNL A   1      43.354  37.885  32.999  1.00  0.00    -0.237 OA
ATOM     75  O   UNL A   1      45.725  37.862  32.320  1.00  0.00    -0.744 OA
ENDBRANCH  71  72
ENDBRANCH  50  64
BRANCH  51  76
ATOM     76  C   UNL A   1      42.642  23.860  27.671  1.00  0.00     0.058 A 
ATOM     77  C   UNL A   1      42.494  23.610  26.299  1.00  0.00     0.135 A 
ATOM     78  C   UNL A   1      42.621  22.755  28.539  1.00  0.00     0.135 A 
ATOM     79  F   UNL A   1      42.491  24.630  25.428  1.00  0.00    -0.206 F 
ATOM     80  C   UNL A   1      42.319  22.320  25.806  1.00  0.00     0.059 A 
ATOM     81  C   UNL A   1      42.479  21.452  28.067  1.00  0.00     0.059 A 
ATOM     82  F   UNL A   1      42.762  22.934  29.861  1.00  0.00    -0.206 F 
ATOM     83  C   UNL A   1      42.316  21.246  26.699  1.00  0.00     0.060 A 
BRANCH  83  84
ATOM     84  S   UNL A   1      42.121  19.573  26.045  1.00  0.00     0.124 S 
ATOM     85  O   UNL A   1      40.694  19.540  25.743  1.00  0.00    -0.237 OA
ATOM     86  O   UNL A   1      43.017  19.586  24.894  1.00  0.00    -0.237 OA
ATOM     87  O   UNL A   1      42.550  18.726  27.154  1.00  0.00    -0.744 OA
ENDBRANCH  83  84
ENDBRANCH  51  76
BRANCH  63  88
ATOM     88  C   UNL A   1      48.218  27.828  29.109  1.00  0.00     0.058 A 
ATOM     89  C   UNL A   1      48.896  27.285  30.209  1.00  0.00     0.135 A 
ATOM     90  C   UNL A   1      48.946  28.039  27.926  1.00  0.00     0.135 A 
ATOM     91  F   UNL A   1      48.249  27.073  31.366  1.00  0.00    -0.206 F 
ATOM     92  C   UNL A   1      50.248  26.963  30.140  1.00  0.00     0.059 A 
ATOM     93  C   UNL A   1      50.290  27.700  27.826  1.00  0.00     0.059 A 
ATOM     94  F   UNL A   1      48.341  28.551  26.842  1.00  0.00    -0.206 F 
ATOM     95  C   UNL A   1      50.934  27.164  28.940  1.00  0.00     0.060 A 
BRANCH  95  96
ATOM     96  S   UNL A   1      52.669  26.673  28.842  1.00  0.00     0.124 S 
ATOM     97  O   UNL A   1      53.332  27.961  28.678  1.00  0.00    -0.237 OA
ATOM     98  O   UNL A   1      52.879  26.010  30.125  1.00  0.00    -0.237 OA
ATOM     99  O   UNL A   1      52.709  25.794  27.676  1.00  0.00    -0.744 OA
ENDBRANCH  95  96
ENDBRANCH  63  88
ENDBRANCH  37  38
ENDBRANCH  30  32
ENDBRANCH  29  30
ENDBRANCH  28  29
ENDBRANCH   1  28
TORSDOF 18
ENDMDL
MODEL 2
REMARK VINA RESULT:     -11.4      5.383     11.018
REMARK SMILES CS(=O)(=O)N1C[C@@H]2C[N@H+](Cc3cccnc3N)C[C@]2(C(=O)OCCOC(=O)c2ccc(-c3c4nc(c(-c5c(F)cc(S(=O)(=O)[O-])cc5F)c5ccc([nH]5)c(-c5c(F)cc(S(=O)(=O)[O-])cc5F)c5nc(c(-c6c(F)cc(S(=O)(=O)[O-])cc6F)c6ccc3[nH]6)C=C5)C=C4)cc2)C1
REMARK SMILES IDX 23 1 22 2 20 3 21 4 19 5 5 6 6 7 94 8 7 9 8 10 18 11 9 12
REMARK SMILES IDX 2 14 1 15 3 16 4 17 10 18 11 19 12 20 16 21 13 22 15 23
REMARK SMILES IDX 14 24 17 25 24 28 25 29 26 30 27 31 28 32 29 33 93 34 30 35
REMARK SMILES IDX 92 36 31 37 32 38 33 39 86 40 34 41 91 42 85 43 87 44 35 45
REMARK SMILES IDX 90 46 84 47 83 48 36 50 70 51 49 52 69 53 50 54 53 55 68 56
REMARK SMILES IDX 88 57 51 58 52 59 67 61 89 62 54 63 37 64 38 65 47 66 39 67
REMARK SMILES IDX 40 68 46 69 48 70 41 71 42 72 43 73 44 74 45 75 71 76 72 77
REMARK SMILES IDX 81 78 73 79 74 80 80 81 82 82 75 83 76 84 77 85 78 86 79 87
REMARK SMILES IDX 55 88 56 89 65 90 57 91 58 92 64 93 66 94 59 95 60 96 61 97
REMARK SMILES IDX 62 98 63 99
REMARK H PARENT 9 13 17 26 17 27 87 49 53 60
REMARK Flexibility Score: inf
ROOT
ATOM      1  C   UNL A   1      36.765  23.626  25.216  1.00  0.00     0.274 C 
ENDROOT
BRANCH   1   2
ATOM      2  O   UNL A   1      35.563  24.036  25.918  1.00  0.00    -0.461 OA
BRANCH   2   3
ATOM      3  C   UNL A   1      34.754  23.009  26.332  1.00  0.00     0.319 C 
ATOM      4  O   UNL A   1      35.168  22.231  27.181  1.00  0.00    -0.251 OA
BRANCH   3   5
ATOM      5  C   UNL A   1      33.352  22.913  25.530  1.00  0.00     0.140 C 
ATOM      6  N   UNL A   1      31.730  24.907  25.737  1.00  0.00    -0.200 NA
ATOM      7  C   UNL A   1      31.546  24.392  24.395  1.00  0.00     0.113 C 
ATOM      8  C   UNL A   1      32.986  24.284  26.228  1.00  0.00     0.127 C 
ATOM      9  C   UNL A   1      32.816  23.590  24.141  1.00  0.00     0.084 C 
ATOM     10  C   UNL A   1      32.477  22.526  23.092  1.00  0.00     0.268 C 
ATOM     11  C   UNL A   1      34.038  21.850  24.583  1.00  0.00     0.283 C 
ATOM     12  N   UNL A   1      33.081  21.324  23.608  1.00  0.00    -0.330 N 
ATOM     13  H   UNL A   1      33.519  20.767  22.873  1.00  0.00     0.348 HD
BRANCH   6  14
ATOM     14  S   UNL A   1      31.741  26.616  25.906  1.00  0.00     0.211 S 
ATOM     15  C   UNL A   1      33.477  26.981  25.834  1.00  0.00     0.176 C 
ATOM     16  O   UNL A   1      31.239  26.921  27.233  1.00  0.00    -0.213 OA
ATOM     17  O   UNL A   1      31.124  27.168  24.724  1.00  0.00    -0.213 OA
ENDBRANCH   6  14
BRANCH  12  18
ATOM     18  C   UNL A   1      32.148  20.306  24.134  1.00  0.00     0.302 C 
BRANCH  18  19
ATOM     19  C   UNL A   1      32.619  18.867  24.172  1.00  0.00     0.048 A 
ATOM     20  C   UNL A   1      32.747  18.150  22.969  1.00  0.00     0.015 A 
ATOM     21  C   UNL A   1      33.017  18.228  25.346  1.00  0.00     0.132 A 
ATOM     22  C   UNL A   1      33.369  16.910  22.957  1.00  0.00     0.021 A 
ATOM     23  N   UNL A   1      33.625  17.027  25.347  1.00  0.00    -0.239 NA
ATOM     24  C   UNL A   1      33.814  16.407  24.162  1.00  0.00     0.113 A 
BRANCH  21  25
ATOM     25  N   UNL A   1      32.895  18.804  26.592  1.00  0.00    -0.383 N 
ATOM     26  H   UNL A   1      33.044  18.263  27.402  1.00  0.00     0.158 HD
ATOM     27  H   UNL A   1      32.660  19.757  26.673  1.00  0.00     0.158 HD
ENDBRANCH  21  25
ENDBRANCH  18  19
ENDBRANCH  12  18
ENDBRANCH   3   5
ENDBRANCH   2   3
ENDBRANCH   1   2
BRANCH   1  28
ATOM     28  C   UNL A   1      38.010  23.425  26.115  1.00  0.00     0.275 C 
BRANCH  28  29
ATOM     29  O   UNL A   1      38.910  24.560  26.115  1.00  0.00    -0.458 OA
BRANCH  29  30
ATOM     30  C   UNL A   1      40.092  24.392  26.763  1.00  0.00     0.338 C 
ATOM     31  O   UNL A   1      40.967  23.592  26.469  1.00  0.00    -0.246 OA
BRANCH  30  32
ATOM     32  C   UNL A   1      40.287  25.416  27.814  1.00  0.00     0.060 A 
ATOM     33  C   UNL A   1      39.261  25.621  28.743  1.00  0.00     0.016 A 
ATOM     34  C   UNL A   1      41.395  26.258  27.821  1.00  0.00     0.016 A 
ATOM     35  C   UNL A   1      39.337  26.627  29.701  1.00  0.00     0.010 A 
ATOM     36  C   UNL A   1      41.471  27.282  28.778  1.00  0.00     0.010 A 
ATOM     37  C   UNL A   1      40.443  27.475  29.725  1.00  0.00    -0.014 A 
BRANCH  37  38
ATOM     38  C   UNL A   1      40.498  28.607  30.687  1.00  0.00     0.031 A 
ATOM     39  C   UNL A   1      41.477  28.556  31.825  1.00  0.00     0.074 A 
ATOM     40  C   UNL A   1      39.682  29.670  30.543  1.00  0.00     0.049 A 
ATOM     41  N   UNL A   1      41.549  29.306  32.893  1.00  0.00    -0.248 NA
ATOM     42  C   UNL A   1      42.513  27.513  31.751  1.00  0.00     0.031 C 
ATOM     43  C   UNL A   1      38.759  29.883  29.427  1.00  0.00     0.029 A 
ATOM     44  N   UNL A   1      39.482  30.762  31.353  1.00  0.00    -0.354 N 
ATOM     45  C   UNL A   1      42.603  28.798  33.643  1.00  0.00     0.074 A 
ATOM     46  C   UNL A   1      43.147  27.678  32.905  1.00  0.00     0.031 C 
ATOM     47  C   UNL A   1      38.075  31.021  29.635  1.00  0.00     0.029 A 
ATOM     48  C   UNL A   1      38.459  31.579  30.928  1.00  0.00     0.049 A 
ATOM     49  H   UNL A   1      40.019  30.942  32.158  1.00  0.00     0.167 HD
ATOM     50  C   UNL A   1      43.063  29.227  34.843  1.00  0.00     0.037 A 
ATOM     51  C   UNL A   1      37.859  32.621  31.538  1.00  0.00     0.037 A 
ATOM     52  C   UNL A   1      42.526  30.365  35.543  1.00  0.00     0.049 A 
ATOM     53  C   UNL A   1      38.338  33.037  32.905  1.00  0.00     0.074 A 
ATOM     54  C   UNL A   1      42.921  30.892  36.761  1.00  0.00     0.029 A 
ATOM     55  N   UNL A   1      41.480  31.156  35.086  1.00  0.00    -0.354 N 
ATOM     56  N   UNL A   1      39.308  32.528  33.628  1.00  0.00    -0.248 NA
ATOM     57  C   UNL A   1      37.637  34.158  33.547  1.00  0.00     0.031 C 
ATOM     58  C   UNL A   1      42.080  31.967  37.064  1.00  0.00     0.029 A 
ATOM     59  C   UNL A   1      41.200  32.149  36.009  1.00  0.00     0.049 A 
ATOM     60  H   UNL A   1      41.007  31.028  34.232  1.00  0.00     0.167 HD
ATOM     61  C   UNL A   1      39.352  33.283  34.795  1.00  0.00     0.074 A 
ATOM     62  C   UNL A   1      38.316  34.288  34.680  1.00  0.00     0.031 C 
ATOM     63  C   UNL A   1      40.176  33.157  35.864  1.00  0.00     0.037 A 
BRANCH  50  64
ATOM     64  C   UNL A   1      44.160  28.436  35.503  1.00  0.00     0.058 A 
ATOM     65  C   UNL A   1      43.897  27.391  36.402  1.00  0.00     0.135 A 
ATOM     66  C   UNL A   1      45.504  28.707  35.194  1.00  0.00     0.135 A 
ATOM     67  F   UNL A   1      42.632  27.098  36.747  1.00  0.00    -0.206 F 
ATOM     68  C   UNL A   1      44.925  26.659  36.988  1.00  0.00     0.059 A 
ATOM     69  C   UNL A   1      46.548  27.970  35.746  1.00  0.00     0.059 A 
ATOM     70  F   UNL A   1      45.816  29.696  34.342  1.00  0.00    -0.206 F 
ATOM     71  C   UNL A   1      46.248  26.955  36.653  1.00  0.00     0.060 A 
BRANCH  71  72
ATOM     72  S   UNL A   1      47.571  25.990  37.414  1.00  0.00     0.124 S 
ATOM     73  O   UNL A   1      46.917  24.700  37.608  1.00  0.00    -0.237 OA
ATOM     74  O   UNL A   1      48.611  26.024  36.391  1.00  0.00    -0.237 OA
ATOM     75  O   UNL A   1      47.874  26.728  38.636  1.00  0.00    -0.744 OA
ENDBRANCH  71  72
ENDBRANCH  50  64
BRANCH  51  76
ATOM     76  C   UNL A   1      36.703  33.300  30.890  1.00  0.00     0.058 A 
ATOM     77  C   UNL A   1      35.391  33.106  31.347  1.00  0.00     0.135 A 
ATOM     78  C   UNL A   1      36.888  34.162  29.796  1.00  0.00     0.135 A 
ATOM     79  F   UNL A   1      35.156  32.281  32.379  1.00  0.00    -0.206 F 
ATOM     80  C   UNL A   1      34.306  33.729  30.739  1.00  0.00     0.059 A 
ATOM     81  C   UNL A   1      35.822  34.822  29.190  1.00  0.00     0.059 A 
ATOM     82  F   UNL A   1      38.122  34.388  29.318  1.00  0.00    -0.206 F 
ATOM     83  C   UNL A   1      34.532  34.588  29.662  1.00  0.00     0.060 A 
BRANCH  83  84
ATOM     84  S   UNL A   1      33.118  35.418  28.901  1.00  0.00     0.124 S 
ATOM     85  O   UNL A   1      32.510  34.328  28.146  1.00  0.00    -0.237 OA
ATOM     86  O   UNL A   1      32.371  35.884  30.064  1.00  0.00    -0.237 OA
ATOM     87  O   UNL A   1      33.737  36.470  28.099  1.00  0.00    -0.744 OA
ENDBRANCH  83  84
ENDBRANCH  51  76
BRANCH  63  88
ATOM     88  C   UNL A   1      40.037  34.158  36.977  1.00  0.00     0.058 A 
ATOM     89  C   UNL A   1      40.688  35.399  36.943  1.00  0.00     0.135 A 
ATOM     90  C   UNL A   1      39.163  33.903  38.048  1.00  0.00     0.135 A 
ATOM     91  F   UNL A   1      41.542  35.688  35.947  1.00  0.00    -0.206 F 
ATOM     92  C   UNL A   1      40.482  36.354  37.934  1.00  0.00     0.059 A 
ATOM     93  C   UNL A   1      38.921  34.853  39.034  1.00  0.00     0.059 A 
ATOM     94  F   UNL A   1      38.509  32.733  38.123  1.00  0.00    -0.206 F 
ATOM     95  C   UNL A   1      39.587  36.075  38.970  1.00  0.00     0.060 A 
BRANCH  95  96
ATOM     96  S   UNL A   1      39.273  37.351  40.208  1.00  0.00     0.124 S 
ATOM     97  O   UNL A   1      38.620  36.584  41.263  1.00  0.00    -0.237 OA
ATOM     98  O   UNL A   1      40.618  37.829  40.512  1.00  0.00    -0.237 OA
ATOM     99  O   UNL A   1      38.419  38.304  39.505  1.00  0.00    -0.744 OA
ENDBRANCH  95  96
ENDBRANCH  63  88
ENDBRANCH  37  38
ENDBRANCH  30  32
ENDBRANCH  29  30
ENDBRANCH  28  29
ENDBRANCH   1  28
TORSDOF 18
ENDMDL
MODEL 3
REMARK VINA RESULT:     -11.1      4.189     10.157
REMARK SMILES CS(=O)(=O)N1C[C@@H]2C[N@H+](Cc3cccnc3N)C[C@]2(C(=O)OCCOC(=O)c2ccc(-c3c4nc(c(-c5c(F)cc(S(=O)(=O)[O-])cc5F)c5ccc([nH]5)c(-c5c(F)cc(S(=O)(=O)[O-])cc5F)c5nc(c(-c6c(F)cc(S(=O)(=O)[O-])cc6F)c6ccc3[nH]6)C=C5)C=C4)cc2)C1
REMARK SMILES IDX 23 1 22 2 20 3 21 4 19 5 5 6 6 7 94 8 7 9 8 10 18 11 9 12
REMARK SMILES IDX 2 14 1 15 3 16 4 17 10 18 11 19 12 20 16 21 13 22 15 23
REMARK SMILES IDX 14 24 17 25 24 28 25 29 26 30 27 31 28 32 29 33 93 34 30 35
REMARK SMILES IDX 92 36 31 37 32 38 33 39 86 40 34 41 91 42 85 43 87 44 35 45
REMARK SMILES IDX 90 46 84 47 83 48 36 50 70 51 49 52 69 53 50 54 53 55 68 56
REMARK SMILES IDX 88 57 51 58 52 59 67 61 89 62 54 63 37 64 38 65 47 66 39 67
REMARK SMILES IDX 40 68 46 69 48 70 41 71 42 72 43 73 44 74 45 75 71 76 72 77
REMARK SMILES IDX 81 78 73 79 74 80 80 81 82 82 75 83 76 84 77 85 78 86 79 87
REMARK SMILES IDX 55 88 56 89 65 90 57 91 58 92 64 93 66 94 59 95 60 96 61 97
REMARK SMILES IDX 62 98 63 99
REMARK H PARENT 9 13 17 26 17 27 87 49 53 60
REMARK Flexibility Score: inf
ROOT
ATOM      1  C   UNL A   1      35.291  24.478  25.356  1.00  0.00     0.274 C 
ENDROOT
BRANCH   1   2
ATOM      2  O   UNL A   1      34.061  24.524  26.125  1.00  0.00    -0.461 OA
BRANCH   2   3
ATOM      3  C   UNL A   1      33.481  23.305  26.365  1.00  0.00     0.319 C 
ATOM      4  O   UNL A   1      33.833  22.662  27.345  1.00  0.00    -0.251 OA
BRANCH   3   5
ATOM      5  C   UNL A   1      32.447  22.831  25.215  1.00  0.00     0.140 C 
ATOM      6  N   UNL A   1      30.565  24.469  24.565  1.00  0.00    -0.200 NA
ATOM      7  C   UNL A   1      30.907  23.763  23.345  1.00  0.00     0.113 C 
ATOM      8  C   UNL A   1      31.672  24.177  25.511  1.00  0.00     0.127 C 
ATOM      9  C   UNL A   1      32.296  23.208  23.631  1.00  0.00     0.084 C 
ATOM     10  C   UNL A   1      32.480  21.974  22.740  1.00  0.00     0.268 C 
ATOM     11  C   UNL A   1      33.555  21.817  24.724  1.00  0.00     0.283 C 
ATOM     12  N   UNL A   1      33.059  20.992  23.621  1.00  0.00    -0.330 N 
ATOM     13  H   UNL A   1      33.790  20.447  23.163  1.00  0.00     0.348 HD
BRANCH   6  14
ATOM     14  S   UNL A   1      30.262  26.152  24.416  1.00  0.00     0.211 S 
ATOM     15  C   UNL A   1      30.972  26.513  22.829  1.00  0.00     0.176 C 
ATOM     16  O   UNL A   1      31.029  26.821  25.450  1.00  0.00    -0.213 OA
ATOM     17  O   UNL A   1      28.833  26.324  24.309  1.00  0.00    -0.213 OA
ENDBRANCH   6  14
BRANCH  12  18
ATOM     18  C   UNL A   1      32.170  19.881  24.022  1.00  0.00     0.302 C 
BRANCH  18  19
ATOM     19  C   UNL A   1      32.776  18.499  24.143  1.00  0.00     0.048 A 
ATOM     20  C   UNL A   1      33.137  17.799  22.979  1.00  0.00     0.015 A 
ATOM     21  C   UNL A   1      33.075  17.904  25.369  1.00  0.00     0.132 A 
ATOM     22  C   UNL A   1      33.879  16.629  23.068  1.00  0.00     0.021 A 
ATOM     23  N   UNL A   1      33.797  16.772  25.468  1.00  0.00    -0.239 NA
ATOM     24  C   UNL A   1      34.206  16.175  24.329  1.00  0.00     0.113 A 
BRANCH  21  25
ATOM     25  N   UNL A   1      32.727  18.465  26.579  1.00  0.00    -0.383 N 
ATOM     26  H   UNL A   1      32.860  19.429  26.732  1.00  0.00     0.158 HD
ATOM     27  H   UNL A   1      32.345  17.902  27.291  1.00  0.00     0.158 HD
ENDBRANCH  21  25
ENDBRANCH  18  19
ENDBRANCH  12  18
ENDBRANCH   3   5
ENDBRANCH   2   3
ENDBRANCH   1   2
BRANCH   1  28
ATOM     28  C   UNL A   1      36.469  23.753  26.052  1.00  0.00     0.275 C 
BRANCH  28  29
ATOM     29  O   UNL A   1      37.701  23.794  25.291  1.00  0.00    -0.458 OA
BRANCH  29  30
ATOM     30  C   UNL A   1      38.826  23.398  25.941  1.00  0.00     0.338 C 
ATOM     31  O   UNL A   1      39.414  22.339  25.781  1.00  0.00    -0.246 OA
BRANCH  30  32
ATOM     32  C   UNL A   1      39.374  24.479  26.790  1.00  0.00     0.060 A 
ATOM     33  C   UNL A   1      38.968  24.547  28.127  1.00  0.00     0.016 A 
ATOM     34  C   UNL A   1      40.170  25.492  26.264  1.00  0.00     0.016 A 
ATOM     35  C   UNL A   1      39.371  25.588  28.959  1.00  0.00     0.010 A 
ATOM     36  C   UNL A   1      40.570  26.551  27.095  1.00  0.00     0.010 A 
ATOM     37  C   UNL A   1      40.173  26.608  28.447  1.00  0.00    -0.014 A 
BRANCH  37  38
ATOM     38  C   UNL A   1      40.540  27.769  29.299  1.00  0.00     0.031 A 
ATOM     39  C   UNL A   1      41.787  27.701  30.134  1.00  0.00     0.074 A 
ATOM     40  C   UNL A   1      39.768  28.873  29.325  1.00  0.00     0.049 A 
ATOM     41  N   UNL A   1      42.181  28.485  31.104  1.00  0.00    -0.248 NA
ATOM     42  C   UNL A   1      42.713  26.596  29.840  1.00  0.00     0.031 C 
ATOM     43  C   UNL A   1      38.589  29.100  28.487  1.00  0.00     0.029 A 
ATOM     44  N   UNL A   1      39.847  30.004  30.101  1.00  0.00    -0.354 N 
ATOM     45  C   UNL A   1      43.373  27.942  31.569  1.00  0.00     0.074 A 
ATOM     46  C   UNL A   1      43.642  26.765  30.772  1.00  0.00     0.031 C 
ATOM     47  C   UNL A   1      38.042  30.283  28.812  1.00  0.00     0.029 A 
ATOM     48  C   UNL A   1      38.788  30.864  29.924  1.00  0.00     0.049 A 
ATOM     49  H   UNL A   1      40.590  30.181  30.722  1.00  0.00     0.167 HD
ATOM     50  C   UNL A   1      44.160  28.386  32.578  1.00  0.00     0.037 A 
ATOM     51  C   UNL A   1      38.426  31.963  30.618  1.00  0.00     0.037 A 
ATOM     52  C   UNL A   1      43.888  29.581  33.337  1.00  0.00     0.049 A 
ATOM     53  C   UNL A   1      39.276  32.399  31.782  1.00  0.00     0.074 A 
ATOM     54  C   UNL A   1      44.622  30.127  34.375  1.00  0.00     0.029 A 
ATOM     55  N   UNL A   1      42.796  30.415  33.137  1.00  0.00    -0.354 N 
ATOM     56  N   UNL A   1      40.380  31.860  32.245  1.00  0.00    -0.248 NA
ATOM     57  C   UNL A   1      38.830  33.584  32.529  1.00  0.00     0.031 C 
ATOM     58  C   UNL A   1      43.948  31.261  34.837  1.00  0.00     0.029 A 
ATOM     59  C   UNL A   1      42.825  31.457  34.048  1.00  0.00     0.049 A 
ATOM     60  H   UNL A   1      42.105  30.284  32.448  1.00  0.00     0.167 HD
ATOM     61  C   UNL A   1      40.773  32.654  33.316  1.00  0.00     0.074 A 
ATOM     62  C   UNL A   1      39.794  33.715  33.431  1.00  0.00     0.031 C 
ATOM     63  C   UNL A   1      41.849  32.518  34.130  1.00  0.00     0.037 A 
BRANCH  50  64
ATOM     64  C   UNL A   1      45.355  27.556  32.960  1.00  0.00     0.058 A 
ATOM     65  C   UNL A   1      46.627  27.769  32.407  1.00  0.00     0.135 A 
ATOM     66  C   UNL A   1      45.229  26.551  33.936  1.00  0.00     0.135 A 
ATOM     67  F   UNL A   1      46.803  28.704  31.459  1.00  0.00    -0.206 F 
ATOM     68  C   UNL A   1      47.724  27.002  32.787  1.00  0.00     0.059 A 
ATOM     69  C   UNL A   1      46.318  25.791  34.352  1.00  0.00     0.059 A 
ATOM     70  F   UNL A   1      44.036  26.302  34.499  1.00  0.00    -0.206 F 
ATOM     71  C   UNL A   1      47.560  26.015  33.762  1.00  0.00     0.060 A 
BRANCH  71  72
ATOM     72  S   UNL A   1      48.995  25.036  34.252  1.00  0.00     0.124 S 
ATOM     73  O   UNL A   1      50.016  25.533  33.336  1.00  0.00    -0.237 OA
ATOM     74  O   UNL A   1      49.166  25.410  35.653  1.00  0.00    -0.237 OA
ATOM     75  O   UNL A   1      48.565  23.660  34.023  1.00  0.00    -0.744 OA
ENDBRANCH  71  72
ENDBRANCH  50  64
BRANCH  51  76
ATOM     76  C   UNL A   1      37.171  32.686  30.269  1.00  0.00     0.058 A 
ATOM     77  C   UNL A   1      37.145  33.657  29.257  1.00  0.00     0.135 A 
ATOM     78  C   UNL A   1      35.968  32.418  30.942  1.00  0.00     0.135 A 
ATOM     79  F   UNL A   1      38.270  33.963  28.592  1.00  0.00    -0.206 F 
ATOM     80  C   UNL A   1      35.979  34.344  28.934  1.00  0.00     0.059 A 
ATOM     81  C   UNL A   1      34.781  33.069  30.616  1.00  0.00     0.059 A 
ATOM     82  F   UNL A   1      35.932  31.496  31.917  1.00  0.00    -0.206 F 
ATOM     83  C   UNL A   1      34.800  34.041  29.618  1.00  0.00     0.060 A 
BRANCH  83  84
ATOM     84  S   UNL A   1      33.285  34.916  29.167  1.00  0.00     0.124 S 
ATOM     85  O   UNL A   1      32.728  34.034  28.147  1.00  0.00    -0.237 OA
ATOM     86  O   UNL A   1      32.565  34.959  30.436  1.00  0.00    -0.237 OA
ATOM     87  O   UNL A   1      33.771  36.206  28.687  1.00  0.00    -0.744 OA
ENDBRANCH  83  84
ENDBRANCH  51  76
BRANCH  63  88
ATOM     88  C   UNL A   1      42.064  33.566  35.187  1.00  0.00     0.058 A 
ATOM     89  C   UNL A   1      42.767  34.751  34.922  1.00  0.00     0.135 A 
ATOM     90  C   UNL A   1      41.476  33.419  36.454  1.00  0.00     0.135 A 
ATOM     91  F   UNL A   1      43.356  34.936  33.730  1.00  0.00    -0.206 F 
ATOM     92  C   UNL A   1      42.883  35.754  35.880  1.00  0.00     0.059 A 
ATOM     93  C   UNL A   1      41.556  34.420  37.416  1.00  0.00     0.059 A 
ATOM     94  F   UNL A   1      40.787  32.307  36.754  1.00  0.00    -0.206 F 
ATOM     95  C   UNL A   1      42.265  35.583  37.121  1.00  0.00     0.060 A 
BRANCH  95  96
ATOM     96  S   UNL A   1      42.361  36.923  38.327  1.00  0.00     0.124 S 
ATOM     97  O   UNL A   1      40.957  37.294  38.468  1.00  0.00    -0.237 OA
ATOM     98  O   UNL A   1      42.961  36.262  39.481  1.00  0.00    -0.237 OA
ATOM     99  O   UNL A   1      43.208  37.913  37.668  1.00  0.00    -0.744 OA
ENDBRANCH  95  96
ENDBRANCH  63  88
ENDBRANCH  37  38
ENDBRANCH  30  32
ENDBRANCH  29  30
ENDBRANCH  28  29
ENDBRANCH   1  28
TORSDOF 18
ENDMDL
