MODEL 1
REMARK VINA RESULT:     -12.3      0.000      0.000
REMARK SMILES Cc1ccnc(C(=O)c2[nH]c3ccc(F)cc3c2CC(=O)OCCOC(=O)c2ccc(-c3c4nc(c(-c5c(F)cc(S(=O)(=O)[O-])cc5F)c5ccc([nH]5)c(-c5c(F)cc(S(=O)(=O)[O-])cc5F)c5nc(c(-c6c(F)cc(S(=O)(=O)[O-])cc6F)c6ccc3[nH]6)C=C5)C=C4)cc2)c1
REMARK SMILES IDX 23 1 22 2 20 3 21 4 19 5 18 6 9 7 10 8 11 9 17 11 12 12
REMARK SMILES IDX 16 13 13 14 14 15 15 16 7 17 8 18 6 19 1 20 2 21 3 22 94 23
REMARK SMILES IDX 4 24 5 25 24 26 25 27 26 28 27 29 28 30 29 31 93 32 30 33
REMARK SMILES IDX 92 34 31 35 32 36 33 37 86 38 34 39 91 40 85 41 87 42 35 43
REMARK SMILES IDX 90 44 84 45 83 46 36 48 70 49 49 50 69 51 50 52 53 53 68 54
REMARK SMILES IDX 88 55 51 56 52 57 67 59 89 60 54 61 37 62 38 63 47 64 39 65
REMARK SMILES IDX 40 66 46 67 48 68 41 69 42 70 43 71 44 72 45 73 71 74 72 75
REMARK SMILES IDX 81 76 73 77 74 78 80 79 82 80 75 81 76 82 77 83 78 84 79 85
REMARK SMILES IDX 55 86 56 87 65 88 57 89 58 90 64 91 66 92 59 93 60 94 61 95
REMARK SMILES IDX 62 96 63 97
REMARK H PARENT 10 10 87 47 53 58
REMARK Flexibility Score: inf
ROOT
ATOM      1  C   UNL A   1      33.451  30.719  27.366  1.00  0.00     0.274 C 
ENDROOT
BRANCH   1   2
ATOM      2  O   UNL A   1      32.915  29.392  27.558  1.00  0.00    -0.462 OA
BRANCH   2   3
ATOM      3  C   UNL A   1      32.065  28.955  26.590  1.00  0.00     0.310 C 
ATOM      4  O   UNL A   1      31.371  27.947  26.701  1.00  0.00    -0.252 OA
BRANCH   3   5
ATOM      5  C   UNL A   1      31.910  29.893  25.414  1.00  0.00     0.161 C 
BRANCH   5   6
ATOM      6  C   UNL A   1      31.276  29.365  24.161  1.00  0.00     0.000 A 
ATOM      7  C   UNL A   1      31.835  28.513  23.199  1.00  0.00     0.093 A 
ATOM      8  N   UNL A   1      31.024  28.595  22.088  1.00  0.00    -0.352 N 
ATOM      9  C   UNL A   1      29.985  29.473  22.291  1.00  0.00     0.046 A 
ATOM     10  H   UNL A   1      31.169  28.090  21.256  1.00  0.00     0.167 HD
ATOM     11  C   UNL A   1      30.067  29.904  23.611  1.00  0.00     0.007 A 
ATOM     12  C   UNL A   1      29.031  29.966  21.392  1.00  0.00     0.030 A 
ATOM     13  C   UNL A   1      29.117  30.834  24.083  1.00  0.00     0.049 A 
ATOM     14  C   UNL A   1      28.117  30.907  21.872  1.00  0.00     0.041 A 
ATOM     15  C   UNL A   1      28.155  31.316  23.199  1.00  0.00     0.123 A 
ATOM     16  F   UNL A   1      27.266  32.221  23.632  1.00  0.00    -0.207 F 
BRANCH   7  17
ATOM     17  C   UNL A   1      33.164  27.914  23.102  1.00  0.00     0.227 C 
ATOM     18  O   UNL A   1      34.113  28.627  22.777  1.00  0.00    -0.285 OA
BRANCH  17  19
ATOM     19  C   UNL A   1      33.397  26.427  23.291  1.00  0.00     0.113 A 
ATOM     20  C   UNL A   1      35.500  23.929  25.234  1.00  0.00     0.044 C 
ATOM     21  C   UNL A   1      34.509  24.526  24.278  1.00  0.00    -0.047 A 
ATOM     22  C   UNL A   1      34.034  23.748  23.220  1.00  0.00     0.023 A 
ATOM     23  C   UNL A   1      34.155  25.887  24.334  1.00  0.00     0.036 A 
ATOM     24  C   UNL A   1      33.222  24.343  22.273  1.00  0.00     0.112 A 
ATOM     25  N   UNL A   1      32.894  25.648  22.289  1.00  0.00    -0.253 NA
ENDBRANCH  17  19
ENDBRANCH   7  17
ENDBRANCH   5   6
ENDBRANCH   3   5
ENDBRANCH   2   3
ENDBRANCH   1   2
BRANCH   1  26
ATOM     26  C   UNL A   1      34.829  30.867  28.033  1.00  0.00     0.275 C 
BRANCH  26  27
ATOM     27  O   UNL A   1      35.394  29.614  28.487  1.00  0.00    -0.458 OA
BRANCH  27  28
ATOM     28  C   UNL A   1      36.327  29.783  29.447  1.00  0.00     0.338 C 
ATOM     29  O   UNL A   1      36.101  30.144  30.585  1.00  0.00    -0.246 OA
BRANCH  28  30
ATOM     30  C   UNL A   1      37.693  29.412  29.099  1.00  0.00     0.060 A 
ATOM     31  C   UNL A   1      38.613  29.267  30.138  1.00  0.00     0.016 A 
ATOM     32  C   UNL A   1      38.117  29.542  27.773  1.00  0.00     0.016 A 
ATOM     33  C   UNL A   1      39.972  29.248  29.848  1.00  0.00     0.010 A 
ATOM     34  C   UNL A   1      39.478  29.463  27.479  1.00  0.00     0.010 A 
ATOM     35  C   UNL A   1      40.412  29.307  28.515  1.00  0.00    -0.014 A 
BRANCH  35  36
ATOM     36  C   UNL A   1      41.819  28.958  28.217  1.00  0.00     0.031 A 
ATOM     37  C   UNL A   1      42.933  29.958  28.241  1.00  0.00     0.074 A 
ATOM     38  C   UNL A   1      42.054  27.667  27.913  1.00  0.00     0.049 A 
ATOM     39  N   UNL A   1      44.205  29.761  28.005  1.00  0.00    -0.248 NA
ATOM     40  C   UNL A   1      42.586  31.349  28.564  1.00  0.00     0.031 C 
ATOM     41  C   UNL A   1      41.023  26.624  27.850  1.00  0.00     0.029 A 
ATOM     42  N   UNL A   1      43.214  27.007  27.613  1.00  0.00    -0.354 N 
ATOM     43  C   UNL A   1      44.818  31.000  28.144  1.00  0.00     0.074 A 
ATOM     44  C   UNL A   1      43.770  31.947  28.470  1.00  0.00     0.031 C 
ATOM     45  C   UNL A   1      41.601  25.453  27.560  1.00  0.00     0.029 A 
ATOM     46  C   UNL A   1      43.030  25.669  27.368  1.00  0.00     0.049 A 
ATOM     47  H   UNL A   1      44.094  27.448  27.576  1.00  0.00     0.167 HD
ATOM     48  C   UNL A   1      46.133  31.304  28.009  1.00  0.00     0.037 A 
ATOM     49  C   UNL A   1      43.907  24.716  27.014  1.00  0.00     0.037 A 
ATOM     50  C   UNL A   1      47.161  30.338  27.690  1.00  0.00     0.049 A 
ATOM     51  C   UNL A   1      45.350  25.083  26.867  1.00  0.00     0.074 A 
ATOM     52  C   UNL A   1      48.526  30.539  27.576  1.00  0.00     0.029 A 
ATOM     53  N   UNL A   1      46.937  28.994  27.427  1.00  0.00    -0.354 N 
ATOM     54  N   UNL A   1      45.916  26.253  27.031  1.00  0.00    -0.248 NA
ATOM     55  C   UNL A   1      46.271  24.006  26.491  1.00  0.00     0.031 C 
ATOM     56  C   UNL A   1      49.122  29.326  27.208  1.00  0.00     0.029 A 
ATOM     57  C   UNL A   1      48.133  28.358  27.128  1.00  0.00     0.049 A 
ATOM     58  H   UNL A   1      46.055  28.554  27.450  1.00  0.00     0.167 HD
ATOM     59  C   UNL A   1      47.265  26.056  26.780  1.00  0.00     0.074 A 
ATOM     60  C   UNL A   1      47.431  24.648  26.472  1.00  0.00     0.031 C 
ATOM     61  C   UNL A   1      48.275  26.961  26.802  1.00  0.00     0.037 A 
BRANCH  48  62
ATOM     62  C   UNL A   1      46.549  32.739  28.188  1.00  0.00     0.058 A 
ATOM     63  C   UNL A   1      46.460  33.671  27.142  1.00  0.00     0.135 A 
ATOM     64  C   UNL A   1      46.969  33.208  29.444  1.00  0.00     0.135 A 
ATOM     65  F   UNL A   1      46.066  33.279  25.921  1.00  0.00    -0.206 F 
ATOM     66  C   UNL A   1      46.788  35.012  27.330  1.00  0.00     0.059 A 
ATOM     67  C   UNL A   1      47.283  34.548  29.660  1.00  0.00     0.059 A 
ATOM     68  F   UNL A   1      47.066  32.362  30.482  1.00  0.00    -0.206 F 
ATOM     69  C   UNL A   1      47.200  35.441  28.593  1.00  0.00     0.060 A 
BRANCH  69  70
ATOM     70  S   UNL A   1      47.600  37.187  28.833  1.00  0.00     0.124 S 
ATOM     71  O   UNL A   1      46.985  37.452  30.130  1.00  0.00    -0.237 OA
ATOM     72  O   UNL A   1      49.059  37.184  28.814  1.00  0.00    -0.237 OA
ATOM     73  O   UNL A   1      46.965  37.841  27.693  1.00  0.00    -0.744 OA
ENDBRANCH  69  70
ENDBRANCH  48  62
BRANCH  49  74
ATOM     74  C   UNL A   1      43.413  23.337  26.786  1.00  0.00     0.058 A 
ATOM     75  C   UNL A   1      43.357  22.797  25.495  1.00  0.00     0.135 A 
ATOM     76  C   UNL A   1      43.091  22.501  27.867  1.00  0.00     0.135 A 
ATOM     77  F   UNL A   1      43.661  23.559  24.435  1.00  0.00    -0.206 F 
ATOM     78  C   UNL A   1      43.004  21.469  25.282  1.00  0.00     0.059 A 
ATOM     79  C   UNL A   1      42.756  21.166  27.681  1.00  0.00     0.059 A 
ATOM     80  F   UNL A   1      43.159  22.970  29.123  1.00  0.00    -0.206 F 
ATOM     81  C   UNL A   1      42.714  20.659  26.383  1.00  0.00     0.060 A 
BRANCH  81  82
ATOM     82  S   UNL A   1      42.353  18.912  26.108  1.00  0.00     0.124 S 
ATOM     83  O   UNL A   1      42.620  18.347  27.425  1.00  0.00    -0.237 OA
ATOM     84  O   UNL A   1      40.954  18.943  25.697  1.00  0.00    -0.237 OA
ATOM     85  O   UNL A   1      43.296  18.539  25.057  1.00  0.00    -0.744 OA
ENDBRANCH  81  82
ENDBRANCH  49  74
BRANCH  61  86
ATOM     86  C   UNL A   1      49.645  26.442  26.478  1.00  0.00     0.058 A 
ATOM     87  C   UNL A   1      50.146  26.475  25.168  1.00  0.00     0.135 A 
ATOM     88  C   UNL A   1      50.464  25.907  27.485  1.00  0.00     0.135 A 
ATOM     89  F   UNL A   1      49.396  26.964  24.169  1.00  0.00    -0.206 F 
ATOM     90  C   UNL A   1      51.406  25.972  24.861  1.00  0.00     0.059 A 
ATOM     91  C   UNL A   1      51.735  25.416  27.203  1.00  0.00     0.059 A 
ATOM     92  F   UNL A   1      50.029  25.855  28.753  1.00  0.00    -0.206 F 
ATOM     93  C   UNL A   1      52.191  25.438  25.885  1.00  0.00     0.060 A 
BRANCH  93  94
ATOM     94  S   UNL A   1      53.828  24.793  25.479  1.00  0.00     0.124 S 
ATOM     95  O   UNL A   1      54.188  25.614  24.329  1.00  0.00    -0.237 OA
ATOM     96  O   UNL A   1      54.581  25.051  26.702  1.00  0.00    -0.237 OA
ATOM     97  O   UNL A   1      53.573  23.384  25.193  1.00  0.00    -0.744 OA
ENDBRANCH  93  94
ENDBRANCH  61  86
ENDBRANCH  35  36
ENDBRANCH  28  30
ENDBRANCH  27  28
ENDBRANCH  26  27
ENDBRANCH   1  26
TORSDOF 17
ENDMDL
MODEL 2
REMARK VINA RESULT:     -12.0      6.987     12.488
REMARK SMILES Cc1ccnc(C(=O)c2[nH]c3ccc(F)cc3c2CC(=O)OCCOC(=O)c2ccc(-c3c4nc(c(-c5c(F)cc(S(=O)(=O)[O-])cc5F)c5ccc([nH]5)c(-c5c(F)cc(S(=O)(=O)[O-])cc5F)c5nc(c(-c6c(F)cc(S(=O)(=O)[O-])cc6F)c6ccc3[nH]6)C=C5)C=C4)cc2)c1
REMARK SMILES IDX 23 1 22 2 20 3 21 4 19 5 18 6 9 7 10 8 11 9 17 11 12 12
REMARK SMILES IDX 16 13 13 14 14 15 15 16 7 17 8 18 6 19 1 20 2 21 3 22 94 23
REMARK SMILES IDX 4 24 5 25 24 26 25 27 26 28 27 29 28 30 29 31 93 32 30 33
REMARK SMILES IDX 92 34 31 35 32 36 33 37 86 38 34 39 91 40 85 41 87 42 35 43
REMARK SMILES IDX 90 44 84 45 83 46 36 48 70 49 49 50 69 51 50 52 53 53 68 54
REMARK SMILES IDX 88 55 51 56 52 57 67 59 89 60 54 61 37 62 38 63 47 64 39 65
REMARK SMILES IDX 40 66 46 67 48 68 41 69 42 70 43 71 44 72 45 73 71 74 72 75
REMARK SMILES IDX 81 76 73 77 74 78 80 79 82 80 75 81 76 82 77 83 78 84 79 85
REMARK SMILES IDX 55 86 56 87 65 88 57 89 58 90 64 91 66 92 59 93 60 94 61 95
REMARK SMILES IDX 62 96 63 97
REMARK H PARENT 10 10 87 47 53 58
REMARK Flexibility Score: inf
ROOT
ATOM      1  C   UNL A   1      39.550  21.838  26.280  1.00  0.00     0.274 C 
ENDROOT
BRANCH   1   2
ATOM      2  O   UNL A   1      38.176  22.279  26.218  1.00  0.00    -0.462 OA
BRANCH   2   3
ATOM      3  C   UNL A   1      37.334  21.479  25.510  1.00  0.00     0.310 C 
ATOM      4  O   UNL A   1      37.707  20.733  24.607  1.00  0.00    -0.252 OA
BRANCH   3   5
ATOM      5  C   UNL A   1      35.911  21.450  26.021  1.00  0.00     0.161 C 
BRANCH   5   6
ATOM      6  C   UNL A   1      34.797  21.382  25.018  1.00  0.00     0.000 A 
ATOM      7  C   UNL A   1      33.915  22.399  24.631  1.00  0.00     0.093 A 
ATOM      8  N   UNL A   1      32.874  21.782  23.972  1.00  0.00    -0.352 N 
ATOM      9  C   UNL A   1      33.042  20.418  23.938  1.00  0.00     0.046 A 
ATOM     10  H   UNL A   1      32.108  22.257  23.576  1.00  0.00     0.167 HD
ATOM     11  C   UNL A   1      34.281  20.145  24.509  1.00  0.00     0.007 A 
ATOM     12  C   UNL A   1      32.166  19.411  23.513  1.00  0.00     0.030 A 
ATOM     13  C   UNL A   1      34.701  18.802  24.614  1.00  0.00     0.049 A 
ATOM     14  C   UNL A   1      32.590  18.086  23.651  1.00  0.00     0.041 A 
ATOM     15  C   UNL A   1      33.842  17.796  24.177  1.00  0.00     0.123 A 
ATOM     16  F   UNL A   1      34.222  16.516  24.299  1.00  0.00    -0.207 F 
BRANCH   7  17
ATOM     17  C   UNL A   1      33.790  23.785  25.078  1.00  0.00     0.227 C 
ATOM     18  O   UNL A   1      33.644  24.009  26.279  1.00  0.00    -0.285 OA
BRANCH  17  19
ATOM     19  C   UNL A   1      33.736  24.947  24.105  1.00  0.00     0.113 A 
ATOM     20  C   UNL A   1      33.498  28.736  23.946  1.00  0.00     0.044 C 
ATOM     21  C   UNL A   1      33.577  27.290  23.550  1.00  0.00    -0.047 A 
ATOM     22  C   UNL A   1      33.198  26.919  22.258  1.00  0.00     0.023 A 
ATOM     23  C   UNL A   1      33.887  26.284  24.484  1.00  0.00     0.036 A 
ATOM     24  C   UNL A   1      33.153  25.574  21.943  1.00  0.00     0.112 A 
ATOM     25  N   UNL A   1      33.415  24.594  22.827  1.00  0.00    -0.253 NA
ENDBRANCH  17  19
ENDBRANCH   7  17
ENDBRANCH   5   6
ENDBRANCH   3   5
ENDBRANCH   2   3
ENDBRANCH   1   2
BRANCH   1  26
ATOM     26  C   UNL A   1      40.515  23.031  26.398  1.00  0.00     0.275 C 
BRANCH  26  27
ATOM     27  O   UNL A   1      39.893  24.311  26.136  1.00  0.00    -0.458 OA
BRANCH  27  28
ATOM     28  C   UNL A   1      40.772  25.334  26.181  1.00  0.00     0.338 C 
ATOM     29  O   UNL A   1      41.607  25.576  25.331  1.00  0.00    -0.246 OA
BRANCH  28  30
ATOM     30  C   UNL A   1      40.636  26.261  27.297  1.00  0.00     0.060 A 
ATOM     31  C   UNL A   1      41.662  27.183  27.507  1.00  0.00     0.016 A 
ATOM     32  C   UNL A   1      39.691  25.994  28.292  1.00  0.00     0.016 A 
ATOM     33  C   UNL A   1      41.743  27.848  28.725  1.00  0.00     0.010 A 
ATOM     34  C   UNL A   1      39.740  26.705  29.491  1.00  0.00     0.010 A 
ATOM     35  C   UNL A   1      40.762  27.642  29.709  1.00  0.00    -0.014 A 
BRANCH  35  36
ATOM     36  C   UNL A   1      40.687  28.590  30.844  1.00  0.00     0.031 A 
ATOM     37  C   UNL A   1      41.595  28.517  32.032  1.00  0.00     0.074 A 
ATOM     38  C   UNL A   1      39.738  29.542  30.755  1.00  0.00     0.049 A 
ATOM     39  N   UNL A   1      41.624  29.300  33.080  1.00  0.00    -0.248 NA
ATOM     40  C   UNL A   1      42.590  27.435  32.058  1.00  0.00     0.031 C 
ATOM     41  C   UNL A   1      38.797  29.679  29.638  1.00  0.00     0.029 A 
ATOM     42  N   UNL A   1      39.411  30.571  31.594  1.00  0.00    -0.354 N 
ATOM     43  C   UNL A   1      42.634  28.810  33.898  1.00  0.00     0.074 A 
ATOM     44  C   UNL A   1      43.183  27.648  33.229  1.00  0.00     0.031 C 
ATOM     45  C   UNL A   1      38.018  30.747  29.847  1.00  0.00     0.029 A 
ATOM     46  C   UNL A   1      38.371  31.339  31.132  1.00  0.00     0.049 A 
ATOM     47  H   UNL A   1      39.875  30.744  32.445  1.00  0.00     0.167 HD
ATOM     48  C   UNL A   1      43.054  29.296  35.093  1.00  0.00     0.037 A 
ATOM     49  C   UNL A   1      37.754  32.397  31.682  1.00  0.00     0.037 A 
ATOM     50  C   UNL A   1      42.493  30.462  35.737  1.00  0.00     0.049 A 
ATOM     51  C   UNL A   1      38.234  32.906  33.004  1.00  0.00     0.074 A 
ATOM     52  C   UNL A   1      42.879  31.060  36.926  1.00  0.00     0.029 A 
ATOM     53  N   UNL A   1      41.426  31.205  35.252  1.00  0.00    -0.354 N 
ATOM     54  N   UNL A   1      39.210  32.447  33.749  1.00  0.00    -0.248 NA
ATOM     55  C   UNL A   1      37.536  34.070  33.558  1.00  0.00     0.031 C 
ATOM     56  C   UNL A   1      42.021  32.138  37.178  1.00  0.00     0.029 A 
ATOM     57  C   UNL A   1      41.123  32.238  36.127  1.00  0.00     0.049 A 
ATOM     58  H   UNL A   1      40.951  31.025  34.407  1.00  0.00     0.167 HD
ATOM     59  C   UNL A   1      39.248  33.270  34.865  1.00  0.00     0.074 A 
ATOM     60  C   UNL A   1      38.208  34.266  34.684  1.00  0.00     0.031 C 
ATOM     61  C   UNL A   1      40.070  33.205  35.941  1.00  0.00     0.037 A 
BRANCH  48  62
ATOM     62  C   UNL A   1      44.162  28.566  35.804  1.00  0.00     0.058 A 
ATOM     63  C   UNL A   1      43.909  27.462  36.632  1.00  0.00     0.135 A 
ATOM     64  C   UNL A   1      45.503  28.927  35.591  1.00  0.00     0.135 A 
ATOM     65  F   UNL A   1      42.647  27.073  36.871  1.00  0.00    -0.206 F 
ATOM     66  C   UNL A   1      44.943  26.751  37.237  1.00  0.00     0.059 A 
ATOM     67  C   UNL A   1      46.554  28.219  36.170  1.00  0.00     0.059 A 
ATOM     68  F   UNL A   1      45.804  29.971  34.802  1.00  0.00    -0.206 F 
ATOM     69  C   UNL A   1      46.263  27.139  37.002  1.00  0.00     0.060 A 
BRANCH  69  70
ATOM     70  S   UNL A   1      47.600  26.197  37.772  1.00  0.00     0.124 S 
ATOM     71  O   UNL A   1      47.138  24.825  37.582  1.00  0.00    -0.237 OA
ATOM     72  O   UNL A   1      48.762  26.590  36.982  1.00  0.00    -0.237 OA
ATOM     73  O   UNL A   1      47.598  26.672  39.153  1.00  0.00    -0.744 OA
ENDBRANCH  69  70
ENDBRANCH  48  62
BRANCH  49  74
ATOM     74  C   UNL A   1      36.622  33.023  30.957  1.00  0.00     0.058 A 
ATOM     75  C   UNL A   1      35.306  32.878  31.413  1.00  0.00     0.135 A 
ATOM     76  C   UNL A   1      36.851  33.863  29.856  1.00  0.00     0.135 A 
ATOM     77  F   UNL A   1      35.044  32.088  32.464  1.00  0.00    -0.206 F 
ATOM     78  C   UNL A   1      34.253  33.553  30.807  1.00  0.00     0.059 A 
ATOM     79  C   UNL A   1      35.818  34.564  29.247  1.00  0.00     0.059 A 
ATOM     80  F   UNL A   1      38.101  34.053  29.403  1.00  0.00    -0.206 F 
ATOM     81  C   UNL A   1      34.520  34.401  29.730  1.00  0.00     0.060 A 
BRANCH  81  82
ATOM     82  S   UNL A   1      33.164  35.351  29.011  1.00  0.00     0.124 S 
ATOM     83  O   UNL A   1      32.387  35.695  30.195  1.00  0.00    -0.237 OA
ATOM     84  O   UNL A   1      33.864  36.454  28.362  1.00  0.00    -0.237 OA
ATOM     85  O   UNL A   1      32.538  34.397  28.099  1.00  0.00    -0.744 OA
ENDBRANCH  81  82
ENDBRANCH  49  74
BRANCH  61  86
ATOM     86  C   UNL A   1      39.864  34.245  37.004  1.00  0.00     0.058 A 
ATOM     87  C   UNL A   1      39.069  33.987  38.131  1.00  0.00     0.135 A 
ATOM     88  C   UNL A   1      40.464  35.509  36.895  1.00  0.00     0.135 A 
ATOM     89  F   UNL A   1      38.462  32.799  38.274  1.00  0.00    -0.206 F 
ATOM     90  C   UNL A   1      38.856  34.957  39.105  1.00  0.00     0.059 A 
ATOM     91  C   UNL A   1      40.281  36.487  37.866  1.00  0.00     0.059 A 
ATOM     92  F   UNL A   1      41.235  35.801  35.835  1.00  0.00    -0.206 F 
ATOM     93  C   UNL A   1      39.462  36.207  38.960  1.00  0.00     0.060 A 
BRANCH  93  94
ATOM     94  S   UNL A   1      39.186  37.458  40.232  1.00  0.00     0.124 S 
ATOM     95  O   UNL A   1      38.301  38.388  39.540  1.00  0.00    -0.237 OA
ATOM     96  O   UNL A   1      38.576  36.685  41.309  1.00  0.00    -0.237 OA
ATOM     97  O   UNL A   1      40.530  37.957  40.511  1.00  0.00    -0.744 OA
ENDBRANCH  93  94
ENDBRANCH  61  86
ENDBRANCH  35  36
ENDBRANCH  28  30
ENDBRANCH  27  28
ENDBRANCH  26  27
ENDBRANCH   1  26
TORSDOF 17
ENDMDL
MODEL 3
REMARK VINA RESULT:     -11.9      1.533      2.322
REMARK SMILES Cc1ccnc(C(=O)c2[nH]c3ccc(F)cc3c2CC(=O)OCCOC(=O)c2ccc(-c3c4nc(c(-c5c(F)cc(S(=O)(=O)[O-])cc5F)c5ccc([nH]5)c(-c5c(F)cc(S(=O)(=O)[O-])cc5F)c5nc(c(-c6c(F)cc(S(=O)(=O)[O-])cc6F)c6ccc3[nH]6)C=C5)C=C4)cc2)c1
REMARK SMILES IDX 23 1 22 2 20 3 21 4 19 5 18 6 9 7 10 8 11 9 17 11 12 12
REMARK SMILES IDX 16 13 13 14 14 15 15 16 7 17 8 18 6 19 1 20 2 21 3 22 94 23
REMARK SMILES IDX 4 24 5 25 24 26 25 27 26 28 27 29 28 30 29 31 93 32 30 33
REMARK SMILES IDX 92 34 31 35 32 36 33 37 86 38 34 39 91 40 85 41 87 42 35 43
REMARK SMILES IDX 90 44 84 45 83 46 36 48 70 49 49 50 69 51 50 52 53 53 68 54
REMARK SMILES IDX 88 55 51 56 52 57 67 59 89 60 54 61 37 62 38 63 47 64 39 65
REMARK SMILES IDX 40 66 46 67 48 68 41 69 42 70 43 71 44 72 45 73 71 74 72 75
REMARK SMILES IDX 81 76 73 77 74 78 80 79 82 80 75 81 76 82 77 83 78 84 79 85
REMARK SMILES IDX 55 86 56 87 65 88 57 89 58 90 64 91 66 92 59 93 60 94 61 95
REMARK SMILES IDX 62 96 63 97
REMARK H PARENT 10 10 87 47 53 58
REMARK Flexibility Score: inf
ROOT
ATOM      1  C   UNL A   1      33.870  29.902  27.217  1.00  0.00     0.274 C 
ENDROOT
BRANCH   1   2
ATOM      2  O   UNL A   1      33.066  28.784  26.781  1.00  0.00    -0.462 OA
BRANCH   2   3
ATOM      3  C   UNL A   1      33.383  28.271  25.562  1.00  0.00     0.310 C 
ATOM      4  O   UNL A   1      34.130  28.833  24.764  1.00  0.00    -0.252 OA
BRANCH   3   5
ATOM      5  C   UNL A   1      32.874  26.869  25.313  1.00  0.00     0.161 C 
BRANCH   5   6
ATOM      6  C   UNL A   1      31.392  26.651  25.250  1.00  0.00     0.000 A 
ATOM      7  C   UNL A   1      30.668  25.507  25.609  1.00  0.00     0.093 A 
ATOM      8  N   UNL A   1      29.414  25.649  25.054  1.00  0.00    -0.352 N 
ATOM      9  C   UNL A   1      29.312  26.822  24.343  1.00  0.00     0.046 A 
ATOM     10  H   UNL A   1      28.684  24.996  25.154  1.00  0.00     0.167 HD
ATOM     11  C   UNL A   1      30.507  27.512  24.521  1.00  0.00     0.007 A 
ATOM     12  C   UNL A   1      28.288  27.285  23.508  1.00  0.00     0.030 A 
ATOM     13  C   UNL A   1      30.676  28.757  23.879  1.00  0.00     0.049 A 
ATOM     14  C   UNL A   1      28.486  28.507  22.859  1.00  0.00     0.041 A 
ATOM     15  C   UNL A   1      29.654  29.232  23.060  1.00  0.00     0.123 A 
ATOM     16  F   UNL A   1      29.818  30.400  22.423  1.00  0.00    -0.207 F 
BRANCH   7  17
ATOM     17  C   UNL A   1      31.109  24.209  26.115  1.00  0.00     0.227 C 
ATOM     18  O   UNL A   1      31.301  24.078  27.323  1.00  0.00    -0.285 OA
BRANCH  17  19
ATOM     19  C   UNL A   1      31.430  23.047  25.193  1.00  0.00     0.113 A 
ATOM     20  C   UNL A   1      32.828  19.514  25.171  1.00  0.00     0.044 C 
ATOM     21  C   UNL A   1      32.261  20.831  24.725  1.00  0.00    -0.047 A 
ATOM     22  C   UNL A   1      32.377  21.199  23.383  1.00  0.00     0.023 A 
ATOM     23  C   UNL A   1      31.744  21.762  25.644  1.00  0.00     0.036 A 
ATOM     24  C   UNL A   1      31.967  22.464  23.006  1.00  0.00     0.112 A 
ATOM     25  N   UNL A   1      31.498  23.382  23.872  1.00  0.00    -0.253 NA
ENDBRANCH  17  19
ENDBRANCH   7  17
ENDBRANCH   5   6
ENDBRANCH   3   5
ENDBRANCH   2   3
ENDBRANCH   1   2
BRANCH   1  26
ATOM     26  C   UNL A   1      35.110  29.429  27.995  1.00  0.00     0.275 C 
BRANCH  26  27
ATOM     27  O   UNL A   1      35.651  30.429  28.891  1.00  0.00    -0.458 OA
BRANCH  27  28
ATOM     28  C   UNL A   1      36.423  29.894  29.860  1.00  0.00     0.338 C 
ATOM     29  O   UNL A   1      36.052  29.641  30.990  1.00  0.00    -0.246 OA
BRANCH  28  30
ATOM     30  C   UNL A   1      37.777  29.514  29.478  1.00  0.00     0.060 A 
ATOM     31  C   UNL A   1      38.718  29.348  30.494  1.00  0.00     0.016 A 
ATOM     32  C   UNL A   1      38.172  29.655  28.144  1.00  0.00     0.016 A 
ATOM     33  C   UNL A   1      40.070  29.319  30.174  1.00  0.00     0.010 A 
ATOM     34  C   UNL A   1      39.526  29.566  27.819  1.00  0.00     0.010 A 
ATOM     35  C   UNL A   1      40.481  29.389  28.832  1.00  0.00    -0.014 A 
BRANCH  35  36
ATOM     36  C   UNL A   1      41.877  29.029  28.498  1.00  0.00     0.031 A 
ATOM     37  C   UNL A   1      43.004  30.014  28.525  1.00  0.00     0.074 A 
ATOM     38  C   UNL A   1      42.089  27.743  28.159  1.00  0.00     0.049 A 
ATOM     39  N   UNL A   1      44.269  29.806  28.259  1.00  0.00    -0.248 NA
ATOM     40  C   UNL A   1      42.682  31.401  28.887  1.00  0.00     0.031 C 
ATOM     41  C   UNL A   1      41.044  26.715  28.091  1.00  0.00     0.029 A 
ATOM     42  N   UNL A   1      43.234  27.076  27.821  1.00  0.00    -0.354 N 
ATOM     43  C   UNL A   1      44.901  31.034  28.415  1.00  0.00     0.074 A 
ATOM     44  C   UNL A   1      43.872  31.986  28.784  1.00  0.00     0.031 C 
ATOM     45  C   UNL A   1      41.600  25.543  27.762  1.00  0.00     0.029 A 
ATOM     46  C   UNL A   1      43.028  25.746  27.548  1.00  0.00     0.049 A 
ATOM     47  H   UNL A   1      44.119  27.506  27.777  1.00  0.00     0.167 HD
ATOM     48  C   UNL A   1      46.217  31.324  28.263  1.00  0.00     0.037 A 
ATOM     49  C   UNL A   1      43.886  24.791  27.154  1.00  0.00     0.037 A 
ATOM     50  C   UNL A   1      47.225  30.353  27.901  1.00  0.00     0.049 A 
ATOM     51  C   UNL A   1      45.330  25.142  26.988  1.00  0.00     0.074 A 
ATOM     52  C   UNL A   1      48.591  30.539  27.766  1.00  0.00     0.029 A 
ATOM     53  N   UNL A   1      46.979  29.018  27.611  1.00  0.00    -0.354 N 
ATOM     54  N   UNL A   1      45.914  26.301  27.169  1.00  0.00    -0.248 NA
ATOM     55  C   UNL A   1      46.229  24.063  26.568  1.00  0.00     0.031 C 
ATOM     56  C   UNL A   1      49.164  29.328  27.357  1.00  0.00     0.029 A 
ATOM     57  C   UNL A   1      48.161  28.375  27.273  1.00  0.00     0.049 A 
ATOM     58  H   UNL A   1      46.092  28.589  27.640  1.00  0.00     0.167 HD
ATOM     59  C   UNL A   1      47.256  26.093  26.888  1.00  0.00     0.074 A 
ATOM     60  C   UNL A   1      47.397  24.690  26.543  1.00  0.00     0.031 C 
ATOM     61  C   UNL A   1      48.278  26.984  26.911  1.00  0.00     0.037 A 
BRANCH  48  62
ATOM     62  C   UNL A   1      46.656  32.749  28.468  1.00  0.00     0.058 A 
ATOM     63  C   UNL A   1      47.143  33.203  29.703  1.00  0.00     0.135 A 
ATOM     64  C   UNL A   1      46.664  33.654  27.393  1.00  0.00     0.135 A 
ATOM     65  F   UNL A   1      47.157  32.383  30.765  1.00  0.00    -0.206 F 
ATOM     66  C   UNL A   1      47.606  34.506  29.871  1.00  0.00     0.059 A 
ATOM     67  C   UNL A   1      47.141  34.955  27.531  1.00  0.00     0.059 A 
ATOM     68  F   UNL A   1      46.216  33.271  26.186  1.00  0.00    -0.206 F 
ATOM     69  C   UNL A   1      47.600  35.376  28.779  1.00  0.00     0.060 A 
BRANCH  69  70
ATOM     70  S   UNL A   1      48.225  37.057  28.999  1.00  0.00     0.124 S 
ATOM     71  O   UNL A   1      47.709  37.389  30.324  1.00  0.00    -0.237 OA
ATOM     72  O   UNL A   1      49.670  36.873  28.910  1.00  0.00    -0.237 OA
ATOM     73  O   UNL A   1      47.623  37.792  27.890  1.00  0.00    -0.744 OA
ENDBRANCH  69  70
ENDBRANCH  48  62
BRANCH  49  74
ATOM     74  C   UNL A   1      43.370  23.424  26.903  1.00  0.00     0.058 A 
ATOM     75  C   UNL A   1      43.265  22.922  25.600  1.00  0.00     0.135 A 
ATOM     76  C   UNL A   1      43.073  22.561  27.970  1.00  0.00     0.135 A 
ATOM     77  F   UNL A   1      43.543  23.712  24.552  1.00  0.00    -0.206 F 
ATOM     78  C   UNL A   1      42.891  21.605  25.360  1.00  0.00     0.059 A 
ATOM     79  C   UNL A   1      42.717  21.235  27.756  1.00  0.00     0.059 A 
ATOM     80  F   UNL A   1      43.187  22.992  29.236  1.00  0.00    -0.206 F 
ATOM     81  C   UNL A   1      42.628  20.766  26.446  1.00  0.00     0.060 A 
BRANCH  81  82
ATOM     82  S   UNL A   1      42.239  19.031  26.133  1.00  0.00     0.124 S 
ATOM     83  O   UNL A   1      40.827  19.107  25.780  1.00  0.00    -0.237 OA
ATOM     84  O   UNL A   1      43.153  18.697  25.047  1.00  0.00    -0.237 OA
ATOM     85  O   UNL A   1      42.538  18.388  27.410  1.00  0.00    -0.744 OA
ENDBRANCH  81  82
ENDBRANCH  49  74
BRANCH  61  86
ATOM     86  C   UNL A   1      49.635  26.455  26.549  1.00  0.00     0.058 A 
ATOM     87  C   UNL A   1      50.515  25.973  27.530  1.00  0.00     0.135 A 
ATOM     88  C   UNL A   1      50.059  26.430  25.211  1.00  0.00     0.135 A 
ATOM     89  F   UNL A   1      50.160  25.990  28.824  1.00  0.00    -0.206 F 
ATOM     90  C   UNL A   1      51.782  25.506  27.200  1.00  0.00     0.059 A 
ATOM     91  C   UNL A   1      51.315  25.948  24.857  1.00  0.00     0.059 A 
ATOM     92  F   UNL A   1      49.251  26.878  24.238  1.00  0.00    -0.206 F 
ATOM     93  C   UNL A   1      52.176  25.503  25.860  1.00  0.00     0.060 A 
BRANCH  93  94
ATOM     94  S   UNL A   1      53.820  24.888  25.439  1.00  0.00     0.124 S 
ATOM     95  O   UNL A   1      54.547  25.123  26.681  1.00  0.00    -0.237 OA
ATOM     96  O   UNL A   1      53.560  23.489  25.111  1.00  0.00    -0.237 OA
ATOM     97  O   UNL A   1      54.215  25.726  24.310  1.00  0.00    -0.744 OA
ENDBRANCH  93  94
ENDBRANCH  61  86
ENDBRANCH  35  36
ENDBRANCH  28  30
ENDBRANCH  27  28
ENDBRANCH  26  27
ENDBRANCH   1  26
TORSDOF 17
ENDMDL
