MODEL 1
REMARK VINA RESULT:     -10.6      0.000      0.000
REMARK SMILES O=C(/C=C/c1ccc(C(=O)NC2CC2)cc1)NC1(C(=O)OCCOC(=O)c2ccc(-c3c4nc(c(-c5c(F)cc(S(=O)(=O)[O-])cc5F)c5ccc([nH]5)c(-c5c(F)cc(S(=O)(=O)[O-])cc5F)c5nc(c(-c6c(F)cc(S(=O)(=O)[O-])cc6F)c6ccc3[nH]6)C=C5)C=C4)cc2)CCCC1
REMARK SMILES IDX 22 1 21 2 19 3 20 4 18 5 93 6 96 7 94 8 95 9 17 10 1 11 2 12
REMARK SMILES IDX 3 14 4 15 5 16 6 17 16 18 7 19 15 20 8 21 9 22 10 23 11 24
REMARK SMILES IDX 12 26 13 27 14 28 23 29 24 30 25 31 26 32 27 33 28 34 92 35
REMARK SMILES IDX 29 36 91 37 30 38 31 39 32 40 85 41 33 42 90 43 84 44 86 45
REMARK SMILES IDX 34 46 89 47 83 48 82 49 35 51 69 52 48 53 68 54 49 55 52 56
REMARK SMILES IDX 67 57 87 58 50 59 51 60 66 62 88 63 53 64 36 65 37 66 46 67
REMARK SMILES IDX 38 68 39 69 45 70 47 71 40 72 41 73 42 74 43 75 44 76 70 77
REMARK SMILES IDX 71 78 80 79 72 80 73 81 79 82 81 83 74 84 75 85 76 86 77 87
REMARK SMILES IDX 78 88 54 89 55 90 64 91 56 92 57 93 63 94 65 95 58 96 59 97
REMARK SMILES IDX 60 98 61 99 62 100
REMARK H PARENT 17 13 11 25 86 50 52 61
REMARK Flexibility Score: inf
ROOT
ATOM      1  C   UNL A   1      45.191  25.208  25.793  1.00  0.00     0.274 C 
ENDROOT
BRANCH   1   2
ATOM      2  O   UNL A   1      44.947  25.208  27.213  1.00  0.00    -0.460 OA
BRANCH   2   3
ATOM      3  C   UNL A   1      44.673  24.007  27.793  1.00  0.00     0.331 C 
ATOM      4  O   UNL A   1      45.295  22.972  27.568  1.00  0.00    -0.249 OA
BRANCH   3   5
ATOM      5  C   UNL A   1      43.430  24.047  28.725  1.00  0.00     0.138 C 
ATOM      6  C   UNL A   1      43.500  25.350  29.533  1.00  0.00     0.040 C 
ATOM      7  C   UNL A   1      43.442  22.942  29.794  1.00  0.00     0.040 C 
ATOM      8  C   UNL A   1      44.417  25.011  30.700  1.00  0.00     0.003 C 
ATOM      9  C   UNL A   1      44.154  23.541  31.012  1.00  0.00     0.003 C 
BRANCH   5  10
ATOM     10  N   UNL A   1      42.246  23.980  27.846  1.00  0.00    -0.337 N 
ATOM     11  O   UNL A   1      42.131  21.701  27.520  1.00  0.00    -0.270 OA
ATOM     12  C   UNL A   1      41.720  22.833  27.310  1.00  0.00     0.244 C 
ATOM     13  H   UNL A   1      41.798  24.829  27.627  1.00  0.00     0.164 HD
BRANCH  12  14
ATOM     14  C   UNL A   1      40.502  23.052  26.500  1.00  0.00     0.072 C 
ATOM     15  C   UNL A   1      39.498  22.162  26.494  1.00  0.00     0.014 C 
BRANCH  15  16
ATOM     16  C   UNL A   1      38.253  22.343  25.734  1.00  0.00    -0.025 A 
ATOM     17  C   UNL A   1      37.580  23.563  25.800  1.00  0.00     0.009 A 
ATOM     18  C   UNL A   1      37.668  21.302  25.004  1.00  0.00     0.009 A 
ATOM     19  C   UNL A   1      36.370  23.745  25.118  1.00  0.00     0.014 A 
ATOM     20  C   UNL A   1      36.452  21.487  24.325  1.00  0.00     0.014 A 
ATOM     21  C   UNL A   1      35.787  22.713  24.361  1.00  0.00     0.039 A 
BRANCH  21  22
ATOM     22  C   UNL A   1      34.482  23.029  23.703  1.00  0.00     0.251 C 
ATOM     23  O   UNL A   1      34.484  23.295  22.501  1.00  0.00    -0.269 OA
ATOM     24  N   UNL A   1      33.261  23.023  24.338  1.00  0.00    -0.349 N 
ATOM     25  H   UNL A   1      32.521  23.367  23.788  1.00  0.00     0.164 HD
BRANCH  24  26
ATOM     26  C   UNL A   1      32.872  22.612  25.637  1.00  0.00     0.082 C 
ATOM     27  C   UNL A   1      32.313  23.617  26.609  1.00  0.00     0.027 C 
ATOM     28  C   UNL A   1      31.425  22.555  26.035  1.00  0.00     0.027 C 
ENDBRANCH  24  26
ENDBRANCH  21  22
ENDBRANCH  15  16
ENDBRANCH  12  14
ENDBRANCH   5  10
ENDBRANCH   3   5
ENDBRANCH   2   3
ENDBRANCH   1   2
BRANCH   1  29
ATOM     29  C   UNL A   1      43.908  24.921  25.019  1.00  0.00     0.275 C 
BRANCH  29  30
ATOM     30  O   UNL A   1      42.814  25.627  25.627  1.00  0.00    -0.458 OA
BRANCH  30  31
ATOM     31  C   UNL A   1      42.705  26.937  25.309  1.00  0.00     0.338 C 
ATOM     32  O   UNL A   1      42.958  27.467  24.242  1.00  0.00    -0.246 OA
BRANCH  31  33
ATOM     33  C   UNL A   1      42.173  27.666  26.470  1.00  0.00     0.060 A 
ATOM     34  C   UNL A   1      42.736  28.893  26.809  1.00  0.00     0.016 A 
ATOM     35  C   UNL A   1      41.203  27.088  27.286  1.00  0.00     0.016 A 
ATOM     36  C   UNL A   1      42.386  29.512  28.005  1.00  0.00     0.010 A 
ATOM     37  C   UNL A   1      40.800  27.751  28.453  1.00  0.00     0.010 A 
ATOM     38  C   UNL A   1      41.417  28.951  28.850  1.00  0.00    -0.014 A 
BRANCH  38  39
ATOM     39  C   UNL A   1      41.129  29.577  30.175  1.00  0.00     0.031 A 
ATOM     40  C   UNL A   1      39.940  30.495  30.325  1.00  0.00     0.074 A 
ATOM     41  C   UNL A   1      41.867  29.270  31.263  1.00  0.00     0.049 A 
ATOM     42  N   UNL A   1      39.602  31.251  31.336  1.00  0.00    -0.248 NA
ATOM     43  C   UNL A   1      39.008  30.571  29.186  1.00  0.00     0.031 C 
ATOM     44  C   UNL A   1      42.993  28.334  31.280  1.00  0.00     0.029 A 
ATOM     45  N   UNL A   1      41.772  29.687  32.571  1.00  0.00    -0.354 N 
ATOM     46  C   UNL A   1      38.447  31.921  30.946  1.00  0.00     0.074 A 
ATOM     47  C   UNL A   1      38.146  31.489  29.599  1.00  0.00     0.031 C 
ATOM     48  C   UNL A   1      43.441  28.201  32.538  1.00  0.00     0.029 A 
ATOM     49  C   UNL A   1      42.708  29.118  33.407  1.00  0.00     0.049 A 
ATOM     50  H   UNL A   1      41.097  30.334  32.881  1.00  0.00     0.167 HD
ATOM     51  C   UNL A   1      37.706  32.813  31.648  1.00  0.00     0.037 A 
ATOM     52  C   UNL A   1      42.975  29.329  34.713  1.00  0.00     0.037 A 
ATOM     53  C   UNL A   1      37.990  33.207  33.003  1.00  0.00     0.049 A 
ATOM     54  C   UNL A   1      42.166  30.356  35.458  1.00  0.00     0.074 A 
ATOM     55  C   UNL A   1      37.385  34.193  33.764  1.00  0.00     0.029 A 
ATOM     56  N   UNL A   1      38.927  32.593  33.821  1.00  0.00    -0.354 N 
ATOM     57  N   UNL A   1      41.169  31.088  35.024  1.00  0.00    -0.248 NA
ATOM     58  C   UNL A   1      42.525  30.607  36.860  1.00  0.00     0.031 C 
ATOM     59  C   UNL A   1      37.988  34.203  35.028  1.00  0.00     0.029 A 
ATOM     60  C   UNL A   1      38.947  33.204  35.063  1.00  0.00     0.049 A 
ATOM     61  H   UNL A   1      39.495  31.833  33.557  1.00  0.00     0.167 HD
ATOM     62  C   UNL A   1      40.770  31.873  36.099  1.00  0.00     0.074 A 
ATOM     63  C   UNL A   1      41.625  31.516  37.213  1.00  0.00     0.031 C 
ATOM     64  C   UNL A   1      39.798  32.815  36.159  1.00  0.00     0.037 A 
BRANCH  51  65
ATOM     65  C   UNL A   1      36.552  33.467  30.939  1.00  0.00     0.058 A 
ATOM     66  C   UNL A   1      36.743  34.365  29.880  1.00  0.00     0.135 A 
ATOM     67  C   UNL A   1      35.232  33.173  31.320  1.00  0.00     0.135 A 
ATOM     68  F   UNL A   1      37.984  34.706  29.496  1.00  0.00    -0.206 F 
ATOM     69  C   UNL A   1      35.664  34.964  29.232  1.00  0.00     0.059 A 
ATOM     70  C   UNL A   1      34.140  33.744  30.673  1.00  0.00     0.059 A 
ATOM     71  F   UNL A   1      34.993  32.325  32.334  1.00  0.00    -0.206 F 
ATOM     72  C   UNL A   1      34.367  34.649  29.639  1.00  0.00     0.060 A 
BRANCH  72  73
ATOM     73  S   UNL A   1      32.975  35.436  28.799  1.00  0.00     0.124 S 
ATOM     74  O   UNL A   1      33.654  36.456  28.005  1.00  0.00    -0.237 OA
ATOM     75  O   UNL A   1      32.393  34.331  28.046  1.00  0.00    -0.237 OA
ATOM     76  O   UNL A   1      32.156  35.941  29.898  1.00  0.00    -0.744 OA
ENDBRANCH  72  73
ENDBRANCH  51  65
BRANCH  52  77
ATOM     77  C   UNL A   1      44.067  28.568  35.390  1.00  0.00     0.058 A 
ATOM     78  C   UNL A   1      43.809  27.353  36.042  1.00  0.00     0.135 A 
ATOM     79  C   UNL A   1      45.397  29.019  35.381  1.00  0.00     0.135 A 
ATOM     80  F   UNL A   1      42.556  26.895  36.139  1.00  0.00    -0.206 F 
ATOM     81  C   UNL A   1      44.820  26.600  36.629  1.00  0.00     0.059 A 
ATOM     82  C   UNL A   1      46.432  28.274  35.942  1.00  0.00     0.059 A 
ATOM     83  F   UNL A   1      45.709  30.181  34.787  1.00  0.00    -0.206 F 
ATOM     84  C   UNL A   1      46.132  27.064  36.564  1.00  0.00     0.060 A 
BRANCH  84  85
ATOM     85  S   UNL A   1      47.444  26.038  37.259  1.00  0.00     0.124 S 
ATOM     86  O   UNL A   1      46.678  25.054  38.015  1.00  0.00    -0.237 OA
ATOM     87  O   UNL A   1      48.113  25.542  36.059  1.00  0.00    -0.237 OA
ATOM     88  O   UNL A   1      48.221  26.984  38.053  1.00  0.00    -0.744 OA
ENDBRANCH  84  85
ENDBRANCH  52  77
BRANCH  64  89
ATOM     89  C   UNL A   1      39.608  33.522  37.469  1.00  0.00     0.058 A 
ATOM     90  C   UNL A   1      40.323  34.689  37.774  1.00  0.00     0.135 A 
ATOM     91  C   UNL A   1      38.666  33.061  38.400  1.00  0.00     0.135 A 
ATOM     92  F   UNL A   1      41.241  35.165  36.917  1.00  0.00    -0.206 F 
ATOM     93  C   UNL A   1      40.125  35.367  38.972  1.00  0.00     0.059 A 
ATOM     94  C   UNL A   1      38.438  33.733  39.597  1.00  0.00     0.059 A 
ATOM     95  F   UNL A   1      37.957  31.947  38.154  1.00  0.00    -0.206 F 
ATOM     96  C   UNL A   1      39.181  34.881  39.878  1.00  0.00     0.060 A 
BRANCH  96  97
ATOM     97  S   UNL A   1      38.911  35.784  41.418  1.00  0.00     0.124 S 
ATOM     98  O   UNL A   1      37.653  35.207  41.879  1.00  0.00    -0.237 OA
ATOM     99  O   UNL A   1      40.093  35.435  42.200  1.00  0.00    -0.237 OA
ATOM    100  O   UNL A   1      38.843  37.177  40.987  1.00  0.00    -0.744 OA
ENDBRANCH  96  97
ENDBRANCH  64  89
ENDBRANCH  38  39
ENDBRANCH  31  33
ENDBRANCH  30  31
ENDBRANCH  29  30
ENDBRANCH   1  29
TORSDOF 19
ENDMDL
MODEL 2
REMARK VINA RESULT:     -10.4      2.508     10.055
REMARK SMILES O=C(/C=C/c1ccc(C(=O)NC2CC2)cc1)NC1(C(=O)OCCOC(=O)c2ccc(-c3c4nc(c(-c5c(F)cc(S(=O)(=O)[O-])cc5F)c5ccc([nH]5)c(-c5c(F)cc(S(=O)(=O)[O-])cc5F)c5nc(c(-c6c(F)cc(S(=O)(=O)[O-])cc6F)c6ccc3[nH]6)C=C5)C=C4)cc2)CCCC1
REMARK SMILES IDX 22 1 21 2 19 3 20 4 18 5 93 6 96 7 94 8 95 9 17 10 1 11 2 12
REMARK SMILES IDX 3 14 4 15 5 16 6 17 16 18 7 19 15 20 8 21 9 22 10 23 11 24
REMARK SMILES IDX 12 26 13 27 14 28 23 29 24 30 25 31 26 32 27 33 28 34 92 35
REMARK SMILES IDX 29 36 91 37 30 38 31 39 32 40 85 41 33 42 90 43 84 44 86 45
REMARK SMILES IDX 34 46 89 47 83 48 82 49 35 51 69 52 48 53 68 54 49 55 52 56
REMARK SMILES IDX 67 57 87 58 50 59 51 60 66 62 88 63 53 64 36 65 37 66 46 67
REMARK SMILES IDX 38 68 39 69 45 70 47 71 40 72 41 73 42 74 43 75 44 76 70 77
REMARK SMILES IDX 71 78 80 79 72 80 73 81 79 82 81 83 74 84 75 85 76 86 77 87
REMARK SMILES IDX 78 88 54 89 55 90 64 91 56 92 57 93 63 94 65 95 58 96 59 97
REMARK SMILES IDX 60 98 61 99 62 100
REMARK H PARENT 17 13 11 25 86 50 52 61
REMARK Flexibility Score: inf
ROOT
ATOM      1  C   UNL A   1      44.335  23.293  24.363  1.00  0.00     0.274 C 
ENDROOT
BRANCH   1   2
ATOM      2  O   UNL A   1      43.096  22.609  24.635  1.00  0.00    -0.460 OA
BRANCH   2   3
ATOM      3  C   UNL A   1      43.167  21.476  25.388  1.00  0.00     0.331 C 
ATOM      4  O   UNL A   1      43.736  20.446  25.035  1.00  0.00    -0.249 OA
BRANCH   3   5
ATOM      5  C   UNL A   1      42.382  21.580  26.725  1.00  0.00     0.138 C 
ATOM      6  C   UNL A   1      41.937  20.163  27.111  1.00  0.00     0.040 C 
ATOM      7  C   UNL A   1      41.067  22.363  26.593  1.00  0.00     0.040 C 
ATOM      8  C   UNL A   1      40.652  19.954  26.323  1.00  0.00     0.003 C 
ATOM      9  C   UNL A   1      39.992  21.327  26.248  1.00  0.00     0.003 C 
BRANCH   5  10
ATOM     10  N   UNL A   1      43.309  22.177  27.707  1.00  0.00    -0.337 N 
ATOM     11  O   UNL A   1      41.792  22.879  29.296  1.00  0.00    -0.270 OA
ATOM     12  C   UNL A   1      42.938  22.785  28.879  1.00  0.00     0.244 C 
ATOM     13  H   UNL A   1      44.271  22.135  27.504  1.00  0.00     0.164 HD
BRANCH  12  14
ATOM     14  C   UNL A   1      44.077  23.257  29.698  1.00  0.00     0.072 C 
ATOM     15  C   UNL A   1      44.126  24.513  30.166  1.00  0.00     0.014 C 
BRANCH  15  16
ATOM     16  C   UNL A   1      45.215  25.026  31.009  1.00  0.00    -0.025 A 
ATOM     17  C   UNL A   1      46.333  25.605  30.409  1.00  0.00     0.009 A 
ATOM     18  C   UNL A   1      45.210  24.883  32.401  1.00  0.00     0.009 A 
ATOM     19  C   UNL A   1      47.402  26.063  31.190  1.00  0.00     0.014 A 
ATOM     20  C   UNL A   1      46.286  25.340  33.181  1.00  0.00     0.014 A 
ATOM     21  C   UNL A   1      47.395  25.946  32.592  1.00  0.00     0.039 A 
BRANCH  21  22
ATOM     22  C   UNL A   1      48.609  26.451  33.306  1.00  0.00     0.251 C 
ATOM     23  O   UNL A   1      49.322  25.636  33.892  1.00  0.00    -0.269 OA
ATOM     24  N   UNL A   1      49.008  27.767  33.339  1.00  0.00    -0.349 N 
ATOM     25  H   UNL A   1      49.760  27.943  33.949  1.00  0.00     0.164 HD
BRANCH  24  26
ATOM     26  C   UNL A   1      48.536  28.917  32.658  1.00  0.00     0.082 C 
ATOM     27  C   UNL A   1      49.182  30.255  32.902  1.00  0.00     0.027 C 
ATOM     28  C   UNL A   1      49.351  29.571  31.579  1.00  0.00     0.027 C 
ENDBRANCH  24  26
ENDBRANCH  21  22
ENDBRANCH  15  16
ENDBRANCH  12  14
ENDBRANCH   5  10
ENDBRANCH   3   5
ENDBRANCH   2   3
ENDBRANCH   1   2
BRANCH   1  29
ATOM     29  C   UNL A   1      44.324  24.697  24.960  1.00  0.00     0.275 C 
BRANCH  29  30
ATOM     30  O   UNL A   1      43.351  24.761  26.016  1.00  0.00    -0.458 OA
BRANCH  30  31
ATOM     31  C   UNL A   1      42.422  25.738  25.906  1.00  0.00     0.338 C 
ATOM     32  O   UNL A   1      41.703  25.978  24.953  1.00  0.00    -0.246 OA
BRANCH  31  33
ATOM     33  C   UNL A   1      42.365  26.484  27.172  1.00  0.00     0.060 A 
ATOM     34  C   UNL A   1      41.437  26.104  28.138  1.00  0.00     0.016 A 
ATOM     35  C   UNL A   1      43.144  27.624  27.358  1.00  0.00     0.016 A 
ATOM     36  C   UNL A   1      41.231  26.902  29.258  1.00  0.00     0.010 A 
ATOM     37  C   UNL A   1      42.985  28.386  28.523  1.00  0.00     0.010 A 
ATOM     38  C   UNL A   1      41.996  28.059  29.469  1.00  0.00    -0.014 A 
BRANCH  38  39
ATOM     39  C   UNL A   1      41.691  28.956  30.623  1.00  0.00     0.031 A 
ATOM     40  C   UNL A   1      42.633  29.002  31.801  1.00  0.00     0.074 A 
ATOM     41  C   UNL A   1      40.629  29.789  30.593  1.00  0.00     0.049 A 
ATOM     42  N   UNL A   1      42.481  29.591  32.959  1.00  0.00    -0.248 NA
ATOM     43  C   UNL A   1      43.916  28.292  31.659  1.00  0.00     0.031 C 
ATOM     44  C   UNL A   1      39.683  29.909  29.482  1.00  0.00     0.029 A 
ATOM     45  N   UNL A   1      40.175  30.713  31.507  1.00  0.00    -0.354 N 
ATOM     46  C   UNL A   1      43.623  29.294  33.695  1.00  0.00     0.074 A 
ATOM     47  C   UNL A   1      44.457  28.461  32.858  1.00  0.00     0.031 C 
ATOM     48  C   UNL A   1      38.805  30.888  29.749  1.00  0.00     0.029 A 
ATOM     49  C   UNL A   1      39.054  31.400  31.094  1.00  0.00     0.049 A 
ATOM     50  H   UNL A   1      40.610  30.868  32.377  1.00  0.00     0.167 HD
ATOM     51  C   UNL A   1      43.944  29.681  34.953  1.00  0.00     0.037 A 
ATOM     52  C   UNL A   1      38.288  32.311  31.731  1.00  0.00     0.037 A 
ATOM     53  C   UNL A   1      43.127  30.543  35.766  1.00  0.00     0.049 A 
ATOM     54  C   UNL A   1      38.643  32.691  33.143  1.00  0.00     0.074 A 
ATOM     55  C   UNL A   1      43.291  30.895  37.095  1.00  0.00     0.029 A 
ATOM     56  N   UNL A   1      42.015  31.235  35.307  1.00  0.00    -0.354 N 
ATOM     57  N   UNL A   1      39.650  32.280  33.875  1.00  0.00    -0.248 NA
ATOM     58  C   UNL A   1      37.752  33.636  33.829  1.00  0.00     0.031 C 
ATOM     59  C   UNL A   1      42.254  31.766  37.450  1.00  0.00     0.029 A 
ATOM     60  C   UNL A   1      41.461  31.979  36.334  1.00  0.00     0.049 A 
ATOM     61  H   UNL A   1      41.672  31.203  34.384  1.00  0.00     0.167 HD
ATOM     62  C   UNL A   1      39.526  32.927  35.098  1.00  0.00     0.074 A 
ATOM     63  C   UNL A   1      38.352  33.771  35.004  1.00  0.00     0.031 C 
ATOM     64  C   UNL A   1      40.301  32.824  36.206  1.00  0.00     0.037 A 
BRANCH  51  65
ATOM     65  C   UNL A   1      45.208  29.125  35.549  1.00  0.00     0.058 A 
ATOM     66  C   UNL A   1      45.271  27.831  36.085  1.00  0.00     0.135 A 
ATOM     67  C   UNL A   1      46.380  29.899  35.566  1.00  0.00     0.135 A 
ATOM     68  F   UNL A   1      44.172  27.060  36.123  1.00  0.00    -0.206 F 
ATOM     69  C   UNL A   1      46.449  27.328  36.633  1.00  0.00     0.059 A 
ATOM     70  C   UNL A   1      47.574  29.409  36.090  1.00  0.00     0.059 A 
ATOM     71  F   UNL A   1      46.374  31.148  35.072  1.00  0.00    -0.206 F 
ATOM     72  C   UNL A   1      47.594  28.127  36.634  1.00  0.00     0.060 A 
BRANCH  72  73
ATOM     73  S   UNL A   1      49.114  27.470  37.355  1.00  0.00     0.124 S 
ATOM     74  O   UNL A   1      50.127  28.058  36.484  1.00  0.00    -0.237 OA
ATOM     75  O   UNL A   1      49.071  27.991  38.717  1.00  0.00    -0.237 OA
ATOM     76  O   UNL A   1      48.949  26.024  37.236  1.00  0.00    -0.744 OA
ENDBRANCH  72  73
ENDBRANCH  51  65
BRANCH  52  77
ATOM     77  C   UNL A   1      37.104  32.909  31.046  1.00  0.00     0.058 A 
ATOM     78  C   UNL A   1      37.253  33.938  30.105  1.00  0.00     0.135 A 
ATOM     79  C   UNL A   1      35.799  32.451  31.291  1.00  0.00     0.135 A 
ATOM     80  F   UNL A   1      38.461  34.462  29.867  1.00  0.00    -0.206 F 
ATOM     81  C   UNL A   1      36.170  34.471  29.413  1.00  0.00     0.059 A 
ATOM     82  C   UNL A   1      34.700  32.951  30.597  1.00  0.00     0.059 A 
ATOM     83  F   UNL A   1      35.586  31.478  32.191  1.00  0.00    -0.206 F 
ATOM     84  C   UNL A   1      34.897  33.961  29.658  1.00  0.00     0.060 A 
BRANCH  84  85
ATOM     85  S   UNL A   1      33.512  34.604  28.696  1.00  0.00     0.124 S 
ATOM     86  O   UNL A   1      34.121  35.753  28.037  1.00  0.00    -0.237 OA
ATOM     87  O   UNL A   1      33.187  33.471  27.833  1.00  0.00    -0.237 OA
ATOM     88  O   UNL A   1      32.513  34.912  29.714  1.00  0.00    -0.744 OA
ENDBRANCH  84  85
ENDBRANCH  52  77
BRANCH  64  89
ATOM     89  C   UNL A   1      39.903  33.641  37.400  1.00  0.00     0.058 A 
ATOM     90  C   UNL A   1      38.936  33.182  38.305  1.00  0.00     0.135 A 
ATOM     91  C   UNL A   1      40.532  34.866  37.669  1.00  0.00     0.135 A 
ATOM     92  F   UNL A   1      38.302  32.019  38.086  1.00  0.00    -0.206 F 
ATOM     93  C   UNL A   1      38.589  33.920  39.432  1.00  0.00     0.059 A 
ATOM     94  C   UNL A   1      40.214  35.612  38.799  1.00  0.00     0.059 A 
ATOM     95  F   UNL A   1      41.463  35.349  36.831  1.00  0.00    -0.206 F 
ATOM     96  C   UNL A   1      39.234  35.135  39.670  1.00  0.00     0.060 A 
BRANCH  96  97
ATOM     97  S   UNL A   1      38.797  36.073  41.150  1.00  0.00     0.124 S 
ATOM     98  O   UNL A   1      38.538  37.396  40.592  1.00  0.00    -0.237 OA
ATOM     99  O   UNL A   1      37.626  35.355  41.645  1.00  0.00    -0.237 OA
ATOM    100  O   UNL A   1      39.989  35.965  41.985  1.00  0.00    -0.744 OA
ENDBRANCH  96  97
ENDBRANCH  64  89
ENDBRANCH  38  39
ENDBRANCH  31  33
ENDBRANCH  30  31
ENDBRANCH  29  30
ENDBRANCH   1  29
TORSDOF 19
ENDMDL
MODEL 3
REMARK VINA RESULT:     -10.3      5.980     13.361
REMARK SMILES O=C(/C=C/c1ccc(C(=O)NC2CC2)cc1)NC1(C(=O)OCCOC(=O)c2ccc(-c3c4nc(c(-c5c(F)cc(S(=O)(=O)[O-])cc5F)c5ccc([nH]5)c(-c5c(F)cc(S(=O)(=O)[O-])cc5F)c5nc(c(-c6c(F)cc(S(=O)(=O)[O-])cc6F)c6ccc3[nH]6)C=C5)C=C4)cc2)CCCC1
REMARK SMILES IDX 22 1 21 2 19 3 20 4 18 5 93 6 96 7 94 8 95 9 17 10 1 11 2 12
REMARK SMILES IDX 3 14 4 15 5 16 6 17 16 18 7 19 15 20 8 21 9 22 10 23 11 24
REMARK SMILES IDX 12 26 13 27 14 28 23 29 24 30 25 31 26 32 27 33 28 34 92 35
REMARK SMILES IDX 29 36 91 37 30 38 31 39 32 40 85 41 33 42 90 43 84 44 86 45
REMARK SMILES IDX 34 46 89 47 83 48 82 49 35 51 69 52 48 53 68 54 49 55 52 56
REMARK SMILES IDX 67 57 87 58 50 59 51 60 66 62 88 63 53 64 36 65 37 66 46 67
REMARK SMILES IDX 38 68 39 69 45 70 47 71 40 72 41 73 42 74 43 75 44 76 70 77
REMARK SMILES IDX 71 78 80 79 72 80 73 81 79 82 81 83 74 84 75 85 76 86 77 87
REMARK SMILES IDX 78 88 54 89 55 90 64 91 56 92 57 93 63 94 65 95 58 96 59 97
REMARK SMILES IDX 60 98 61 99 62 100
REMARK H PARENT 17 13 11 25 86 50 52 61
REMARK Flexibility Score: inf
ROOT
ATOM      1  C   UNL A   1      35.225  32.741  32.877  1.00  0.00     0.274 C 
ENDROOT
BRANCH   1   2
ATOM      2  O   UNL A   1      36.442  33.366  33.330  1.00  0.00    -0.460 OA
BRANCH   2   3
ATOM      3  C   UNL A   1      36.748  33.240  34.651  1.00  0.00     0.331 C 
ATOM      4  O   UNL A   1      35.984  33.533  35.568  1.00  0.00    -0.249 OA
BRANCH   3   5
ATOM      5  C   UNL A   1      38.203  32.756  34.900  1.00  0.00     0.138 C 
ATOM      6  C   UNL A   1      38.144  31.256  35.220  1.00  0.00     0.040 C 
ATOM      7  C   UNL A   1      38.841  33.381  36.150  1.00  0.00     0.040 C 
ATOM      8  C   UNL A   1      37.829  31.210  36.708  1.00  0.00     0.003 C 
ATOM      9  C   UNL A   1      38.516  32.433  37.309  1.00  0.00     0.003 C 
BRANCH   5  10
ATOM     10  N   UNL A   1      38.957  33.049  33.665  1.00  0.00    -0.337 N 
ATOM     11  O   UNL A   1      40.815  31.730  34.020  1.00  0.00    -0.270 OA
ATOM     12  C   UNL A   1      40.188  32.536  33.347  1.00  0.00     0.244 C 
ATOM     13  H   UNL A   1      38.542  33.663  33.017  1.00  0.00     0.164 HD
BRANCH  12  14
ATOM     14  C   UNL A   1      40.693  32.963  32.023  1.00  0.00     0.072 C 
ATOM     15  C   UNL A   1      40.902  34.258  31.741  1.00  0.00     0.014 C 
BRANCH  15  16
ATOM     16  C   UNL A   1      41.432  34.737  30.456  1.00  0.00    -0.025 A 
ATOM     17  C   UNL A   1      42.778  35.091  30.358  1.00  0.00     0.009 A 
ATOM     18  C   UNL A   1      40.613  34.927  29.337  1.00  0.00     0.009 A 
ATOM     19  C   UNL A   1      43.296  35.588  29.155  1.00  0.00     0.014 A 
ATOM     20  C   UNL A   1      41.136  35.431  28.134  1.00  0.00     0.014 A 
ATOM     21  C   UNL A   1      42.486  35.761  28.018  1.00  0.00     0.039 A 
BRANCH  21  22
ATOM     22  C   UNL A   1      43.156  36.324  26.806  1.00  0.00     0.251 C 
ATOM     23  O   UNL A   1      43.662  35.541  26.002  1.00  0.00    -0.269 OA
ATOM     24  N   UNL A   1      43.232  37.664  26.503  1.00  0.00    -0.349 N 
ATOM     25  H   UNL A   1      43.808  37.869  25.731  1.00  0.00     0.164 HD
BRANCH  24  26
ATOM     26  C   UNL A   1      42.634  38.804  27.095  1.00  0.00     0.082 C 
ATOM     27  C   UNL A   1      42.895  40.174  26.527  1.00  0.00     0.027 C 
ATOM     28  C   UNL A   1      41.535  39.557  26.402  1.00  0.00     0.027 C 
ENDBRANCH  24  26
ENDBRANCH  21  22
ENDBRANCH  15  16
ENDBRANCH  12  14
ENDBRANCH   5  10
ENDBRANCH   3   5
ENDBRANCH   2   3
ENDBRANCH   1   2
BRANCH   1  29
ATOM     29  C   UNL A   1      35.528  31.495  32.049  1.00  0.00     0.275 C 
BRANCH  29  30
ATOM     30  O   UNL A   1      36.597  31.778  31.132  1.00  0.00    -0.458 OA
BRANCH  30  31
ATOM     31  C   UNL A   1      36.460  31.268  29.887  1.00  0.00     0.338 C 
ATOM     32  O   UNL A   1      35.512  31.391  29.133  1.00  0.00    -0.246 OA
BRANCH  31  33
ATOM     33  C   UNL A   1      37.690  30.543  29.532  1.00  0.00     0.060 A 
ATOM     34  C   UNL A   1      38.627  30.278  30.527  1.00  0.00     0.016 A 
ATOM     35  C   UNL A   1      37.968  30.228  28.203  1.00  0.00     0.016 A 
ATOM     36  C   UNL A   1      39.875  29.767  30.188  1.00  0.00     0.010 A 
ATOM     37  C   UNL A   1      39.198  29.644  27.876  1.00  0.00     0.010 A 
ATOM     38  C   UNL A   1      40.186  29.446  28.859  1.00  0.00    -0.014 A 
BRANCH  38  39
ATOM     39  C   UNL A   1      41.564  28.994  28.501  1.00  0.00     0.031 A 
ATOM     40  C   UNL A   1      42.719  29.959  28.617  1.00  0.00     0.074 A 
ATOM     41  C   UNL A   1      41.807  27.712  28.154  1.00  0.00     0.049 A 
ATOM     42  N   UNL A   1      43.956  29.820  28.218  1.00  0.00    -0.248 NA
ATOM     43  C   UNL A   1      42.446  31.253  29.268  1.00  0.00     0.031 C 
ATOM     44  C   UNL A   1      40.798  26.654  28.082  1.00  0.00     0.029 A 
ATOM     45  N   UNL A   1      42.977  27.069  27.821  1.00  0.00    -0.354 N 
ATOM     46  C   UNL A   1      44.598  31.013  28.532  1.00  0.00     0.074 A 
ATOM     47  C   UNL A   1      43.611  31.873  29.145  1.00  0.00     0.031 C 
ATOM     48  C   UNL A   1      41.397  25.489  27.791  1.00  0.00     0.029 A 
ATOM     49  C   UNL A   1      42.817  25.727  27.551  1.00  0.00     0.049 A 
ATOM     50  H   UNL A   1      43.848  27.526  27.778  1.00  0.00     0.167 HD
ATOM     51  C   UNL A   1      45.893  31.358  28.326  1.00  0.00     0.037 A 
ATOM     52  C   UNL A   1      43.698  24.798  27.125  1.00  0.00     0.037 A 
ATOM     53  C   UNL A   1      46.879  30.482  27.751  1.00  0.00     0.049 A 
ATOM     54  C   UNL A   1      45.119  25.217  26.864  1.00  0.00     0.074 A 
ATOM     55  C   UNL A   1      48.183  30.767  27.381  1.00  0.00     0.029 A 
ATOM     56  N   UNL A   1      46.687  29.128  27.514  1.00  0.00    -0.354 N 
ATOM     57  N   UNL A   1      45.670  26.395  27.027  1.00  0.00    -0.248 NA
ATOM     58  C   UNL A   1      46.037  24.196  26.340  1.00  0.00     0.031 C 
ATOM     59  C   UNL A   1      48.763  29.595  26.879  1.00  0.00     0.029 A 
ATOM     60  C   UNL A   1      47.831  28.574  26.965  1.00  0.00     0.049 A 
ATOM     61  H   UNL A   1      45.858  28.634  27.709  1.00  0.00     0.167 HD
ATOM     62  C   UNL A   1      46.999  26.256  26.644  1.00  0.00     0.074 A 
ATOM     63  C   UNL A   1      47.175  24.872  26.254  1.00  0.00     0.031 C 
ATOM     64  C   UNL A   1      47.982  27.188  26.602  1.00  0.00     0.037 A 
BRANCH  51  65
ATOM     65  C   UNL A   1      46.300  32.764  28.672  1.00  0.00     0.058 A 
ATOM     66  C   UNL A   1      46.680  33.129  29.971  1.00  0.00     0.135 A 
ATOM     67  C   UNL A   1      46.324  33.756  27.678  1.00  0.00     0.135 A 
ATOM     68  F   UNL A   1      46.643  32.228  30.966  1.00  0.00    -0.206 F 
ATOM     69  C   UNL A   1      47.055  34.435  30.278  1.00  0.00     0.059 A 
ATOM     70  C   UNL A   1      46.715  35.063  27.958  1.00  0.00     0.059 A 
ATOM     71  F   UNL A   1      45.962  33.462  26.419  1.00  0.00    -0.206 F 
ATOM     72  C   UNL A   1      47.065  35.396  29.265  1.00  0.00     0.060 A 
BRANCH  72  73
ATOM     73  S   UNL A   1      47.545  37.088  29.674  1.00  0.00     0.124 S 
ATOM     74  O   UNL A   1      46.291  37.805  29.462  1.00  0.00    -0.237 OA
ATOM     75  O   UNL A   1      47.979  36.968  31.062  1.00  0.00    -0.237 OA
ATOM     76  O   UNL A   1      48.605  37.382  28.713  1.00  0.00    -0.744 OA
ENDBRANCH  72  73
ENDBRANCH  51  65
BRANCH  52  77
ATOM     77  C   UNL A   1      43.257  23.389  26.902  1.00  0.00     0.058 A 
ATOM     78  C   UNL A   1      43.077  22.881  25.607  1.00  0.00     0.135 A 
ATOM     79  C   UNL A   1      43.030  22.508  27.971  1.00  0.00     0.135 A 
ATOM     80  F   UNL A   1      43.218  23.682  24.545  1.00  0.00    -0.206 F 
ATOM     81  C   UNL A   1      42.723  21.557  25.374  1.00  0.00     0.059 A 
ATOM     82  C   UNL A   1      42.697  21.170  27.767  1.00  0.00     0.059 A 
ATOM     83  F   UNL A   1      43.171  22.934  29.236  1.00  0.00    -0.206 F 
ATOM     84  C   UNL A   1      42.546  20.705  26.462  1.00  0.00     0.060 A 
BRANCH  84  85
ATOM     85  S   UNL A   1      42.166  18.969  26.145  1.00  0.00     0.124 S 
ATOM     86  O   UNL A   1      42.525  18.354  27.418  1.00  0.00    -0.237 OA
ATOM     87  O   UNL A   1      40.739  19.019  25.840  1.00  0.00    -0.237 OA
ATOM     88  O   UNL A   1      43.029  18.640  25.016  1.00  0.00    -0.744 OA
ENDBRANCH  84  85
ENDBRANCH  52  77
BRANCH  64  89
ATOM     89  C   UNL A   1      49.331  26.741  26.120  1.00  0.00     0.058 A 
ATOM     90  C   UNL A   1      49.697  26.865  24.772  1.00  0.00     0.135 A 
ATOM     91  C   UNL A   1      50.281  26.237  27.020  1.00  0.00     0.135 A 
ATOM     92  F   UNL A   1      48.819  27.336  23.872  1.00  0.00    -0.206 F 
ATOM     93  C   UNL A   1      50.959  26.485  24.326  1.00  0.00     0.059 A 
ATOM     94  C   UNL A   1      51.555  25.867  26.599  1.00  0.00     0.059 A 
ATOM     95  F   UNL A   1      49.977  26.098  28.320  1.00  0.00    -0.206 F 
ATOM     96  C   UNL A   1      51.881  25.986  25.247  1.00  0.00     0.060 A 
BRANCH  96  97
ATOM     97  S   UNL A   1      53.525  25.521  24.663  1.00  0.00     0.124 S 
ATOM     98  O   UNL A   1      53.506  26.036  23.298  1.00  0.00    -0.237 OA
ATOM     99  O   UNL A   1      54.402  26.225  25.594  1.00  0.00    -0.237 OA
ATOM    100  O   UNL A   1      53.530  24.067  24.786  1.00  0.00    -0.744 OA
ENDBRANCH  96  97
ENDBRANCH  64  89
ENDBRANCH  38  39
ENDBRANCH  31  33
ENDBRANCH  30  31
ENDBRANCH  29  30
ENDBRANCH   1  29
TORSDOF 19
ENDMDL
