MODEL 1
REMARK VINA RESULT:     -11.7      0.000      0.000
REMARK SMILES CC(=O)N1CC[NH2+]C[C@@H]1c1ccc(C(=O)OCCOC(=O)c2ccc(-c3c4nc(c(-c5c(F)cc(S(=O)(=O)[O-])cc5F)c5ccc([nH]5)c(-c5c(F)cc(S(=O)(=O)[O-])cc5F)c5nc(c(-c6c(F)cc(S(=O)(=O)[O-])cc6F)c6ccc3[nH]6)C=C5)C=C4)cc2)cc1
REMARK SMILES IDX 18 1 17 2 16 3 14 4 15 5 13 6 10 7 11 8 89 9 12 10 88 11
REMARK SMILES IDX 9 12 4 13 5 14 6 15 8 16 7 17 2 20 1 21 3 22 19 23 20 24
REMARK SMILES IDX 21 25 22 26 23 27 87 28 24 29 86 30 25 31 26 32 27 33 80 34
REMARK SMILES IDX 28 35 85 36 79 37 81 38 29 39 84 40 78 41 77 42 30 44 64 45
REMARK SMILES IDX 43 46 63 47 44 48 47 49 62 50 82 51 45 52 46 53 61 55 83 56
REMARK SMILES IDX 48 57 31 58 32 59 41 60 33 61 34 62 40 63 42 64 35 65 36 66
REMARK SMILES IDX 37 67 38 68 39 69 65 70 66 71 75 72 67 73 68 74 74 75 76 76
REMARK SMILES IDX 69 77 70 78 71 79 72 80 73 81 49 82 50 83 59 84 51 85 52 86
REMARK SMILES IDX 58 87 60 88 53 89 54 90 55 91 56 92 57 93
REMARK H PARENT 7 18 7 19 81 43 47 54
REMARK Flexibility Score: inf
ROOT
ATOM      1  C   UNL A   1      40.140  21.939  26.994  1.00  0.00     0.275 C 
ENDROOT
BRANCH   1   2
ATOM      2  C   UNL A   1      39.411  21.174  25.886  1.00  0.00     0.275 C 
BRANCH   2   3
ATOM      3  O   UNL A   1      38.023  21.561  25.769  1.00  0.00    -0.458 OA
BRANCH   3   4
ATOM      4  C   UNL A   1      37.259  20.743  25.001  1.00  0.00     0.338 C 
ATOM      5  O   UNL A   1      37.452  19.560  24.788  1.00  0.00    -0.246 OA
BRANCH   4   6
ATOM      6  C   UNL A   1      36.068  21.454  24.480  1.00  0.00     0.060 A 
ATOM      7  C   UNL A   1      33.869  22.966  23.528  1.00  0.00    -0.020 A 
ATOM      8  C   UNL A   1      35.180  23.342  23.231  1.00  0.00     0.007 A 
ATOM      9  C   UNL A   1      33.691  21.854  24.383  1.00  0.00     0.007 A 
ATOM     10  C   UNL A   1      36.254  22.602  23.709  1.00  0.00     0.016 A 
ATOM     11  C   UNL A   1      34.776  21.081  24.829  1.00  0.00     0.016 A 
BRANCH   7  12
ATOM     12  C   UNL A   1      32.704  23.787  22.954  1.00  0.00     0.170 C 
ATOM     13  N   UNL A   1      32.837  25.224  23.265  1.00  0.00    -0.325 N 
ATOM     14  C   UNL A   1      32.596  25.583  24.670  1.00  0.00     0.181 C 
ATOM     15  C   UNL A   1      31.264  24.996  25.183  1.00  0.00     0.282 C 
ATOM     16  C   UNL A   1      31.296  23.322  23.449  1.00  0.00     0.290 C 
ATOM     17  N   UNL A   1      31.076  23.562  24.891  1.00  0.00    -0.343 N 
ATOM     18  H   UNL A   1      30.125  23.287  25.141  1.00  0.00     0.346 HD
ATOM     19  H   UNL A   1      31.741  23.013  25.434  1.00  0.00     0.346 HD
BRANCH  13  20
ATOM     20  C   UNL A   1      33.163  26.209  22.354  1.00  0.00     0.220 C 
ATOM     21  C   UNL A   1      33.003  27.643  22.798  1.00  0.00     0.114 C 
ATOM     22  O   UNL A   1      33.645  25.953  21.250  1.00  0.00    -0.275 OA
ENDBRANCH  13  20
ENDBRANCH   7  12
ENDBRANCH   4   6
ENDBRANCH   3   4
ENDBRANCH   2   3
ENDBRANCH   1   2
BRANCH   1  23
ATOM     23  O   UNL A   1      39.712  23.311  27.059  1.00  0.00    -0.458 OA
BRANCH  23  24
ATOM     24  C   UNL A   1      40.708  24.216  26.928  1.00  0.00     0.338 C 
ATOM     25  O   UNL A   1      41.702  24.123  26.225  1.00  0.00    -0.246 OA
BRANCH  24  26
ATOM     26  C   UNL A   1      40.412  25.438  27.688  1.00  0.00     0.060 A 
ATOM     27  C   UNL A   1      41.351  26.456  27.641  1.00  0.00     0.016 A 
ATOM     28  C   UNL A   1      39.388  25.483  28.626  1.00  0.00     0.016 A 
ATOM     29  C   UNL A   1      41.406  27.400  28.659  1.00  0.00     0.010 A 
ATOM     30  C   UNL A   1      39.333  26.553  29.531  1.00  0.00     0.010 A 
ATOM     31  C   UNL A   1      40.376  27.497  29.602  1.00  0.00    -0.014 A 
BRANCH  31  32
ATOM     32  C   UNL A   1      40.399  28.577  30.637  1.00  0.00     0.031 A 
ATOM     33  C   UNL A   1      41.375  28.522  31.790  1.00  0.00     0.074 A 
ATOM     34  C   UNL A   1      39.543  29.620  30.547  1.00  0.00     0.049 A 
ATOM     35  N   UNL A   1      41.412  29.249  32.878  1.00  0.00    -0.248 NA
ATOM     36  C   UNL A   1      42.440  27.507  31.721  1.00  0.00     0.031 C 
ATOM     37  C   UNL A   1      38.568  29.833  29.471  1.00  0.00     0.029 A 
ATOM     38  N   UNL A   1      39.351  30.705  31.369  1.00  0.00    -0.354 N 
ATOM     39  C   UNL A   1      42.454  28.740  33.649  1.00  0.00     0.074 A 
ATOM     40  C   UNL A   1      43.022  27.636  32.905  1.00  0.00     0.031 C 
ATOM     41  C   UNL A   1      37.925  30.990  29.670  1.00  0.00     0.029 A 
ATOM     42  C   UNL A   1      38.341  31.542  30.950  1.00  0.00     0.049 A 
ATOM     43  H   UNL A   1      39.884  30.868  32.180  1.00  0.00     0.167 HD
ATOM     44  C   UNL A   1      42.894  29.156  34.862  1.00  0.00     0.037 A 
ATOM     45  C   UNL A   1      37.756  32.597  31.547  1.00  0.00     0.037 A 
ATOM     46  C   UNL A   1      42.354  30.292  35.568  1.00  0.00     0.049 A 
ATOM     47  C   UNL A   1      38.227  33.009  32.911  1.00  0.00     0.074 A 
ATOM     48  C   UNL A   1      42.744  30.810  36.791  1.00  0.00     0.029 A 
ATOM     49  N   UNL A   1      41.314  31.092  35.111  1.00  0.00    -0.354 N 
ATOM     50  N   UNL A   1      39.185  32.490  33.640  1.00  0.00    -0.248 NA
ATOM     51  C   UNL A   1      37.531  34.138  33.540  1.00  0.00     0.031 C 
ATOM     52  C   UNL A   1      41.907  31.888  37.098  1.00  0.00     0.029 A 
ATOM     53  C   UNL A   1      41.037  32.083  36.038  1.00  0.00     0.049 A 
ATOM     54  H   UNL A   1      40.843  30.971  34.254  1.00  0.00     0.167 HD
ATOM     55  C   UNL A   1      39.222  33.244  34.807  1.00  0.00     0.074 A 
ATOM     56  C   UNL A   1      38.202  34.265  34.676  1.00  0.00     0.031 C 
ATOM     57  C   UNL A   1      40.026  33.101  35.888  1.00  0.00     0.037 A 
BRANCH  44  58
ATOM     58  C   UNL A   1      43.991  28.367  35.531  1.00  0.00     0.058 A 
ATOM     59  C   UNL A   1      43.726  27.316  36.423  1.00  0.00     0.135 A 
ATOM     60  C   UNL A   1      45.338  28.636  35.227  1.00  0.00     0.135 A 
ATOM     61  F   UNL A   1      42.461  27.021  36.762  1.00  0.00    -0.206 F 
ATOM     62  C   UNL A   1      44.753  26.578  37.006  1.00  0.00     0.059 A 
ATOM     63  C   UNL A   1      46.380  27.891  35.773  1.00  0.00     0.059 A 
ATOM     64  F   UNL A   1      45.654  29.628  34.379  1.00  0.00    -0.206 F 
ATOM     65  C   UNL A   1      46.077  26.871  36.672  1.00  0.00     0.060 A 
BRANCH  65  66
ATOM     66  S   UNL A   1      47.395  25.893  37.426  1.00  0.00     0.124 S 
ATOM     67  O   UNL A   1      48.482  26.080  36.469  1.00  0.00    -0.237 OA
ATOM     68  O   UNL A   1      47.569  26.549  38.718  1.00  0.00    -0.237 OA
ATOM     69  O   UNL A   1      46.834  24.546  37.480  1.00  0.00    -0.744 OA
ENDBRANCH  65  66
ENDBRANCH  44  58
BRANCH  45  70
ATOM     70  C   UNL A   1      36.623  33.298  30.880  1.00  0.00     0.058 A 
ATOM     71  C   UNL A   1      36.836  34.132  29.773  1.00  0.00     0.135 A 
ATOM     72  C   UNL A   1      35.300  33.134  31.326  1.00  0.00     0.135 A 
ATOM     73  F   UNL A   1      38.081  34.329  29.313  1.00  0.00    -0.206 F 
ATOM     74  C   UNL A   1      35.785  34.792  29.145  1.00  0.00     0.059 A 
ATOM     75  C   UNL A   1      34.228  33.752  30.690  1.00  0.00     0.059 A 
ATOM     76  F   UNL A   1      35.036  32.333  32.371  1.00  0.00    -0.206 F 
ATOM     77  C   UNL A   1      34.483  34.590  29.608  1.00  0.00     0.060 A 
BRANCH  77  78
ATOM     78  S   UNL A   1      33.123  35.419  28.758  1.00  0.00     0.124 S 
ATOM     79  O   UNL A   1      33.834  36.430  27.984  1.00  0.00    -0.237 OA
ATOM     80  O   UNL A   1      32.529  34.327  27.994  1.00  0.00    -0.237 OA
ATOM     81  O   UNL A   1      32.302  35.926  29.854  1.00  0.00    -0.744 OA
ENDBRANCH  77  78
ENDBRANCH  45  70
BRANCH  57  82
ATOM     82  C   UNL A   1      39.873  34.107  36.996  1.00  0.00     0.058 A 
ATOM     83  C   UNL A   1      40.526  35.348  36.968  1.00  0.00     0.135 A 
ATOM     84  C   UNL A   1      39.025  33.835  38.082  1.00  0.00     0.135 A 
ATOM     85  F   UNL A   1      41.357  35.653  35.959  1.00  0.00    -0.206 F 
ATOM     86  C   UNL A   1      40.365  36.275  37.992  1.00  0.00     0.059 A 
ATOM     87  C   UNL A   1      38.823  34.760  39.100  1.00  0.00     0.059 A 
ATOM     88  F   UNL A   1      38.369  32.665  38.154  1.00  0.00    -0.206 F 
ATOM     89  C   UNL A   1      39.508  35.973  39.052  1.00  0.00     0.060 A 
BRANCH  89  90
ATOM     90  S   UNL A   1      39.281  37.200  40.356  1.00  0.00     0.124 S 
ATOM     91  O   UNL A   1      38.540  38.242  39.653  1.00  0.00    -0.237 OA
ATOM     92  O   UNL A   1      38.530  36.454  41.360  1.00  0.00    -0.237 OA
ATOM     93  O   UNL A   1      40.647  37.550  40.735  1.00  0.00    -0.744 OA
ENDBRANCH  89  90
ENDBRANCH  57  82
ENDBRANCH  31  32
ENDBRANCH  24  26
ENDBRANCH  23  24
ENDBRANCH   1  23
TORSDOF 16
ENDMDL
MODEL 2
REMARK VINA RESULT:     -11.7      6.795     12.427
REMARK SMILES CC(=O)N1CC[NH2+]C[C@@H]1c1ccc(C(=O)OCCOC(=O)c2ccc(-c3c4nc(c(-c5c(F)cc(S(=O)(=O)[O-])cc5F)c5ccc([nH]5)c(-c5c(F)cc(S(=O)(=O)[O-])cc5F)c5nc(c(-c6c(F)cc(S(=O)(=O)[O-])cc6F)c6ccc3[nH]6)C=C5)C=C4)cc2)cc1
REMARK SMILES IDX 18 1 17 2 16 3 14 4 15 5 13 6 10 7 11 8 89 9 12 10 88 11
REMARK SMILES IDX 9 12 4 13 5 14 6 15 8 16 7 17 2 20 1 21 3 22 19 23 20 24
REMARK SMILES IDX 21 25 22 26 23 27 87 28 24 29 86 30 25 31 26 32 27 33 80 34
REMARK SMILES IDX 28 35 85 36 79 37 81 38 29 39 84 40 78 41 77 42 30 44 64 45
REMARK SMILES IDX 43 46 63 47 44 48 47 49 62 50 82 51 45 52 46 53 61 55 83 56
REMARK SMILES IDX 48 57 31 58 32 59 41 60 33 61 34 62 40 63 42 64 35 65 36 66
REMARK SMILES IDX 37 67 38 68 39 69 65 70 66 71 75 72 67 73 68 74 74 75 76 76
REMARK SMILES IDX 69 77 70 78 71 79 72 80 73 81 49 82 50 83 59 84 51 85 52 86
REMARK SMILES IDX 58 87 60 88 53 89 54 90 55 91 56 92 57 93
REMARK H PARENT 7 18 7 19 81 43 47 54
REMARK Flexibility Score: inf
ROOT
ATOM      1  C   UNL A   1      34.962  32.280  28.703  1.00  0.00     0.275 C 
ENDROOT
BRANCH   1   2
ATOM      2  C   UNL A   1      33.564  32.257  28.080  1.00  0.00     0.275 C 
BRANCH   2   3
ATOM      3  O   UNL A   1      33.319  31.054  27.316  1.00  0.00    -0.458 OA
BRANCH   3   4
ATOM      4  C   UNL A   1      32.092  30.975  26.741  1.00  0.00     0.338 C 
ATOM      5  O   UNL A   1      31.330  31.901  26.529  1.00  0.00    -0.246 OA
BRANCH   4   6
ATOM      6  C   UNL A   1      31.790  29.590  26.310  1.00  0.00     0.060 A 
ATOM      7  C   UNL A   1      31.071  27.004  25.402  1.00  0.00    -0.020 A 
ATOM      8  C   UNL A   1      31.038  28.102  24.540  1.00  0.00     0.007 A 
ATOM      9  C   UNL A   1      31.399  27.251  26.754  1.00  0.00     0.007 A 
ATOM     10  C   UNL A   1      31.382  29.369  24.995  1.00  0.00     0.016 A 
ATOM     11  C   UNL A   1      31.789  28.524  27.202  1.00  0.00     0.016 A 
BRANCH   7  12
ATOM     12  C   UNL A   1      30.717  25.612  24.857  1.00  0.00     0.170 C 
ATOM     13  N   UNL A   1      31.630  24.571  25.369  1.00  0.00    -0.325 N 
ATOM     14  C   UNL A   1      32.991  24.607  24.815  1.00  0.00     0.181 C 
ATOM     15  C   UNL A   1      32.972  24.659  23.272  1.00  0.00     0.282 C 
ATOM     16  C   UNL A   1      30.722  25.522  23.296  1.00  0.00     0.290 C 
ATOM     17  N   UNL A   1      32.069  25.679  22.706  1.00  0.00    -0.343 N 
ATOM     18  H   UNL A   1      32.013  25.559  21.694  1.00  0.00     0.346 HD
ATOM     19  H   UNL A   1      32.428  26.609  22.918  1.00  0.00     0.346 HD
BRANCH  13  20
ATOM     20  C   UNL A   1      31.297  23.608  26.300  1.00  0.00     0.220 C 
ATOM     21  C   UNL A   1      30.744  22.303  25.779  1.00  0.00     0.114 C 
ATOM     22  O   UNL A   1      31.511  23.752  27.504  1.00  0.00    -0.275 OA
ENDBRANCH  13  20
ENDBRANCH   7  12
ENDBRANCH   4   6
ENDBRANCH   3   4
ENDBRANCH   2   3
ENDBRANCH   1   2
BRANCH   1  23
ATOM     23  O   UNL A   1      35.588  30.985  28.649  1.00  0.00    -0.458 OA
BRANCH  23  24
ATOM     24  C   UNL A   1      36.334  30.677  29.733  1.00  0.00     0.338 C 
ATOM     25  O   UNL A   1      36.063  30.898  30.903  1.00  0.00    -0.246 OA
BRANCH  24  26
ATOM     26  C   UNL A   1      37.531  29.918  29.349  1.00  0.00     0.060 A 
ATOM     27  C   UNL A   1      38.351  29.469  30.371  1.00  0.00     0.016 A 
ATOM     28  C   UNL A   1      37.980  29.881  28.034  1.00  0.00     0.016 A 
ATOM     29  C   UNL A   1      39.690  29.190  30.120  1.00  0.00     0.010 A 
ATOM     30  C   UNL A   1      39.272  29.406  27.763  1.00  0.00     0.010 A 
ATOM     31  C   UNL A   1      40.169  29.111  28.807  1.00  0.00    -0.014 A 
BRANCH  31  32
ATOM     32  C   UNL A   1      41.589  28.718  28.545  1.00  0.00     0.031 A 
ATOM     33  C   UNL A   1      42.698  29.745  28.596  1.00  0.00     0.074 A 
ATOM     34  C   UNL A   1      41.895  27.432  28.261  1.00  0.00     0.049 A 
ATOM     35  N   UNL A   1      43.943  29.638  28.207  1.00  0.00    -0.248 NA
ATOM     36  C   UNL A   1      42.359  31.072  29.138  1.00  0.00     0.031 C 
ATOM     37  C   UNL A   1      40.940  26.319  28.214  1.00  0.00     0.029 A 
ATOM     38  N   UNL A   1      43.096  26.833  27.961  1.00  0.00    -0.354 N 
ATOM     39  C   UNL A   1      44.517  30.893  28.395  1.00  0.00     0.074 A 
ATOM     40  C   UNL A   1      43.479  31.750  28.928  1.00  0.00     0.031 C 
ATOM     41  C   UNL A   1      41.592  25.178  27.958  1.00  0.00     0.029 A 
ATOM     42  C   UNL A   1      42.988  25.487  27.692  1.00  0.00     0.049 A 
ATOM     43  H   UNL A   1      43.951  27.320  27.942  1.00  0.00     0.167 HD
ATOM     44  C   UNL A   1      45.788  31.290  28.146  1.00  0.00     0.037 A 
ATOM     45  C   UNL A   1      43.884  24.602  27.217  1.00  0.00     0.037 A 
ATOM     46  C   UNL A   1      46.827  30.412  27.666  1.00  0.00     0.049 A 
ATOM     47  C   UNL A   1      45.273  25.076  26.903  1.00  0.00     0.074 A 
ATOM     48  C   UNL A   1      48.153  30.710  27.404  1.00  0.00     0.029 A 
ATOM     49  N   UNL A   1      46.660  29.062  27.385  1.00  0.00    -0.354 N 
ATOM     50  N   UNL A   1      45.784  26.275  27.048  1.00  0.00    -0.248 NA
ATOM     51  C   UNL A   1      46.203  24.085  26.347  1.00  0.00     0.031 C 
ATOM     52  C   UNL A   1      48.774  29.556  26.915  1.00  0.00     0.029 A 
ATOM     53  C   UNL A   1      47.853  28.522  26.931  1.00  0.00     0.049 A 
ATOM     54  H   UNL A   1      45.818  28.563  27.491  1.00  0.00     0.167 HD
ATOM     55  C   UNL A   1      47.103  26.177  26.622  1.00  0.00     0.074 A 
ATOM     56  C   UNL A   1      47.314  24.797  26.232  1.00  0.00     0.031 C 
ATOM     57  C   UNL A   1      48.051  27.143  26.559  1.00  0.00     0.037 A 
BRANCH  44  58
ATOM     58  C   UNL A   1      46.134  32.744  28.351  1.00  0.00     0.058 A 
ATOM     59  C   UNL A   1      46.640  33.233  29.565  1.00  0.00     0.135 A 
ATOM     60  C   UNL A   1      46.007  33.655  27.287  1.00  0.00     0.135 A 
ATOM     61  F   UNL A   1      46.771  32.414  30.621  1.00  0.00    -0.206 F 
ATOM     62  C   UNL A   1      46.984  34.573  29.726  1.00  0.00     0.059 A 
ATOM     63  C   UNL A   1      46.375  34.992  27.414  1.00  0.00     0.059 A 
ATOM     64  F   UNL A   1      45.531  33.246  26.100  1.00  0.00    -0.206 F 
ATOM     65  C   UNL A   1      46.851  35.445  28.643  1.00  0.00     0.060 A 
BRANCH  65  66
ATOM     66  S   UNL A   1      47.316  37.175  28.863  1.00  0.00     0.124 S 
ATOM     67  O   UNL A   1      47.765  37.183  30.253  1.00  0.00    -0.237 OA
ATOM     68  O   UNL A   1      48.362  37.347  27.860  1.00  0.00    -0.237 OA
ATOM     69  O   UNL A   1      46.075  37.899  28.602  1.00  0.00    -0.744 OA
ENDBRANCH  65  66
ENDBRANCH  44  58
BRANCH  45  70
ATOM     70  C   UNL A   1      43.475  23.193  26.958  1.00  0.00     0.058 A 
ATOM     71  C   UNL A   1      43.330  22.708  25.650  1.00  0.00     0.135 A 
ATOM     72  C   UNL A   1      43.236  22.296  28.014  1.00  0.00     0.135 A 
ATOM     73  F   UNL A   1      43.538  23.525  24.606  1.00  0.00    -0.206 F 
ATOM     74  C   UNL A   1      42.947  21.395  25.398  1.00  0.00     0.059 A 
ATOM     75  C   UNL A   1      42.890  20.969  27.786  1.00  0.00     0.059 A 
ATOM     76  F   UNL A   1      43.376  22.702  29.286  1.00  0.00    -0.206 F 
ATOM     77  C   UNL A   1      42.734  20.531  26.474  1.00  0.00     0.060 A 
BRANCH  77  78
ATOM     78  S   UNL A   1      42.278  18.818  26.133  1.00  0.00     0.124 S 
ATOM     79  O   UNL A   1      42.461  18.200  27.442  1.00  0.00    -0.237 OA
ATOM     80  O   UNL A   1      40.898  18.955  25.678  1.00  0.00    -0.237 OA
ATOM     81  O   UNL A   1      43.232  18.414  25.106  1.00  0.00    -0.744 OA
ENDBRANCH  77  78
ENDBRANCH  45  70
BRANCH  57  82
ATOM     82  C   UNL A   1      49.422  26.730  26.098  1.00  0.00     0.058 A 
ATOM     83  C   UNL A   1      49.857  26.936  24.780  1.00  0.00     0.135 A 
ATOM     84  C   UNL A   1      50.327  26.154  27.006  1.00  0.00     0.135 A 
ATOM     85  F   UNL A   1      49.027  27.472  23.871  1.00  0.00    -0.206 F 
ATOM     86  C   UNL A   1      51.132  26.563  24.371  1.00  0.00     0.059 A 
ATOM     87  C   UNL A   1      51.617  25.803  26.626  1.00  0.00     0.059 A 
ATOM     88  F   UNL A   1      49.964  25.941  28.282  1.00  0.00    -0.206 F 
ATOM     89  C   UNL A   1      52.006  26.000  25.302  1.00  0.00     0.060 A 
BRANCH  89  90
ATOM     90  S   UNL A   1      53.670  25.552  24.765  1.00  0.00     0.124 S 
ATOM     91  O   UNL A   1      53.666  26.016  23.381  1.00  0.00    -0.237 OA
ATOM     92  O   UNL A   1      54.510  26.310  25.686  1.00  0.00    -0.237 OA
ATOM     93  O   UNL A   1      53.705  24.103  24.939  1.00  0.00    -0.744 OA
ENDBRANCH  89  90
ENDBRANCH  57  82
ENDBRANCH  31  32
ENDBRANCH  24  26
ENDBRANCH  23  24
ENDBRANCH   1  23
TORSDOF 16
ENDMDL
MODEL 3
REMARK VINA RESULT:     -11.4      1.116      2.020
REMARK SMILES CC(=O)N1CC[NH2+]C[C@@H]1c1ccc(C(=O)OCCOC(=O)c2ccc(-c3c4nc(c(-c5c(F)cc(S(=O)(=O)[O-])cc5F)c5ccc([nH]5)c(-c5c(F)cc(S(=O)(=O)[O-])cc5F)c5nc(c(-c6c(F)cc(S(=O)(=O)[O-])cc6F)c6ccc3[nH]6)C=C5)C=C4)cc2)cc1
REMARK SMILES IDX 18 1 17 2 16 3 14 4 15 5 13 6 10 7 11 8 89 9 12 10 88 11
REMARK SMILES IDX 9 12 4 13 5 14 6 15 8 16 7 17 2 20 1 21 3 22 19 23 20 24
REMARK SMILES IDX 21 25 22 26 23 27 87 28 24 29 86 30 25 31 26 32 27 33 80 34
REMARK SMILES IDX 28 35 85 36 79 37 81 38 29 39 84 40 78 41 77 42 30 44 64 45
REMARK SMILES IDX 43 46 63 47 44 48 47 49 62 50 82 51 45 52 46 53 61 55 83 56
REMARK SMILES IDX 48 57 31 58 32 59 41 60 33 61 34 62 40 63 42 64 35 65 36 66
REMARK SMILES IDX 37 67 38 68 39 69 65 70 66 71 75 72 67 73 68 74 74 75 76 76
REMARK SMILES IDX 69 77 70 78 71 79 72 80 73 81 49 82 50 83 59 84 51 85 52 86
REMARK SMILES IDX 58 87 60 88 53 89 54 90 55 91 56 92 57 93
REMARK H PARENT 7 18 7 19 81 43 47 54
REMARK Flexibility Score: inf
ROOT
ATOM      1  C   UNL A   1      40.925  22.121  26.138  1.00  0.00     0.275 C 
ENDROOT
BRANCH   1   2
ATOM      2  C   UNL A   1      39.445  21.762  26.289  1.00  0.00     0.275 C 
BRANCH   2   3
ATOM      3  O   UNL A   1      38.618  22.388  25.283  1.00  0.00    -0.458 OA
BRANCH   3   4
ATOM      4  C   UNL A   1      37.411  21.802  25.079  1.00  0.00     0.338 C 
ATOM      5  O   UNL A   1      37.154  20.617  25.190  1.00  0.00    -0.246 OA
BRANCH   4   6
ATOM      6  C   UNL A   1      36.371  22.808  24.764  1.00  0.00     0.060 A 
ATOM      7  C   UNL A   1      34.294  24.680  24.304  1.00  0.00    -0.020 A 
ATOM      8  C   UNL A   1      34.811  24.485  25.585  1.00  0.00     0.007 A 
ATOM      9  C   UNL A   1      34.792  23.854  23.270  1.00  0.00     0.007 A 
ATOM     10  C   UNL A   1      35.823  23.558  25.806  1.00  0.00     0.016 A 
ATOM     11  C   UNL A   1      35.844  22.949  23.486  1.00  0.00     0.016 A 
BRANCH   7  12
ATOM     12  C   UNL A   1      33.199  25.737  24.090  1.00  0.00     0.170 C 
ATOM     13  N   UNL A   1      32.085  25.578  25.045  1.00  0.00    -0.325 N 
ATOM     14  C   UNL A   1      31.219  24.414  24.804  1.00  0.00     0.181 C 
ATOM     15  C   UNL A   1      30.743  24.357  23.337  1.00  0.00     0.282 C 
ATOM     16  C   UNL A   1      32.593  25.739  22.648  1.00  0.00     0.290 C 
ATOM     17  N   UNL A   1      31.818  24.519  22.339  1.00  0.00    -0.343 N 
ATOM     18  H   UNL A   1      31.407  24.603  21.409  1.00  0.00     0.346 HD
ATOM     19  H   UNL A   1      32.433  23.707  22.365  1.00  0.00     0.346 HD
BRANCH  13  20
ATOM     20  C   UNL A   1      31.820  26.420  26.106  1.00  0.00     0.220 C 
ATOM     21  C   UNL A   1      32.731  27.609  26.291  1.00  0.00     0.114 C 
ATOM     22  O   UNL A   1      30.837  26.274  26.834  1.00  0.00    -0.275 OA
ENDBRANCH  13  20
ENDBRANCH   7  12
ENDBRANCH   4   6
ENDBRANCH   3   4
ENDBRANCH   2   3
ENDBRANCH   1   2
BRANCH   1  23
ATOM     23  O   UNL A   1      41.320  23.141  27.073  1.00  0.00    -0.458 OA
BRANCH  23  24
ATOM     24  C   UNL A   1      41.700  24.307  26.505  1.00  0.00     0.338 C 
ATOM     25  O   UNL A   1      42.243  24.459  25.421  1.00  0.00    -0.246 OA
BRANCH  24  26
ATOM     26  C   UNL A   1      41.283  25.452  27.324  1.00  0.00     0.060 A 
ATOM     27  C   UNL A   1      42.098  26.573  27.309  1.00  0.00     0.016 A 
ATOM     28  C   UNL A   1      40.281  25.338  28.281  1.00  0.00     0.016 A 
ATOM     29  C   UNL A   1      42.066  27.472  28.368  1.00  0.00     0.010 A 
ATOM     30  C   UNL A   1      40.124  26.354  29.235  1.00  0.00     0.010 A 
ATOM     31  C   UNL A   1      41.053  27.407  29.331  1.00  0.00    -0.014 A 
BRANCH  31  32
ATOM     32  C   UNL A   1      40.975  28.437  30.415  1.00  0.00     0.031 A 
ATOM     33  C   UNL A   1      41.927  28.398  31.589  1.00  0.00     0.074 A 
ATOM     34  C   UNL A   1      40.048  29.419  30.350  1.00  0.00     0.049 A 
ATOM     35  N   UNL A   1      41.887  29.073  32.709  1.00  0.00    -0.248 NA
ATOM     36  C   UNL A   1      43.063  27.466  31.500  1.00  0.00     0.031 C 
ATOM     37  C   UNL A   1      39.084  29.612  29.261  1.00  0.00     0.029 A 
ATOM     38  N   UNL A   1      39.759  30.448  31.216  1.00  0.00    -0.354 N 
ATOM     39  C   UNL A   1      42.946  28.605  33.482  1.00  0.00     0.074 A 
ATOM     40  C   UNL A   1      43.609  27.580  32.704  1.00  0.00     0.031 C 
ATOM     41  C   UNL A   1      38.354  30.710  29.495  1.00  0.00     0.029 A 
ATOM     42  C   UNL A   1      38.701  31.229  30.809  1.00  0.00     0.049 A 
ATOM     43  H   UNL A   1      40.261  30.610  32.047  1.00  0.00     0.167 HD
ATOM     44  C   UNL A   1      43.328  28.993  34.723  1.00  0.00     0.037 A 
ATOM     45  C   UNL A   1      38.028  32.211  31.439  1.00  0.00     0.037 A 
ATOM     46  C   UNL A   1      42.691  30.053  35.466  1.00  0.00     0.049 A 
ATOM     47  C   UNL A   1      38.438  32.591  32.832  1.00  0.00     0.074 A 
ATOM     48  C   UNL A   1      43.016  30.540  36.721  1.00  0.00     0.029 A 
ATOM     49  N   UNL A   1      41.606  30.797  35.020  1.00  0.00    -0.354 N 
ATOM     50  N   UNL A   1      39.415  32.108  33.561  1.00  0.00    -0.248 NA
ATOM     51  C   UNL A   1      37.648  33.636  33.494  1.00  0.00     0.031 C 
ATOM     52  C   UNL A   1      42.097  31.540  37.055  1.00  0.00     0.029 A 
ATOM     53  C   UNL A   1      41.237  31.722  35.984  1.00  0.00     0.049 A 
ATOM     54  H   UNL A   1      41.165  30.684  34.147  1.00  0.00     0.167 HD
ATOM     55  C   UNL A   1      39.371  32.807  34.761  1.00  0.00     0.074 A 
ATOM     56  C   UNL A   1      38.283  33.757  34.650  1.00  0.00     0.031 C 
ATOM     57  C   UNL A   1      40.160  32.671  35.855  1.00  0.00     0.037 A 
BRANCH  44  58
ATOM     58  C   UNL A   1      44.464  28.254  35.384  1.00  0.00     0.058 A 
ATOM     59  C   UNL A   1      45.798  28.682  35.286  1.00  0.00     0.135 A 
ATOM     60  C   UNL A   1      44.202  27.123  36.178  1.00  0.00     0.135 A 
ATOM     61  F   UNL A   1      46.111  29.748  34.532  1.00  0.00    -0.206 F 
ATOM     62  C   UNL A   1      46.831  28.005  35.930  1.00  0.00     0.059 A 
ATOM     63  C   UNL A   1      45.214  26.449  36.857  1.00  0.00     0.059 A 
ATOM     64  F   UNL A   1      42.947  26.667  36.311  1.00  0.00    -0.206 F 
ATOM     65  C   UNL A   1      46.528  26.891  36.716  1.00  0.00     0.060 A 
BRANCH  65  66
ATOM     66  S   UNL A   1      47.877  26.034  37.556  1.00  0.00     0.124 S 
ATOM     67  O   UNL A   1      47.162  24.961  38.241  1.00  0.00    -0.237 OA
ATOM     68  O   UNL A   1      48.725  25.620  36.443  1.00  0.00    -0.237 OA
ATOM     69  O   UNL A   1      48.446  27.061  38.425  1.00  0.00    -0.744 OA
ENDBRANCH  65  66
ENDBRANCH  44  58
BRANCH  45  70
ATOM     70  C   UNL A   1      36.862  32.859  30.776  1.00  0.00     0.058 A 
ATOM     71  C   UNL A   1      35.547  32.516  31.121  1.00  0.00     0.135 A 
ATOM     72  C   UNL A   1      37.039  33.849  29.794  1.00  0.00     0.135 A 
ATOM     73  F   UNL A   1      35.323  31.571  32.047  1.00  0.00    -0.206 F 
ATOM     74  C   UNL A   1      34.452  33.115  30.507  1.00  0.00     0.059 A 
ATOM     75  C   UNL A   1      35.960  34.489  29.193  1.00  0.00     0.059 A 
ATOM     76  F   UNL A   1      38.276  34.229  29.436  1.00  0.00    -0.206 F 
ATOM     77  C   UNL A   1      34.670  34.105  29.547  1.00  0.00     0.060 A 
BRANCH  77  78
ATOM     78  S   UNL A   1      33.241  34.904  28.786  1.00  0.00     0.124 S 
ATOM     79  O   UNL A   1      32.397  35.162  29.948  1.00  0.00    -0.237 OA
ATOM     80  O   UNL A   1      33.843  36.076  28.160  1.00  0.00    -0.237 OA
ATOM     81  O   UNL A   1      32.745  33.892  27.859  1.00  0.00    -0.744 OA
ENDBRANCH  77  78
ENDBRANCH  45  70
BRANCH  57  82
ATOM     82  C   UNL A   1      39.909  33.610  37.002  1.00  0.00     0.058 A 
ATOM     83  C   UNL A   1      40.522  34.870  37.079  1.00  0.00     0.135 A 
ATOM     84  C   UNL A   1      39.009  33.255  38.020  1.00  0.00     0.135 A 
ATOM     85  F   UNL A   1      41.400  35.253  36.139  1.00  0.00    -0.206 F 
ATOM     86  C   UNL A   1      40.272  35.734  38.139  1.00  0.00     0.059 A 
ATOM     87  C   UNL A   1      38.718  34.117  39.071  1.00  0.00     0.059 A 
ATOM     88  F   UNL A   1      38.388  32.063  37.991  1.00  0.00    -0.206 F 
ATOM     89  C   UNL A   1      39.365  35.350  39.129  1.00  0.00     0.060 A 
BRANCH  89  90
ATOM     90  S   UNL A   1      39.023  36.497  40.479  1.00  0.00     0.124 S 
ATOM     91  O   UNL A   1      40.308  36.528  41.171  1.00  0.00    -0.237 OA
ATOM     92  O   UNL A   1      38.656  37.716  39.767  1.00  0.00    -0.237 OA
ATOM     93  O   UNL A   1      37.935  35.851  41.207  1.00  0.00    -0.744 OA
ENDBRANCH  89  90
ENDBRANCH  57  82
ENDBRANCH  31  32
ENDBRANCH  24  26
ENDBRANCH  23  24
ENDBRANCH   1  23
TORSDOF 16
ENDMDL
