MODEL 1
REMARK VINA RESULT:     -11.3      0.000      0.000
REMARK SMILES CC(C)CCc1cc2c(cc1Cl)C=C(C(=O)OCCOC(=O)c1ccc(-c3c4nc(c(-c5c(F)cc(S(=O)(=O)[O-])cc5F)c5ccc([nH]5)c(-c5c(F)cc(S(=O)(=O)[O-])cc5F)c5nc(c(-c6c(F)cc(S(=O)(=O)[O-])cc6F)c6ccc3[nH]6)C=C5)C=C4)cc1)[C@@H](C(F)(F)F)O2
REMARK SMILES IDX 18 1 17 2 15 3 16 4 14 5 6 6 7 7 11 8 8 9 10 10 12 11 9 12
REMARK SMILES IDX 94 13 13 14 89 15 5 16 4 17 2 18 1 19 3 20 90 21 91 22 92 23
REMARK SMILES IDX 93 24 19 25 20 26 21 27 22 28 23 29 24 30 88 31 25 32 87 33
REMARK SMILES IDX 26 34 27 35 28 36 81 37 29 38 86 39 80 40 82 41 30 42 85 43
REMARK SMILES IDX 79 44 78 45 31 47 65 48 44 49 64 50 45 51 48 52 63 53 83 54
REMARK SMILES IDX 46 55 47 56 62 58 84 59 49 60 32 61 33 62 42 63 34 64 35 65
REMARK SMILES IDX 41 66 43 67 36 68 37 69 38 70 39 71 40 72 66 73 67 74 76 75
REMARK SMILES IDX 68 76 69 77 75 78 77 79 70 80 71 81 72 82 73 83 74 84 50 85
REMARK SMILES IDX 51 86 60 87 52 88 53 89 59 90 61 91 54 92 55 93 56 94 57 95
REMARK SMILES IDX 58 96
REMARK H PARENT 82 46 48 57
REMARK Flexibility Score: inf
ROOT
ATOM      1  C   UNL A   1      32.284  28.767  25.504  1.00  0.00     0.275 C 
ENDROOT
BRANCH   1   2
ATOM      2  O   UNL A   1      32.244  27.328  25.403  1.00  0.00    -0.459 OA
BRANCH   2   3
ATOM      3  C   UNL A   1      33.103  26.777  24.514  1.00  0.00     0.338 C 
ATOM      4  O   UNL A   1      33.807  27.376  23.716  1.00  0.00    -0.246 OA
BRANCH   3   5
ATOM      5  C   UNL A   1      33.123  25.310  24.664  1.00  0.00     0.087 C 
ATOM      6  C   UNL A   1      34.433  20.452  24.793  1.00  0.00    -0.026 A 
ATOM      7  C   UNL A   1      33.210  21.150  24.874  1.00  0.00     0.052 A 
ATOM      8  C   UNL A   1      35.622  21.202  24.829  1.00  0.00     0.045 A 
ATOM      9  C   UNL A   1      33.167  22.542  24.852  1.00  0.00     0.128 A 
ATOM     10  C   UNL A   1      35.582  22.595  24.838  1.00  0.00     0.032 A 
ATOM     11  Cl  UNL A   1      37.182  20.457  24.856  1.00  0.00    -0.084 Cl
ATOM     12  C   UNL A   1      34.354  23.261  24.812  1.00  0.00     0.019 A 
ATOM     13  O   UNL A   1      31.929  23.123  24.874  1.00  0.00    -0.475 OA
ATOM     14  C   UNL A   1      34.312  24.702  24.728  1.00  0.00     0.027 C 
ATOM     15  C   UNL A   1      31.826  24.556  24.620  1.00  0.00     0.316 C 
BRANCH   6  16
ATOM     16  C   UNL A   1      34.475  18.941  24.685  1.00  0.00     0.037 C 
BRANCH  16  17
ATOM     17  C   UNL A   1      33.133  18.199  24.796  1.00  0.00     0.008 C 
BRANCH  17  18
ATOM     18  C   UNL A   1      33.131  16.758  24.242  1.00  0.00    -0.017 C 
ATOM     19  C   UNL A   1      34.153  16.559  23.124  1.00  0.00     0.007 C 
ATOM     20  C   UNL A   1      33.390  15.770  25.381  1.00  0.00     0.007 C 
ENDBRANCH  17  18
ENDBRANCH  16  17
ENDBRANCH   6  16
BRANCH  15  21
ATOM     21  C   UNL A   1      31.119  24.777  23.273  1.00  0.00     0.430 C 
ATOM     22  F   UNL A   1      30.250  23.775  22.998  1.00  0.00    -0.167 F 
ATOM     23  F   UNL A   1      30.392  25.924  23.276  1.00  0.00    -0.167 F 
ATOM     24  F   UNL A   1      31.988  24.853  22.240  1.00  0.00    -0.167 F 
ENDBRANCH  15  21
ENDBRANCH   3   5
ENDBRANCH   2   3
ENDBRANCH   1   2
BRANCH   1  25
ATOM     25  C   UNL A   1      32.509  29.216  26.949  1.00  0.00     0.275 C 
BRANCH  25  26
ATOM     26  O   UNL A   1      33.899  29.119  27.303  1.00  0.00    -0.458 OA
BRANCH  26  27
ATOM     27  C   UNL A   1      34.445  30.243  27.821  1.00  0.00     0.338 C 
ATOM     28  O   UNL A   1      33.887  31.300  28.057  1.00  0.00    -0.246 OA
BRANCH  27  29
ATOM     29  C   UNL A   1      35.843  29.971  28.180  1.00  0.00     0.060 A 
ATOM     30  C   UNL A   1      36.186  29.325  29.362  1.00  0.00     0.016 A 
ATOM     31  C   UNL A   1      36.825  30.282  27.249  1.00  0.00     0.016 A 
ATOM     32  C   UNL A   1      37.532  29.026  29.605  1.00  0.00     0.010 A 
ATOM     33  C   UNL A   1      38.130  29.838  27.415  1.00  0.00     0.010 A 
ATOM     34  C   UNL A   1      38.519  29.256  28.624  1.00  0.00    -0.014 A 
BRANCH  34  35
ATOM     35  C   UNL A   1      39.960  28.956  28.860  1.00  0.00     0.031 A 
ATOM     36  C   UNL A   1      40.858  29.987  29.512  1.00  0.00     0.074 A 
ATOM     37  C   UNL A   1      40.475  27.775  28.463  1.00  0.00     0.049 A 
ATOM     38  N   UNL A   1      42.143  29.930  29.759  1.00  0.00    -0.248 NA
ATOM     39  C   UNL A   1      40.245  31.271  29.898  1.00  0.00     0.031 C 
ATOM     40  C   UNL A   1      39.739  26.726  27.752  1.00  0.00     0.029 A 
ATOM     41  N   UNL A   1      41.735  27.249  28.610  1.00  0.00    -0.354 N 
ATOM     42  C   UNL A   1      42.486  31.167  30.297  1.00  0.00     0.074 A 
ATOM     43  C   UNL A   1      41.297  31.985  30.265  1.00  0.00     0.031 C 
ATOM     44  C   UNL A   1      40.537  25.658  27.593  1.00  0.00     0.029 A 
ATOM     45  C   UNL A   1      41.853  25.961  28.143  1.00  0.00     0.049 A 
ATOM     46  H   UNL A   1      42.482  27.748  29.013  1.00  0.00     0.167 HD
ATOM     47  C   UNL A   1      43.669  31.574  30.818  1.00  0.00     0.037 A 
ATOM     48  C   UNL A   1      42.901  25.114  28.165  1.00  0.00     0.037 A 
ATOM     49  C   UNL A   1      44.831  30.733  30.912  1.00  0.00     0.049 A 
ATOM     50  C   UNL A   1      44.193  25.572  28.784  1.00  0.00     0.074 A 
ATOM     51  C   UNL A   1      46.058  31.020  31.481  1.00  0.00     0.029 A 
ATOM     52  N   UNL A   1      44.903  29.430  30.440  1.00  0.00    -0.354 N 
ATOM     53  N   UNL A   1      44.482  26.731  29.329  1.00  0.00    -0.248 NA
ATOM     54  C   UNL A   1      45.301  24.608  28.796  1.00  0.00     0.031 C 
ATOM     55  C   UNL A   1      46.884  29.902  31.325  1.00  0.00     0.029 A 
ATOM     56  C   UNL A   1      46.156  28.903  30.699  1.00  0.00     0.049 A 
ATOM     57  H   UNL A   1      44.171  28.952  29.989  1.00  0.00     0.167 HD
ATOM     58  C   UNL A   1      45.799  26.631  29.760  1.00  0.00     0.074 A 
ATOM     59  C   UNL A   1      46.242  25.290  29.435  1.00  0.00     0.031 C 
ATOM     60  C   UNL A   1      46.576  27.565  30.363  1.00  0.00     0.037 A 
BRANCH  47  61
ATOM     61  C   UNL A   1      43.751  32.976  31.367  1.00  0.00     0.058 A 
ATOM     62  C   UNL A   1      43.455  33.258  32.711  1.00  0.00     0.135 A 
ATOM     63  C   UNL A   1      44.171  34.044  30.556  1.00  0.00     0.135 A 
ATOM     64  F   UNL A   1      43.032  32.281  33.529  1.00  0.00    -0.206 F 
ATOM     65  C   UNL A   1      43.543  34.548  33.224  1.00  0.00     0.059 A 
ATOM     66  C   UNL A   1      44.299  35.338  31.056  1.00  0.00     0.059 A 
ATOM     67  F   UNL A   1      44.469  33.835  29.263  1.00  0.00    -0.206 F 
ATOM     68  C   UNL A   1      43.971  35.581  32.389  1.00  0.00     0.060 A 
BRANCH  68  69
ATOM     69  S   UNL A   1      44.103  37.244  33.083  1.00  0.00     0.124 S 
ATOM     70  O   UNL A   1      45.419  37.193  33.713  1.00  0.00    -0.237 OA
ATOM     71  O   UNL A   1      44.002  38.084  31.895  1.00  0.00    -0.237 OA
ATOM     72  O   UNL A   1      42.971  37.321  34.001  1.00  0.00    -0.744 OA
ENDBRANCH  68  69
ENDBRANCH  47  61
BRANCH  48  73
ATOM     73  C   UNL A   1      42.750  23.734  27.631  1.00  0.00     0.058 A 
ATOM     74  C   UNL A   1      42.426  22.667  28.484  1.00  0.00     0.135 A 
ATOM     75  C   UNL A   1      42.883  23.457  26.262  1.00  0.00     0.135 A 
ATOM     76  F   UNL A   1      42.293  22.879  29.802  1.00  0.00    -0.206 F 
ATOM     77  C   UNL A   1      42.247  21.375  28.001  1.00  0.00     0.059 A 
ATOM     78  C   UNL A   1      42.682  22.177  25.752  1.00  0.00     0.059 A 
ATOM     79  F   UNL A   1      43.175  24.444  25.402  1.00  0.00    -0.206 F 
ATOM     80  C   UNL A   1      42.369  21.141  26.631  1.00  0.00     0.060 A 
BRANCH  80  81
ATOM     81  S   UNL A   1      42.067  19.472  26.009  1.00  0.00     0.124 S 
ATOM     82  O   UNL A   1      42.869  19.461  24.792  1.00  0.00    -0.237 OA
ATOM     83  O   UNL A   1      42.560  18.646  27.107  1.00  0.00    -0.237 OA
ATOM     84  O   UNL A   1      40.621  19.442  25.813  1.00  0.00    -0.744 OA
ENDBRANCH  80  81
ENDBRANCH  48  73
BRANCH  60  85
ATOM     85  C   UNL A   1      47.978  27.165  30.723  1.00  0.00     0.058 A 
ATOM     86  C   UNL A   1      48.277  26.581  31.963  1.00  0.00     0.135 A 
ATOM     87  C   UNL A   1      49.025  27.323  29.800  1.00  0.00     0.135 A 
ATOM     88  F   UNL A   1      47.313  26.412  32.880  1.00  0.00    -0.206 F 
ATOM     89  C   UNL A   1      49.573  26.195  32.289  1.00  0.00     0.059 A 
ATOM     90  C   UNL A   1      50.323  26.916  30.093  1.00  0.00     0.059 A 
ATOM     91  F   UNL A   1      48.789  27.862  28.594  1.00  0.00    -0.206 F 
ATOM     92  C   UNL A   1      50.588  26.367  31.346  1.00  0.00     0.060 A 
BRANCH  92  93
ATOM     93  S   UNL A   1      52.261  25.846  31.779  1.00  0.00     0.124 S 
ATOM     94  O   UNL A   1      53.004  26.216  30.578  1.00  0.00    -0.237 OA
ATOM     95  O   UNL A   1      52.539  26.645  32.968  1.00  0.00    -0.237 OA
ATOM     96  O   UNL A   1      52.122  24.412  32.012  1.00  0.00    -0.744 OA
ENDBRANCH  92  93
ENDBRANCH  60  85
ENDBRANCH  34  35
ENDBRANCH  27  29
ENDBRANCH  26  27
ENDBRANCH  25  26
ENDBRANCH   1  25
TORSDOF 18
ENDMDL
MODEL 2
REMARK VINA RESULT:     -11.0      4.944     10.621
REMARK SMILES CC(C)CCc1cc2c(cc1Cl)C=C(C(=O)OCCOC(=O)c1ccc(-c3c4nc(c(-c5c(F)cc(S(=O)(=O)[O-])cc5F)c5ccc([nH]5)c(-c5c(F)cc(S(=O)(=O)[O-])cc5F)c5nc(c(-c6c(F)cc(S(=O)(=O)[O-])cc6F)c6ccc3[nH]6)C=C5)C=C4)cc1)[C@@H](C(F)(F)F)O2
REMARK SMILES IDX 18 1 17 2 15 3 16 4 14 5 6 6 7 7 11 8 8 9 10 10 12 11 9 12
REMARK SMILES IDX 94 13 13 14 89 15 5 16 4 17 2 18 1 19 3 20 90 21 91 22 92 23
REMARK SMILES IDX 93 24 19 25 20 26 21 27 22 28 23 29 24 30 88 31 25 32 87 33
REMARK SMILES IDX 26 34 27 35 28 36 81 37 29 38 86 39 80 40 82 41 30 42 85 43
REMARK SMILES IDX 79 44 78 45 31 47 65 48 44 49 64 50 45 51 48 52 63 53 83 54
REMARK SMILES IDX 46 55 47 56 62 58 84 59 49 60 32 61 33 62 42 63 34 64 35 65
REMARK SMILES IDX 41 66 43 67 36 68 37 69 38 70 39 71 40 72 66 73 67 74 76 75
REMARK SMILES IDX 68 76 69 77 75 78 77 79 70 80 71 81 72 82 73 83 74 84 50 85
REMARK SMILES IDX 51 86 60 87 52 88 53 89 59 90 61 91 54 92 55 93 56 94 57 95
REMARK SMILES IDX 58 96
REMARK H PARENT 82 46 48 57
REMARK Flexibility Score: inf
ROOT
ATOM      1  C   UNL A   1      38.965  21.799  26.050  1.00  0.00     0.275 C 
ENDROOT
BRANCH   1   2
ATOM      2  O   UNL A   1      37.746  22.480  25.686  1.00  0.00    -0.459 OA
BRANCH   2   3
ATOM      3  C   UNL A   1      36.845  21.745  24.994  1.00  0.00     0.338 C 
ATOM      4  O   UNL A   1      36.963  20.576  24.661  1.00  0.00    -0.246 OA
BRANCH   3   5
ATOM      5  C   UNL A   1      35.634  22.542  24.723  1.00  0.00     0.087 C 
ATOM      6  C   UNL A   1      32.085  26.108  24.611  1.00  0.00    -0.026 A 
ATOM      7  C   UNL A   1      32.159  24.772  24.168  1.00  0.00     0.052 A 
ATOM      8  C   UNL A   1      33.267  26.716  25.070  1.00  0.00     0.045 A 
ATOM      9  C   UNL A   1      33.328  24.027  24.303  1.00  0.00     0.128 A 
ATOM     10  C   UNL A   1      34.446  25.981  25.179  1.00  0.00     0.032 A 
ATOM     11  Cl  UNL A   1      33.330  28.382  25.529  1.00  0.00    -0.084 Cl
ATOM     12  C   UNL A   1      34.463  24.629  24.829  1.00  0.00     0.019 A 
ATOM     13  O   UNL A   1      33.281  22.722  23.899  1.00  0.00    -0.475 OA
ATOM     14  C   UNL A   1      35.660  23.844  25.029  1.00  0.00     0.027 C 
ATOM     15  C   UNL A   1      34.398  21.846  24.233  1.00  0.00     0.316 C 
BRANCH   6  16
ATOM     16  C   UNL A   1      30.779  26.878  24.585  1.00  0.00     0.037 C 
BRANCH  16  17
ATOM     17  C   UNL A   1      30.118  27.077  23.212  1.00  0.00     0.008 C 
BRANCH  17  18
ATOM     18  C   UNL A   1      29.636  28.514  22.915  1.00  0.00    -0.017 C 
ATOM     19  C   UNL A   1      28.128  28.675  23.103  1.00  0.00     0.007 C 
ATOM     20  C   UNL A   1      30.392  29.502  23.806  1.00  0.00     0.007 C 
ENDBRANCH  17  18
ENDBRANCH  16  17
ENDBRANCH   6  16
BRANCH  15  21
ATOM     21  C   UNL A   1      33.928  20.799  25.255  1.00  0.00     0.430 C 
ATOM     22  F   UNL A   1      34.311  19.550  24.898  1.00  0.00    -0.167 F 
ATOM     23  F   UNL A   1      34.462  21.027  26.482  1.00  0.00    -0.167 F 
ATOM     24  F   UNL A   1      32.583  20.784  25.398  1.00  0.00    -0.167 F 
ENDBRANCH  15  21
ENDBRANCH   3   5
ENDBRANCH   2   3
ENDBRANCH   1   2
BRANCH   1  25
ATOM     25  C   UNL A   1      39.988  22.770  26.642  1.00  0.00     0.275 C 
BRANCH  25  26
ATOM     26  O   UNL A   1      39.548  24.131  26.490  1.00  0.00    -0.458 OA
BRANCH  26  27
ATOM     27  C   UNL A   1      40.530  25.061  26.484  1.00  0.00     0.338 C 
ATOM     28  O   UNL A   1      41.422  25.195  25.665  1.00  0.00    -0.246 OA
BRANCH  27  29
ATOM     29  C   UNL A   1      40.302  26.001  27.589  1.00  0.00     0.060 A 
ATOM     30  C   UNL A   1      39.420  25.718  28.624  1.00  0.00     0.016 A 
ATOM     31  C   UNL A   1      41.079  27.151  27.634  1.00  0.00     0.016 A 
ATOM     32  C   UNL A   1      39.310  26.623  29.687  1.00  0.00     0.010 A 
ATOM     33  C   UNL A   1      41.091  27.958  28.763  1.00  0.00     0.010 A 
ATOM     34  C   UNL A   1      40.162  27.742  29.783  1.00  0.00    -0.014 A 
BRANCH  34  35
ATOM     35  C   UNL A   1      40.060  28.727  30.899  1.00  0.00     0.031 A 
ATOM     36  C   UNL A   1      40.986  28.626  32.093  1.00  0.00     0.074 A 
ATOM     37  C   UNL A   1      39.117  29.691  30.861  1.00  0.00     0.049 A 
ATOM     38  N   UNL A   1      41.020  29.357  33.179  1.00  0.00    -0.248 NA
ATOM     39  C   UNL A   1      41.976  27.534  32.091  1.00  0.00     0.031 C 
ATOM     40  C   UNL A   1      38.111  29.851  29.808  1.00  0.00     0.029 A 
ATOM     41  N   UNL A   1      38.859  30.728  31.723  1.00  0.00    -0.354 N 
ATOM     42  C   UNL A   1      42.007  28.798  33.986  1.00  0.00     0.074 A 
ATOM     43  C   UNL A   1      42.490  27.619  33.308  1.00  0.00     0.031 C 
ATOM     44  C   UNL A   1      37.396  30.962  30.047  1.00  0.00     0.029 A 
ATOM     45  C   UNL A   1      37.856  31.565  31.293  1.00  0.00     0.049 A 
ATOM     46  H   UNL A   1      39.346  30.859  32.568  1.00  0.00     0.167 HD
ATOM     47  C   UNL A   1      42.504  29.248  35.164  1.00  0.00     0.037 A 
ATOM     48  C   UNL A   1      37.369  32.698  31.835  1.00  0.00     0.037 A 
ATOM     49  C   UNL A   1      42.069  30.461  35.802  1.00  0.00     0.049 A 
ATOM     50  C   UNL A   1      37.963  33.203  33.122  1.00  0.00     0.074 A 
ATOM     51  C   UNL A   1      42.550  31.045  36.960  1.00  0.00     0.029 A 
ATOM     52  N   UNL A   1      41.062  31.286  35.325  1.00  0.00    -0.354 N 
ATOM     53  N   UNL A   1      38.926  32.682  33.846  1.00  0.00    -0.248 NA
ATOM     54  C   UNL A   1      37.407  34.449  33.665  1.00  0.00     0.031 C 
ATOM     55  C   UNL A   1      41.812  32.209  37.201  1.00  0.00     0.029 A 
ATOM     56  C   UNL A   1      40.901  32.372  36.169  1.00  0.00     0.049 A 
ATOM     57  H   UNL A   1      40.539  31.125  34.507  1.00  0.00     0.167 HD
ATOM     58  C   UNL A   1      39.101  33.544  34.922  1.00  0.00     0.074 A 
ATOM     59  C   UNL A   1      38.162  34.632  34.741  1.00  0.00     0.031 C 
ATOM     60  C   UNL A   1      39.956  33.442  35.969  1.00  0.00     0.037 A 
BRANCH  47  61
ATOM     61  C   UNL A   1      43.605  28.449  35.814  1.00  0.00     0.058 A 
ATOM     62  C   UNL A   1      44.959  28.721  35.561  1.00  0.00     0.135 A 
ATOM     63  C   UNL A   1      43.308  27.429  36.734  1.00  0.00     0.135 A 
ATOM     64  F   UNL A   1      45.304  29.673  34.678  1.00  0.00    -0.206 F 
ATOM     65  C   UNL A   1      45.978  27.995  36.170  1.00  0.00     0.059 A 
ATOM     66  C   UNL A   1      44.311  26.711  37.381  1.00  0.00     0.059 A 
ATOM     67  F   UNL A   1      42.031  27.125  37.018  1.00  0.00    -0.206 F 
ATOM     68  C   UNL A   1      45.644  26.995  37.083  1.00  0.00     0.060 A 
BRANCH  68  69
ATOM     69  S   UNL A   1      46.983  26.083  37.882  1.00  0.00     0.124 S 
ATOM     70  O   UNL A   1      46.386  24.759  38.032  1.00  0.00    -0.237 OA
ATOM     71  O   UNL A   1      48.057  26.186  36.900  1.00  0.00    -0.237 OA
ATOM     72  O   UNL A   1      47.200  26.816  39.125  1.00  0.00    -0.744 OA
ENDBRANCH  68  69
ENDBRANCH  47  61
BRANCH  48  73
ATOM     73  C   UNL A   1      36.300  33.456  31.131  1.00  0.00     0.058 A 
ATOM     74  C   UNL A   1      35.006  33.536  31.669  1.00  0.00     0.135 A 
ATOM     75  C   UNL A   1      36.552  34.146  29.936  1.00  0.00     0.135 A 
ATOM     76  F   UNL A   1      34.711  32.890  32.807  1.00  0.00    -0.206 F 
ATOM     77  C   UNL A   1      34.000  34.268  31.046  1.00  0.00     0.059 A 
ATOM     78  C   UNL A   1      35.570  34.906  29.308  1.00  0.00     0.059 A 
ATOM     79  F   UNL A   1      37.777  34.115  29.389  1.00  0.00    -0.206 F 
ATOM     80  C   UNL A   1      34.294  34.956  29.869  1.00  0.00     0.060 A 
BRANCH  80  81
ATOM     81  S   UNL A   1      32.997  35.956  29.106  1.00  0.00     0.124 S 
ATOM     82  O   UNL A   1      32.328  34.976  28.259  1.00  0.00    -0.237 OA
ATOM     83  O   UNL A   1      32.244  36.415  30.269  1.00  0.00    -0.237 OA
ATOM     84  O   UNL A   1      33.742  36.995  28.402  1.00  0.00    -0.744 OA
ENDBRANCH  80  81
ENDBRANCH  48  73
BRANCH  60  85
ATOM     85  C   UNL A   1      39.924  34.541  36.993  1.00  0.00     0.058 A 
ATOM     86  C   UNL A   1      39.123  34.449  38.141  1.00  0.00     0.135 A 
ATOM     87  C   UNL A   1      40.738  35.677  36.847  1.00  0.00     0.135 A 
ATOM     88  F   UNL A   1      38.325  33.387  38.325  1.00  0.00    -0.206 F 
ATOM     89  C   UNL A   1      39.107  35.460  39.096  1.00  0.00     0.059 A 
ATOM     90  C   UNL A   1      40.760  36.685  37.804  1.00  0.00     0.059 A 
ATOM     91  F   UNL A   1      41.533  35.805  35.773  1.00  0.00    -0.206 F 
ATOM     92  C   UNL A   1      39.930  36.574  38.918  1.00  0.00     0.060 A 
BRANCH  92  93
ATOM     93  S   UNL A   1      39.909  37.868  40.175  1.00  0.00     0.124 S 
ATOM     94  O   UNL A   1      41.141  38.591  39.872  1.00  0.00    -0.237 OA
ATOM     95  O   UNL A   1      38.669  38.576  39.874  1.00  0.00    -0.237 OA
ATOM     96  O   UNL A   1      39.912  37.125  41.431  1.00  0.00    -0.744 OA
ENDBRANCH  92  93
ENDBRANCH  60  85
ENDBRANCH  34  35
ENDBRANCH  27  29
ENDBRANCH  26  27
ENDBRANCH  25  26
ENDBRANCH   1  25
TORSDOF 18
ENDMDL
MODEL 3
REMARK VINA RESULT:     -11.0      2.914      8.723
REMARK SMILES CC(C)CCc1cc2c(cc1Cl)C=C(C(=O)OCCOC(=O)c1ccc(-c3c4nc(c(-c5c(F)cc(S(=O)(=O)[O-])cc5F)c5ccc([nH]5)c(-c5c(F)cc(S(=O)(=O)[O-])cc5F)c5nc(c(-c6c(F)cc(S(=O)(=O)[O-])cc6F)c6ccc3[nH]6)C=C5)C=C4)cc1)[C@@H](C(F)(F)F)O2
REMARK SMILES IDX 18 1 17 2 15 3 16 4 14 5 6 6 7 7 11 8 8 9 10 10 12 11 9 12
REMARK SMILES IDX 94 13 13 14 89 15 5 16 4 17 2 18 1 19 3 20 90 21 91 22 92 23
REMARK SMILES IDX 93 24 19 25 20 26 21 27 22 28 23 29 24 30 88 31 25 32 87 33
REMARK SMILES IDX 26 34 27 35 28 36 81 37 29 38 86 39 80 40 82 41 30 42 85 43
REMARK SMILES IDX 79 44 78 45 31 47 65 48 44 49 64 50 45 51 48 52 63 53 83 54
REMARK SMILES IDX 46 55 47 56 62 58 84 59 49 60 32 61 33 62 42 63 34 64 35 65
REMARK SMILES IDX 41 66 43 67 36 68 37 69 38 70 39 71 40 72 66 73 67 74 76 75
REMARK SMILES IDX 68 76 69 77 75 78 77 79 70 80 71 81 72 82 73 83 74 84 50 85
REMARK SMILES IDX 51 86 60 87 52 88 53 89 59 90 61 91 54 92 55 93 56 94 57 95
REMARK SMILES IDX 58 96
REMARK H PARENT 82 46 48 57
REMARK Flexibility Score: inf
ROOT
ATOM      1  C   UNL A   1      33.375  30.078  27.219  1.00  0.00     0.275 C 
ENDROOT
BRANCH   1   2
ATOM      2  O   UNL A   1      33.490  28.640  27.216  1.00  0.00    -0.459 OA
BRANCH   2   3
ATOM      3  C   UNL A   1      33.519  28.055  25.996  1.00  0.00     0.338 C 
ATOM      4  O   UNL A   1      33.756  28.605  24.931  1.00  0.00    -0.246 OA
BRANCH   3   5
ATOM      5  C   UNL A   1      33.271  26.606  26.117  1.00  0.00     0.087 C 
ATOM      6  C   UNL A   1      33.522  21.588  25.820  1.00  0.00    -0.026 A 
ATOM      7  C   UNL A   1      32.539  22.506  26.243  1.00  0.00     0.052 A 
ATOM      8  C   UNL A   1      34.807  22.083  25.536  1.00  0.00     0.045 A 
ATOM      9  C   UNL A   1      32.784  23.878  26.252  1.00  0.00     0.128 A 
ATOM     10  C   UNL A   1      35.063  23.453  25.573  1.00  0.00     0.032 A 
ATOM     11  Cl  UNL A   1      36.125  21.045  25.124  1.00  0.00    -0.084 Cl
ATOM     12  C   UNL A   1      34.040  24.348  25.895  1.00  0.00     0.019 A 
ATOM     13  O   UNL A   1      31.747  24.690  26.620  1.00  0.00    -0.475 OA
ATOM     14  C   UNL A   1      34.280  25.772  25.843  1.00  0.00     0.027 C 
ATOM     15  C   UNL A   1      31.882  26.128  26.423  1.00  0.00     0.316 C 
BRANCH   6  16
ATOM     16  C   UNL A   1      33.216  20.109  25.686  1.00  0.00     0.037 C 
BRANCH  16  17
ATOM     17  C   UNL A   1      32.825  19.605  24.287  1.00  0.00     0.008 C 
BRANCH  17  18
ATOM     18  C   UNL A   1      33.157  18.123  24.006  1.00  0.00    -0.017 C 
ATOM     19  C   UNL A   1      34.631  17.799  24.245  1.00  0.00     0.007 C 
ATOM     20  C   UNL A   1      32.269  17.226  24.869  1.00  0.00     0.007 C 
ENDBRANCH  17  18
ENDBRANCH  16  17
ENDBRANCH   6  16
BRANCH  15  21
ATOM     21  C   UNL A   1      30.903  26.578  25.325  1.00  0.00     0.430 C 
ATOM     22  F   UNL A   1      29.701  25.967  25.452  1.00  0.00    -0.167 F 
ATOM     23  F   UNL A   1      30.663  27.912  25.390  1.00  0.00    -0.167 F 
ATOM     24  F   UNL A   1      31.363  26.311  24.082  1.00  0.00    -0.167 F 
ENDBRANCH  15  21
ENDBRANCH   3   5
ENDBRANCH   2   3
ENDBRANCH   1   2
BRANCH   1  25
ATOM     25  C   UNL A   1      34.682  30.737  27.663  1.00  0.00     0.275 C 
BRANCH  25  26
ATOM     26  O   UNL A   1      35.520  29.796  28.356  1.00  0.00    -0.458 OA
BRANCH  26  27
ATOM     27  C   UNL A   1      36.207  30.296  29.408  1.00  0.00     0.338 C 
ATOM     28  O   UNL A   1      35.754  30.802  30.419  1.00  0.00    -0.246 OA
BRANCH  27  29
ATOM     29  C   UNL A   1      37.639  30.035  29.208  1.00  0.00     0.060 A 
ATOM     30  C   UNL A   1      38.497  29.794  30.274  1.00  0.00     0.016 A 
ATOM     31  C   UNL A   1      38.103  29.927  27.904  1.00  0.00     0.016 A 
ATOM     32  C   UNL A   1      39.834  29.474  30.007  1.00  0.00     0.010 A 
ATOM     33  C   UNL A   1      39.380  29.449  27.640  1.00  0.00     0.010 A 
ATOM     34  C   UNL A   1      40.287  29.273  28.687  1.00  0.00    -0.014 A 
BRANCH  34  35
ATOM     35  C   UNL A   1      41.707  28.941  28.376  1.00  0.00     0.031 A 
ATOM     36  C   UNL A   1      42.093  27.531  27.978  1.00  0.00     0.074 A 
ATOM     37  C   UNL A   1      42.658  29.891  28.479  1.00  0.00     0.049 A 
ATOM     38  N   UNL A   1      43.277  27.039  27.714  1.00  0.00    -0.248 NA
ATOM     39  C   UNL A   1      41.014  26.529  27.910  1.00  0.00     0.031 C 
ATOM     40  C   UNL A   1      42.436  31.268  28.928  1.00  0.00     0.029 A 
ATOM     41  N   UNL A   1      44.002  29.851  28.202  1.00  0.00    -0.354 N 
ATOM     42  C   UNL A   1      43.084  25.680  27.480  1.00  0.00     0.074 A 
ATOM     43  C   UNL A   1      41.686  25.406  27.713  1.00  0.00     0.031 C 
ATOM     44  C   UNL A   1      43.583  31.957  28.825  1.00  0.00     0.029 A 
ATOM     45  C   UNL A   1      44.633  31.063  28.351  1.00  0.00     0.049 A 
ATOM     46  H   UNL A   1      44.470  29.030  27.922  1.00  0.00     0.167 HD
ATOM     47  C   UNL A   1      43.976  24.750  27.060  1.00  0.00     0.037 A 
ATOM     48  C   UNL A   1      45.913  31.419  28.122  1.00  0.00     0.037 A 
ATOM     49  C   UNL A   1      45.352  25.042  26.761  1.00  0.00     0.049 A 
ATOM     50  C   UNL A   1      46.877  30.381  27.618  1.00  0.00     0.074 A 
ATOM     51  C   UNL A   1      46.324  24.192  26.266  1.00  0.00     0.029 A 
ATOM     52  N   UNL A   1      45.945  26.286  26.912  1.00  0.00    -0.354 N 
ATOM     53  N   UNL A   1      46.662  29.111  27.359  1.00  0.00    -0.248 NA
ATOM     54  C   UNL A   1      48.256  30.821  27.371  1.00  0.00     0.031 C 
ATOM     55  C   UNL A   1      47.516  24.915  26.147  1.00  0.00     0.029 A 
ATOM     56  C   UNL A   1      47.274  26.226  26.527  1.00  0.00     0.049 A 
ATOM     57  H   UNL A   1      45.490  27.093  27.244  1.00  0.00     0.167 HD
ATOM     58  C   UNL A   1      47.875  28.606  26.907  1.00  0.00     0.074 A 
ATOM     59  C   UNL A   1      48.811  29.711  26.902  1.00  0.00     0.031 C 
ATOM     60  C   UNL A   1      48.188  27.340  26.535  1.00  0.00     0.037 A 
BRANCH  47  61
ATOM     61  C   UNL A   1      43.480  23.341  26.856  1.00  0.00     0.058 A 
ATOM     62  C   UNL A   1      43.264  22.816  25.571  1.00  0.00     0.135 A 
ATOM     63  C   UNL A   1      43.258  22.489  27.951  1.00  0.00     0.135 A 
ATOM     64  F   UNL A   1      43.442  23.587  24.487  1.00  0.00    -0.206 F 
ATOM     65  C   UNL A   1      42.820  21.511  25.379  1.00  0.00     0.059 A 
ATOM     66  C   UNL A   1      42.846  21.170  27.783  1.00  0.00     0.059 A 
ATOM     67  F   UNL A   1      43.449  22.935  29.204  1.00  0.00    -0.206 F 
ATOM     68  C   UNL A   1      42.618  20.694  26.492  1.00  0.00     0.060 A 
BRANCH  68  69
ATOM     69  S   UNL A   1      42.066  18.996  26.218  1.00  0.00     0.124 S 
ATOM     70  O   UNL A   1      43.002  18.547  25.192  1.00  0.00    -0.237 OA
ATOM     71  O   UNL A   1      42.239  18.398  27.537  1.00  0.00    -0.237 OA
ATOM     72  O   UNL A   1      40.684  19.153  25.780  1.00  0.00    -0.744 OA
ENDBRANCH  68  69
ENDBRANCH  47  61
BRANCH  48  73
ATOM     73  C   UNL A   1      46.335  32.832  28.317  1.00  0.00     0.058 A 
ATOM     74  C   UNL A   1      46.896  33.251  29.534  1.00  0.00     0.135 A 
ATOM     75  C   UNL A   1      46.228  33.780  27.288  1.00  0.00     0.135 A 
ATOM     76  F   UNL A   1      47.016  32.385  30.551  1.00  0.00    -0.206 F 
ATOM     77  C   UNL A   1      47.329  34.559  29.726  1.00  0.00     0.059 A 
ATOM     78  C   UNL A   1      46.678  35.087  27.448  1.00  0.00     0.059 A 
ATOM     79  F   UNL A   1      45.714  33.426  26.100  1.00  0.00    -0.206 F 
ATOM     80  C   UNL A   1      47.223  35.469  28.673  1.00  0.00     0.060 A 
BRANCH  80  81
ATOM     81  S   UNL A   1      47.851  37.145  28.914  1.00  0.00     0.124 S 
ATOM     82  O   UNL A   1      49.128  37.086  28.213  1.00  0.00    -0.237 OA
ATOM     83  O   UNL A   1      46.812  37.953  28.283  1.00  0.00    -0.237 OA
ATOM     84  O   UNL A   1      47.934  37.269  30.366  1.00  0.00    -0.744 OA
ENDBRANCH  80  81
ENDBRANCH  48  73
BRANCH  60  85
ATOM     85  C   UNL A   1      49.597  27.086  26.079  1.00  0.00     0.058 A 
ATOM     86  C   UNL A   1      49.961  27.195  24.728  1.00  0.00     0.135 A 
ATOM     87  C   UNL A   1      50.604  26.778  27.009  1.00  0.00     0.135 A 
ATOM     88  F   UNL A   1      49.035  27.484  23.801  1.00  0.00    -0.206 F 
ATOM     89  C   UNL A   1      51.269  26.977  24.310  1.00  0.00     0.059 A 
ATOM     90  C   UNL A   1      51.924  26.585  26.616  1.00  0.00     0.059 A 
ATOM     91  F   UNL A   1      50.311  26.677  28.315  1.00  0.00    -0.206 F 
ATOM     92  C   UNL A   1      52.243  26.673  25.262  1.00  0.00     0.060 A 
BRANCH  92  93
ATOM     93  S   UNL A   1      53.939  26.409  24.705  1.00  0.00     0.124 S 
ATOM     94  O   UNL A   1      53.888  25.020  24.258  1.00  0.00    -0.237 OA
ATOM     95  O   UNL A   1      54.080  27.409  23.651  1.00  0.00    -0.237 OA
ATOM     96  O   UNL A   1      54.734  26.653  25.904  1.00  0.00    -0.744 OA
ENDBRANCH  92  93
ENDBRANCH  60  85
ENDBRANCH  34  35
ENDBRANCH  27  29
ENDBRANCH  26  27
ENDBRANCH  25  26
ENDBRANCH   1  25
TORSDOF 18
ENDMDL
