MODEL 1
REMARK VINA RESULT:     -12.1      0.000      0.000
REMARK SMILES CC(=O)Oc1c(Cl)cc(-c2ccccc2)cc1C(=O)OCCOC(=O)c1ccc(-c2c3nc(c(-c4c(F)cc(S(=O)(=O)[O-])cc4F)c4ccc([nH]4)c(-c4c(F)cc(S(=O)(=O)[O-])cc4F)c4nc(c(-c5c(F)cc(S(=O)(=O)[O-])cc5F)c5ccc2[nH]5)C=C4)C=C3)cc1
REMARK SMILES IDX 22 1 21 2 20 3 18 4 19 5 17 6 5 7 6 8 7 9 8 10 16 11 9 12
REMARK SMILES IDX 4 13 2 14 1 15 3 16 10 17 11 18 15 19 12 20 14 21 13 22
REMARK SMILES IDX 23 23 24 24 25 25 26 26 27 27 91 28 28 29 90 30 29 31 30 32
REMARK SMILES IDX 31 33 84 34 32 35 89 36 83 37 85 38 33 39 88 40 82 41 81 42
REMARK SMILES IDX 34 44 68 45 47 46 67 47 48 48 51 49 66 50 86 51 49 52 50 53
REMARK SMILES IDX 65 55 87 56 52 57 35 58 36 59 45 60 37 61 38 62 44 63 46 64
REMARK SMILES IDX 39 65 40 66 41 67 42 68 43 69 69 70 70 71 79 72 71 73 72 74
REMARK SMILES IDX 78 75 80 76 73 77 74 78 75 79 76 80 77 81 53 82 54 83 63 84
REMARK SMILES IDX 55 85 56 86 62 87 64 88 57 89 58 90 59 91 60 92 61 93
REMARK H PARENT 85 43 51 54
REMARK Flexibility Score: inf
ROOT
ATOM      1  C   UNL A   1      39.624  22.143  26.538  1.00  0.00     0.275 C 
ENDROOT
BRANCH   1   2
ATOM      2  C   UNL A   1      38.535  21.611  25.610  1.00  0.00     0.275 C 
BRANCH   2   3
ATOM      3  O   UNL A   1      37.312  22.363  25.761  1.00  0.00    -0.458 OA
BRANCH   3   4
ATOM      4  C   UNL A   1      36.581  22.534  24.629  1.00  0.00     0.342 C 
ATOM      5  O   UNL A   1      36.987  22.972  23.569  1.00  0.00    -0.246 OA
BRANCH   4   6
ATOM      6  C   UNL A   1      35.199  22.025  24.791  1.00  0.00     0.105 A 
ATOM      7  C   UNL A   1      34.086  22.846  24.972  1.00  0.00     0.164 A 
ATOM      8  C   UNL A   1      32.801  22.282  24.995  1.00  0.00     0.085 A 
ATOM      9  Cl  UNL A   1      31.384  23.272  25.045  1.00  0.00    -0.080 Cl
ATOM     10  C   UNL A   1      32.636  20.892  24.949  1.00  0.00     0.033 A 
ATOM     11  C   UNL A   1      35.012  20.638  24.689  1.00  0.00     0.028 A 
ATOM     12  C   UNL A   1      33.747  20.050  24.829  1.00  0.00    -0.016 A 
BRANCH   7  13
ATOM     13  O   UNL A   1      34.249  24.233  25.043  1.00  0.00    -0.424 OA
BRANCH  13  14
ATOM     14  C   UNL A   1      33.961  24.849  23.829  1.00  0.00     0.308 C 
ATOM     15  C   UNL A   1      33.227  26.131  24.084  1.00  0.00     0.139 C 
ATOM     16  O   UNL A   1      34.212  24.418  22.711  1.00  0.00    -0.252 OA
ENDBRANCH  13  14
ENDBRANCH   7  13
BRANCH  12  17
ATOM     17  C   UNL A   1      33.620  18.589  24.869  1.00  0.00    -0.018 A 
ATOM     18  C   UNL A   1      34.522  17.757  24.191  1.00  0.00     0.009 A 
ATOM     19  C   UNL A   1      32.593  17.989  25.621  1.00  0.00     0.009 A 
ATOM     20  C   UNL A   1      34.407  16.365  24.272  1.00  0.00     0.001 A 
ATOM     21  C   UNL A   1      32.477  16.599  25.700  1.00  0.00     0.001 A 
ATOM     22  C   UNL A   1      33.386  15.789  25.027  1.00  0.00     0.000 A 
ENDBRANCH  12  17
ENDBRANCH   4   6
ENDBRANCH   3   4
ENDBRANCH   2   3
ENDBRANCH   1   2
BRANCH   1  23
ATOM     23  O   UNL A   1      39.596  23.581  26.532  1.00  0.00    -0.458 OA
BRANCH  23  24
ATOM     24  C   UNL A   1      40.747  24.190  26.895  1.00  0.00     0.338 C 
ATOM     25  O   UNL A   1      41.885  23.845  26.623  1.00  0.00    -0.246 OA
BRANCH  24  26
ATOM     26  C   UNL A   1      40.445  25.404  27.672  1.00  0.00     0.060 A 
ATOM     27  C   UNL A   1      41.306  26.493  27.590  1.00  0.00     0.016 A 
ATOM     28  C   UNL A   1      39.408  25.404  28.601  1.00  0.00     0.016 A 
ATOM     29  C   UNL A   1      41.221  27.525  28.524  1.00  0.00     0.010 A 
ATOM     30  C   UNL A   1      39.253  26.496  29.463  1.00  0.00     0.010 A 
ATOM     31  C   UNL A   1      40.195  27.543  29.481  1.00  0.00    -0.014 A 
BRANCH  31  32
ATOM     32  C   UNL A   1      40.157  28.599  30.539  1.00  0.00     0.031 A 
ATOM     33  C   UNL A   1      41.142  28.563  31.687  1.00  0.00     0.074 A 
ATOM     34  C   UNL A   1      39.272  29.615  30.475  1.00  0.00     0.049 A 
ATOM     35  N   UNL A   1      41.172  29.287  32.778  1.00  0.00    -0.248 NA
ATOM     36  C   UNL A   1      42.222  27.567  31.606  1.00  0.00     0.031 C 
ATOM     37  C   UNL A   1      38.275  29.808  29.421  1.00  0.00     0.029 A 
ATOM     38  N   UNL A   1      39.073  30.687  31.313  1.00  0.00    -0.354 N 
ATOM     39  C   UNL A   1      42.222  28.787  33.542  1.00  0.00     0.074 A 
ATOM     40  C   UNL A   1      42.802  27.695  32.790  1.00  0.00     0.031 C 
ATOM     41  C   UNL A   1      37.607  30.950  29.646  1.00  0.00     0.029 A 
ATOM     42  C   UNL A   1      38.066  31.529  30.904  1.00  0.00     0.049 A 
ATOM     43  H   UNL A   1      39.603  30.838  32.129  1.00  0.00     0.167 HD
ATOM     44  C   UNL A   1      42.666  29.197  34.756  1.00  0.00     0.037 A 
ATOM     45  C   UNL A   1      37.539  32.625  31.486  1.00  0.00     0.037 A 
ATOM     46  C   UNL A   1      42.138  30.328  35.475  1.00  0.00     0.049 A 
ATOM     47  C   UNL A   1      38.069  33.087  32.812  1.00  0.00     0.074 A 
ATOM     48  C   UNL A   1      42.527  30.827  36.707  1.00  0.00     0.029 A 
ATOM     49  N   UNL A   1      41.123  31.156  35.016  1.00  0.00    -0.354 N 
ATOM     50  N   UNL A   1      39.016  32.558  33.551  1.00  0.00    -0.248 NA
ATOM     51  C   UNL A   1      37.453  34.288  33.392  1.00  0.00     0.031 C 
ATOM     52  C   UNL A   1      41.736  31.944  37.001  1.00  0.00     0.029 A 
ATOM     53  C   UNL A   1      40.880  32.164  35.936  1.00  0.00     0.049 A 
ATOM     54  H   UNL A   1      40.647  31.044  34.162  1.00  0.00     0.167 HD
ATOM     55  C   UNL A   1      39.108  33.361  34.681  1.00  0.00     0.074 A 
ATOM     56  C   UNL A   1      38.142  34.428  34.517  1.00  0.00     0.031 C 
ATOM     57  C   UNL A   1      39.914  33.220  35.763  1.00  0.00     0.037 A 
BRANCH  44  58
ATOM     58  C   UNL A   1      43.766  28.396  35.399  1.00  0.00     0.058 A 
ATOM     59  C   UNL A   1      45.123  28.638  35.129  1.00  0.00     0.135 A 
ATOM     60  C   UNL A   1      43.455  27.371  36.308  1.00  0.00     0.135 A 
ATOM     61  F   UNL A   1      45.476  29.596  34.256  1.00  0.00    -0.206 F 
ATOM     62  C   UNL A   1      46.129  27.870  35.707  1.00  0.00     0.059 A 
ATOM     63  C   UNL A   1      44.447  26.607  36.919  1.00  0.00     0.059 A 
ATOM     64  F   UNL A   1      42.176  27.097  36.608  1.00  0.00    -0.206 F 
ATOM     65  C   UNL A   1      45.781  26.851  36.596  1.00  0.00     0.060 A 
BRANCH  65  66
ATOM     66  S   UNL A   1      47.092  25.846  37.325  1.00  0.00     0.124 S 
ATOM     67  O   UNL A   1      46.473  24.525  37.335  1.00  0.00    -0.237 OA
ATOM     68  O   UNL A   1      48.189  26.025  36.379  1.00  0.00    -0.237 OA
ATOM     69  O   UNL A   1      47.296  26.455  38.636  1.00  0.00    -0.744 OA
ENDBRANCH  65  66
ENDBRANCH  44  58
BRANCH  45  70
ATOM     70  C   UNL A   1      36.418  33.340  30.818  1.00  0.00     0.058 A 
ATOM     71  C   UNL A   1      35.114  33.281  31.328  1.00  0.00     0.135 A 
ATOM     72  C   UNL A   1      36.643  34.133  29.681  1.00  0.00     0.135 A 
ATOM     73  F   UNL A   1      34.847  32.526  32.404  1.00  0.00    -0.206 F 
ATOM     74  C   UNL A   1      34.069  33.985  30.736  1.00  0.00     0.059 A 
ATOM     75  C   UNL A   1      35.621  34.866  29.089  1.00  0.00     0.059 A 
ATOM     76  F   UNL A   1      37.877  34.231  29.163  1.00  0.00    -0.206 F 
ATOM     77  C   UNL A   1      34.335  34.782  29.622  1.00  0.00     0.060 A 
BRANCH  77  78
ATOM     78  S   UNL A   1      32.996  35.763  28.910  1.00  0.00     0.124 S 
ATOM     79  O   UNL A   1      33.736  36.827  28.240  1.00  0.00    -0.237 OA
ATOM     80  O   UNL A   1      32.334  34.798  28.037  1.00  0.00    -0.237 OA
ATOM     81  O   UNL A   1      32.222  36.170  30.080  1.00  0.00    -0.744 OA
ENDBRANCH  77  78
ENDBRANCH  45  70
BRANCH  57  82
ATOM     82  C   UNL A   1      39.799  34.260  36.840  1.00  0.00     0.058 A 
ATOM     83  C   UNL A   1      40.483  35.483  36.761  1.00  0.00     0.135 A 
ATOM     84  C   UNL A   1      38.982  34.036  37.961  1.00  0.00     0.135 A 
ATOM     85  F   UNL A   1      41.280  35.744  35.712  1.00  0.00    -0.206 F 
ATOM     86  C   UNL A   1      40.391  36.434  37.772  1.00  0.00     0.059 A 
ATOM     87  C   UNL A   1      38.858  34.983  38.974  1.00  0.00     0.059 A 
ATOM     88  F   UNL A   1      38.298  32.888  38.081  1.00  0.00    -0.206 F 
ATOM     89  C   UNL A   1      39.582  36.172  38.879  1.00  0.00     0.060 A 
BRANCH  89  90
ATOM     90  S   UNL A   1      39.469  37.409  40.188  1.00  0.00     0.124 S 
ATOM     91  O   UNL A   1      38.882  36.633  41.275  1.00  0.00    -0.237 OA
ATOM     92  O   UNL A   1      40.863  37.802  40.373  1.00  0.00    -0.237 OA
ATOM     93  O   UNL A   1      38.608  38.437  39.610  1.00  0.00    -0.744 OA
ENDBRANCH  89  90
ENDBRANCH  57  82
ENDBRANCH  31  32
ENDBRANCH  24  26
ENDBRANCH  23  24
ENDBRANCH   1  23
TORSDOF 17
ENDMDL
MODEL 2
REMARK VINA RESULT:     -11.8      1.280      3.526
REMARK SMILES CC(=O)Oc1c(Cl)cc(-c2ccccc2)cc1C(=O)OCCOC(=O)c1ccc(-c2c3nc(c(-c4c(F)cc(S(=O)(=O)[O-])cc4F)c4ccc([nH]4)c(-c4c(F)cc(S(=O)(=O)[O-])cc4F)c4nc(c(-c5c(F)cc(S(=O)(=O)[O-])cc5F)c5ccc2[nH]5)C=C4)C=C3)cc1
REMARK SMILES IDX 22 1 21 2 20 3 18 4 19 5 17 6 5 7 6 8 7 9 8 10 16 11 9 12
REMARK SMILES IDX 4 13 2 14 1 15 3 16 10 17 11 18 15 19 12 20 14 21 13 22
REMARK SMILES IDX 23 23 24 24 25 25 26 26 27 27 91 28 28 29 90 30 29 31 30 32
REMARK SMILES IDX 31 33 84 34 32 35 89 36 83 37 85 38 33 39 88 40 82 41 81 42
REMARK SMILES IDX 34 44 68 45 47 46 67 47 48 48 51 49 66 50 86 51 49 52 50 53
REMARK SMILES IDX 65 55 87 56 52 57 35 58 36 59 45 60 37 61 38 62 44 63 46 64
REMARK SMILES IDX 39 65 40 66 41 67 42 68 43 69 69 70 70 71 79 72 71 73 72 74
REMARK SMILES IDX 78 75 80 76 73 77 74 78 75 79 76 80 77 81 53 82 54 83 63 84
REMARK SMILES IDX 55 85 56 86 62 87 64 88 57 89 58 90 59 91 60 92 61 93
REMARK H PARENT 85 43 51 54
REMARK Flexibility Score: inf
ROOT
ATOM      1  C   UNL A   1      38.908  22.643  26.136  1.00  0.00     0.275 C 
ENDROOT
BRANCH   1   2
ATOM      2  C   UNL A   1      37.892  23.715  25.751  1.00  0.00     0.275 C 
BRANCH   2   3
ATOM      3  O   UNL A   1      36.549  23.186  25.768  1.00  0.00    -0.458 OA
BRANCH   3   4
ATOM      4  C   UNL A   1      35.772  23.516  24.703  1.00  0.00     0.342 C 
ATOM      5  O   UNL A   1      36.064  23.384  23.530  1.00  0.00    -0.246 OA
BRANCH   4   6
ATOM      6  C   UNL A   1      34.434  23.988  25.132  1.00  0.00     0.105 A 
ATOM      7  C   UNL A   1      33.286  23.196  25.106  1.00  0.00     0.164 A 
ATOM      8  C   UNL A   1      32.087  23.690  25.644  1.00  0.00     0.085 A 
ATOM      9  Cl  UNL A   1      30.686  22.687  25.789  1.00  0.00    -0.080 Cl
ATOM     10  C   UNL A   1      32.008  25.009  26.106  1.00  0.00     0.033 A 
ATOM     11  C   UNL A   1      34.351  25.290  25.650  1.00  0.00     0.028 A 
ATOM     12  C   UNL A   1      33.136  25.838  26.083  1.00  0.00    -0.016 A 
BRANCH   7  13
ATOM     13  O   UNL A   1      33.356  21.886  24.623  1.00  0.00    -0.424 OA
BRANCH  13  14
ATOM     14  C   UNL A   1      33.835  21.005  25.587  1.00  0.00     0.308 C 
ATOM     15  C   UNL A   1      34.625  19.920  24.921  1.00  0.00     0.139 C 
ATOM     16  O   UNL A   1      33.625  21.054  26.792  1.00  0.00    -0.252 OA
ENDBRANCH  13  14
ENDBRANCH   7  13
BRANCH  12  17
ATOM     17  C   UNL A   1      33.068  27.250  26.473  1.00  0.00    -0.018 A 
ATOM     18  C   UNL A   1      34.213  28.058  26.501  1.00  0.00     0.009 A 
ATOM     19  C   UNL A   1      31.831  27.834  26.804  1.00  0.00     0.009 A 
ATOM     20  C   UNL A   1      34.122  29.412  26.840  1.00  0.00     0.001 A 
ATOM     21  C   UNL A   1      31.741  29.185  27.144  1.00  0.00     0.001 A 
ATOM     22  C   UNL A   1      32.887  29.974  27.159  1.00  0.00     0.000 A 
ENDBRANCH  12  17
ENDBRANCH   4   6
ENDBRANCH   3   4
ENDBRANCH   2   3
ENDBRANCH   1   2
BRANCH   1  23
ATOM     23  O   UNL A   1      39.707  23.116  27.233  1.00  0.00    -0.458 OA
BRANCH  23  24
ATOM     24  C   UNL A   1      40.607  24.078  26.930  1.00  0.00     0.338 C 
ATOM     25  O   UNL A   1      41.522  24.010  26.126  1.00  0.00    -0.246 OA
BRANCH  24  26
ATOM     26  C   UNL A   1      40.316  25.296  27.705  1.00  0.00     0.060 A 
ATOM     27  C   UNL A   1      41.159  26.395  27.582  1.00  0.00     0.016 A 
ATOM     28  C   UNL A   1      39.312  25.292  28.670  1.00  0.00     0.016 A 
ATOM     29  C   UNL A   1      41.092  27.436  28.508  1.00  0.00     0.010 A 
ATOM     30  C   UNL A   1      39.171  26.392  29.525  1.00  0.00     0.010 A 
ATOM     31  C   UNL A   1      40.100  27.451  29.500  1.00  0.00    -0.014 A 
BRANCH  31  32
ATOM     32  C   UNL A   1      40.084  28.517  30.548  1.00  0.00     0.031 A 
ATOM     33  C   UNL A   1      41.075  28.477  31.690  1.00  0.00     0.074 A 
ATOM     34  C   UNL A   1      39.214  29.546  30.479  1.00  0.00     0.049 A 
ATOM     35  N   UNL A   1      41.122  29.211  32.774  1.00  0.00    -0.248 NA
ATOM     36  C   UNL A   1      42.139  27.464  31.613  1.00  0.00     0.031 C 
ATOM     37  C   UNL A   1      38.213  29.744  29.429  1.00  0.00     0.029 A 
ATOM     38  N   UNL A   1      39.036  30.629  31.308  1.00  0.00    -0.354 N 
ATOM     39  C   UNL A   1      42.169  28.702  33.537  1.00  0.00     0.074 A 
ATOM     40  C   UNL A   1      42.728  27.595  32.792  1.00  0.00     0.031 C 
ATOM     41  C   UNL A   1      37.564  30.897  29.647  1.00  0.00     0.029 A 
ATOM     42  C   UNL A   1      38.039  31.481  30.897  1.00  0.00     0.049 A 
ATOM     43  H   UNL A   1      39.573  30.779  32.120  1.00  0.00     0.167 HD
ATOM     44  C   UNL A   1      42.627  29.118  34.744  1.00  0.00     0.037 A 
ATOM     45  C   UNL A   1      37.532  32.591  31.471  1.00  0.00     0.037 A 
ATOM     46  C   UNL A   1      42.120  30.263  35.455  1.00  0.00     0.049 A 
ATOM     47  C   UNL A   1      38.077  33.057  32.790  1.00  0.00     0.074 A 
ATOM     48  C   UNL A   1      42.524  30.768  36.680  1.00  0.00     0.029 A 
ATOM     49  N   UNL A   1      41.115  31.102  34.994  1.00  0.00    -0.354 N 
ATOM     50  N   UNL A   1      39.020  32.521  33.528  1.00  0.00    -0.248 NA
ATOM     51  C   UNL A   1      37.483  34.274  33.362  1.00  0.00     0.031 C 
ATOM     52  C   UNL A   1      41.752  31.899  36.968  1.00  0.00     0.029 A 
ATOM     53  C   UNL A   1      40.892  32.122  35.906  1.00  0.00     0.049 A 
ATOM     54  H   UNL A   1      40.632  30.988  34.144  1.00  0.00     0.167 HD
ATOM     55  C   UNL A   1      39.131  33.333  34.650  1.00  0.00     0.074 A 
ATOM     56  C   UNL A   1      38.180  34.414  34.481  1.00  0.00     0.031 C 
ATOM     57  C   UNL A   1      39.941  33.191  35.728  1.00  0.00     0.037 A 
BRANCH  44  58
ATOM     58  C   UNL A   1      43.719  28.306  35.389  1.00  0.00     0.058 A 
ATOM     59  C   UNL A   1      45.078  28.601  35.201  1.00  0.00     0.135 A 
ATOM     60  C   UNL A   1      43.395  27.217  36.216  1.00  0.00     0.135 A 
ATOM     61  F   UNL A   1      45.444  29.621  34.407  1.00  0.00    -0.206 F 
ATOM     62  C   UNL A   1      46.079  27.824  35.777  1.00  0.00     0.059 A 
ATOM     63  C   UNL A   1      44.380  26.443  36.825  1.00  0.00     0.059 A 
ATOM     64  F   UNL A   1      42.112  26.892  36.435  1.00  0.00    -0.206 F 
ATOM     65  C   UNL A   1      45.719  26.741  36.583  1.00  0.00     0.060 A 
BRANCH  65  66
ATOM     66  S   UNL A   1      47.023  25.727  37.310  1.00  0.00     0.124 S 
ATOM     67  O   UNL A   1      47.320  26.469  38.531  1.00  0.00    -0.237 OA
ATOM     68  O   UNL A   1      46.357  24.441  37.496  1.00  0.00    -0.237 OA
ATOM     69  O   UNL A   1      48.072  25.743  36.294  1.00  0.00    -0.744 OA
ENDBRANCH  65  66
ENDBRANCH  44  58
BRANCH  45  70
ATOM     70  C   UNL A   1      36.419  33.317  30.803  1.00  0.00     0.058 A 
ATOM     71  C   UNL A   1      35.101  33.211  31.270  1.00  0.00     0.135 A 
ATOM     72  C   UNL A   1      36.661  34.165  29.710  1.00  0.00     0.135 A 
ATOM     73  F   UNL A   1      34.817  32.403  32.302  1.00  0.00    -0.206 F 
ATOM     74  C   UNL A   1      34.061  33.923  30.679  1.00  0.00     0.059 A 
ATOM     75  C   UNL A   1      35.643  34.906  29.122  1.00  0.00     0.059 A 
ATOM     76  F   UNL A   1      37.908  34.307  29.234  1.00  0.00    -0.206 F 
ATOM     77  C   UNL A   1      34.345  34.775  29.611  1.00  0.00     0.060 A 
BRANCH  77  78
ATOM     78  S   UNL A   1      33.008  35.765  28.904  1.00  0.00     0.124 S 
ATOM     79  O   UNL A   1      32.339  34.787  28.054  1.00  0.00    -0.237 OA
ATOM     80  O   UNL A   1      32.274  36.187  30.093  1.00  0.00    -0.237 OA
ATOM     81  O   UNL A   1      33.718  36.832  28.205  1.00  0.00    -0.744 OA
ENDBRANCH  77  78
ENDBRANCH  45  70
BRANCH  57  82
ATOM     82  C   UNL A   1      39.848  34.243  36.796  1.00  0.00     0.058 A 
ATOM     83  C   UNL A   1      39.057  34.063  37.942  1.00  0.00     0.135 A 
ATOM     84  C   UNL A   1      40.568  35.443  36.678  1.00  0.00     0.135 A 
ATOM     85  F   UNL A   1      38.345  32.936  38.100  1.00  0.00    -0.206 F 
ATOM     86  C   UNL A   1      38.956  35.050  38.917  1.00  0.00     0.059 A 
ATOM     87  C   UNL A   1      40.500  36.434  37.652  1.00  0.00     0.059 A 
ATOM     88  F   UNL A   1      41.348  35.660  35.607  1.00  0.00    -0.206 F 
ATOM     89  C   UNL A   1      39.675  36.236  38.760  1.00  0.00     0.060 A 
BRANCH  89  90
ATOM     90  S   UNL A   1      39.536  37.513  40.028  1.00  0.00     0.124 S 
ATOM     91  O   UNL A   1      39.204  36.721  41.207  1.00  0.00    -0.237 OA
ATOM     92  O   UNL A   1      40.869  38.110  40.021  1.00  0.00    -0.237 OA
ATOM     93  O   UNL A   1      38.470  38.374  39.525  1.00  0.00    -0.744 OA
ENDBRANCH  89  90
ENDBRANCH  57  82
ENDBRANCH  31  32
ENDBRANCH  24  26
ENDBRANCH  23  24
ENDBRANCH   1  23
TORSDOF 17
ENDMDL
MODEL 3
REMARK VINA RESULT:     -11.8      6.995     12.774
REMARK SMILES CC(=O)Oc1c(Cl)cc(-c2ccccc2)cc1C(=O)OCCOC(=O)c1ccc(-c2c3nc(c(-c4c(F)cc(S(=O)(=O)[O-])cc4F)c4ccc([nH]4)c(-c4c(F)cc(S(=O)(=O)[O-])cc4F)c4nc(c(-c5c(F)cc(S(=O)(=O)[O-])cc5F)c5ccc2[nH]5)C=C4)C=C3)cc1
REMARK SMILES IDX 22 1 21 2 20 3 18 4 19 5 17 6 5 7 6 8 7 9 8 10 16 11 9 12
REMARK SMILES IDX 4 13 2 14 1 15 3 16 10 17 11 18 15 19 12 20 14 21 13 22
REMARK SMILES IDX 23 23 24 24 25 25 26 26 27 27 91 28 28 29 90 30 29 31 30 32
REMARK SMILES IDX 31 33 84 34 32 35 89 36 83 37 85 38 33 39 88 40 82 41 81 42
REMARK SMILES IDX 34 44 68 45 47 46 67 47 48 48 51 49 66 50 86 51 49 52 50 53
REMARK SMILES IDX 65 55 87 56 52 57 35 58 36 59 45 60 37 61 38 62 44 63 46 64
REMARK SMILES IDX 39 65 40 66 41 67 42 68 43 69 69 70 70 71 79 72 71 73 72 74
REMARK SMILES IDX 78 75 80 76 73 77 74 78 75 79 76 80 77 81 53 82 54 83 63 84
REMARK SMILES IDX 55 85 56 86 62 87 64 88 57 89 58 90 59 91 60 92 61 93
REMARK H PARENT 85 43 51 54
REMARK Flexibility Score: inf
ROOT
ATOM      1  C   UNL A   1      34.570  31.507  27.700  1.00  0.00     0.275 C 
ENDROOT
BRANCH   1   2
ATOM      2  C   UNL A   1      33.180  31.013  27.307  1.00  0.00     0.275 C 
BRANCH   2   3
ATOM      3  O   UNL A   1      33.261  29.989  26.292  1.00  0.00    -0.458 OA
BRANCH   3   4
ATOM      4  C   UNL A   1      32.593  28.838  26.562  1.00  0.00     0.342 C 
ATOM      5  O   UNL A   1      32.591  28.237  27.619  1.00  0.00    -0.246 OA
BRANCH   4   6
ATOM      6  C   UNL A   1      31.752  28.416  25.417  1.00  0.00     0.105 A 
ATOM      7  C   UNL A   1      31.666  27.100  24.961  1.00  0.00     0.164 A 
ATOM      8  C   UNL A   1      30.752  26.773  23.947  1.00  0.00     0.085 A 
ATOM      9  Cl  UNL A   1      30.488  25.132  23.469  1.00  0.00    -0.080 Cl
ATOM     10  C   UNL A   1      30.007  27.775  23.315  1.00  0.00     0.033 A 
ATOM     11  C   UNL A   1      30.957  29.399  24.810  1.00  0.00     0.028 A 
ATOM     12  C   UNL A   1      30.126  29.109  23.718  1.00  0.00    -0.016 A 
BRANCH   7  13
ATOM     13  O   UNL A   1      32.427  26.100  25.574  1.00  0.00    -0.424 OA
BRANCH  13  14
ATOM     14  C   UNL A   1      33.612  25.858  24.886  1.00  0.00     0.308 C 
ATOM     15  C   UNL A   1      34.404  24.813  25.612  1.00  0.00     0.139 C 
ATOM     16  O   UNL A   1      33.998  26.424  23.872  1.00  0.00    -0.252 OA
ENDBRANCH  13  14
ENDBRANCH   7  13
BRANCH  12  17
ATOM     17  C   UNL A   1      29.431  30.196  23.020  1.00  0.00    -0.018 A 
ATOM     18  C   UNL A   1      29.043  30.074  21.678  1.00  0.00     0.009 A 
ATOM     19  C   UNL A   1      29.111  31.384  23.702  1.00  0.00     0.009 A 
ATOM     20  C   UNL A   1      28.348  31.107  21.041  1.00  0.00     0.001 A 
ATOM     21  C   UNL A   1      28.419  32.416  23.065  1.00  0.00     0.001 A 
ATOM     22  C   UNL A   1      28.035  32.275  21.735  1.00  0.00     0.000 A 
ENDBRANCH  12  17
ENDBRANCH   4   6
ENDBRANCH   3   4
ENDBRANCH   2   3
ENDBRANCH   1   2
BRANCH   1  23
ATOM     23  O   UNL A   1      35.206  30.526  28.537  1.00  0.00    -0.458 OA
BRANCH  23  24
ATOM     24  C   UNL A   1      36.233  30.978  29.291  1.00  0.00     0.338 C 
ATOM     25  O   UNL A   1      36.208  31.881  30.111  1.00  0.00    -0.246 OA
BRANCH  24  26
ATOM     26  C   UNL A   1      37.443  30.185  29.014  1.00  0.00     0.060 A 
ATOM     27  C   UNL A   1      38.263  29.808  30.072  1.00  0.00     0.016 A 
ATOM     28  C   UNL A   1      37.849  29.957  27.702  1.00  0.00     0.016 A 
ATOM     29  C   UNL A   1      39.549  29.328  29.825  1.00  0.00     0.010 A 
ATOM     30  C   UNL A   1      39.095  29.367  27.457  1.00  0.00     0.010 A 
ATOM     31  C   UNL A   1      39.990  29.103  28.512  1.00  0.00    -0.014 A 
BRANCH  31  32
ATOM     32  C   UNL A   1      41.398  28.677  28.242  1.00  0.00     0.031 A 
ATOM     33  C   UNL A   1      42.528  29.679  28.333  1.00  0.00     0.074 A 
ATOM     34  C   UNL A   1      41.691  27.394  27.946  1.00  0.00     0.049 A 
ATOM     35  N   UNL A   1      43.784  29.547  27.985  1.00  0.00    -0.248 NA
ATOM     36  C   UNL A   1      42.196  31.010  28.864  1.00  0.00     0.031 C 
ATOM     37  C   UNL A   1      40.720  26.302  27.845  1.00  0.00     0.029 A 
ATOM     38  N   UNL A   1      42.895  26.785  27.683  1.00  0.00    -0.354 N 
ATOM     39  C   UNL A   1      44.371  30.793  28.186  1.00  0.00     0.074 A 
ATOM     40  C   UNL A   1      43.331  31.669  28.683  1.00  0.00     0.031 C 
ATOM     41  C   UNL A   1      41.368  25.155  27.594  1.00  0.00     0.029 A 
ATOM     42  C   UNL A   1      42.790  25.438  27.429  1.00  0.00     0.049 A 
ATOM     43  H   UNL A   1      43.753  27.269  27.677  1.00  0.00     0.167 HD
ATOM     44  C   UNL A   1      45.655  31.176  27.979  1.00  0.00     0.037 A 
ATOM     45  C   UNL A   1      43.720  24.531  27.069  1.00  0.00     0.037 A 
ATOM     46  C   UNL A   1      46.708  30.290  27.553  1.00  0.00     0.049 A 
ATOM     47  C   UNL A   1      45.144  24.965  26.882  1.00  0.00     0.074 A 
ATOM     48  C   UNL A   1      48.042  30.582  27.324  1.00  0.00     0.029 A 
ATOM     49  N   UNL A   1      46.555  28.931  27.317  1.00  0.00    -0.354 N 
ATOM     50  N   UNL A   1      45.664  26.163  27.009  1.00  0.00    -0.248 NA
ATOM     51  C   UNL A   1      46.109  23.928  26.491  1.00  0.00     0.031 C 
ATOM     52  C   UNL A   1      48.691  29.405  26.932  1.00  0.00     0.029 A 
ATOM     53  C   UNL A   1      47.770  28.372  26.953  1.00  0.00     0.049 A 
ATOM     54  H   UNL A   1      45.707  28.437  27.398  1.00  0.00     0.167 HD
ATOM     55  C   UNL A   1      47.015  26.023  26.712  1.00  0.00     0.074 A 
ATOM     56  C   UNL A   1      47.238  24.620  26.429  1.00  0.00     0.031 C 
ATOM     57  C   UNL A   1      47.980  26.975  26.670  1.00  0.00     0.037 A 
BRANCH  44  58
ATOM     58  C   UNL A   1      45.987  32.629  28.185  1.00  0.00     0.058 A 
ATOM     59  C   UNL A   1      45.840  33.582  27.165  1.00  0.00     0.135 A 
ATOM     60  C   UNL A   1      46.456  33.077  29.432  1.00  0.00     0.135 A 
ATOM     61  F   UNL A   1      45.411  33.206  25.948  1.00  0.00    -0.206 F 
ATOM     62  C   UNL A   1      46.179  34.917  27.359  1.00  0.00     0.059 A 
ATOM     63  C   UNL A   1      46.776  34.414  29.658  1.00  0.00     0.059 A 
ATOM     64  F   UNL A   1      46.612  32.212  30.447  1.00  0.00    -0.206 F 
ATOM     65  C   UNL A   1      46.654  35.322  28.608  1.00  0.00     0.060 A 
BRANCH  65  66
ATOM     66  S   UNL A   1      47.111  37.053  28.845  1.00  0.00     0.124 S 
ATOM     67  O   UNL A   1      48.448  36.924  29.416  1.00  0.00    -0.237 OA
ATOM     68  O   UNL A   1      47.051  37.585  27.487  1.00  0.00    -0.237 OA
ATOM     69  O   UNL A   1      46.085  37.553  29.755  1.00  0.00    -0.744 OA
ENDBRANCH  65  66
ENDBRANCH  44  58
BRANCH  45  70
ATOM     70  C   UNL A   1      43.312  23.119  26.833  1.00  0.00     0.058 A 
ATOM     71  C   UNL A   1      43.188  22.608  25.534  1.00  0.00     0.135 A 
ATOM     72  C   UNL A   1      43.082  22.244  27.907  1.00  0.00     0.135 A 
ATOM     73  F   UNL A   1      43.384  23.409  24.476  1.00  0.00    -0.206 F 
ATOM     74  C   UNL A   1      42.852  21.277  25.305  1.00  0.00     0.059 A 
ATOM     75  C   UNL A   1      42.772  20.904  27.703  1.00  0.00     0.059 A 
ATOM     76  F   UNL A   1      43.199  22.684  29.169  1.00  0.00    -0.206 F 
ATOM     77  C   UNL A   1      42.655  20.431  26.397  1.00  0.00     0.060 A 
BRANCH  77  78
ATOM     78  S   UNL A   1      42.307  18.684  26.096  1.00  0.00     0.124 S 
ATOM     79  O   UNL A   1      43.221  18.388  24.999  1.00  0.00    -0.237 OA
ATOM     80  O   UNL A   1      42.636  18.077  27.383  1.00  0.00    -0.237 OA
ATOM     81  O   UNL A   1      40.887  18.681  25.757  1.00  0.00    -0.744 OA
ENDBRANCH  77  78
ENDBRANCH  45  70
BRANCH  57  82
ATOM     82  C   UNL A   1      49.371  26.521  26.326  1.00  0.00     0.058 A 
ATOM     83  C   UNL A   1      50.231  25.979  27.294  1.00  0.00     0.135 A 
ATOM     84  C   UNL A   1      49.844  26.619  25.007  1.00  0.00     0.135 A 
ATOM     85  F   UNL A   1      49.827  25.870  28.569  1.00  0.00    -0.206 F 
ATOM     86  C   UNL A   1      51.525  25.582  26.975  1.00  0.00     0.059 A 
ATOM     87  C   UNL A   1      51.128  26.206  24.661  1.00  0.00     0.059 A 
ATOM     88  F   UNL A   1      49.058  27.120  24.042  1.00  0.00    -0.206 F 
ATOM     89  C   UNL A   1      51.968  25.706  25.657  1.00  0.00     0.060 A 
BRANCH  89  90
ATOM     90  S   UNL A   1      53.650  25.192  25.250  1.00  0.00     0.124 S 
ATOM     91  O   UNL A   1      53.790  25.698  23.890  1.00  0.00    -0.237 OA
ATOM     92  O   UNL A   1      54.444  25.876  26.266  1.00  0.00    -0.237 OA
ATOM     93  O   UNL A   1      53.599  23.738  25.380  1.00  0.00    -0.744 OA
ENDBRANCH  89  90
ENDBRANCH  57  82
ENDBRANCH  31  32
ENDBRANCH  24  26
ENDBRANCH  23  24
ENDBRANCH   1  23
TORSDOF 17
ENDMDL
