MODEL 1
REMARK VINA RESULT:     -13.3      0.000      0.000
REMARK SMILES Cc1cccc(S(=O)(=O)Nc2cc(C(=O)OCCOC(=O)c3ccc(-c4c5nc(c(-c6c(F)cc(S(=O)(=O)[O-])cc6F)c6ccc([nH]6)c(-c6c(F)cc(S(=O)(=O)[O-])cc6F)c6nc(c(-c7c(F)cc(S(=O)(=O)[O-])cc7F)c7ccc4[nH]7)C=C6)C=C5)cc3)cnc2N2CCC[C@H](C)C2)c1
REMARK SMILES IDX 17 1 16 2 14 3 15 4 13 5 11 6 12 7 90 8 89 9 88 10 10 11
REMARK SMILES IDX 7 13 8 14 9 15 6 16 1 17 2 18 3 19 98 20 4 21 5 22 91 23
REMARK SMILES IDX 92 24 97 25 93 26 95 27 94 28 96 29 18 30 19 31 20 32 21 33
REMARK SMILES IDX 22 34 23 35 87 36 24 37 86 38 25 39 26 40 27 41 80 42 28 43
REMARK SMILES IDX 85 44 79 45 81 46 29 47 84 48 78 49 77 50 30 52 64 53 43 54
REMARK SMILES IDX 63 55 44 56 47 57 62 58 82 59 45 60 46 61 61 63 83 64 48 65
REMARK SMILES IDX 31 66 32 67 41 68 33 69 34 70 40 71 42 72 35 73 36 74 37 75
REMARK SMILES IDX 38 76 39 77 65 78 66 79 75 80 67 81 68 82 74 83 76 84 69 85
REMARK SMILES IDX 70 86 71 87 72 88 73 89 49 90 50 91 59 92 51 93 52 94 58 95
REMARK SMILES IDX 60 96 53 97 54 98 55 99 56 100 57 101
REMARK H PARENT 10 12 81 51 47 62
REMARK Flexibility Score: inf
ROOT
ATOM      1  C   UNL A   1      31.989  29.144  25.939  1.00  0.00     0.275 C 
ENDROOT
BRANCH   1   2
ATOM      2  O   UNL A   1      32.318  27.875  26.534  1.00  0.00    -0.458 OA
BRANCH   2   3
ATOM      3  C   UNL A   1      33.431  27.340  25.999  1.00  0.00     0.339 C 
ATOM      4  O   UNL A   1      34.498  27.911  25.853  1.00  0.00    -0.246 OA
BRANCH   3   5
ATOM      5  C   UNL A   1      33.309  26.035  25.379  1.00  0.00     0.080 A 
ATOM      6  C   UNL A   1      34.465  23.969  25.745  1.00  0.00     0.092 A 
ATOM      7  C   UNL A   1      34.494  25.321  25.440  1.00  0.00     0.048 A 
ATOM      8  C   UNL A   1      33.214  23.287  25.714  1.00  0.00     0.153 A 
ATOM      9  N   UNL A   1      32.073  23.991  25.486  1.00  0.00    -0.236 NA
ATOM     10  C   UNL A   1      32.120  25.343  25.409  1.00  0.00     0.129 A 
BRANCH   6  11
ATOM     11  N   UNL A   1      35.671  23.312  26.161  1.00  0.00    -0.276 N 
ATOM     12  H   UNL A   1      35.609  22.772  26.982  1.00  0.00     0.180 HD
BRANCH  11  13
ATOM     13  S   UNL A   1      37.172  23.352  25.420  1.00  0.00     0.262 S 
ATOM     14  O   UNL A   1      37.872  24.488  25.988  1.00  0.00    -0.201 OA
ATOM     15  O   UNL A   1      36.860  23.344  24.004  1.00  0.00    -0.201 OA
BRANCH  13  16
ATOM     16  C   UNL A   1      38.188  21.922  25.716  1.00  0.00     0.088 A 
ATOM     17  C   UNL A   1      41.535  20.672  27.041  1.00  0.00     0.044 C 
ATOM     18  C   UNL A   1      40.178  20.733  26.415  1.00  0.00    -0.050 A 
ATOM     19  C   UNL A   1      39.757  19.593  25.735  1.00  0.00     0.003 A 
ATOM     20  C   UNL A   1      39.363  21.888  26.460  1.00  0.00     0.025 A 
ATOM     21  C   UNL A   1      38.554  19.603  25.053  1.00  0.00     0.002 A 
ATOM     22  C   UNL A   1      37.789  20.767  25.023  1.00  0.00     0.022 A 
ENDBRANCH  13  16
ENDBRANCH  11  13
ENDBRANCH   6  11
BRANCH   8  23
ATOM     23  N   UNL A   1      33.035  21.923  25.862  1.00  0.00    -0.355 N 
ATOM     24  C   UNL A   1      34.017  20.921  26.250  1.00  0.00     0.118 C 
ATOM     25  C   UNL A   1      31.804  21.350  25.301  1.00  0.00     0.121 C 
ATOM     26  C   UNL A   1      34.459  20.142  25.004  1.00  0.00     0.022 C 
ATOM     27  C   UNL A   1      32.158  20.659  23.970  1.00  0.00     0.005 C 
ATOM     28  C   UNL A   1      33.269  19.613  24.193  1.00  0.00     0.007 C 
ATOM     29  C   UNL A   1      32.539  21.681  22.893  1.00  0.00     0.009 C 
ENDBRANCH   8  23
ENDBRANCH   3   5
ENDBRANCH   2   3
ENDBRANCH   1   2
BRANCH   1  30
ATOM     30  C   UNL A   1      32.209  30.304  26.914  1.00  0.00     0.275 C 
BRANCH  30  31
ATOM     31  O   UNL A   1      33.429  30.337  27.696  1.00  0.00    -0.458 OA
BRANCH  31  32
ATOM     32  C   UNL A   1      34.096  31.513  27.845  1.00  0.00     0.338 C 
ATOM     33  O   UNL A   1      33.538  32.587  28.057  1.00  0.00    -0.246 OA
BRANCH  32  34
ATOM     34  C   UNL A   1      35.551  31.246  28.047  1.00  0.00     0.060 A 
ATOM     35  C   UNL A   1      36.429  32.241  28.526  1.00  0.00     0.016 A 
ATOM     36  C   UNL A   1      35.952  29.916  28.050  1.00  0.00     0.016 A 
ATOM     37  C   UNL A   1      37.671  31.903  29.090  1.00  0.00     0.010 A 
ATOM     38  C   UNL A   1      37.087  29.578  28.735  1.00  0.00     0.010 A 
ATOM     39  C   UNL A   1      37.992  30.558  29.207  1.00  0.00    -0.014 A 
BRANCH  39  40
ATOM     40  C   UNL A   1      39.283  29.971  29.592  1.00  0.00     0.031 A 
ATOM     41  C   UNL A   1      39.731  28.599  29.238  1.00  0.00     0.074 A 
ATOM     42  C   UNL A   1      40.146  30.978  29.881  1.00  0.00     0.049 A 
ATOM     43  N   UNL A   1      40.894  28.409  28.711  1.00  0.00    -0.248 NA
ATOM     44  C   UNL A   1      38.939  27.356  29.276  1.00  0.00     0.031 C 
ATOM     45  C   UNL A   1      41.590  31.061  29.929  1.00  0.00     0.029 A 
ATOM     46  N   UNL A   1      39.750  32.209  30.430  1.00  0.00    -0.354 N 
ATOM     47  C   UNL A   1      41.024  27.080  28.369  1.00  0.00     0.074 A 
ATOM     48  C   UNL A   1      39.744  26.470  28.644  1.00  0.00     0.031 C 
ATOM     49  C   UNL A   1      41.918  31.984  30.857  1.00  0.00     0.029 A 
ATOM     50  C   UNL A   1      40.665  32.442  31.457  1.00  0.00     0.049 A 
ATOM     51  H   UNL A   1      38.996  32.780  30.152  1.00  0.00     0.167 HD
ATOM     52  C   UNL A   1      42.284  26.607  28.149  1.00  0.00     0.037 A 
ATOM     53  C   UNL A   1      40.196  32.131  32.705  1.00  0.00     0.037 A 
ATOM     54  C   UNL A   1      43.143  27.336  29.064  1.00  0.00     0.049 A 
ATOM     55  C   UNL A   1      40.923  30.890  33.196  1.00  0.00     0.074 A 
ATOM     56  C   UNL A   1      43.941  28.459  28.994  1.00  0.00     0.029 A 
ATOM     57  N   UNL A   1      42.905  27.089  30.404  1.00  0.00    -0.354 N 
ATOM     58  N   UNL A   1      41.293  29.873  32.451  1.00  0.00    -0.248 NA
ATOM     59  C   UNL A   1      41.520  30.860  34.526  1.00  0.00     0.031 C 
ATOM     60  C   UNL A   1      44.036  28.971  30.328  1.00  0.00     0.029 A 
ATOM     61  C   UNL A   1      43.290  28.158  31.176  1.00  0.00     0.049 A 
ATOM     62  H   UNL A   1      42.512  26.257  30.757  1.00  0.00     0.167 HD
ATOM     63  C   UNL A   1      42.252  29.150  33.124  1.00  0.00     0.074 A 
ATOM     64  C   UNL A   1      42.336  29.801  34.421  1.00  0.00     0.031 C 
ATOM     65  C   UNL A   1      43.012  28.134  32.604  1.00  0.00     0.037 A 
BRANCH  52  66
ATOM     66  C   UNL A   1      42.804  25.589  27.166  1.00  0.00     0.058 A 
ATOM     67  C   UNL A   1      43.141  24.293  27.634  1.00  0.00     0.135 A 
ATOM     68  C   UNL A   1      43.196  25.857  25.842  1.00  0.00     0.135 A 
ATOM     69  F   UNL A   1      42.817  23.893  28.873  1.00  0.00    -0.206 F 
ATOM     70  C   UNL A   1      43.866  23.367  26.885  1.00  0.00     0.059 A 
ATOM     71  C   UNL A   1      43.923  24.934  25.062  1.00  0.00     0.059 A 
ATOM     72  F   UNL A   1      42.908  27.036  25.274  1.00  0.00    -0.206 F 
ATOM     73  C   UNL A   1      44.275  23.700  25.604  1.00  0.00     0.060 A 
BRANCH  73  74
ATOM     74  S   UNL A   1      45.290  22.499  24.707  1.00  0.00     0.124 S 
ATOM     75  O   UNL A   1      46.059  21.881  25.784  1.00  0.00    -0.237 OA
ATOM     76  O   UNL A   1      44.284  21.646  24.082  1.00  0.00    -0.237 OA
ATOM     77  O   UNL A   1      46.066  23.325  23.787  1.00  0.00    -0.744 OA
ENDBRANCH  73  74
ENDBRANCH  52  66
BRANCH  53  78
ATOM     78  C   UNL A   1      38.748  32.565  32.875  1.00  0.00     0.058 A 
ATOM     79  C   UNL A   1      38.511  33.968  32.910  1.00  0.00     0.135 A 
ATOM     80  C   UNL A   1      37.616  31.769  32.647  1.00  0.00     0.135 A 
ATOM     81  F   UNL A   1      39.534  34.811  33.136  1.00  0.00    -0.206 F 
ATOM     82  C   UNL A   1      37.284  34.548  32.583  1.00  0.00     0.059 A 
ATOM     83  C   UNL A   1      36.349  32.335  32.368  1.00  0.00     0.059 A 
ATOM     84  F   UNL A   1      37.727  30.434  32.589  1.00  0.00    -0.206 F 
ATOM     85  C   UNL A   1      36.208  33.725  32.285  1.00  0.00     0.060 A 
BRANCH  85  86
ATOM     86  S   UNL A   1      34.699  34.517  31.652  1.00  0.00     0.124 S 
ATOM     87  O   UNL A   1      34.977  34.601  30.222  1.00  0.00    -0.237 OA
ATOM     88  O   UNL A   1      33.665  33.556  32.033  1.00  0.00    -0.237 OA
ATOM     89  O   UNL A   1      34.659  35.792  32.361  1.00  0.00    -0.744 OA
ENDBRANCH  85  86
ENDBRANCH  53  78
BRANCH  65  90
ATOM     90  C   UNL A   1      43.609  27.017  33.449  1.00  0.00     0.058 A 
ATOM     91  C   UNL A   1      42.863  26.274  34.381  1.00  0.00     0.135 A 
ATOM     92  C   UNL A   1      44.928  26.537  33.229  1.00  0.00     0.135 A 
ATOM     93  F   UNL A   1      41.552  26.475  34.564  1.00  0.00    -0.206 F 
ATOM     94  C   UNL A   1      43.414  25.246  35.138  1.00  0.00     0.059 A 
ATOM     95  C   UNL A   1      45.467  25.446  33.904  1.00  0.00     0.059 A 
ATOM     96  F   UNL A   1      45.748  27.089  32.323  1.00  0.00    -0.206 F 
ATOM     97  C   UNL A   1      44.720  24.844  34.900  1.00  0.00     0.060 A 
BRANCH  97  98
ATOM     98  S   UNL A   1      45.415  23.521  35.892  1.00  0.00     0.124 S 
ATOM     99  O   UNL A   1      44.842  23.819  37.201  1.00  0.00    -0.237 OA
ATOM    100  O   UNL A   1      44.896  22.326  35.233  1.00  0.00    -0.237 OA
ATOM    101  O   UNL A   1      46.854  23.724  35.769  1.00  0.00    -0.744 OA
ENDBRANCH  97  98
ENDBRANCH  65  90
ENDBRANCH  39  40
ENDBRANCH  32  34
ENDBRANCH  31  32
ENDBRANCH  30  31
ENDBRANCH   1  30
TORSDOF 18
ENDMDL
MODEL 2
REMARK VINA RESULT:     -13.3      1.485      2.911
REMARK SMILES Cc1cccc(S(=O)(=O)Nc2cc(C(=O)OCCOC(=O)c3ccc(-c4c5nc(c(-c6c(F)cc(S(=O)(=O)[O-])cc6F)c6ccc([nH]6)c(-c6c(F)cc(S(=O)(=O)[O-])cc6F)c6nc(c(-c7c(F)cc(S(=O)(=O)[O-])cc7F)c7ccc4[nH]7)C=C6)C=C5)cc3)cnc2N2CCC[C@H](C)C2)c1
REMARK SMILES IDX 17 1 16 2 14 3 15 4 13 5 11 6 12 7 90 8 89 9 88 10 10 11
REMARK SMILES IDX 7 13 8 14 9 15 6 16 1 17 2 18 3 19 98 20 4 21 5 22 91 23
REMARK SMILES IDX 92 24 97 25 93 26 95 27 94 28 96 29 18 30 19 31 20 32 21 33
REMARK SMILES IDX 22 34 23 35 87 36 24 37 86 38 25 39 26 40 27 41 80 42 28 43
REMARK SMILES IDX 85 44 79 45 81 46 29 47 84 48 78 49 77 50 30 52 64 53 43 54
REMARK SMILES IDX 63 55 44 56 47 57 62 58 82 59 45 60 46 61 61 63 83 64 48 65
REMARK SMILES IDX 31 66 32 67 41 68 33 69 34 70 40 71 42 72 35 73 36 74 37 75
REMARK SMILES IDX 38 76 39 77 65 78 66 79 75 80 67 81 68 82 74 83 76 84 69 85
REMARK SMILES IDX 70 86 71 87 72 88 73 89 49 90 50 91 59 92 51 93 52 94 58 95
REMARK SMILES IDX 60 96 53 97 54 98 55 99 56 100 57 101
REMARK H PARENT 10 12 81 51 47 62
REMARK Flexibility Score: inf
ROOT
ATOM      1  C   UNL A   1      31.705  28.595  27.153  1.00  0.00     0.275 C 
ENDROOT
BRANCH   1   2
ATOM      2  O   UNL A   1      31.693  27.844  25.924  1.00  0.00    -0.458 OA
BRANCH   2   3
ATOM      3  C   UNL A   1      31.640  26.518  26.144  1.00  0.00     0.339 C 
ATOM      4  O   UNL A   1      30.647  25.885  26.458  1.00  0.00    -0.246 OA
BRANCH   3   5
ATOM      5  C   UNL A   1      32.901  25.802  26.187  1.00  0.00     0.080 A 
ATOM      6  C   UNL A   1      33.452  23.499  25.825  1.00  0.00     0.092 A 
ATOM      7  C   UNL A   1      32.725  24.464  26.502  1.00  0.00     0.048 A 
ATOM      8  C   UNL A   1      34.557  23.910  25.024  1.00  0.00     0.153 A 
ATOM      9  N   UNL A   1      34.809  25.237  24.864  1.00  0.00    -0.236 NA
ATOM     10  C   UNL A   1      33.946  26.153  25.364  1.00  0.00     0.129 A 
BRANCH   6  11
ATOM     11  N   UNL A   1      33.030  22.128  25.879  1.00  0.00    -0.276 N 
ATOM     12  H   UNL A   1      33.470  21.567  26.557  1.00  0.00     0.180 HD
BRANCH  11  13
ATOM     13  S   UNL A   1      31.883  21.368  24.926  1.00  0.00     0.262 S 
ATOM     14  O   UNL A   1      31.792  22.145  23.705  1.00  0.00    -0.201 OA
ATOM     15  O   UNL A   1      30.724  21.266  25.793  1.00  0.00    -0.201 OA
BRANCH  13  16
ATOM     16  C   UNL A   1      32.295  19.705  24.446  1.00  0.00     0.088 A 
ATOM     17  C   UNL A   1      34.022  16.474  25.496  1.00  0.00     0.044 C 
ATOM     18  C   UNL A   1      33.299  17.516  24.704  1.00  0.00    -0.050 A 
ATOM     19  C   UNL A   1      33.161  17.273  23.339  1.00  0.00     0.003 A 
ATOM     20  C   UNL A   1      32.809  18.713  25.276  1.00  0.00     0.025 A 
ATOM     21  C   UNL A   1      32.586  18.231  22.524  1.00  0.00     0.002 A 
ATOM     22  C   UNL A   1      32.179  19.447  23.070  1.00  0.00     0.022 A 
ENDBRANCH  13  16
ENDBRANCH  11  13
ENDBRANCH   6  11
BRANCH   8  23
ATOM     23  N   UNL A   1      35.457  23.067  24.396  1.00  0.00    -0.355 N 
ATOM     24  C   UNL A   1      35.405  21.618  24.281  1.00  0.00     0.118 C 
ATOM     25  C   UNL A   1      36.764  23.637  24.041  1.00  0.00     0.121 C 
ATOM     26  C   UNL A   1      36.403  20.999  25.269  1.00  0.00     0.022 C 
ATOM     27  C   UNL A   1      37.796  23.157  25.079  1.00  0.00     0.005 C 
ATOM     28  C   UNL A   1      37.803  21.616  25.149  1.00  0.00     0.007 C 
ATOM     29  C   UNL A   1      37.547  23.793  26.452  1.00  0.00     0.009 C 
ENDBRANCH   8  23
ENDBRANCH   3   5
ENDBRANCH   2   3
ENDBRANCH   1   2
BRANCH   1  30
ATOM     30  C   UNL A   1      32.472  29.913  27.007  1.00  0.00     0.275 C 
BRANCH  30  31
ATOM     31  O   UNL A   1      33.606  30.161  27.876  1.00  0.00    -0.458 OA
BRANCH  31  32
ATOM     32  C   UNL A   1      34.336  31.297  27.714  1.00  0.00     0.338 C 
ATOM     33  O   UNL A   1      33.841  32.420  27.670  1.00  0.00    -0.246 OA
BRANCH  32  34
ATOM     34  C   UNL A   1      35.783  31.003  27.936  1.00  0.00     0.060 A 
ATOM     35  C   UNL A   1      36.650  31.946  28.525  1.00  0.00     0.016 A 
ATOM     36  C   UNL A   1      36.177  29.674  27.838  1.00  0.00     0.016 A 
ATOM     37  C   UNL A   1      37.872  31.553  29.095  1.00  0.00     0.010 A 
ATOM     38  C   UNL A   1      37.288  29.270  28.526  1.00  0.00     0.010 A 
ATOM     39  C   UNL A   1      38.183  30.201  29.108  1.00  0.00    -0.014 A 
BRANCH  39  40
ATOM     40  C   UNL A   1      39.459  29.573  29.480  1.00  0.00     0.031 A 
ATOM     41  C   UNL A   1      39.824  28.159  29.200  1.00  0.00     0.074 A 
ATOM     42  C   UNL A   1      40.381  30.550  29.669  1.00  0.00     0.049 A 
ATOM     43  N   UNL A   1      40.954  27.877  28.642  1.00  0.00    -0.248 NA
ATOM     44  C   UNL A   1      38.974  26.964  29.349  1.00  0.00     0.031 C 
ATOM     45  C   UNL A   1      41.829  30.561  29.657  1.00  0.00     0.029 A 
ATOM     46  N   UNL A   1      40.069  31.833  30.151  1.00  0.00    -0.354 N 
ATOM     47  C   UNL A   1      41.004  26.524  28.383  1.00  0.00     0.074 A 
ATOM     48  C   UNL A   1      39.708  26.000  28.746  1.00  0.00     0.031 C 
ATOM     49  C   UNL A   1      42.240  31.523  30.509  1.00  0.00     0.029 A 
ATOM     50  C   UNL A   1      41.037  32.082  31.125  1.00  0.00     0.049 A 
ATOM     51  H   UNL A   1      39.334  32.422  29.866  1.00  0.00     0.167 HD
ATOM     52  C   UNL A   1      42.228  25.974  28.147  1.00  0.00     0.037 A 
ATOM     53  C   UNL A   1      40.606  31.875  32.408  1.00  0.00     0.037 A 
ATOM     54  C   UNL A   1      43.160  26.713  28.978  1.00  0.00     0.049 A 
ATOM     55  C   UNL A   1      41.290  30.632  32.951  1.00  0.00     0.074 A 
ATOM     56  C   UNL A   1      44.008  27.787  28.804  1.00  0.00     0.029 A 
ATOM     57  N   UNL A   1      42.966  26.565  30.339  1.00  0.00    -0.354 N 
ATOM     58  N   UNL A   1      41.578  29.552  32.260  1.00  0.00    -0.248 NA
ATOM     59  C   UNL A   1      41.940  30.656  34.256  1.00  0.00     0.031 C 
ATOM     60  C   UNL A   1      44.184  28.377  30.098  1.00  0.00     0.029 A 
ATOM     61  C   UNL A   1      43.434  27.659  31.024  1.00  0.00     0.049 A 
ATOM     62  H   UNL A   1      42.547  25.778  30.761  1.00  0.00     0.167 HD
ATOM     63  C   UNL A   1      42.528  28.825  32.942  1.00  0.00     0.074 A 
ATOM     64  C   UNL A   1      42.698  29.552  34.190  1.00  0.00     0.031 C 
ATOM     65  C   UNL A   1      43.215  27.740  32.461  1.00  0.00     0.037 A 
BRANCH  52  66
ATOM     66  C   UNL A   1      42.656  24.869  27.212  1.00  0.00     0.058 A 
ATOM     67  C   UNL A   1      43.115  23.646  27.763  1.00  0.00     0.135 A 
ATOM     68  C   UNL A   1      42.851  25.002  25.826  1.00  0.00     0.135 A 
ATOM     69  F   UNL A   1      42.983  23.375  29.070  1.00  0.00    -0.206 F 
ATOM     70  C   UNL A   1      43.774  22.665  27.021  1.00  0.00     0.059 A 
ATOM     71  C   UNL A   1      43.506  24.021  25.052  1.00  0.00     0.059 A 
ATOM     72  F   UNL A   1      42.432  26.100  25.183  1.00  0.00    -0.206 F 
ATOM     73  C   UNL A   1      43.988  22.867  25.666  1.00  0.00     0.060 A 
BRANCH  73  74
ATOM     74  S   UNL A   1      44.926  21.608  24.766  1.00  0.00     0.124 S 
ATOM     75  O   UNL A   1      46.299  21.896  25.176  1.00  0.00    -0.237 OA
ATOM     76  O   UNL A   1      44.361  20.367  25.289  1.00  0.00    -0.237 OA
ATOM     77  O   UNL A   1      44.625  21.890  23.366  1.00  0.00    -0.744 OA
ENDBRANCH  73  74
ENDBRANCH  52  66
BRANCH  53  78
ATOM     78  C   UNL A   1      39.189  32.394  32.605  1.00  0.00     0.058 A 
ATOM     79  C   UNL A   1      38.956  33.748  32.234  1.00  0.00     0.135 A 
ATOM     80  C   UNL A   1      38.038  31.608  32.767  1.00  0.00     0.135 A 
ATOM     81  F   UNL A   1      39.998  34.581  32.068  1.00  0.00    -0.206 F 
ATOM     82  C   UNL A   1      37.698  34.245  31.891  1.00  0.00     0.059 A 
ATOM     83  C   UNL A   1      36.746  32.108  32.479  1.00  0.00     0.059 A 
ATOM     84  F   UNL A   1      38.143  30.317  33.111  1.00  0.00    -0.206 F 
ATOM     85  C   UNL A   1      36.594  33.410  31.989  1.00  0.00     0.060 A 
BRANCH  85  86
ATOM     86  S   UNL A   1      35.018  34.025  31.325  1.00  0.00     0.124 S 
ATOM     87  O   UNL A   1      34.655  35.047  32.301  1.00  0.00    -0.237 OA
ATOM     88  O   UNL A   1      35.414  34.528  30.011  1.00  0.00    -0.237 OA
ATOM     89  O   UNL A   1      34.166  32.840  31.310  1.00  0.00    -0.744 OA
ENDBRANCH  85  86
ENDBRANCH  53  78
BRANCH  65  90
ATOM     90  C   UNL A   1      43.791  26.650  33.353  1.00  0.00     0.058 A 
ATOM     91  C   UNL A   1      45.153  26.300  33.362  1.00  0.00     0.135 A 
ATOM     92  C   UNL A   1      43.014  26.024  34.364  1.00  0.00     0.135 A 
ATOM     93  F   UNL A   1      46.054  26.938  32.603  1.00  0.00    -0.206 F 
ATOM     94  C   UNL A   1      45.672  25.312  34.190  1.00  0.00     0.059 A 
ATOM     95  C   UNL A   1      43.535  25.105  35.271  1.00  0.00     0.059 A 
ATOM     96  F   UNL A   1      41.712  26.298  34.539  1.00  0.00    -0.206 F 
ATOM     97  C   UNL A   1      44.854  24.713  35.136  1.00  0.00     0.060 A 
BRANCH  97  98
ATOM     98  S   UNL A   1      45.541  23.434  36.193  1.00  0.00     0.124 S 
ATOM     99  O   UNL A   1      45.099  23.888  37.508  1.00  0.00    -0.237 OA
ATOM    100  O   UNL A   1      44.892  22.227  35.690  1.00  0.00    -0.237 OA
ATOM    101  O   UNL A   1      46.975  23.521  35.941  1.00  0.00    -0.744 OA
ENDBRANCH  97  98
ENDBRANCH  65  90
ENDBRANCH  39  40
ENDBRANCH  32  34
ENDBRANCH  31  32
ENDBRANCH  30  31
ENDBRANCH   1  30
TORSDOF 18
ENDMDL
MODEL 3
REMARK VINA RESULT:     -13.2      1.666      2.840
REMARK SMILES Cc1cccc(S(=O)(=O)Nc2cc(C(=O)OCCOC(=O)c3ccc(-c4c5nc(c(-c6c(F)cc(S(=O)(=O)[O-])cc6F)c6ccc([nH]6)c(-c6c(F)cc(S(=O)(=O)[O-])cc6F)c6nc(c(-c7c(F)cc(S(=O)(=O)[O-])cc7F)c7ccc4[nH]7)C=C6)C=C5)cc3)cnc2N2CCC[C@H](C)C2)c1
REMARK SMILES IDX 17 1 16 2 14 3 15 4 13 5 11 6 12 7 90 8 89 9 88 10 10 11
REMARK SMILES IDX 7 13 8 14 9 15 6 16 1 17 2 18 3 19 98 20 4 21 5 22 91 23
REMARK SMILES IDX 92 24 97 25 93 26 95 27 94 28 96 29 18 30 19 31 20 32 21 33
REMARK SMILES IDX 22 34 23 35 87 36 24 37 86 38 25 39 26 40 27 41 80 42 28 43
REMARK SMILES IDX 85 44 79 45 81 46 29 47 84 48 78 49 77 50 30 52 64 53 43 54
REMARK SMILES IDX 63 55 44 56 47 57 62 58 82 59 45 60 46 61 61 63 83 64 48 65
REMARK SMILES IDX 31 66 32 67 41 68 33 69 34 70 40 71 42 72 35 73 36 74 37 75
REMARK SMILES IDX 38 76 39 77 65 78 66 79 75 80 67 81 68 82 74 83 76 84 69 85
REMARK SMILES IDX 70 86 71 87 72 88 73 89 49 90 50 91 59 92 51 93 52 94 58 95
REMARK SMILES IDX 60 96 53 97 54 98 55 99 56 100 57 101
REMARK H PARENT 10 12 81 51 47 62
REMARK Flexibility Score: inf
ROOT
ATOM      1  C   UNL A   1      33.754  29.740  27.295  1.00  0.00     0.275 C 
ENDROOT
BRANCH   1   2
ATOM      2  O   UNL A   1      32.321  29.712  27.435  1.00  0.00    -0.458 OA
BRANCH   2   3
ATOM      3  C   UNL A   1      31.821  28.475  27.258  1.00  0.00     0.339 C 
ATOM      4  O   UNL A   1      31.100  27.878  28.039  1.00  0.00    -0.246 OA
BRANCH   3   5
ATOM      5  C   UNL A   1      32.319  27.712  26.129  1.00  0.00     0.080 A 
ATOM      6  C   UNL A   1      32.128  25.396  25.548  1.00  0.00     0.092 A 
ATOM      7  C   UNL A   1      32.506  26.377  26.450  1.00  0.00     0.048 A 
ATOM      8  C   UNL A   1      31.817  25.778  24.210  1.00  0.00     0.153 A 
ATOM      9  N   UNL A   1      31.801  27.097  23.878  1.00  0.00    -0.236 NA
ATOM     10  C   UNL A   1      31.963  28.037  24.841  1.00  0.00     0.129 A 
BRANCH   6  11
ATOM     11  N   UNL A   1      31.979  24.041  25.997  1.00  0.00    -0.276 N 
ATOM     12  H   UNL A   1      31.098  23.630  25.848  1.00  0.00     0.180 HD
BRANCH  11  13
ATOM     13  S   UNL A   1      33.124  23.076  26.746  1.00  0.00     0.262 S 
ATOM     14  O   UNL A   1      32.546  22.673  28.014  1.00  0.00    -0.201 OA
ATOM     15  O   UNL A   1      34.324  23.891  26.739  1.00  0.00    -0.201 OA
BRANCH  13  16
ATOM     16  C   UNL A   1      33.530  21.583  25.868  1.00  0.00     0.088 A 
ATOM     17  C   UNL A   1      32.387  18.058  24.979  1.00  0.00     0.044 C 
ATOM     18  C   UNL A   1      33.199  19.305  25.113  1.00  0.00    -0.050 A 
ATOM     19  C   UNL A   1      34.540  19.215  24.745  1.00  0.00     0.003 A 
ATOM     20  C   UNL A   1      32.672  20.515  25.622  1.00  0.00     0.025 A 
ATOM     21  C   UNL A   1      35.378  20.300  24.925  1.00  0.00     0.002 A 
ATOM     22  C   UNL A   1      34.882  21.466  25.506  1.00  0.00     0.022 A 
ENDBRANCH  13  16
ENDBRANCH  11  13
ENDBRANCH   6  11
BRANCH   8  23
ATOM     23  N   UNL A   1      31.554  24.912  23.164  1.00  0.00    -0.355 N 
ATOM     24  C   UNL A   1      30.701  23.733  23.162  1.00  0.00     0.118 C 
ATOM     25  C   UNL A   1      32.435  24.999  21.992  1.00  0.00     0.121 C 
ATOM     26  C   UNL A   1      31.581  22.477  23.218  1.00  0.00     0.022 C 
ATOM     27  C   UNL A   1      33.438  23.831  22.056  1.00  0.00     0.005 C 
ATOM     28  C   UNL A   1      32.684  22.489  22.151  1.00  0.00     0.007 C 
ATOM     29  C   UNL A   1      34.437  24.012  23.205  1.00  0.00     0.009 C 
ENDBRANCH   8  23
ENDBRANCH   3   5
ENDBRANCH   2   3
ENDBRANCH   1   2
BRANCH   1  30
ATOM     30  C   UNL A   1      34.307  31.164  27.388  1.00  0.00     0.275 C 
BRANCH  30  31
ATOM     31  O   UNL A   1      34.070  31.929  28.597  1.00  0.00    -0.458 OA
BRANCH  31  32
ATOM     32  C   UNL A   1      34.993  32.842  29.002  1.00  0.00     0.338 C 
ATOM     33  O   UNL A   1      34.769  34.049  29.064  1.00  0.00    -0.246 OA
BRANCH  32  34
ATOM     34  C   UNL A   1      36.141  32.146  29.652  1.00  0.00     0.060 A 
ATOM     35  C   UNL A   1      35.960  30.983  30.429  1.00  0.00     0.016 A 
ATOM     36  C   UNL A   1      37.414  32.490  29.216  1.00  0.00     0.016 A 
ATOM     37  C   UNL A   1      37.032  30.114  30.698  1.00  0.00     0.010 A 
ATOM     38  C   UNL A   1      38.419  31.571  29.346  1.00  0.00     0.010 A 
ATOM     39  C   UNL A   1      38.267  30.406  30.136  1.00  0.00    -0.014 A 
BRANCH  39  40
ATOM     40  C   UNL A   1      39.557  29.759  30.412  1.00  0.00     0.031 A 
ATOM     41  C   UNL A   1      39.964  28.423  29.904  1.00  0.00     0.074 A 
ATOM     42  C   UNL A   1      40.451  30.716  30.771  1.00  0.00     0.049 A 
ATOM     43  N   UNL A   1      41.104  28.268  29.318  1.00  0.00    -0.248 NA
ATOM     44  C   UNL A   1      39.146  27.197  29.844  1.00  0.00     0.031 C 
ATOM     45  C   UNL A   1      41.898  30.767  30.775  1.00  0.00     0.029 A 
ATOM     46  N   UNL A   1      40.101  31.891  31.456  1.00  0.00    -0.354 N 
ATOM     47  C   UNL A   1      41.193  26.978  28.839  1.00  0.00     0.074 A 
ATOM     48  C   UNL A   1      39.910  26.367  29.096  1.00  0.00     0.031 C 
ATOM     49  C   UNL A   1      42.277  31.584  31.780  1.00  0.00     0.029 A 
ATOM     50  C   UNL A   1      41.055  32.000  32.468  1.00  0.00     0.049 A 
ATOM     51  H   UNL A   1      39.351  32.501  31.266  1.00  0.00     0.167 HD
ATOM     52  C   UNL A   1      42.434  26.508  28.526  1.00  0.00     0.037 A 
ATOM     53  C   UNL A   1      40.623  31.572  33.694  1.00  0.00     0.037 A 
ATOM     54  C   UNL A   1      43.340  27.123  29.478  1.00  0.00     0.049 A 
ATOM     55  C   UNL A   1      41.339  30.274  34.029  1.00  0.00     0.074 A 
ATOM     56  C   UNL A   1      44.159  28.233  29.495  1.00  0.00     0.029 A 
ATOM     57  N   UNL A   1      43.142  26.745  30.794  1.00  0.00    -0.354 N 
ATOM     58  N   UNL A   1      41.661  29.332  33.172  1.00  0.00    -0.248 NA
ATOM     59  C   UNL A   1      41.980  30.097  35.327  1.00  0.00     0.031 C 
ATOM     60  C   UNL A   1      44.310  28.604  30.870  1.00  0.00     0.029 A 
ATOM     61  C   UNL A   1      43.576  27.722  31.656  1.00  0.00     0.049 A 
ATOM     62  H   UNL A   1      42.744  25.888  31.074  1.00  0.00     0.167 HD
ATOM     63  C   UNL A   1      42.626  28.527  33.733  1.00  0.00     0.074 A 
ATOM     64  C   UNL A   1      42.769  29.040  35.085  1.00  0.00     0.031 C 
ATOM     65  C   UNL A   1      43.347  27.556  33.084  1.00  0.00     0.037 A 
BRANCH  52  66
ATOM     66  C   UNL A   1      42.898  25.587  27.426  1.00  0.00     0.058 A 
ATOM     67  C   UNL A   1      42.599  24.204  27.518  1.00  0.00     0.135 A 
ATOM     68  C   UNL A   1      43.796  25.928  26.399  1.00  0.00     0.135 A 
ATOM     69  F   UNL A   1      41.747  23.734  28.442  1.00  0.00    -0.206 F 
ATOM     70  C   UNL A   1      43.191  23.231  26.712  1.00  0.00     0.059 A 
ATOM     71  C   UNL A   1      44.401  24.965  25.565  1.00  0.00     0.059 A 
ATOM     72  F   UNL A   1      44.134  27.208  26.190  1.00  0.00    -0.206 F 
ATOM     73  C   UNL A   1      44.110  23.614  25.749  1.00  0.00     0.060 A 
BRANCH  73  74
ATOM     74  S   UNL A   1      44.917  22.308  24.790  1.00  0.00     0.124 S 
ATOM     75  O   UNL A   1      45.060  22.934  23.477  1.00  0.00    -0.237 OA
ATOM     76  O   UNL A   1      46.160  22.104  25.528  1.00  0.00    -0.237 OA
ATOM     77  O   UNL A   1      43.967  21.202  24.849  1.00  0.00    -0.744 OA
ENDBRANCH  73  74
ENDBRANCH  52  66
BRANCH  53  78
ATOM     78  C   UNL A   1      39.191  32.012  33.960  1.00  0.00     0.058 A 
ATOM     79  C   UNL A   1      38.968  33.415  34.043  1.00  0.00     0.135 A 
ATOM     80  C   UNL A   1      38.040  31.230  33.780  1.00  0.00     0.135 A 
ATOM     81  F   UNL A   1      40.011  34.245  34.228  1.00  0.00    -0.206 F 
ATOM     82  C   UNL A   1      37.730  34.012  33.803  1.00  0.00     0.059 A 
ATOM     83  C   UNL A   1      36.764  31.812  33.591  1.00  0.00     0.059 A 
ATOM     84  F   UNL A   1      38.136  29.896  33.684  1.00  0.00    -0.206 F 
ATOM     85  C   UNL A   1      36.631  33.204  33.549  1.00  0.00     0.060 A 
BRANCH  85  86
ATOM     86  S   UNL A   1      35.094  34.022  33.026  1.00  0.00     0.124 S 
ATOM     87  O   UNL A   1      34.710  34.746  34.233  1.00  0.00    -0.237 OA
ATOM     88  O   UNL A   1      35.553  34.855  31.916  1.00  0.00    -0.237 OA
ATOM     89  O   UNL A   1      34.223  32.911  32.656  1.00  0.00    -0.744 OA
ENDBRANCH  85  86
ENDBRANCH  53  78
BRANCH  65  90
ATOM     90  C   UNL A   1      43.948  26.348  33.788  1.00  0.00     0.058 A 
ATOM     91  C   UNL A   1      45.325  26.065  33.792  1.00  0.00     0.135 A 
ATOM     92  C   UNL A   1      43.170  25.514  34.636  1.00  0.00     0.135 A 
ATOM     93  F   UNL A   1      46.217  26.869  33.200  1.00  0.00    -0.206 F 
ATOM     94  C   UNL A   1      45.867  24.966  34.449  1.00  0.00     0.059 A 
ATOM     95  C   UNL A   1      43.708  24.469  35.383  1.00  0.00     0.059 A 
ATOM     96  F   UNL A   1      41.851  25.693  34.802  1.00  0.00    -0.206 F 
ATOM     97  C   UNL A   1      45.049  24.167  35.236  1.00  0.00     0.060 A 
BRANCH  97  98
ATOM     98  S   UNL A   1      45.765  22.750  36.072  1.00  0.00     0.124 S 
ATOM     99  O   UNL A   1      45.037  21.653  35.440  1.00  0.00    -0.237 OA
ATOM    100  O   UNL A   1      47.177  22.856  35.720  1.00  0.00    -0.237 OA
ATOM    101  O   UNL A   1      45.452  22.991  37.476  1.00  0.00    -0.744 OA
ENDBRANCH  97  98
ENDBRANCH  65  90
ENDBRANCH  39  40
ENDBRANCH  32  34
ENDBRANCH  31  32
ENDBRANCH  30  31
ENDBRANCH   1  30
TORSDOF 18
ENDMDL
