MODEL 1
REMARK VINA RESULT:     -11.0      0.000      0.000
REMARK SMILES [NH3+]Cc1ccc(C(=O)N2[C@@H](C(=O)OCCOC(=O)c3ccc(-c4c5nc(c(-c6c(F)cc(S(=O)(=O)[O-])cc6F)c6ccc([nH]6)c(-c6c(F)cc(S(=O)(=O)[O-])cc6F)c6nc(c(-c7c(F)cc(S(=O)(=O)[O-])cc7F)c7ccc4[nH]7)C=C6)C=C5)cc3)C[C@H]3CCCC[C@@H]32)o1
REMARK SMILES IDX 14 1 13 2 11 3 12 4 10 5 9 6 91 7 85 8 86 9 90 10 87 11
REMARK SMILES IDX 89 12 88 13 7 14 8 15 6 16 3 17 4 18 92 19 5 20 2 21 1 22
REMARK SMILES IDX 15 26 16 27 17 28 18 29 19 30 20 31 84 32 21 33 83 34 22 35
REMARK SMILES IDX 23 36 24 37 77 38 25 39 82 40 76 41 78 42 26 43 81 44 75 45
REMARK SMILES IDX 74 46 27 48 61 49 40 50 60 51 41 52 44 53 59 54 79 55 42 56
REMARK SMILES IDX 43 57 58 59 80 60 45 61 28 62 29 63 38 64 30 65 31 66 37 67
REMARK SMILES IDX 39 68 32 69 33 70 34 71 35 72 36 73 62 74 63 75 72 76 64 77
REMARK SMILES IDX 65 78 71 79 73 80 66 81 67 82 68 83 69 84 70 85 46 86 47 87
REMARK SMILES IDX 56 88 48 89 49 90 55 91 57 92 50 93 51 94 52 95 53 96 54 97
REMARK H PARENT 1 23 1 24 1 25 78 47 44 58
REMARK Flexibility Score: inf
ROOT
ATOM      1  C   UNL A   1      32.818  27.130  25.514  1.00  0.00     0.274 C 
ENDROOT
BRANCH   1   2
ATOM      2  O   UNL A   1      33.268  25.769  25.340  1.00  0.00    -0.461 OA
BRANCH   2   3
ATOM      3  C   UNL A   1      32.298  24.805  25.326  1.00  0.00     0.329 C 
ATOM      4  O   UNL A   1      31.380  24.741  26.130  1.00  0.00    -0.250 OA
BRANCH   3   5
ATOM      5  C   UNL A   1      32.563  23.785  24.188  1.00  0.00     0.196 C 
ATOM      6  N   UNL A   1      32.866  22.433  24.713  1.00  0.00    -0.319 N 
ATOM      7  C   UNL A   1      34.278  22.371  25.020  1.00  0.00     0.089 C 
ATOM      8  C   UNL A   1      33.875  24.202  23.491  1.00  0.00     0.043 C 
ATOM      9  C   UNL A   1      34.829  23.031  23.753  1.00  0.00     0.014 C 
ATOM     10  C   UNL A   1      34.968  21.025  25.226  1.00  0.00     0.025 C 
ATOM     11  C   UNL A   1      36.305  23.344  23.905  1.00  0.00     0.006 C 
ATOM     12  C   UNL A   1      36.483  21.235  25.339  1.00  0.00     0.002 C 
ATOM     13  C   UNL A   1      37.068  22.041  24.172  1.00  0.00     0.000 C 
BRANCH   6  14
ATOM     14  C   UNL A   1      32.002  21.397  25.028  1.00  0.00     0.290 C 
ATOM     15  O   UNL A   1      31.228  21.520  25.977  1.00  0.00    -0.265 OA
BRANCH  14  16
ATOM     16  C   UNL A   1      32.134  20.136  24.309  1.00  0.00     0.192 A 
ATOM     17  C   UNL A   1      32.492  17.941  24.256  1.00  0.00     0.159 A 
ATOM     18  C   UNL A   1      32.502  18.371  22.947  1.00  0.00     0.052 A 
ATOM     19  O   UNL A   1      32.242  18.999  25.079  1.00  0.00    -0.450 OA
ATOM     20  C   UNL A   1      32.300  19.775  22.983  1.00  0.00     0.057 A 
BRANCH  17  21
ATOM     21  C   UNL A   1      32.797  16.620  24.881  1.00  0.00     0.335 C 
BRANCH  21  22
ATOM     22  N   UNL A   1      33.664  16.707  26.044  1.00  0.00    -0.351 N 
ATOM     23  H   UNL A   1      33.868  17.686  26.243  1.00  0.00     0.344 HD
ATOM     24  H   UNL A   1      34.534  16.209  25.857  1.00  0.00     0.344 HD
ATOM     25  H   UNL A   1      33.197  16.287  26.848  1.00  0.00     0.344 HD
ENDBRANCH  21  22
ENDBRANCH  17  21
ENDBRANCH  14  16
ENDBRANCH   6  14
ENDBRANCH   3   5
ENDBRANCH   2   3
ENDBRANCH   1   2
BRANCH   1  26
ATOM     26  C   UNL A   1      33.447  27.773  26.751  1.00  0.00     0.275 C 
BRANCH  26  27
ATOM     27  O   UNL A   1      34.288  28.879  26.385  1.00  0.00    -0.458 OA
BRANCH  27  28
ATOM     28  C   UNL A   1      34.466  29.803  27.358  1.00  0.00     0.338 C 
ATOM     29  O   UNL A   1      33.613  30.496  27.886  1.00  0.00    -0.246 OA
BRANCH  28  30
ATOM     30  C   UNL A   1      35.848  29.730  27.846  1.00  0.00     0.060 A 
ATOM     31  C   UNL A   1      36.855  29.952  26.913  1.00  0.00     0.016 A 
ATOM     32  C   UNL A   1      36.164  29.334  29.143  1.00  0.00     0.016 A 
ATOM     33  C   UNL A   1      38.181  29.719  27.241  1.00  0.00     0.010 A 
ATOM     34  C   UNL A   1      37.511  29.145  29.489  1.00  0.00     0.010 A 
ATOM     35  C   UNL A   1      38.528  29.308  28.529  1.00  0.00    -0.014 A 
BRANCH  35  36
ATOM     36  C   UNL A   1      39.948  28.973  28.813  1.00  0.00     0.031 A 
ATOM     37  C   UNL A   1      40.815  29.962  29.543  1.00  0.00     0.074 A 
ATOM     38  C   UNL A   1      40.429  27.748  28.523  1.00  0.00     0.049 A 
ATOM     39  N   UNL A   1      42.092  29.895  29.817  1.00  0.00    -0.248 NA
ATOM     40  C   UNL A   1      40.157  31.177  30.050  1.00  0.00     0.031 C 
ATOM     41  C   UNL A   1      39.660  26.659  27.915  1.00  0.00     0.029 A 
ATOM     42  N   UNL A   1      41.672  27.201  28.724  1.00  0.00    -0.354 N 
ATOM     43  C   UNL A   1      42.400  31.071  30.492  1.00  0.00     0.074 A 
ATOM     44  C   UNL A   1      41.175  31.835  30.587  1.00  0.00     0.031 C 
ATOM     45  C   UNL A   1      40.435  25.567  27.828  1.00  0.00     0.029 A 
ATOM     46  C   UNL A   1      41.776  25.897  28.296  1.00  0.00     0.049 A 
ATOM     47  H   UNL A   1      42.418  27.694  29.136  1.00  0.00     0.167 HD
ATOM     48  C   UNL A   1      43.595  31.473  30.985  1.00  0.00     0.037 A 
ATOM     49  C   UNL A   1      42.840  25.071  28.251  1.00  0.00     0.037 A 
ATOM     50  C   UNL A   1      44.803  30.692  30.917  1.00  0.00     0.049 A 
ATOM     51  C   UNL A   1      44.175  25.574  28.722  1.00  0.00     0.074 A 
ATOM     52  C   UNL A   1      46.072  31.030  31.352  1.00  0.00     0.029 A 
ATOM     53  N   UNL A   1      44.888  29.409  30.397  1.00  0.00    -0.354 N 
ATOM     54  N   UNL A   1      44.475  26.731  29.263  1.00  0.00    -0.248 NA
ATOM     55  C   UNL A   1      45.324  24.675  28.549  1.00  0.00     0.031 C 
ATOM     56  C   UNL A   1      46.933  29.964  31.063  1.00  0.00     0.029 A 
ATOM     57  C   UNL A   1      46.191  28.949  30.482  1.00  0.00     0.049 A 
ATOM     58  H   UNL A   1      44.133  28.900  30.024  1.00  0.00     0.167 HD
ATOM     59  C   UNL A   1      45.844  26.696  29.502  1.00  0.00     0.074 A 
ATOM     60  C   UNL A   1      46.311  25.397  29.062  1.00  0.00     0.031 C 
ATOM     61  C   UNL A   1      46.641  27.655  30.034  1.00  0.00     0.037 A 
BRANCH  48  62
ATOM     62  C   UNL A   1      43.664  32.841  31.601  1.00  0.00     0.058 A 
ATOM     63  C   UNL A   1      43.914  33.988  30.834  1.00  0.00     0.135 A 
ATOM     64  C   UNL A   1      43.454  33.004  32.979  1.00  0.00     0.135 A 
ATOM     65  F   UNL A   1      44.149  33.886  29.517  1.00  0.00    -0.206 F 
ATOM     66  C   UNL A   1      43.969  35.252  31.417  1.00  0.00     0.059 A 
ATOM     67  C   UNL A   1      43.486  34.259  33.580  1.00  0.00     0.059 A 
ATOM     68  F   UNL A   1      43.220  31.936  33.759  1.00  0.00    -0.206 F 
ATOM     69  C   UNL A   1      43.757  35.376  32.792  1.00  0.00     0.060 A 
BRANCH  69  70
ATOM     70  S   UNL A   1      43.839  37.018  33.537  1.00  0.00     0.124 S 
ATOM     71  O   UNL A   1      45.077  36.928  34.305  1.00  0.00    -0.237 OA
ATOM     72  O   UNL A   1      43.882  37.891  32.368  1.00  0.00    -0.237 OA
ATOM     73  O   UNL A   1      42.615  37.095  34.328  1.00  0.00    -0.744 OA
ENDBRANCH  69  70
ENDBRANCH  48  62
BRANCH  49  74
ATOM     74  C   UNL A   1      42.696  23.705  27.679  1.00  0.00     0.058 A 
ATOM     75  C   UNL A   1      42.895  23.459  26.314  1.00  0.00     0.135 A 
ATOM     76  C   UNL A   1      42.357  22.613  28.497  1.00  0.00     0.135 A 
ATOM     77  F   UNL A   1      43.202  24.473  25.488  1.00  0.00    -0.206 F 
ATOM     78  C   UNL A   1      42.761  22.183  25.775  1.00  0.00     0.059 A 
ATOM     79  C   UNL A   1      42.242  21.324  27.986  1.00  0.00     0.059 A 
ATOM     80  F   UNL A   1      42.157  22.792  29.811  1.00  0.00    -0.206 F 
ATOM     81  C   UNL A   1      42.436  21.121  26.621  1.00  0.00     0.060 A 
BRANCH  81  82
ATOM     82  S   UNL A   1      42.306  19.456  25.930  1.00  0.00     0.124 S 
ATOM     83  O   UNL A   1      42.902  18.652  26.991  1.00  0.00    -0.237 OA
ATOM     84  O   UNL A   1      40.867  19.304  25.747  1.00  0.00    -0.237 OA
ATOM     85  O   UNL A   1      43.080  19.546  24.696  1.00  0.00    -0.744 OA
ENDBRANCH  81  82
ENDBRANCH  49  74
BRANCH  61  86
ATOM     86  C   UNL A   1      48.100  27.331  30.176  1.00  0.00     0.058 A 
ATOM     87  C   UNL A   1      49.016  27.623  29.153  1.00  0.00     0.135 A 
ATOM     88  C   UNL A   1      48.594  26.767  31.362  1.00  0.00     0.135 A 
ATOM     89  F   UNL A   1      48.591  28.157  27.998  1.00  0.00    -0.206 F 
ATOM     90  C   UNL A   1      50.373  27.351  29.296  1.00  0.00     0.059 A 
ATOM     91  C   UNL A   1      49.950  26.505  31.534  1.00  0.00     0.059 A 
ATOM     92  F   UNL A   1      47.760  26.478  32.372  1.00  0.00    -0.206 F 
ATOM     93  C   UNL A   1      50.830  26.791  30.491  1.00  0.00     0.060 A 
BRANCH  93  94
ATOM     94  S   UNL A   1      52.598  26.474  30.680  1.00  0.00     0.124 S 
ATOM     95  O   UNL A   1      52.596  25.289  31.529  1.00  0.00    -0.237 OA
ATOM     96  O   UNL A   1      53.031  26.266  29.301  1.00  0.00    -0.237 OA
ATOM     97  O   UNL A   1      53.095  27.696  31.307  1.00  0.00    -0.744 OA
ENDBRANCH  93  94
ENDBRANCH  61  86
ENDBRANCH  35  36
ENDBRANCH  28  30
ENDBRANCH  27  28
ENDBRANCH  26  27
ENDBRANCH   1  26
TORSDOF 18
ENDMDL
MODEL 2
REMARK VINA RESULT:     -10.9      3.208      4.713
REMARK SMILES [NH3+]Cc1ccc(C(=O)N2[C@@H](C(=O)OCCOC(=O)c3ccc(-c4c5nc(c(-c6c(F)cc(S(=O)(=O)[O-])cc6F)c6ccc([nH]6)c(-c6c(F)cc(S(=O)(=O)[O-])cc6F)c6nc(c(-c7c(F)cc(S(=O)(=O)[O-])cc7F)c7ccc4[nH]7)C=C6)C=C5)cc3)C[C@H]3CCCC[C@@H]32)o1
REMARK SMILES IDX 14 1 13 2 11 3 12 4 10 5 9 6 91 7 85 8 86 9 90 10 87 11
REMARK SMILES IDX 89 12 88 13 7 14 8 15 6 16 3 17 4 18 92 19 5 20 2 21 1 22
REMARK SMILES IDX 15 26 16 27 17 28 18 29 19 30 20 31 84 32 21 33 83 34 22 35
REMARK SMILES IDX 23 36 24 37 77 38 25 39 82 40 76 41 78 42 26 43 81 44 75 45
REMARK SMILES IDX 74 46 27 48 61 49 40 50 60 51 41 52 44 53 59 54 79 55 42 56
REMARK SMILES IDX 43 57 58 59 80 60 45 61 28 62 29 63 38 64 30 65 31 66 37 67
REMARK SMILES IDX 39 68 32 69 33 70 34 71 35 72 36 73 62 74 63 75 72 76 64 77
REMARK SMILES IDX 65 78 71 79 73 80 66 81 67 82 68 83 69 84 70 85 46 86 47 87
REMARK SMILES IDX 56 88 48 89 49 90 55 91 57 92 50 93 51 94 52 95 53 96 54 97
REMARK H PARENT 1 23 1 24 1 25 78 47 44 58
REMARK Flexibility Score: inf
ROOT
ATOM      1  C   UNL A   1      33.754  28.824  27.297  1.00  0.00     0.274 C 
ENDROOT
BRANCH   1   2
ATOM      2  O   UNL A   1      34.184  28.096  26.127  1.00  0.00    -0.461 OA
BRANCH   2   3
ATOM      3  C   UNL A   1      33.217  27.804  25.204  1.00  0.00     0.329 C 
ATOM      4  O   UNL A   1      32.192  28.452  25.051  1.00  0.00    -0.250 OA
BRANCH   3   5
ATOM      5  C   UNL A   1      33.582  26.512  24.426  1.00  0.00     0.196 C 
ATOM      6  N   UNL A   1      32.385  25.705  24.096  1.00  0.00    -0.319 N 
ATOM      7  C   UNL A   1      32.075  24.865  25.232  1.00  0.00     0.089 C 
ATOM      8  C   UNL A   1      34.374  25.602  25.389  1.00  0.00     0.043 C 
ATOM      9  C   UNL A   1      33.486  24.364  25.553  1.00  0.00     0.014 C 
ATOM     10  C   UNL A   1      31.140  23.669  25.081  1.00  0.00     0.025 C 
ATOM     11  C   UNL A   1      33.515  23.646  26.888  1.00  0.00     0.006 C 
ATOM     12  C   UNL A   1      31.141  22.846  26.374  1.00  0.00     0.002 C 
ATOM     13  C   UNL A   1      32.551  22.455  26.836  1.00  0.00     0.000 C 
BRANCH   6  14
ATOM     14  C   UNL A   1      31.555  25.773  22.989  1.00  0.00     0.290 C 
ATOM     15  O   UNL A   1      31.898  25.230  21.939  1.00  0.00    -0.265 OA
BRANCH  14  16
ATOM     16  C   UNL A   1      30.361  26.607  23.062  1.00  0.00     0.192 A 
ATOM     17  C   UNL A   1      29.245  28.473  22.594  1.00  0.00     0.159 A 
ATOM     18  C   UNL A   1      28.481  27.778  23.505  1.00  0.00     0.052 A 
ATOM     19  O   UNL A   1      30.368  27.756  22.303  1.00  0.00    -0.450 OA
ATOM     20  C   UNL A   1      29.205  26.600  23.823  1.00  0.00     0.057 A 
BRANCH  17  21
ATOM     21  C   UNL A   1      29.107  29.836  22.000  1.00  0.00     0.335 C 
BRANCH  21  22
ATOM     22  N   UNL A   1      30.351  30.378  21.480  1.00  0.00    -0.351 N 
ATOM     23  H   UNL A   1      30.730  31.056  22.141  1.00  0.00     0.344 HD
ATOM     24  H   UNL A   1      30.175  30.836  20.586  1.00  0.00     0.344 HD
ATOM     25  H   UNL A   1      31.022  29.621  21.348  1.00  0.00     0.344 HD
ENDBRANCH  21  22
ENDBRANCH  17  21
ENDBRANCH  14  16
ENDBRANCH   6  14
ENDBRANCH   3   5
ENDBRANCH   2   3
ENDBRANCH   1   2
BRANCH   1  26
ATOM     26  C   UNL A   1      34.678  30.008  27.590  1.00  0.00     0.275 C 
BRANCH  26  27
ATOM     27  O   UNL A   1      35.238  29.909  28.910  1.00  0.00    -0.458 OA
BRANCH  27  28
ATOM     28  C   UNL A   1      36.274  30.747  29.149  1.00  0.00     0.338 C 
ATOM     29  O   UNL A   1      36.236  31.833  29.702  1.00  0.00    -0.246 OA
BRANCH  28  30
ATOM     30  C   UNL A   1      37.531  30.068  28.810  1.00  0.00     0.060 A 
ATOM     31  C   UNL A   1      38.379  29.756  29.865  1.00  0.00     0.016 A 
ATOM     32  C   UNL A   1      37.933  29.852  27.494  1.00  0.00     0.016 A 
ATOM     33  C   UNL A   1      39.661  29.287  29.623  1.00  0.00     0.010 A 
ATOM     34  C   UNL A   1      39.213  29.331  27.250  1.00  0.00     0.010 A 
ATOM     35  C   UNL A   1      40.099  29.073  28.314  1.00  0.00    -0.014 A 
BRANCH  35  36
ATOM     36  C   UNL A   1      41.510  28.666  28.091  1.00  0.00     0.031 A 
ATOM     37  C   UNL A   1      42.614  29.672  28.274  1.00  0.00     0.074 A 
ATOM     38  C   UNL A   1      41.815  27.377  27.837  1.00  0.00     0.049 A 
ATOM     39  N   UNL A   1      43.895  29.539  28.053  1.00  0.00    -0.248 NA
ATOM     40  C   UNL A   1      42.229  30.995  28.793  1.00  0.00     0.031 C 
ATOM     41  C   UNL A   1      40.846  26.281  27.744  1.00  0.00     0.029 A 
ATOM     42  N   UNL A   1      43.027  26.763  27.639  1.00  0.00    -0.354 N 
ATOM     43  C   UNL A   1      44.466  30.767  28.367  1.00  0.00     0.074 A 
ATOM     44  C   UNL A   1      43.390  31.635  28.796  1.00  0.00     0.031 C 
ATOM     45  C   UNL A   1      41.503  25.129  27.545  1.00  0.00     0.029 A 
ATOM     46  C   UNL A   1      42.928  25.409  27.415  1.00  0.00     0.049 A 
ATOM     47  H   UNL A   1      43.885  27.246  27.656  1.00  0.00     0.167 HD
ATOM     48  C   UNL A   1      45.767  31.135  28.304  1.00  0.00     0.037 A 
ATOM     49  C   UNL A   1      43.874  24.501  27.103  1.00  0.00     0.037 A 
ATOM     50  C   UNL A   1      46.838  30.256  27.909  1.00  0.00     0.049 A 
ATOM     51  C   UNL A   1      45.298  24.954  26.950  1.00  0.00     0.074 A 
ATOM     52  C   UNL A   1      48.185  30.546  27.775  1.00  0.00     0.029 A 
ATOM     53  N   UNL A   1      46.687  28.912  27.606  1.00  0.00    -0.354 N 
ATOM     54  N   UNL A   1      45.809  26.146  27.148  1.00  0.00    -0.248 NA
ATOM     55  C   UNL A   1      46.271  23.949  26.501  1.00  0.00     0.031 C 
ATOM     56  C   UNL A   1      48.843  29.384  27.354  1.00  0.00     0.029 A 
ATOM     57  C   UNL A   1      47.912  28.362  27.264  1.00  0.00     0.049 A 
ATOM     58  H   UNL A   1      45.835  28.419  27.629  1.00  0.00     0.167 HD
ATOM     59  C   UNL A   1      47.163  26.032  26.856  1.00  0.00     0.074 A 
ATOM     60  C   UNL A   1      47.396  24.652  26.483  1.00  0.00     0.031 C 
ATOM     61  C   UNL A   1      48.125  26.987  26.890  1.00  0.00     0.037 A 
BRANCH  48  62
ATOM     62  C   UNL A   1      46.100  32.564  28.624  1.00  0.00     0.058 A 
ATOM     63  C   UNL A   1      46.433  32.977  29.922  1.00  0.00     0.135 A 
ATOM     64  C   UNL A   1      46.106  33.530  27.605  1.00  0.00     0.135 A 
ATOM     65  F   UNL A   1      46.414  32.100  30.938  1.00  0.00    -0.206 F 
ATOM     66  C   UNL A   1      46.745  34.305  30.202  1.00  0.00     0.059 A 
ATOM     67  C   UNL A   1      46.434  34.858  27.858  1.00  0.00     0.059 A 
ATOM     68  F   UNL A   1      45.787  33.187  26.346  1.00  0.00    -0.206 F 
ATOM     69  C   UNL A   1      46.740  35.238  29.163  1.00  0.00     0.060 A 
BRANCH  69  70
ATOM     70  S   UNL A   1      47.139  36.957  29.542  1.00  0.00     0.124 S 
ATOM     71  O   UNL A   1      47.313  36.903  30.991  1.00  0.00    -0.237 OA
ATOM     72  O   UNL A   1      48.355  37.177  28.767  1.00  0.00    -0.237 OA
ATOM     73  O   UNL A   1      45.963  37.690  29.080  1.00  0.00    -0.744 OA
ENDBRANCH  69  70
ENDBRANCH  48  62
BRANCH  49  74
ATOM     74  C   UNL A   1      43.490  23.086  26.851  1.00  0.00     0.058 A 
ATOM     75  C   UNL A   1      43.473  22.553  25.555  1.00  0.00     0.135 A 
ATOM     76  C   UNL A   1      43.133  22.236  27.912  1.00  0.00     0.135 A 
ATOM     77  F   UNL A   1      43.788  23.330  24.506  1.00  0.00    -0.206 F 
ATOM     78  C   UNL A   1      43.114  21.229  25.315  1.00  0.00     0.059 A 
ATOM     79  C   UNL A   1      42.796  20.903  27.700  1.00  0.00     0.059 A 
ATOM     80  F   UNL A   1      43.134  22.695  29.173  1.00  0.00    -0.206 F 
ATOM     81  C   UNL A   1      42.779  20.411  26.396  1.00  0.00     0.060 A 
BRANCH  81  82
ATOM     82  S   UNL A   1      42.357  18.682  26.090  1.00  0.00     0.124 S 
ATOM     83  O   UNL A   1      43.274  18.344  25.006  1.00  0.00    -0.237 OA
ATOM     84  O   UNL A   1      42.637  18.058  27.379  1.00  0.00    -0.237 OA
ATOM     85  O   UNL A   1      40.944  18.741  25.726  1.00  0.00    -0.744 OA
ENDBRANCH  81  82
ENDBRANCH  49  74
BRANCH  61  86
ATOM     86  C   UNL A   1      49.519  26.568  26.521  1.00  0.00     0.058 A 
ATOM     87  C   UNL A   1      50.377  25.976  27.462  1.00  0.00     0.135 A 
ATOM     88  C   UNL A   1      49.985  26.715  25.205  1.00  0.00     0.135 A 
ATOM     89  F   UNL A   1      49.980  25.819  28.733  1.00  0.00    -0.206 F 
ATOM     90  C   UNL A   1      51.658  25.561  27.114  1.00  0.00     0.059 A 
ATOM     91  C   UNL A   1      51.255  26.288  24.831  1.00  0.00     0.059 A 
ATOM     92  F   UNL A   1      49.199  27.267  24.268  1.00  0.00    -0.206 F 
ATOM     93  C   UNL A   1      52.088  25.721  25.794  1.00  0.00     0.060 A 
BRANCH  93  94
ATOM     94  S   UNL A   1      53.739  25.145  25.344  1.00  0.00     0.124 S 
ATOM     95  O   UNL A   1      54.559  25.761  26.382  1.00  0.00    -0.237 OA
ATOM     96  O   UNL A   1      53.600  23.694  25.423  1.00  0.00    -0.237 OA
ATOM     97  O   UNL A   1      53.927  25.677  23.997  1.00  0.00    -0.744 OA
ENDBRANCH  93  94
ENDBRANCH  61  86
ENDBRANCH  35  36
ENDBRANCH  28  30
ENDBRANCH  27  28
ENDBRANCH  26  27
ENDBRANCH   1  26
TORSDOF 18
ENDMDL
MODEL 3
REMARK VINA RESULT:     -10.9      4.668     10.093
REMARK SMILES [NH3+]Cc1ccc(C(=O)N2[C@@H](C(=O)OCCOC(=O)c3ccc(-c4c5nc(c(-c6c(F)cc(S(=O)(=O)[O-])cc6F)c6ccc([nH]6)c(-c6c(F)cc(S(=O)(=O)[O-])cc6F)c6nc(c(-c7c(F)cc(S(=O)(=O)[O-])cc7F)c7ccc4[nH]7)C=C6)C=C5)cc3)C[C@H]3CCCC[C@@H]32)o1
REMARK SMILES IDX 14 1 13 2 11 3 12 4 10 5 9 6 91 7 85 8 86 9 90 10 87 11
REMARK SMILES IDX 89 12 88 13 7 14 8 15 6 16 3 17 4 18 92 19 5 20 2 21 1 22
REMARK SMILES IDX 15 26 16 27 17 28 18 29 19 30 20 31 84 32 21 33 83 34 22 35
REMARK SMILES IDX 23 36 24 37 77 38 25 39 82 40 76 41 78 42 26 43 81 44 75 45
REMARK SMILES IDX 74 46 27 48 61 49 40 50 60 51 41 52 44 53 59 54 79 55 42 56
REMARK SMILES IDX 43 57 58 59 80 60 45 61 28 62 29 63 38 64 30 65 31 66 37 67
REMARK SMILES IDX 39 68 32 69 33 70 34 71 35 72 36 73 62 74 63 75 72 76 64 77
REMARK SMILES IDX 65 78 71 79 73 80 66 81 67 82 68 83 69 84 70 85 46 86 47 87
REMARK SMILES IDX 56 88 48 89 49 90 55 91 57 92 50 93 51 94 52 95 53 96 54 97
REMARK H PARENT 1 23 1 24 1 25 78 47 44 58
REMARK Flexibility Score: inf
ROOT
ATOM      1  C   UNL A   1      37.625  22.239  25.880  1.00  0.00     0.274 C 
ENDROOT
BRANCH   1   2
ATOM      2  O   UNL A   1      37.347  22.106  24.469  1.00  0.00    -0.461 OA
BRANCH   2   3
ATOM      3  C   UNL A   1      36.322  22.866  23.978  1.00  0.00     0.329 C 
ATOM      4  O   UNL A   1      36.165  23.129  22.794  1.00  0.00    -0.250 OA
BRANCH   3   5
ATOM      5  C   UNL A   1      35.428  23.385  25.134  1.00  0.00     0.196 C 
ATOM      6  N   UNL A   1      34.194  22.580  25.287  1.00  0.00    -0.319 N 
ATOM      7  C   UNL A   1      33.201  23.090  24.367  1.00  0.00     0.089 C 
ATOM      8  C   UNL A   1      34.900  24.775  24.721  1.00  0.00     0.043 C 
ATOM      9  C   UNL A   1      33.382  24.588  24.624  1.00  0.00     0.014 C 
ATOM     10  C   UNL A   1      31.729  22.726  24.535  1.00  0.00     0.025 C 
ATOM     11  C   UNL A   1      32.634  25.408  23.590  1.00  0.00     0.006 C 
ATOM     12  C   UNL A   1      30.879  23.549  23.559  1.00  0.00     0.002 C 
ATOM     13  C   UNL A   1      31.143  25.057  23.657  1.00  0.00     0.000 C 
BRANCH   6  14
ATOM     14  C   UNL A   1      33.977  21.437  26.039  1.00  0.00     0.290 C 
ATOM     15  O   UNL A   1      33.842  21.529  27.259  1.00  0.00    -0.265 OA
BRANCH  14  16
ATOM     16  C   UNL A   1      34.052  20.141  25.375  1.00  0.00     0.192 A 
ATOM     17  C   UNL A   1      33.265  18.100  24.970  1.00  0.00     0.159 A 
ATOM     18  C   UNL A   1      34.517  18.157  24.399  1.00  0.00     0.052 A 
ATOM     19  O   UNL A   1      32.969  19.305  25.536  1.00  0.00    -0.450 OA
ATOM     20  C   UNL A   1      35.029  19.450  24.679  1.00  0.00     0.057 A 
BRANCH  17  21
ATOM     21  C   UNL A   1      32.294  16.980  25.152  1.00  0.00     0.335 C 
BRANCH  21  22
ATOM     22  N   UNL A   1      32.895  15.761  25.667  1.00  0.00    -0.351 N 
ATOM     23  H   UNL A   1      32.509  15.553  26.588  1.00  0.00     0.344 HD
ATOM     24  H   UNL A   1      33.905  15.885  25.742  1.00  0.00     0.344 HD
ATOM     25  H   UNL A   1      32.694  14.988  25.032  1.00  0.00     0.344 HD
ENDBRANCH  21  22
ENDBRANCH  17  21
ENDBRANCH  14  16
ENDBRANCH   6  14
ENDBRANCH   3   5
ENDBRANCH   2   3
ENDBRANCH   1   2
BRANCH   1  26
ATOM     26  C   UNL A   1      39.103  22.549  26.132  1.00  0.00     0.275 C 
BRANCH  26  27
ATOM     27  O   UNL A   1      39.327  23.968  26.194  1.00  0.00    -0.458 OA
BRANCH  27  28
ATOM     28  C   UNL A   1      40.470  24.334  26.820  1.00  0.00     0.338 C 
ATOM     29  O   UNL A   1      41.600  23.942  26.585  1.00  0.00    -0.246 OA
BRANCH  28  30
ATOM     30  C   UNL A   1      40.185  25.447  27.732  1.00  0.00     0.060 A 
ATOM     31  C   UNL A   1      41.038  26.543  27.669  1.00  0.00     0.016 A 
ATOM     32  C   UNL A   1      39.194  25.380  28.708  1.00  0.00     0.016 A 
ATOM     33  C   UNL A   1      40.957  27.552  28.616  1.00  0.00     0.010 A 
ATOM     34  C   UNL A   1      39.081  26.426  29.637  1.00  0.00     0.010 A 
ATOM     35  C   UNL A   1      39.984  27.507  29.616  1.00  0.00    -0.014 A 
BRANCH  35  36
ATOM     36  C   UNL A   1      39.993  28.554  30.670  1.00  0.00     0.031 A 
ATOM     37  C   UNL A   1      41.031  28.508  31.757  1.00  0.00     0.074 A 
ATOM     38  C   UNL A   1      39.151  29.604  30.593  1.00  0.00     0.049 A 
ATOM     39  N   UNL A   1      41.162  29.277  32.806  1.00  0.00    -0.248 NA
ATOM     40  C   UNL A   1      42.073  27.474  31.638  1.00  0.00     0.031 C 
ATOM     41  C   UNL A   1      38.169  29.826  29.528  1.00  0.00     0.029 A 
ATOM     42  N   UNL A   1      39.003  30.698  31.410  1.00  0.00    -0.354 N 
ATOM     43  C   UNL A   1      42.272  28.800  33.493  1.00  0.00     0.074 A 
ATOM     44  C   UNL A   1      42.782  27.673  32.741  1.00  0.00     0.031 C 
ATOM     45  C   UNL A   1      37.550  30.998  29.736  1.00  0.00     0.029 A 
ATOM     46  C   UNL A   1      38.027  31.572  30.989  1.00  0.00     0.049 A 
ATOM     47  H   UNL A   1      39.543  30.843  32.220  1.00  0.00     0.167 HD
ATOM     48  C   UNL A   1      42.815  29.261  34.645  1.00  0.00     0.037 A 
ATOM     49  C   UNL A   1      37.546  32.692  31.563  1.00  0.00     0.037 A 
ATOM     50  C   UNL A   1      42.323  30.404  35.371  1.00  0.00     0.049 A 
ATOM     51  C   UNL A   1      38.105  33.131  32.887  1.00  0.00     0.074 A 
ATOM     52  C   UNL A   1      42.780  30.925  36.568  1.00  0.00     0.029 A 
ATOM     53  N   UNL A   1      41.277  31.214  34.956  1.00  0.00    -0.354 N 
ATOM     54  N   UNL A   1      39.088  32.608  33.580  1.00  0.00    -0.248 NA
ATOM     55  C   UNL A   1      37.471  34.293  33.525  1.00  0.00     0.031 C 
ATOM     56  C   UNL A   1      41.987  32.030  36.897  1.00  0.00     0.029 A 
ATOM     57  C   UNL A   1      41.060  32.219  35.884  1.00  0.00     0.049 A 
ATOM     58  H   UNL A   1      40.765  31.094  34.125  1.00  0.00     0.167 HD
ATOM     59  C   UNL A   1      39.196  33.381  34.730  1.00  0.00     0.074 A 
ATOM     60  C   UNL A   1      38.189  34.418  34.633  1.00  0.00     0.031 C 
ATOM     61  C   UNL A   1      40.049  33.241  35.774  1.00  0.00     0.037 A 
BRANCH  48  62
ATOM     62  C   UNL A   1      43.974  28.498  35.218  1.00  0.00     0.058 A 
ATOM     63  C   UNL A   1      45.303  28.819  34.903  1.00  0.00     0.135 A 
ATOM     64  C   UNL A   1      43.748  27.442  36.115  1.00  0.00     0.135 A 
ATOM     65  F   UNL A   1      45.575  29.800  34.029  1.00  0.00    -0.206 F 
ATOM     66  C   UNL A   1      46.369  28.106  35.448  1.00  0.00     0.059 A 
ATOM     67  C   UNL A   1      44.798  26.729  36.686  1.00  0.00     0.059 A 
ATOM     68  F   UNL A   1      42.494  27.090  36.442  1.00  0.00    -0.206 F 
ATOM     69  C   UNL A   1      46.105  27.061  36.336  1.00  0.00     0.060 A 
BRANCH  69  70
ATOM     70  S   UNL A   1      47.496  26.141  37.027  1.00  0.00     0.124 S 
ATOM     71  O   UNL A   1      47.495  24.943  36.193  1.00  0.00    -0.237 OA
ATOM     72  O   UNL A   1      48.613  27.056  36.819  1.00  0.00    -0.237 OA
ATOM     73  O   UNL A   1      47.109  25.935  38.420  1.00  0.00    -0.744 OA
ENDBRANCH  69  70
ENDBRANCH  48  62
BRANCH  49  74
ATOM     74  C   UNL A   1      36.431  33.437  30.918  1.00  0.00     0.058 A 
ATOM     75  C   UNL A   1      36.633  34.189  29.753  1.00  0.00     0.135 A 
ATOM     76  C   UNL A   1      35.135  33.407  31.459  1.00  0.00     0.135 A 
ATOM     77  F   UNL A   1      37.858  34.265  29.207  1.00  0.00    -0.206 F 
ATOM     78  C   UNL A   1      35.594  34.889  29.146  1.00  0.00     0.059 A 
ATOM     79  C   UNL A   1      34.074  34.076  30.857  1.00  0.00     0.059 A 
ATOM     80  F   UNL A   1      34.886  32.701  32.573  1.00  0.00    -0.206 F 
ATOM     81  C   UNL A   1      34.316  34.824  29.706  1.00  0.00     0.060 A 
BRANCH  81  82
ATOM     82  S   UNL A   1      32.957  35.694  28.893  1.00  0.00     0.124 S 
ATOM     83  O   UNL A   1      32.158  36.120  30.036  1.00  0.00    -0.237 OA
ATOM     84  O   UNL A   1      33.651  36.754  28.170  1.00  0.00    -0.237 OA
ATOM     85  O   UNL A   1      32.356  34.662  28.052  1.00  0.00    -0.744 OA
ENDBRANCH  81  82
ENDBRANCH  49  74
BRANCH  61  86
ATOM     86  C   UNL A   1      39.935  34.238  36.890  1.00  0.00     0.058 A 
ATOM     87  C   UNL A   1      40.590  35.478  36.832  1.00  0.00     0.135 A 
ATOM     88  C   UNL A   1      39.127  33.972  38.006  1.00  0.00     0.135 A 
ATOM     89  F   UNL A   1      41.379  35.777  35.789  1.00  0.00    -0.206 F 
ATOM     90  C   UNL A   1      40.461  36.415  37.852  1.00  0.00     0.059 A 
ATOM     91  C   UNL A   1      38.967  34.903  39.028  1.00  0.00     0.059 A 
ATOM     92  F   UNL A   1      38.473  32.804  38.104  1.00  0.00    -0.206 F 
ATOM     93  C   UNL A   1      39.647  36.117  38.947  1.00  0.00     0.060 A 
BRANCH  93  94
ATOM     94  S   UNL A   1      39.457  37.355  40.249  1.00  0.00     0.124 S 
ATOM     95  O   UNL A   1      38.563  38.316  39.613  1.00  0.00    -0.237 OA
ATOM     96  O   UNL A   1      38.880  36.578  41.341  1.00  0.00    -0.237 OA
ATOM     97  O   UNL A   1      40.823  37.820  40.475  1.00  0.00    -0.744 OA
ENDBRANCH  93  94
ENDBRANCH  61  86
ENDBRANCH  35  36
ENDBRANCH  28  30
ENDBRANCH  27  28
ENDBRANCH  26  27
ENDBRANCH   1  26
TORSDOF 18
ENDMDL
