MODEL 1
REMARK VINA RESULT:     -10.7      0.000      0.000
REMARK SMILES C[C@H]1CCN(C(=O)NC[C@@H]2CC[C@H](C(=O)OCCOC(=O)c3ccc(-c4c5nc(c(-c6c(F)cc(S(=O)(=O)[O-])cc6F)c6ccc([nH]6)c(-c6c(F)cc(S(=O)(=O)[O-])cc6F)c6nc(c(-c7c(F)cc(S(=O)(=O)[O-])cc7F)c7ccc4[nH]7)C=C6)C=C5)cc3)O2)C1
REMARK SMILES IDX 17 1 16 2 14 3 15 4 13 5 10 6 11 7 88 8 12 9 9 10 8 11 6 12
REMARK SMILES IDX 7 13 5 15 1 16 2 17 3 18 89 19 4 20 18 21 19 22 20 23 21 24
REMARK SMILES IDX 22 25 23 26 87 27 24 28 86 29 25 30 26 31 27 32 80 33 28 34
REMARK SMILES IDX 85 35 79 36 81 37 29 38 84 39 78 40 77 41 30 43 64 44 43 45
REMARK SMILES IDX 63 46 44 47 47 48 62 49 82 50 45 51 46 52 61 54 83 55 48 56
REMARK SMILES IDX 31 57 32 58 41 59 33 60 34 61 40 62 42 63 35 64 36 65 37 66
REMARK SMILES IDX 38 67 39 68 65 69 66 70 75 71 67 72 68 73 74 74 76 75 69 76
REMARK SMILES IDX 70 77 71 78 72 79 73 80 49 81 50 82 59 83 51 84 52 85 58 86
REMARK SMILES IDX 60 87 53 88 54 89 55 90 56 91 57 92
REMARK H PARENT 8 14 81 42 47 53
REMARK Flexibility Score: inf
ROOT
ATOM      1  C   UNL A   1      31.719  29.323  26.140  1.00  0.00     0.274 C 
ENDROOT
BRANCH   1   2
ATOM      2  O   UNL A   1      31.198  29.629  24.831  1.00  0.00    -0.460 OA
BRANCH   2   3
ATOM      3  C   UNL A   1      31.707  28.894  23.804  1.00  0.00     0.335 C 
ATOM      4  O   UNL A   1      32.884  28.912  23.463  1.00  0.00    -0.249 OA
BRANCH   3   5
ATOM      5  C   UNL A   1      30.643  28.056  23.081  1.00  0.00     0.228 C 
ATOM      6  C   UNL A   1      30.016  26.151  24.271  1.00  0.00     0.138 C 
ATOM      7  C   UNL A   1      31.090  25.732  23.267  1.00  0.00     0.037 C 
ATOM      8  O   UNL A   1      29.699  27.526  24.009  1.00  0.00    -0.361 OA
ATOM      9  C   UNL A   1      31.132  26.870  22.275  1.00  0.00     0.047 C 
BRANCH   6  10
ATOM     10  C   UNL A   1      30.449  25.958  25.738  1.00  0.00     0.149 C 
BRANCH  10  11
ATOM     11  N   UNL A   1      29.883  24.791  26.397  1.00  0.00    -0.335 N 
ATOM     12  C   UNL A   1      30.360  23.591  26.770  1.00  0.00     0.317 C 
ATOM     13  O   UNL A   1      29.690  22.974  27.602  1.00  0.00    -0.249 OA
ATOM     14  H   UNL A   1      28.933  24.908  26.622  1.00  0.00     0.165 HD
BRANCH  12  15
ATOM     15  N   UNL A   1      31.514  23.084  26.259  1.00  0.00    -0.325 N 
ATOM     16  C   UNL A   1      34.215  22.340  24.370  1.00  0.00     0.009 C 
ATOM     17  C   UNL A   1      33.032  21.673  25.063  1.00  0.00     0.007 C 
ATOM     18  C   UNL A   1      33.246  21.531  26.569  1.00  0.00     0.027 C 
ATOM     19  C   UNL A   1      31.741  22.495  24.952  1.00  0.00     0.124 C 
ATOM     20  C   UNL A   1      32.623  22.789  27.148  1.00  0.00     0.121 C 
ENDBRANCH  12  15
ENDBRANCH  10  11
ENDBRANCH   6  10
ENDBRANCH   3   5
ENDBRANCH   2   3
ENDBRANCH   1   2
BRANCH   1  21
ATOM     21  C   UNL A   1      32.771  30.344  26.585  1.00  0.00     0.275 C 
BRANCH  21  22
ATOM     22  O   UNL A   1      33.838  29.734  27.333  1.00  0.00    -0.458 OA
BRANCH  22  23
ATOM     23  C   UNL A   1      34.559  30.585  28.100  1.00  0.00     0.338 C 
ATOM     24  O   UNL A   1      34.154  31.581  28.675  1.00  0.00    -0.246 OA
BRANCH  23  25
ATOM     25  C   UNL A   1      35.923  30.069  28.275  1.00  0.00     0.060 A 
ATOM     26  C   UNL A   1      36.312  29.668  29.554  1.00  0.00     0.016 A 
ATOM     27  C   UNL A   1      36.840  30.082  27.225  1.00  0.00     0.016 A 
ATOM     28  C   UNL A   1      37.626  29.290  29.801  1.00  0.00     0.010 A 
ATOM     29  C   UNL A   1      38.162  29.692  27.471  1.00  0.00     0.010 A 
ATOM     30  C   UNL A   1      38.564  29.308  28.763  1.00  0.00    -0.014 A 
BRANCH  30  31
ATOM     31  C   UNL A   1      39.976  28.967  29.049  1.00  0.00     0.031 A 
ATOM     32  C   UNL A   1      40.886  30.000  29.649  1.00  0.00     0.074 A 
ATOM     33  C   UNL A   1      40.431  27.728  28.784  1.00  0.00     0.049 A 
ATOM     34  N   UNL A   1      42.173  29.937  29.871  1.00  0.00    -0.248 NA
ATOM     35  C   UNL A   1      40.267  31.273  30.049  1.00  0.00     0.031 C 
ATOM     36  C   UNL A   1      39.627  26.631  28.242  1.00  0.00     0.029 A 
ATOM     37  N   UNL A   1      41.683  27.186  28.928  1.00  0.00    -0.354 N 
ATOM     38  C   UNL A   1      42.526  31.171  30.404  1.00  0.00     0.074 A 
ATOM     39  C   UNL A   1      41.317  31.964  30.473  1.00  0.00     0.031 C 
ATOM     40  C   UNL A   1      40.408  25.550  28.090  1.00  0.00     0.029 A 
ATOM     41  C   UNL A   1      41.773  25.890  28.479  1.00  0.00     0.049 A 
ATOM     42  H   UNL A   1      42.443  27.677  29.315  1.00  0.00     0.167 HD
ATOM     43  C   UNL A   1      43.750  31.601  30.792  1.00  0.00     0.037 A 
ATOM     44  C   UNL A   1      42.844  25.081  28.361  1.00  0.00     0.037 A 
ATOM     45  C   UNL A   1      44.941  30.792  30.748  1.00  0.00     0.049 A 
ATOM     46  C   UNL A   1      44.195  25.589  28.779  1.00  0.00     0.074 A 
ATOM     47  C   UNL A   1      46.224  31.129  31.142  1.00  0.00     0.029 A 
ATOM     48  N   UNL A   1      44.992  29.486  30.286  1.00  0.00    -0.354 N 
ATOM     49  N   UNL A   1      44.518  26.763  29.271  1.00  0.00    -0.248 NA
ATOM     50  C   UNL A   1      45.330  24.668  28.623  1.00  0.00     0.031 C 
ATOM     51  C   UNL A   1      47.058  30.033  30.891  1.00  0.00     0.029 A 
ATOM     52  C   UNL A   1      46.287  29.005  30.372  1.00  0.00     0.049 A 
ATOM     53  H   UNL A   1      44.221  28.975  29.948  1.00  0.00     0.167 HD
ATOM     54  C   UNL A   1      45.889  26.718  29.491  1.00  0.00     0.074 A 
ATOM     55  C   UNL A   1      46.333  25.398  29.094  1.00  0.00     0.031 C 
ATOM     56  C   UNL A   1      46.706  27.684  29.977  1.00  0.00     0.037 A 
BRANCH  43  57
ATOM     57  C   UNL A   1      43.870  33.019  31.267  1.00  0.00     0.058 A 
ATOM     58  C   UNL A   1      44.064  34.086  30.376  1.00  0.00     0.135 A 
ATOM     59  C   UNL A   1      43.755  33.317  32.634  1.00  0.00     0.135 A 
ATOM     60  F   UNL A   1      44.198  33.852  29.062  1.00  0.00    -0.206 F 
ATOM     61  C   UNL A   1      44.158  35.399  30.827  1.00  0.00     0.059 A 
ATOM     62  C   UNL A   1      43.827  34.624  33.106  1.00  0.00     0.059 A 
ATOM     63  F   UNL A   1      43.574  32.331  33.528  1.00  0.00    -0.206 F 
ATOM     64  C   UNL A   1      44.042  35.658  32.194  1.00  0.00     0.060 A 
BRANCH  64  65
ATOM     65  S   UNL A   1      44.161  37.365  32.769  1.00  0.00     0.124 S 
ATOM     66  O   UNL A   1      43.198  37.369  33.866  1.00  0.00    -0.237 OA
ATOM     67  O   UNL A   1      45.563  37.471  33.157  1.00  0.00    -0.237 OA
ATOM     68  O   UNL A   1      43.779  38.146  31.596  1.00  0.00    -0.744 OA
ENDBRANCH  64  65
ENDBRANCH  43  57
BRANCH  44  69
ATOM     69  C   UNL A   1      42.681  23.723  27.782  1.00  0.00     0.058 A 
ATOM     70  C   UNL A   1      42.657  23.523  26.395  1.00  0.00     0.135 A 
ATOM     71  C   UNL A   1      42.562  22.596  28.610  1.00  0.00     0.135 A 
ATOM     72  F   UNL A   1      42.759  24.572  25.565  1.00  0.00    -0.206 F 
ATOM     73  C   UNL A   1      42.513  22.253  25.846  1.00  0.00     0.059 A 
ATOM     74  C   UNL A   1      42.437  21.315  28.086  1.00  0.00     0.059 A 
ATOM     75  F   UNL A   1      42.590  22.736  29.945  1.00  0.00    -0.206 F 
ATOM     76  C   UNL A   1      42.403  21.154  26.701  1.00  0.00     0.060 A 
BRANCH  76  77
ATOM     77  S   UNL A   1      42.265  19.500  25.987  1.00  0.00     0.124 S 
ATOM     78  O   UNL A   1      42.648  18.663  27.117  1.00  0.00    -0.237 OA
ATOM     79  O   UNL A   1      40.858  19.445  25.601  1.00  0.00    -0.237 OA
ATOM     80  O   UNL A   1      43.211  19.538  24.876  1.00  0.00    -0.744 OA
ENDBRANCH  76  77
ENDBRANCH  44  69
BRANCH  56  81
ATOM     81  C   UNL A   1      48.159  27.342  30.127  1.00  0.00     0.058 A 
ATOM     82  C   UNL A   1      49.080  27.596  29.099  1.00  0.00     0.135 A 
ATOM     83  C   UNL A   1      48.644  26.810  31.332  1.00  0.00     0.135 A 
ATOM     84  F   UNL A   1      48.662  28.098  27.927  1.00  0.00    -0.206 F 
ATOM     85  C   UNL A   1      50.434  27.322  29.257  1.00  0.00     0.059 A 
ATOM     86  C   UNL A   1      49.997  26.545  31.517  1.00  0.00     0.059 A 
ATOM     87  F   UNL A   1      47.802  26.558  32.346  1.00  0.00    -0.206 F 
ATOM     88  C   UNL A   1      50.883  26.798  30.471  1.00  0.00     0.060 A 
BRANCH  88  89
ATOM     89  S   UNL A   1      52.649  26.487  30.685  1.00  0.00     0.124 S 
ATOM     90  O   UNL A   1      53.091  27.728  31.314  1.00  0.00    -0.237 OA
ATOM     91  O   UNL A   1      52.661  25.305  31.541  1.00  0.00    -0.237 OA
ATOM     92  O   UNL A   1      53.122  26.269  29.321  1.00  0.00    -0.744 OA
ENDBRANCH  88  89
ENDBRANCH  56  81
ENDBRANCH  30  31
ENDBRANCH  23  25
ENDBRANCH  22  23
ENDBRANCH  21  22
ENDBRANCH   1  21
TORSDOF 17
ENDMDL
MODEL 2
REMARK VINA RESULT:     -10.5      2.880      4.219
REMARK SMILES C[C@H]1CCN(C(=O)NC[C@@H]2CC[C@H](C(=O)OCCOC(=O)c3ccc(-c4c5nc(c(-c6c(F)cc(S(=O)(=O)[O-])cc6F)c6ccc([nH]6)c(-c6c(F)cc(S(=O)(=O)[O-])cc6F)c6nc(c(-c7c(F)cc(S(=O)(=O)[O-])cc7F)c7ccc4[nH]7)C=C6)C=C5)cc3)O2)C1
REMARK SMILES IDX 17 1 16 2 14 3 15 4 13 5 10 6 11 7 88 8 12 9 9 10 8 11 6 12
REMARK SMILES IDX 7 13 5 15 1 16 2 17 3 18 89 19 4 20 18 21 19 22 20 23 21 24
REMARK SMILES IDX 22 25 23 26 87 27 24 28 86 29 25 30 26 31 27 32 80 33 28 34
REMARK SMILES IDX 85 35 79 36 81 37 29 38 84 39 78 40 77 41 30 43 64 44 43 45
REMARK SMILES IDX 63 46 44 47 47 48 62 49 82 50 45 51 46 52 61 54 83 55 48 56
REMARK SMILES IDX 31 57 32 58 41 59 33 60 34 61 40 62 42 63 35 64 36 65 37 66
REMARK SMILES IDX 38 67 39 68 65 69 66 70 75 71 67 72 68 73 74 74 76 75 69 76
REMARK SMILES IDX 70 77 71 78 72 79 73 80 49 81 50 82 59 83 51 84 52 85 58 86
REMARK SMILES IDX 60 87 53 88 54 89 55 90 56 91 57 92
REMARK H PARENT 8 14 81 42 47 53
REMARK Flexibility Score: inf
ROOT
ATOM      1  C   UNL A   1      33.329  30.440  27.231  1.00  0.00     0.274 C 
ENDROOT
BRANCH   1   2
ATOM      2  O   UNL A   1      33.726  29.190  26.632  1.00  0.00    -0.460 OA
BRANCH   2   3
ATOM      3  C   UNL A   1      33.173  28.912  25.420  1.00  0.00     0.335 C 
ATOM      4  O   UNL A   1      32.101  29.365  25.033  1.00  0.00    -0.249 OA
BRANCH   3   5
ATOM      5  C   UNL A   1      34.012  27.932  24.587  1.00  0.00     0.228 C 
ATOM      6  C   UNL A   1      32.859  27.076  22.750  1.00  0.00     0.138 C 
ATOM      7  C   UNL A   1      32.728  26.063  23.887  1.00  0.00     0.037 C 
ATOM      8  O   UNL A   1      33.757  28.104  23.195  1.00  0.00    -0.361 OA
ATOM      9  C   UNL A   1      33.816  26.455  24.858  1.00  0.00     0.047 C 
BRANCH   6  10
ATOM     10  C   UNL A   1      31.509  27.677  22.314  1.00  0.00     0.149 C 
BRANCH  10  11
ATOM     11  N   UNL A   1      30.363  27.252  23.103  1.00  0.00    -0.335 N 
ATOM     12  C   UNL A   1      29.122  27.729  23.303  1.00  0.00     0.317 C 
ATOM     13  O   UNL A   1      28.304  26.936  23.776  1.00  0.00    -0.249 OA
ATOM     14  H   UNL A   1      30.536  26.424  23.606  1.00  0.00     0.165 HD
BRANCH  12  15
ATOM     15  N   UNL A   1      28.787  29.012  23.003  1.00  0.00    -0.325 N 
ATOM     16  C   UNL A   1      28.557  32.124  21.705  1.00  0.00     0.009 C 
ATOM     17  C   UNL A   1      28.733  31.405  23.038  1.00  0.00     0.007 C 
ATOM     18  C   UNL A   1      27.419  30.834  23.568  1.00  0.00     0.027 C 
ATOM     19  C   UNL A   1      29.649  30.178  22.932  1.00  0.00     0.124 C 
ATOM     20  C   UNL A   1      27.392  29.414  23.031  1.00  0.00     0.121 C 
ENDBRANCH  12  15
ENDBRANCH  10  11
ENDBRANCH   6  10
ENDBRANCH   3   5
ENDBRANCH   2   3
ENDBRANCH   1   2
BRANCH   1  21
ATOM     21  C   UNL A   1      34.493  31.113  27.965  1.00  0.00     0.275 C 
BRANCH  21  22
ATOM     22  O   UNL A   1      35.441  30.156  28.473  1.00  0.00    -0.458 OA
BRANCH  22  23
ATOM     23  C   UNL A   1      36.373  30.665  29.311  1.00  0.00     0.338 C 
ATOM     24  O   UNL A   1      36.188  31.428  30.244  1.00  0.00    -0.246 OA
BRANCH  23  25
ATOM     25  C   UNL A   1      37.682  30.057  29.034  1.00  0.00     0.060 A 
ATOM     26  C   UNL A   1      38.549  29.850  30.109  1.00  0.00     0.016 A 
ATOM     27  C   UNL A   1      38.094  29.794  27.728  1.00  0.00     0.016 A 
ATOM     28  C   UNL A   1      39.842  29.395  29.887  1.00  0.00     0.010 A 
ATOM     29  C   UNL A   1      39.394  29.326  27.506  1.00  0.00     0.010 A 
ATOM     30  C   UNL A   1      40.278  29.137  28.583  1.00  0.00    -0.014 A 
BRANCH  30  31
ATOM     31  C   UNL A   1      41.679  28.715  28.352  1.00  0.00     0.031 A 
ATOM     32  C   UNL A   1      42.782  29.732  28.398  1.00  0.00     0.074 A 
ATOM     33  C   UNL A   1      41.955  27.419  28.117  1.00  0.00     0.049 A 
ATOM     34  N   UNL A   1      44.050  29.587  28.116  1.00  0.00    -0.248 NA
ATOM     35  C   UNL A   1      42.409  31.093  28.815  1.00  0.00     0.031 C 
ATOM     36  C   UNL A   1      40.970  26.336  28.092  1.00  0.00     0.029 A 
ATOM     37  N   UNL A   1      43.146  26.794  27.846  1.00  0.00    -0.354 N 
ATOM     38  C   UNL A   1      44.622  30.843  28.285  1.00  0.00     0.074 A 
ATOM     39  C   UNL A   1      43.562  31.739  28.697  1.00  0.00     0.031 C 
ATOM     40  C   UNL A   1      41.595  25.182  27.811  1.00  0.00     0.029 A 
ATOM     41  C   UNL A   1      43.013  25.449  27.592  1.00  0.00     0.049 A 
ATOM     42  H   UNL A   1      44.012  27.262  27.835  1.00  0.00     0.167 HD
ATOM     43  C   UNL A   1      45.912  31.211  28.106  1.00  0.00     0.037 A 
ATOM     44  C   UNL A   1      43.926  24.544  27.191  1.00  0.00     0.037 A 
ATOM     45  C   UNL A   1      46.965  30.305  27.728  1.00  0.00     0.049 A 
ATOM     46  C   UNL A   1      45.349  24.982  26.979  1.00  0.00     0.074 A 
ATOM     47  C   UNL A   1      48.309  30.577  27.544  1.00  0.00     0.029 A 
ATOM     48  N   UNL A   1      46.791  28.952  27.478  1.00  0.00    -0.354 N 
ATOM     49  N   UNL A   1      45.873  26.176  27.132  1.00  0.00    -0.248 NA
ATOM     50  C   UNL A   1      46.303  23.956  26.536  1.00  0.00     0.031 C 
ATOM     51  C   UNL A   1      48.945  29.392  27.156  1.00  0.00     0.029 A 
ATOM     52  C   UNL A   1      48.001  28.377  27.128  1.00  0.00     0.049 A 
ATOM     53  H   UNL A   1      45.934  28.471  27.540  1.00  0.00     0.167 HD
ATOM     54  C   UNL A   1      47.219  26.041  26.813  1.00  0.00     0.074 A 
ATOM     55  C   UNL A   1      47.432  24.650  26.473  1.00  0.00     0.031 C 
ATOM     56  C   UNL A   1      48.190  26.987  26.801  1.00  0.00     0.037 A 
BRANCH  43  57
ATOM     57  C   UNL A   1      46.252  32.662  28.286  1.00  0.00     0.058 A 
ATOM     58  C   UNL A   1      46.138  33.586  27.236  1.00  0.00     0.135 A 
ATOM     59  C   UNL A   1      46.667  33.138  29.540  1.00  0.00     0.135 A 
ATOM     60  F   UNL A   1      45.763  33.177  26.014  1.00  0.00    -0.206 F 
ATOM     61  C   UNL A   1      46.441  34.932  27.419  1.00  0.00     0.059 A 
ATOM     62  C   UNL A   1      46.957  34.483  29.750  1.00  0.00     0.059 A 
ATOM     63  F   UNL A   1      46.797  32.294  30.575  1.00  0.00    -0.206 F 
ATOM     64  C   UNL A   1      46.853  35.370  28.678  1.00  0.00     0.060 A 
BRANCH  64  65
ATOM     65  S   UNL A   1      47.240  37.119  28.907  1.00  0.00     0.124 S 
ATOM     66  O   UNL A   1      46.699  37.698  27.680  1.00  0.00    -0.237 OA
ATOM     67  O   UNL A   1      46.518  37.445  30.132  1.00  0.00    -0.237 OA
ATOM     68  O   UNL A   1      48.695  37.134  29.019  1.00  0.00    -0.744 OA
ENDBRANCH  64  65
ENDBRANCH  43  57
BRANCH  44  69
ATOM     69  C   UNL A   1      43.508  23.144  26.925  1.00  0.00     0.058 A 
ATOM     70  C   UNL A   1      43.458  22.637  25.619  1.00  0.00     0.135 A 
ATOM     71  C   UNL A   1      43.166  22.281  27.978  1.00  0.00     0.135 A 
ATOM     72  F   UNL A   1      43.767  23.429  24.580  1.00  0.00    -0.206 F 
ATOM     73  C   UNL A   1      43.074  21.325  25.363  1.00  0.00     0.059 A 
ATOM     74  C   UNL A   1      42.800  20.959  27.749  1.00  0.00     0.059 A 
ATOM     75  F   UNL A   1      43.210  22.717  29.246  1.00  0.00    -0.206 F 
ATOM     76  C   UNL A   1      42.747  20.493  26.435  1.00  0.00     0.060 A 
BRANCH  76  77
ATOM     77  S   UNL A   1      42.297  18.775  26.105  1.00  0.00     0.124 S 
ATOM     78  O   UNL A   1      40.893  18.908  25.733  1.00  0.00    -0.237 OA
ATOM     79  O   UNL A   1      43.211  18.415  25.026  1.00  0.00    -0.237 OA
ATOM     80  O   UNL A   1      42.554  18.113  27.381  1.00  0.00    -0.744 OA
ENDBRANCH  76  77
ENDBRANCH  44  69
BRANCH  56  81
ATOM     81  C   UNL A   1      49.575  26.543  26.429  1.00  0.00     0.058 A 
ATOM     82  C   UNL A   1      50.061  26.682  25.120  1.00  0.00     0.135 A 
ATOM     83  C   UNL A   1      50.443  26.029  27.405  1.00  0.00     0.135 A 
ATOM     84  F   UNL A   1      49.266  27.163  24.152  1.00  0.00    -0.206 F 
ATOM     85  C   UNL A   1      51.360  26.314  24.788  1.00  0.00     0.059 A 
ATOM     86  C   UNL A   1      51.752  25.671  27.098  1.00  0.00     0.059 A 
ATOM     87  F   UNL A   1      50.025  25.884  28.673  1.00  0.00    -0.206 F 
ATOM     88  C   UNL A   1      52.198  25.811  25.785  1.00  0.00     0.060 A 
BRANCH  88  89
ATOM     89  S   UNL A   1      53.899  25.377  25.356  1.00  0.00     0.124 S 
ATOM     90  O   UNL A   1      54.004  25.910  24.002  1.00  0.00    -0.237 OA
ATOM     91  O   UNL A   1      54.671  26.080  26.376  1.00  0.00    -0.237 OA
ATOM     92  O   UNL A   1      53.913  23.921  25.463  1.00  0.00    -0.744 OA
ENDBRANCH  88  89
ENDBRANCH  56  81
ENDBRANCH  30  31
ENDBRANCH  23  25
ENDBRANCH  22  23
ENDBRANCH  21  22
ENDBRANCH   1  21
TORSDOF 17
ENDMDL
MODEL 3
REMARK VINA RESULT:     -10.5      2.590      3.338
REMARK SMILES C[C@H]1CCN(C(=O)NC[C@@H]2CC[C@H](C(=O)OCCOC(=O)c3ccc(-c4c5nc(c(-c6c(F)cc(S(=O)(=O)[O-])cc6F)c6ccc([nH]6)c(-c6c(F)cc(S(=O)(=O)[O-])cc6F)c6nc(c(-c7c(F)cc(S(=O)(=O)[O-])cc7F)c7ccc4[nH]7)C=C6)C=C5)cc3)O2)C1
REMARK SMILES IDX 17 1 16 2 14 3 15 4 13 5 10 6 11 7 88 8 12 9 9 10 8 11 6 12
REMARK SMILES IDX 7 13 5 15 1 16 2 17 3 18 89 19 4 20 18 21 19 22 20 23 21 24
REMARK SMILES IDX 22 25 23 26 87 27 24 28 86 29 25 30 26 31 27 32 80 33 28 34
REMARK SMILES IDX 85 35 79 36 81 37 29 38 84 39 78 40 77 41 30 43 64 44 43 45
REMARK SMILES IDX 63 46 44 47 47 48 62 49 82 50 45 51 46 52 61 54 83 55 48 56
REMARK SMILES IDX 31 57 32 58 41 59 33 60 34 61 40 62 42 63 35 64 36 65 37 66
REMARK SMILES IDX 38 67 39 68 65 69 66 70 75 71 67 72 68 73 74 74 76 75 69 76
REMARK SMILES IDX 70 77 71 78 72 79 73 80 49 81 50 82 59 83 51 84 52 85 58 86
REMARK SMILES IDX 60 87 53 88 54 89 55 90 56 91 57 92
REMARK H PARENT 8 14 81 42 47 53
REMARK Flexibility Score: inf
ROOT
ATOM      1  C   UNL A   1      33.492  30.056  27.264  1.00  0.00     0.274 C 
ENDROOT
BRANCH   1   2
ATOM      2  O   UNL A   1      34.380  29.200  26.517  1.00  0.00    -0.460 OA
BRANCH   2   3
ATOM      3  C   UNL A   1      33.780  28.233  25.770  1.00  0.00     0.335 C 
ATOM      4  O   UNL A   1      33.951  27.030  25.938  1.00  0.00    -0.249 OA
BRANCH   3   5
ATOM      5  C   UNL A   1      32.888  28.800  24.656  1.00  0.00     0.228 C 
ATOM      6  C   UNL A   1      32.025  27.153  23.250  1.00  0.00     0.138 C 
ATOM      7  C   UNL A   1      33.282  27.711  22.585  1.00  0.00     0.037 C 
ATOM      8  O   UNL A   1      31.771  27.946  24.419  1.00  0.00    -0.361 OA
ATOM      9  C   UNL A   1      33.531  29.017  23.302  1.00  0.00     0.047 C 
BRANCH   6  10
ATOM     10  C   UNL A   1      32.144  25.660  23.615  1.00  0.00     0.149 C 
BRANCH  10  11
ATOM     11  N   UNL A   1      31.584  25.296  24.907  1.00  0.00    -0.335 N 
ATOM     12  C   UNL A   1      31.816  24.314  25.796  1.00  0.00     0.317 C 
ATOM     13  O   UNL A   1      31.385  24.501  26.937  1.00  0.00    -0.249 OA
ATOM     14  H   UNL A   1      30.873  25.911  25.197  1.00  0.00     0.165 HD
BRANCH  12  15
ATOM     15  N   UNL A   1      32.484  23.179  25.458  1.00  0.00    -0.325 N 
ATOM     16  C   UNL A   1      34.702  20.649  25.145  1.00  0.00     0.009 C 
ATOM     17  C   UNL A   1      33.934  21.664  24.305  1.00  0.00     0.007 C 
ATOM     18  C   UNL A   1      32.474  21.263  24.102  1.00  0.00     0.027 C 
ATOM     19  C   UNL A   1      33.846  23.042  24.976  1.00  0.00     0.124 C 
ATOM     20  C   UNL A   1      31.742  21.949  25.242  1.00  0.00     0.121 C 
ENDBRANCH  12  15
ENDBRANCH  10  11
ENDBRANCH   6  10
ENDBRANCH   3   5
ENDBRANCH   2   3
ENDBRANCH   1   2
BRANCH   1  21
ATOM     21  C   UNL A   1      34.251  31.187  27.965  1.00  0.00     0.275 C 
BRANCH  21  22
ATOM     22  O   UNL A   1      35.678  31.024  27.872  1.00  0.00    -0.458 OA
BRANCH  22  23
ATOM     23  C   UNL A   1      36.310  30.833  29.053  1.00  0.00     0.338 C 
ATOM     24  O   UNL A   1      35.861  31.032  30.169  1.00  0.00    -0.246 OA
BRANCH  23  25
ATOM     25  C   UNL A   1      37.618  30.204  28.826  1.00  0.00     0.060 A 
ATOM     26  C   UNL A   1      38.500  30.121  29.905  1.00  0.00     0.016 A 
ATOM     27  C   UNL A   1      38.014  29.801  27.552  1.00  0.00     0.016 A 
ATOM     28  C   UNL A   1      39.793  29.649  29.718  1.00  0.00     0.010 A 
ATOM     29  C   UNL A   1      39.314  29.316  27.365  1.00  0.00     0.010 A 
ATOM     30  C   UNL A   1      40.214  29.251  28.444  1.00  0.00    -0.014 A 
BRANCH  30  31
ATOM     31  C   UNL A   1      41.613  28.811  28.241  1.00  0.00     0.031 A 
ATOM     32  C   UNL A   1      42.725  29.819  28.287  1.00  0.00     0.074 A 
ATOM     33  C   UNL A   1      41.881  27.509  28.033  1.00  0.00     0.049 A 
ATOM     34  N   UNL A   1      43.996  29.657  28.027  1.00  0.00    -0.248 NA
ATOM     35  C   UNL A   1      42.359  31.191  28.674  1.00  0.00     0.031 C 
ATOM     36  C   UNL A   1      40.885  26.436  28.011  1.00  0.00     0.029 A 
ATOM     37  N   UNL A   1      43.069  26.868  27.791  1.00  0.00    -0.354 N 
ATOM     38  C   UNL A   1      44.577  30.910  28.183  1.00  0.00     0.074 A 
ATOM     39  C   UNL A   1      43.520  31.823  28.563  1.00  0.00     0.031 C 
ATOM     40  C   UNL A   1      41.503  25.270  27.760  1.00  0.00     0.029 A 
ATOM     41  C   UNL A   1      42.927  25.521  27.558  1.00  0.00     0.049 A 
ATOM     42  H   UNL A   1      43.939  27.328  27.785  1.00  0.00     0.167 HD
ATOM     43  C   UNL A   1      45.874  31.264  28.017  1.00  0.00     0.037 A 
ATOM     44  C   UNL A   1      43.838  24.600  27.187  1.00  0.00     0.037 A 
ATOM     45  C   UNL A   1      46.923  30.341  27.671  1.00  0.00     0.049 A 
ATOM     46  C   UNL A   1      45.267  25.022  26.990  1.00  0.00     0.074 A 
ATOM     47  C   UNL A   1      48.273  30.597  27.503  1.00  0.00     0.029 A 
ATOM     48  N   UNL A   1      46.741  28.986  27.441  1.00  0.00    -0.354 N 
ATOM     49  N   UNL A   1      45.801  26.212  27.129  1.00  0.00    -0.248 NA
ATOM     50  C   UNL A   1      46.218  23.979  26.578  1.00  0.00     0.031 C 
ATOM     51  C   UNL A   1      48.903  29.399  27.145  1.00  0.00     0.029 A 
ATOM     52  C   UNL A   1      47.950  28.393  27.120  1.00  0.00     0.049 A 
ATOM     53  H   UNL A   1      45.878  28.514  27.499  1.00  0.00     0.167 HD
ATOM     54  C   UNL A   1      47.150  26.060  26.834  1.00  0.00     0.074 A 
ATOM     55  C   UNL A   1      47.354  24.661  26.521  1.00  0.00     0.031 C 
ATOM     56  C   UNL A   1      48.130  26.996  26.820  1.00  0.00     0.037 A 
BRANCH  43  57
ATOM     57  C   UNL A   1      46.225  32.713  28.178  1.00  0.00     0.058 A 
ATOM     58  C   UNL A   1      46.689  33.234  29.395  1.00  0.00     0.135 A 
ATOM     59  C   UNL A   1      46.126  33.588  27.084  1.00  0.00     0.135 A 
ATOM     60  F   UNL A   1      46.785  32.443  30.475  1.00  0.00    -0.206 F 
ATOM     61  C   UNL A   1      47.028  34.577  29.529  1.00  0.00     0.059 A 
ATOM     62  C   UNL A   1      46.476  34.931  27.189  1.00  0.00     0.059 A 
ATOM     63  F   UNL A   1      45.682  33.141  25.899  1.00  0.00    -0.206 F 
ATOM     64  C   UNL A   1      46.914  35.419  28.420  1.00  0.00     0.060 A 
BRANCH  64  65
ATOM     65  S   UNL A   1      47.359  37.159  28.602  1.00  0.00     0.124 S 
ATOM     66  O   UNL A   1      47.093  37.380  30.020  1.00  0.00    -0.237 OA
ATOM     67  O   UNL A   1      48.765  37.168  28.213  1.00  0.00    -0.237 OA
ATOM     68  O   UNL A   1      46.454  37.839  27.680  1.00  0.00    -0.744 OA
ENDBRANCH  64  65
ENDBRANCH  43  57
BRANCH  44  69
ATOM     69  C   UNL A   1      43.410  23.200  26.939  1.00  0.00     0.058 A 
ATOM     70  C   UNL A   1      43.328  22.686  25.637  1.00  0.00     0.135 A 
ATOM     71  C   UNL A   1      43.091  22.343  28.004  1.00  0.00     0.135 A 
ATOM     72  F   UNL A   1      43.615  23.471  24.587  1.00  0.00    -0.206 F 
ATOM     73  C   UNL A   1      42.936  21.373  25.397  1.00  0.00     0.059 A 
ATOM     74  C   UNL A   1      42.716  21.022  27.791  1.00  0.00     0.059 A 
ATOM     75  F   UNL A   1      43.166  22.787  29.269  1.00  0.00    -0.206 F 
ATOM     76  C   UNL A   1      42.632  20.548  26.482  1.00  0.00     0.060 A 
BRANCH  76  77
ATOM     77  S   UNL A   1      42.169  18.829  26.172  1.00  0.00     0.124 S 
ATOM     78  O   UNL A   1      40.772  18.970  25.782  1.00  0.00    -0.237 OA
ATOM     79  O   UNL A   1      43.093  18.445  25.109  1.00  0.00    -0.237 OA
ATOM     80  O   UNL A   1      42.405  18.184  27.461  1.00  0.00    -0.744 OA
ENDBRANCH  76  77
ENDBRANCH  44  69
BRANCH  56  81
ATOM     81  C   UNL A   1      49.516  26.533  26.477  1.00  0.00     0.058 A 
ATOM     82  C   UNL A   1      50.032  26.666  25.179  1.00  0.00     0.135 A 
ATOM     83  C   UNL A   1      50.356  26.005  27.470  1.00  0.00     0.135 A 
ATOM     84  F   UNL A   1      49.264  27.160  24.195  1.00  0.00    -0.206 F 
ATOM     85  C   UNL A   1      51.332  26.280  24.874  1.00  0.00     0.059 A 
ATOM     86  C   UNL A   1      51.666  25.629  27.191  1.00  0.00     0.059 A 
ATOM     87  F   UNL A   1      49.909  25.865  28.729  1.00  0.00    -0.206 F 
ATOM     88  C   UNL A   1      52.142  25.763  25.888  1.00  0.00     0.060 A 
BRANCH  88  89
ATOM     89  S   UNL A   1      53.845  25.306  25.495  1.00  0.00     0.124 S 
ATOM     90  O   UNL A   1      53.911  25.620  24.071  1.00  0.00    -0.237 OA
ATOM     91  O   UNL A   1      54.617  26.179  26.373  1.00  0.00    -0.237 OA
ATOM     92  O   UNL A   1      53.898  23.886  25.830  1.00  0.00    -0.744 OA
ENDBRANCH  88  89
ENDBRANCH  56  81
ENDBRANCH  30  31
ENDBRANCH  23  25
ENDBRANCH  22  23
ENDBRANCH  21  22
ENDBRANCH   1  21
TORSDOF 17
ENDMDL
