MODEL 1
REMARK VINA RESULT:     -11.2      0.000      0.000
REMARK SMILES C[C@@H]1OCC[C@H]1C(=O)N[C@]1(C(=O)OCCOC(=O)c2ccc(-c3c4nc(c(-c5c(F)cc(S(=O)(=O)[O-])cc5F)c5ccc([nH]5)c(-c5c(F)cc(S(=O)(=O)[O-])cc5F)c5nc(c(-c6c(F)cc(S(=O)(=O)[O-])cc6F)c6ccc3[nH]6)C=C5)C=C4)cc2)CCOC1
REMARK SMILES IDX 15 1 14 2 13 3 11 4 12 5 10 6 85 7 88 8 86 9 87 10 9 11 7 12
REMARK SMILES IDX 8 13 6 15 1 16 2 17 3 18 4 19 5 20 16 21 17 22 18 23 19 24
REMARK SMILES IDX 20 25 84 26 21 27 83 28 22 29 23 30 24 31 77 32 25 33 82 34
REMARK SMILES IDX 76 35 78 36 26 37 81 38 75 39 74 40 27 42 61 43 40 44 60 45
REMARK SMILES IDX 41 46 44 47 59 48 79 49 42 50 43 51 58 53 80 54 45 55 28 56
REMARK SMILES IDX 29 57 38 58 30 59 31 60 37 61 39 62 32 63 33 64 34 65 35 66
REMARK SMILES IDX 36 67 62 68 63 69 72 70 64 71 65 72 71 73 73 74 66 75 67 76
REMARK SMILES IDX 68 77 69 78 70 79 46 80 47 81 56 82 48 83 49 84 55 85 57 86
REMARK SMILES IDX 50 87 51 88 52 89 53 90 54 91
REMARK H PARENT 9 14 78 41 44 52
REMARK Flexibility Score: inf
ROOT
ATOM      1  C   UNL A   1      31.984  30.604  26.873  1.00  0.00     0.275 C 
ENDROOT
BRANCH   1   2
ATOM      2  C   UNL A   1      31.610  30.400  25.391  1.00  0.00     0.274 C 
BRANCH   2   3
ATOM      3  O   UNL A   1      31.889  29.042  25.028  1.00  0.00    -0.460 OA
BRANCH   3   4
ATOM      4  C   UNL A   1      32.258  28.780  23.742  1.00  0.00     0.334 C 
ATOM      5  O   UNL A   1      33.265  29.213  23.199  1.00  0.00    -0.249 OA
BRANCH   4   6
ATOM      6  C   UNL A   1      31.206  27.876  23.077  1.00  0.00     0.163 C 
ATOM      7  C   UNL A   1      30.550  27.061  24.218  1.00  0.00     0.071 C 
ATOM      8  C   UNL A   1      29.986  28.692  22.633  1.00  0.00     0.200 C 
ATOM      9  C   UNL A   1      29.129  26.835  23.769  1.00  0.00     0.163 C 
ATOM     10  O   UNL A   1      28.797  27.918  22.901  1.00  0.00    -0.378 OA
BRANCH   6  11
ATOM     11  N   UNL A   1      31.656  26.910  22.014  1.00  0.00    -0.338 N 
ATOM     12  C   UNL A   1      32.535  25.889  21.905  1.00  0.00     0.226 C 
ATOM     13  O   UNL A   1      33.275  25.998  20.913  1.00  0.00    -0.275 OA
ATOM     14  H   UNL A   1      31.179  27.065  21.167  1.00  0.00     0.164 HD
BRANCH  12  15
ATOM     15  C   UNL A   1      32.579  24.552  22.654  1.00  0.00     0.109 C 
ATOM     16  C   UNL A   1      32.538  22.039  22.554  1.00  0.00     0.039 C 
ATOM     17  C   UNL A   1      33.173  23.326  22.002  1.00  0.00     0.127 C 
ATOM     18  O   UNL A   1      34.548  23.282  22.416  1.00  0.00    -0.378 OA
ATOM     19  C   UNL A   1      34.701  24.140  23.551  1.00  0.00     0.161 C 
ATOM     20  C   UNL A   1      33.339  24.622  23.955  1.00  0.00     0.044 C 
ENDBRANCH  12  15
ENDBRANCH   6  11
ENDBRANCH   4   6
ENDBRANCH   3   4
ENDBRANCH   2   3
ENDBRANCH   1   2
BRANCH   1  21
ATOM     21  O   UNL A   1      33.382  30.322  27.142  1.00  0.00    -0.458 OA
BRANCH  21  22
ATOM     22  C   UNL A   1      34.100  31.363  27.650  1.00  0.00     0.338 C 
ATOM     23  O   UNL A   1      33.661  32.478  27.899  1.00  0.00    -0.246 OA
BRANCH  22  24
ATOM     24  C   UNL A   1      35.471  30.937  28.048  1.00  0.00     0.060 A 
ATOM     25  C   UNL A   1      35.678  29.572  28.296  1.00  0.00     0.016 A 
ATOM     26  C   UNL A   1      36.551  31.819  28.173  1.00  0.00     0.016 A 
ATOM     27  C   UNL A   1      36.944  29.080  28.634  1.00  0.00     0.010 A 
ATOM     28  C   UNL A   1      37.821  31.327  28.545  1.00  0.00     0.010 A 
ATOM     29  C   UNL A   1      38.025  29.954  28.787  1.00  0.00    -0.014 A 
BRANCH  29  30
ATOM     30  C   UNL A   1      39.263  29.439  29.445  1.00  0.00     0.031 A 
ATOM     31  C   UNL A   1      39.635  30.031  30.782  1.00  0.00     0.074 A 
ATOM     32  C   UNL A   1      39.997  28.419  28.957  1.00  0.00     0.049 A 
ATOM     33  N   UNL A   1      40.590  29.692  31.608  1.00  0.00    -0.248 NA
ATOM     34  C   UNL A   1      38.800  31.148  31.251  1.00  0.00     0.031 C 
ATOM     35  C   UNL A   1      39.742  27.698  27.712  1.00  0.00     0.029 A 
ATOM     36  N   UNL A   1      41.115  27.798  29.474  1.00  0.00    -0.354 N 
ATOM     37  C   UNL A   1      40.454  30.536  32.703  1.00  0.00     0.074 A 
ATOM     38  C   UNL A   1      39.361  31.437  32.412  1.00  0.00     0.031 C 
ATOM     39  C   UNL A   1      40.679  26.742  27.558  1.00  0.00     0.029 A 
ATOM     40  C   UNL A   1      41.606  26.778  28.691  1.00  0.00     0.049 A 
ATOM     41  H   UNL A   1      41.526  28.061  30.330  1.00  0.00     0.167 HD
ATOM     42  C   UNL A   1      41.157  30.557  33.860  1.00  0.00     0.037 A 
ATOM     43  C   UNL A   1      42.673  25.967  28.867  1.00  0.00     0.037 A 
ATOM     44  C   UNL A   1      42.264  29.693  34.162  1.00  0.00     0.049 A 
ATOM     45  C   UNL A   1      43.514  26.082  30.121  1.00  0.00     0.074 A 
ATOM     46  C   UNL A   1      43.039  29.660  35.309  1.00  0.00     0.029 A 
ATOM     47  N   UNL A   1      42.768  28.722  33.312  1.00  0.00    -0.354 N 
ATOM     48  N   UNL A   1      43.344  26.857  31.166  1.00  0.00    -0.248 NA
ATOM     49  C   UNL A   1      44.690  25.201  30.221  1.00  0.00     0.031 C 
ATOM     50  C   UNL A   1      44.045  28.704  35.131  1.00  0.00     0.029 A 
ATOM     51  C   UNL A   1      43.863  28.105  33.894  1.00  0.00     0.049 A 
ATOM     52  H   UNL A   1      42.401  28.504  32.424  1.00  0.00     0.167 HD
ATOM     53  C   UNL A   1      44.366  26.530  32.057  1.00  0.00     0.074 A 
ATOM     54  C   UNL A   1      45.146  25.483  31.435  1.00  0.00     0.031 C 
ATOM     55  C   UNL A   1      44.632  27.051  33.282  1.00  0.00     0.037 A 
BRANCH  42  56
ATOM     56  C   UNL A   1      40.750  31.583  34.876  1.00  0.00     0.058 A 
ATOM     57  C   UNL A   1      41.342  32.856  34.910  1.00  0.00     0.135 A 
ATOM     58  C   UNL A   1      39.773  31.283  35.837  1.00  0.00     0.135 A 
ATOM     59  F   UNL A   1      42.303  33.180  34.030  1.00  0.00    -0.206 F 
ATOM     60  C   UNL A   1      41.006  33.784  35.887  1.00  0.00     0.059 A 
ATOM     61  C   UNL A   1      39.401  32.207  36.806  1.00  0.00     0.059 A 
ATOM     62  F   UNL A   1      39.183  30.077  35.848  1.00  0.00    -0.206 F 
ATOM     63  C   UNL A   1      40.037  33.447  36.835  1.00  0.00     0.060 A 
BRANCH  63  64
ATOM     64  S   UNL A   1      39.630  34.651  38.115  1.00  0.00     0.124 S 
ATOM     65  O   UNL A   1      38.275  34.244  38.476  1.00  0.00    -0.237 OA
ATOM     66  O   UNL A   1      40.657  34.399  39.121  1.00  0.00    -0.237 OA
ATOM     67  O   UNL A   1      39.735  35.932  37.422  1.00  0.00    -0.744 OA
ENDBRANCH  63  64
ENDBRANCH  42  56
BRANCH  43  68
ATOM     68  C   UNL A   1      43.042  24.958  27.831  1.00  0.00     0.058 A 
ATOM     69  C   UNL A   1      42.652  23.613  27.947  1.00  0.00     0.135 A 
ATOM     70  C   UNL A   1      43.863  25.303  26.746  1.00  0.00     0.135 A 
ATOM     71  F   UNL A   1      41.890  23.224  28.980  1.00  0.00    -0.206 F 
ATOM     72  C   UNL A   1      43.082  22.644  27.043  1.00  0.00     0.059 A 
ATOM     73  C   UNL A   1      44.285  24.357  25.814  1.00  0.00     0.059 A 
ATOM     74  F   UNL A   1      44.271  26.572  26.588  1.00  0.00    -0.206 F 
ATOM     75  C   UNL A   1      43.902  23.027  25.980  1.00  0.00     0.060 A 
BRANCH  75  76
ATOM     76  S   UNL A   1      44.445  21.767  24.803  1.00  0.00     0.124 S 
ATOM     77  O   UNL A   1      45.816  21.528  25.239  1.00  0.00    -0.237 OA
ATOM     78  O   UNL A   1      43.497  20.685  25.052  1.00  0.00    -0.237 OA
ATOM     79  O   UNL A   1      44.301  22.432  23.511  1.00  0.00    -0.744 OA
ENDBRANCH  75  76
ENDBRANCH  43  68
BRANCH  55  80
ATOM     80  C   UNL A   1      45.792  26.485  34.060  1.00  0.00     0.058 A 
ATOM     81  C   UNL A   1      47.075  27.050  33.999  1.00  0.00     0.135 A 
ATOM     82  C   UNL A   1      45.599  25.402  34.937  1.00  0.00     0.135 A 
ATOM     83  F   UNL A   1      47.318  28.085  33.180  1.00  0.00    -0.206 F 
ATOM     84  C   UNL A   1      48.130  26.549  34.758  1.00  0.00     0.059 A 
ATOM     85  C   UNL A   1      46.632  24.903  35.726  1.00  0.00     0.059 A 
ATOM     86  F   UNL A   1      44.389  24.830  35.049  1.00  0.00    -0.206 F 
ATOM     87  C   UNL A   1      47.898  25.476  35.621  1.00  0.00     0.060 A 
BRANCH  87  88
ATOM     88  S   UNL A   1      49.265  24.861  36.629  1.00  0.00     0.124 S 
ATOM     89  O   UNL A   1      50.306  24.665  35.626  1.00  0.00    -0.237 OA
ATOM     90  O   UNL A   1      49.485  25.959  37.564  1.00  0.00    -0.237 OA
ATOM     91  O   UNL A   1      48.728  23.640  37.223  1.00  0.00    -0.744 OA
ENDBRANCH  87  88
ENDBRANCH  55  80
ENDBRANCH  29  30
ENDBRANCH  22  24
ENDBRANCH  21  22
ENDBRANCH   1  21
TORSDOF 16
ENDMDL
MODEL 2
REMARK VINA RESULT:     -11.1      0.897      1.727
REMARK SMILES C[C@@H]1OCC[C@H]1C(=O)N[C@]1(C(=O)OCCOC(=O)c2ccc(-c3c4nc(c(-c5c(F)cc(S(=O)(=O)[O-])cc5F)c5ccc([nH]5)c(-c5c(F)cc(S(=O)(=O)[O-])cc5F)c5nc(c(-c6c(F)cc(S(=O)(=O)[O-])cc6F)c6ccc3[nH]6)C=C5)C=C4)cc2)CCOC1
REMARK SMILES IDX 15 1 14 2 13 3 11 4 12 5 10 6 85 7 88 8 86 9 87 10 9 11 7 12
REMARK SMILES IDX 8 13 6 15 1 16 2 17 3 18 4 19 5 20 16 21 17 22 18 23 19 24
REMARK SMILES IDX 20 25 84 26 21 27 83 28 22 29 23 30 24 31 77 32 25 33 82 34
REMARK SMILES IDX 76 35 78 36 26 37 81 38 75 39 74 40 27 42 61 43 40 44 60 45
REMARK SMILES IDX 41 46 44 47 59 48 79 49 42 50 43 51 58 53 80 54 45 55 28 56
REMARK SMILES IDX 29 57 38 58 30 59 31 60 37 61 39 62 32 63 33 64 34 65 35 66
REMARK SMILES IDX 36 67 62 68 63 69 72 70 64 71 65 72 71 73 73 74 66 75 67 76
REMARK SMILES IDX 68 77 69 78 70 79 46 80 47 81 56 82 48 83 49 84 55 85 57 86
REMARK SMILES IDX 50 87 51 88 52 89 53 90 54 91
REMARK H PARENT 9 14 78 41 44 52
REMARK Flexibility Score: inf
ROOT
ATOM      1  C   UNL A   1      33.201  29.122  27.142  1.00  0.00     0.275 C 
ENDROOT
BRANCH   1   2
ATOM      2  C   UNL A   1      33.471  28.053  26.065  1.00  0.00     0.274 C 
BRANCH   2   3
ATOM      3  O   UNL A   1      32.375  28.042  25.141  1.00  0.00    -0.460 OA
BRANCH   3   4
ATOM      4  C   UNL A   1      32.583  28.535  23.887  1.00  0.00     0.334 C 
ATOM      5  O   UNL A   1      33.512  29.263  23.564  1.00  0.00    -0.249 OA
BRANCH   4   6
ATOM      6  C   UNL A   1      31.464  28.052  22.950  1.00  0.00     0.163 C 
ATOM      7  C   UNL A   1      30.338  27.507  23.862  1.00  0.00     0.071 C 
ATOM      8  C   UNL A   1      30.718  29.240  22.331  1.00  0.00     0.200 C 
ATOM      9  C   UNL A   1      29.060  27.786  23.114  1.00  0.00     0.163 C 
ATOM     10  O   UNL A   1      29.310  28.921  22.286  1.00  0.00    -0.378 OA
BRANCH   6  11
ATOM     11  N   UNL A   1      31.787  26.995  21.928  1.00  0.00    -0.338 N 
ATOM     12  C   UNL A   1      32.586  25.907  21.839  1.00  0.00     0.226 C 
ATOM     13  O   UNL A   1      33.277  25.904  20.807  1.00  0.00    -0.275 OA
ATOM     14  H   UNL A   1      31.278  27.135  21.097  1.00  0.00     0.164 HD
BRANCH  12  15
ATOM     15  C   UNL A   1      32.575  24.617  22.667  1.00  0.00     0.109 C 
ATOM     16  C   UNL A   1      32.463  22.104  22.714  1.00  0.00     0.039 C 
ATOM     17  C   UNL A   1      33.146  23.338  22.101  1.00  0.00     0.127 C 
ATOM     18  O   UNL A   1      34.510  23.280  22.545  1.00  0.00    -0.378 OA
ATOM     19  C   UNL A   1      34.666  24.199  23.631  1.00  0.00     0.161 C 
ATOM     20  C   UNL A   1      33.312  24.742  23.977  1.00  0.00     0.044 C 
ENDBRANCH  12  15
ENDBRANCH   6  11
ENDBRANCH   4   6
ENDBRANCH   3   4
ENDBRANCH   2   3
ENDBRANCH   1   2
BRANCH   1  21
ATOM     21  O   UNL A   1      33.797  30.405  26.818  1.00  0.00    -0.458 OA
BRANCH  21  22
ATOM     22  C   UNL A   1      34.398  31.048  27.859  1.00  0.00     0.338 C 
ATOM     23  O   UNL A   1      33.888  31.920  28.549  1.00  0.00    -0.246 OA
BRANCH  22  24
ATOM     24  C   UNL A   1      35.715  30.435  28.190  1.00  0.00     0.060 A 
ATOM     25  C   UNL A   1      35.850  29.832  29.449  1.00  0.00     0.016 A 
ATOM     26  C   UNL A   1      36.806  30.421  27.313  1.00  0.00     0.016 A 
ATOM     27  C   UNL A   1      37.038  29.196  29.826  1.00  0.00     0.010 A 
ATOM     28  C   UNL A   1      38.015  29.807  27.705  1.00  0.00     0.010 A 
ATOM     29  C   UNL A   1      38.143  29.196  28.969  1.00  0.00    -0.014 A 
BRANCH  29  30
ATOM     30  C   UNL A   1      39.469  28.790  29.524  1.00  0.00     0.031 A 
ATOM     31  C   UNL A   1      39.943  29.494  30.772  1.00  0.00     0.074 A 
ATOM     32  C   UNL A   1      40.205  27.774  29.030  1.00  0.00     0.049 A 
ATOM     33  N   UNL A   1      40.995  29.262  31.513  1.00  0.00    -0.248 NA
ATOM     34  C   UNL A   1      39.099  30.601  31.252  1.00  0.00     0.031 C 
ATOM     35  C   UNL A   1      39.862  26.955  27.870  1.00  0.00     0.029 A 
ATOM     36  N   UNL A   1      41.402  27.247  29.465  1.00  0.00    -0.354 N 
ATOM     37  C   UNL A   1      40.926  30.175  32.558  1.00  0.00     0.074 A 
ATOM     38  C   UNL A   1      39.760  30.998  32.325  1.00  0.00     0.031 C 
ATOM     39  C   UNL A   1      40.831  26.037  27.681  1.00  0.00     0.029 A 
ATOM     40  C   UNL A   1      41.866  26.199  28.703  1.00  0.00     0.049 A 
ATOM     41  H   UNL A   1      41.884  27.591  30.253  1.00  0.00     0.167 HD
ATOM     42  C   UNL A   1      41.742  30.312  33.629  1.00  0.00     0.037 A 
ATOM     43  C   UNL A   1      42.988  25.455  28.818  1.00  0.00     0.037 A 
ATOM     44  C   UNL A   1      42.921  29.527  33.868  1.00  0.00     0.049 A 
ATOM     45  C   UNL A   1      43.947  25.699  29.965  1.00  0.00     0.074 A 
ATOM     46  C   UNL A   1      43.810  29.614  34.925  1.00  0.00     0.029 A 
ATOM     47  N   UNL A   1      43.388  28.522  33.035  1.00  0.00    -0.354 N 
ATOM     48  N   UNL A   1      43.842  26.538  30.969  1.00  0.00    -0.248 NA
ATOM     49  C   UNL A   1      45.174  24.886  29.998  1.00  0.00     0.031 C 
ATOM     50  C   UNL A   1      44.844  28.697  34.705  1.00  0.00     0.029 A 
ATOM     51  C   UNL A   1      44.569  28.002  33.537  1.00  0.00     0.049 A 
ATOM     52  H   UNL A   1      42.944  28.224  32.208  1.00  0.00     0.167 HD
ATOM     53  C   UNL A   1      44.968  26.326  31.765  1.00  0.00     0.074 A 
ATOM     54  C   UNL A   1      45.735  25.276  31.135  1.00  0.00     0.031 C 
ATOM     55  C   UNL A   1      45.329  26.946  32.918  1.00  0.00     0.037 A 
BRANCH  42  56
ATOM     56  C   UNL A   1      41.386  31.388  34.612  1.00  0.00     0.058 A 
ATOM     57  C   UNL A   1      40.562  31.126  35.718  1.00  0.00     0.135 A 
ATOM     58  C   UNL A   1      41.856  32.698  34.434  1.00  0.00     0.135 A 
ATOM     59  F   UNL A   1      40.064  29.894  35.915  1.00  0.00    -0.206 F 
ATOM     60  C   UNL A   1      40.185  32.135  36.595  1.00  0.00     0.059 A 
ATOM     61  C   UNL A   1      41.514  33.717  35.315  1.00  0.00     0.059 A 
ATOM     62  F   UNL A   1      42.641  32.998  33.387  1.00  0.00    -0.206 F 
ATOM     63  C   UNL A   1      40.663  33.430  36.380  1.00  0.00     0.060 A 
BRANCH  63  64
ATOM     64  S   UNL A   1      40.143  34.736  37.511  1.00  0.00     0.124 S 
ATOM     65  O   UNL A   1      40.847  34.360  38.733  1.00  0.00    -0.237 OA
ATOM     66  O   UNL A   1      40.630  35.940  36.844  1.00  0.00    -0.237 OA
ATOM     67  O   UNL A   1      38.691  34.591  37.554  1.00  0.00    -0.744 OA
ENDBRANCH  63  64
ENDBRANCH  42  56
BRANCH  43  68
ATOM     68  C   UNL A   1      43.305  24.392  27.818  1.00  0.00     0.058 A 
ATOM     69  C   UNL A   1      42.841  23.076  27.977  1.00  0.00     0.135 A 
ATOM     70  C   UNL A   1      44.146  24.656  26.725  1.00  0.00     0.135 A 
ATOM     71  F   UNL A   1      42.057  22.763  29.020  1.00  0.00    -0.206 F 
ATOM     72  C   UNL A   1      43.220  22.055  27.107  1.00  0.00     0.059 A 
ATOM     73  C   UNL A   1      44.518  23.658  25.828  1.00  0.00     0.059 A 
ATOM     74  F   UNL A   1      44.623  25.895  26.527  1.00  0.00    -0.206 F 
ATOM     75  C   UNL A   1      44.063  22.357  26.036  1.00  0.00     0.060 A 
BRANCH  75  76
ATOM     76  S   UNL A   1      44.539  21.030  24.904  1.00  0.00     0.124 S 
ATOM     77  O   UNL A   1      43.492  20.045  25.147  1.00  0.00    -0.237 OA
ATOM     78  O   UNL A   1      44.498  21.701  23.608  1.00  0.00    -0.237 OA
ATOM     79  O   UNL A   1      45.874  20.659  25.367  1.00  0.00    -0.744 OA
ENDBRANCH  75  76
ENDBRANCH  43  68
BRANCH  55  80
ATOM     80  C   UNL A   1      46.592  26.493  33.604  1.00  0.00     0.058 A 
ATOM     81  C   UNL A   1      46.596  25.440  34.532  1.00  0.00     0.135 A 
ATOM     82  C   UNL A   1      47.828  27.077  33.276  1.00  0.00     0.135 A 
ATOM     83  F   UNL A   1      45.446  24.846  34.883  1.00  0.00    -0.206 F 
ATOM     84  C   UNL A   1      47.776  24.997  35.126  1.00  0.00     0.059 A 
ATOM     85  C   UNL A   1      49.023  26.631  33.837  1.00  0.00     0.059 A 
ATOM     86  F   UNL A   1      47.888  28.079  32.384  1.00  0.00    -0.206 F 
ATOM     87  C   UNL A   1      48.985  25.597  34.771  1.00  0.00     0.060 A 
BRANCH  87  88
ATOM     88  S   UNL A   1      50.511  24.987  35.519  1.00  0.00     0.124 S 
ATOM     89  O   UNL A   1      50.149  23.612  35.848  1.00  0.00    -0.237 OA
ATOM     90  O   UNL A   1      51.477  25.146  34.438  1.00  0.00    -0.237 OA
ATOM     91  O   UNL A   1      50.708  25.874  36.662  1.00  0.00    -0.744 OA
ENDBRANCH  87  88
ENDBRANCH  55  80
ENDBRANCH  29  30
ENDBRANCH  22  24
ENDBRANCH  21  22
ENDBRANCH   1  21
TORSDOF 16
ENDMDL
MODEL 3
REMARK VINA RESULT:     -11.0      5.545      9.860
REMARK SMILES C[C@@H]1OCC[C@H]1C(=O)N[C@]1(C(=O)OCCOC(=O)c2ccc(-c3c4nc(c(-c5c(F)cc(S(=O)(=O)[O-])cc5F)c5ccc([nH]5)c(-c5c(F)cc(S(=O)(=O)[O-])cc5F)c5nc(c(-c6c(F)cc(S(=O)(=O)[O-])cc6F)c6ccc3[nH]6)C=C5)C=C4)cc2)CCOC1
REMARK SMILES IDX 15 1 14 2 13 3 11 4 12 5 10 6 85 7 88 8 86 9 87 10 9 11 7 12
REMARK SMILES IDX 8 13 6 15 1 16 2 17 3 18 4 19 5 20 16 21 17 22 18 23 19 24
REMARK SMILES IDX 20 25 84 26 21 27 83 28 22 29 23 30 24 31 77 32 25 33 82 34
REMARK SMILES IDX 76 35 78 36 26 37 81 38 75 39 74 40 27 42 61 43 40 44 60 45
REMARK SMILES IDX 41 46 44 47 59 48 79 49 42 50 43 51 58 53 80 54 45 55 28 56
REMARK SMILES IDX 29 57 38 58 30 59 31 60 37 61 39 62 32 63 33 64 34 65 35 66
REMARK SMILES IDX 36 67 62 68 63 69 72 70 64 71 65 72 71 73 73 74 66 75 67 76
REMARK SMILES IDX 68 77 69 78 70 79 46 80 47 81 56 82 48 83 49 84 55 85 57 86
REMARK SMILES IDX 50 87 51 88 52 89 53 90 54 91
REMARK H PARENT 9 14 78 41 44 52
REMARK Flexibility Score: inf
ROOT
ATOM      1  C   UNL A   1      35.207  31.056  27.966  1.00  0.00     0.275 C 
ENDROOT
BRANCH   1   2
ATOM      2  C   UNL A   1      33.718  30.911  27.596  1.00  0.00     0.274 C 
BRANCH   2   3
ATOM      3  O   UNL A   1      33.615  30.136  26.395  1.00  0.00    -0.460 OA
BRANCH   3   4
ATOM      4  C   UNL A   1      32.404  30.069  25.771  1.00  0.00     0.334 C 
ATOM      5  O   UNL A   1      31.519  30.909  25.865  1.00  0.00    -0.249 OA
BRANCH   4   6
ATOM      6  C   UNL A   1      32.316  28.771  24.953  1.00  0.00     0.163 C 
ATOM      7  C   UNL A   1      33.733  28.147  24.972  1.00  0.00     0.071 C 
ATOM      8  C   UNL A   1      31.565  27.683  25.730  1.00  0.00     0.200 C 
ATOM      9  C   UNL A   1      33.506  26.658  24.920  1.00  0.00     0.163 C 
ATOM     10  O   UNL A   1      32.224  26.419  25.500  1.00  0.00    -0.378 OA
BRANCH   6  11
ATOM     11  N   UNL A   1      31.864  28.852  23.519  1.00  0.00    -0.338 N 
ATOM     12  C   UNL A   1      30.694  28.951  22.849  1.00  0.00     0.226 C 
ATOM     13  O   UNL A   1      30.591  28.111  21.939  1.00  0.00    -0.275 OA
ATOM     14  H   UNL A   1      32.630  28.827  22.902  1.00  0.00     0.164 HD
BRANCH  12  15
ATOM     15  C   UNL A   1      29.636  30.060  22.888  1.00  0.00     0.109 C 
ATOM     16  C   UNL A   1      28.714  32.175  21.886  1.00  0.00     0.039 C 
ATOM     17  C   UNL A   1      29.190  30.739  21.614  1.00  0.00     0.127 C 
ATOM     18  O   UNL A   1      28.023  30.027  21.172  1.00  0.00    -0.378 OA
ATOM     19  C   UNL A   1      27.527  29.255  22.269  1.00  0.00     0.161 C 
ATOM     20  C   UNL A   1      28.325  29.614  23.487  1.00  0.00     0.044 C 
ENDBRANCH  12  15
ENDBRANCH   6  11
ENDBRANCH   4   6
ENDBRANCH   3   4
ENDBRANCH   2   3
ENDBRANCH   1   2
BRANCH   1  21
ATOM     21  O   UNL A   1      35.829  29.787  28.295  1.00  0.00    -0.458 OA
BRANCH  21  22
ATOM     22  C   UNL A   1      36.469  29.744  29.497  1.00  0.00     0.338 C 
ATOM     23  O   UNL A   1      35.930  29.614  30.588  1.00  0.00    -0.246 OA
BRANCH  22  24
ATOM     24  C   UNL A   1      37.948  29.692  29.325  1.00  0.00     0.060 A 
ATOM     25  C   UNL A   1      38.443  29.501  28.027  1.00  0.00     0.016 A 
ATOM     26  C   UNL A   1      38.856  29.834  30.381  1.00  0.00     0.016 A 
ATOM     27  C   UNL A   1      39.818  29.482  27.769  1.00  0.00     0.010 A 
ATOM     28  C   UNL A   1      40.244  29.782  30.127  1.00  0.00     0.010 A 
ATOM     29  C   UNL A   1      40.736  29.597  28.819  1.00  0.00    -0.014 A 
BRANCH  29  30
ATOM     30  C   UNL A   1      42.166  29.260  28.549  1.00  0.00     0.031 A 
ATOM     31  C   UNL A   1      42.485  27.830  28.190  1.00  0.00     0.074 A 
ATOM     32  C   UNL A   1      43.154  30.177  28.513  1.00  0.00     0.049 A 
ATOM     33  N   UNL A   1      43.617  27.298  27.808  1.00  0.00    -0.248 NA
ATOM     34  C   UNL A   1      41.364  26.879  28.259  1.00  0.00     0.031 C 
ATOM     35  C   UNL A   1      43.005  31.607  28.775  1.00  0.00     0.029 A 
ATOM     36  N   UNL A   1      44.493  30.032  28.221  1.00  0.00    -0.354 N 
ATOM     37  C   UNL A   1      43.338  25.958  27.568  1.00  0.00     0.074 A 
ATOM     38  C   UNL A   1      41.946  25.748  27.899  1.00  0.00     0.031 C 
ATOM     39  C   UNL A   1      44.206  32.204  28.641  1.00  0.00     0.029 A 
ATOM     40  C   UNL A   1      45.213  31.204  28.284  1.00  0.00     0.049 A 
ATOM     41  H   UNL A   1      44.900  29.166  27.987  1.00  0.00     0.167 HD
ATOM     42  C   UNL A   1      44.153  24.986  27.096  1.00  0.00     0.037 A 
ATOM     43  C   UNL A   1      46.527  31.443  28.076  1.00  0.00     0.037 A 
ATOM     44  C   UNL A   1      45.545  25.161  26.787  1.00  0.00     0.049 A 
ATOM     45  C   UNL A   1      47.446  30.315  27.654  1.00  0.00     0.074 A 
ATOM     46  C   UNL A   1      46.445  24.220  26.317  1.00  0.00     0.029 A 
ATOM     47  N   UNL A   1      46.246  26.348  26.930  1.00  0.00    -0.354 N 
ATOM     48  N   UNL A   1      47.156  29.063  27.390  1.00  0.00    -0.248 NA
ATOM     49  C   UNL A   1      48.874  30.639  27.495  1.00  0.00     0.031 C 
ATOM     50  C   UNL A   1      47.703  24.825  26.225  1.00  0.00     0.029 A 
ATOM     51  C   UNL A   1      47.574  26.156  26.588  1.00  0.00     0.049 A 
ATOM     52  H   UNL A   1      45.857  27.200  27.232  1.00  0.00     0.167 HD
ATOM     53  C   UNL A   1      48.354  28.465  27.000  1.00  0.00     0.074 A 
ATOM     54  C   UNL A   1      49.372  29.491  27.054  1.00  0.00     0.031 C 
ATOM     55  C   UNL A   1      48.587  27.181  26.628  1.00  0.00     0.037 A 
BRANCH  42  56
ATOM     56  C   UNL A   1      43.544  23.626  26.916  1.00  0.00     0.058 A 
ATOM     57  C   UNL A   1      43.377  22.749  28.000  1.00  0.00     0.135 A 
ATOM     58  C   UNL A   1      43.143  23.190  25.645  1.00  0.00     0.135 A 
ATOM     59  F   UNL A   1      43.772  23.110  29.231  1.00  0.00    -0.206 F 
ATOM     60  C   UNL A   1      42.867  21.469  27.822  1.00  0.00     0.059 A 
ATOM     61  C   UNL A   1      42.605  21.924  25.449  1.00  0.00     0.059 A 
ATOM     62  F   UNL A   1      43.290  23.990  24.577  1.00  0.00    -0.206 F 
ATOM     63  C   UNL A   1      42.489  21.064  26.540  1.00  0.00     0.060 A 
BRANCH  63  64
ATOM     64  S   UNL A   1      41.854  19.390  26.320  1.00  0.00     0.124 S 
ATOM     65  O   UNL A   1      42.265  18.757  27.570  1.00  0.00    -0.237 OA
ATOM     66  O   UNL A   1      40.421  19.616  26.164  1.00  0.00    -0.237 OA
ATOM     67  O   UNL A   1      42.546  18.919  25.123  1.00  0.00    -0.744 OA
ENDBRANCH  63  64
ENDBRANCH  42  56
BRANCH  43  68
ATOM     68  C   UNL A   1      47.092  32.812  28.264  1.00  0.00     0.058 A 
ATOM     69  C   UNL A   1      47.120  33.744  27.213  1.00  0.00     0.135 A 
ATOM     70  C   UNL A   1      47.689  33.187  29.478  1.00  0.00     0.135 A 
ATOM     71  F   UNL A   1      46.588  33.427  26.023  1.00  0.00    -0.206 F 
ATOM     72  C   UNL A   1      47.742  34.983  27.349  1.00  0.00     0.059 A 
ATOM     73  C   UNL A   1      48.294  34.430  29.647  1.00  0.00     0.059 A 
ATOM     74  F   UNL A   1      47.696  32.334  30.516  1.00  0.00    -0.206 F 
ATOM     75  C   UNL A   1      48.329  35.316  28.571  1.00  0.00     0.060 A 
BRANCH  75  76
ATOM     76  S   UNL A   1      49.122  36.932  28.744  1.00  0.00     0.124 S 
ATOM     77  O   UNL A   1      50.031  36.696  29.859  1.00  0.00    -0.237 OA
ATOM     78  O   UNL A   1      49.746  37.110  27.436  1.00  0.00    -0.237 OA
ATOM     79  O   UNL A   1      48.000  37.826  29.021  1.00  0.00    -0.744 OA
ENDBRANCH  75  76
ENDBRANCH  43  68
BRANCH  55  80
ATOM     80  C   UNL A   1      49.986  26.802  26.214  1.00  0.00     0.058 A 
ATOM     81  C   UNL A   1      50.405  26.858  24.876  1.00  0.00     0.135 A 
ATOM     82  C   UNL A   1      50.943  26.446  27.181  1.00  0.00     0.135 A 
ATOM     83  F   UNL A   1      49.536  27.192  23.909  1.00  0.00    -0.206 F 
ATOM     84  C   UNL A   1      51.714  26.551  24.507  1.00  0.00     0.059 A 
ATOM     85  C   UNL A   1      52.263  26.163  26.839  1.00  0.00     0.059 A 
ATOM     86  F   UNL A   1      50.603  26.390  28.479  1.00  0.00    -0.206 F 
ATOM     87  C   UNL A   1      52.636  26.207  25.497  1.00  0.00     0.060 A 
BRANCH  87  88
ATOM     88  S   UNL A   1      54.339  25.851  25.011  1.00  0.00     0.124 S 
ATOM     89  O   UNL A   1      54.401  26.460  23.686  1.00  0.00    -0.237 OA
ATOM     90  O   UNL A   1      55.110  26.520  26.053  1.00  0.00    -0.237 OA
ATOM     91  O   UNL A   1      54.401  24.392  25.034  1.00  0.00    -0.744 OA
ENDBRANCH  87  88
ENDBRANCH  55  80
ENDBRANCH  29  30
ENDBRANCH  22  24
ENDBRANCH  21  22
ENDBRANCH   1  21
TORSDOF 16
ENDMDL
