MODEL 1
REMARK VINA RESULT:     -13.4      0.000      0.000
REMARK SMILES Cc1ccc(C(F)(F)F)cc1/C=C/C(=O)OCCOC(=O)c1ccc(-c2c3nc(c(-c4c(F)cc(S(=O)(=O)[O-])cc4F)c4ccc([nH]4)c(-c4c(F)cc(S(=O)(=O)[O-])cc4F)c4nc(c(-c5c(F)cc(S(=O)(=O)[O-])cc5F)c5ccc2[nH]5)C=C4)C=C3)cc1
REMARK SMILES IDX 18 1 17 2 16 3 14 4 15 5 13 6 12 7 11 8 1 9 2 10 3 11 4 12
REMARK SMILES IDX 10 13 5 14 6 15 7 16 8 17 9 18 19 19 20 20 21 21 22 22 23 23
REMARK SMILES IDX 87 24 24 25 86 26 25 27 26 28 27 29 80 30 28 31 85 32 79 33
REMARK SMILES IDX 81 34 29 35 84 36 78 37 77 38 30 40 64 41 43 42 63 43 44 44
REMARK SMILES IDX 47 45 62 46 82 47 45 48 46 49 61 51 83 52 48 53 31 54 32 55
REMARK SMILES IDX 41 56 33 57 34 58 40 59 42 60 35 61 36 62 37 63 38 64 39 65
REMARK SMILES IDX 65 66 66 67 75 68 67 69 68 70 74 71 76 72 69 73 70 74 71 75
REMARK SMILES IDX 72 76 73 77 49 78 50 79 59 80 51 81 52 82 58 83 60 84 53 85
REMARK SMILES IDX 54 86 55 87 56 88 57 89
REMARK H PARENT 81 39 47 50
REMARK Flexibility Score: inf
ROOT
ATOM      1  C   UNL A   1      34.476  30.776  27.704  1.00  0.00     0.275 C 
ENDROOT
BRANCH   1   2
ATOM      2  C   UNL A   1      34.505  29.456  26.912  1.00  0.00     0.275 C 
BRANCH   2   3
ATOM      3  O   UNL A   1      33.442  28.595  27.335  1.00  0.00    -0.459 OA
BRANCH   3   4
ATOM      4  C   UNL A   1      33.086  27.651  26.435  1.00  0.00     0.330 C 
ATOM      5  O   UNL A   1      33.772  26.699  26.081  1.00  0.00    -0.247 OA
BRANCH   4   6
ATOM      6  C   UNL A   1      31.724  27.947  25.947  1.00  0.00     0.094 C 
ATOM      7  C   UNL A   1      31.534  28.124  24.631  1.00  0.00     0.016 C 
BRANCH   7   8
ATOM      8  C   UNL A   1      30.258  28.485  23.997  1.00  0.00    -0.022 A 
ATOM      9  C   UNL A   1      29.674  26.008  23.788  1.00  0.00     0.045 C 
ATOM     10  C   UNL A   1      29.345  27.471  23.632  1.00  0.00    -0.044 A 
ATOM     11  C   UNL A   1      28.109  27.824  23.073  1.00  0.00     0.004 A 
ATOM     12  C   UNL A   1      27.765  29.162  22.896  1.00  0.00     0.013 A 
ATOM     13  C   UNL A   1      29.901  29.833  23.812  1.00  0.00     0.021 A 
ATOM     14  C   UNL A   1      28.651  30.181  23.270  1.00  0.00     0.056 A 
BRANCH  14  15
ATOM     15  C   UNL A   1      28.241  31.620  23.074  1.00  0.00     0.416 C 
ATOM     16  F   UNL A   1      27.906  31.885  21.778  1.00  0.00    -0.166 F 
ATOM     17  F   UNL A   1      27.138  31.951  23.807  1.00  0.00    -0.166 F 
ATOM     18  F   UNL A   1      29.197  32.525  23.408  1.00  0.00    -0.166 F 
ENDBRANCH  14  15
ENDBRANCH   7   8
ENDBRANCH   4   6
ENDBRANCH   3   4
ENDBRANCH   2   3
ENDBRANCH   1   2
BRANCH   1  19
ATOM     19  O   UNL A   1      35.722  31.357  28.171  1.00  0.00    -0.458 OA
BRANCH  19  20
ATOM     20  C   UNL A   1      36.272  30.923  29.338  1.00  0.00     0.338 C 
ATOM     21  O   UNL A   1      35.812  31.184  30.442  1.00  0.00    -0.246 OA
BRANCH  20  22
ATOM     22  C   UNL A   1      37.334  29.915  29.061  1.00  0.00     0.060 A 
ATOM     23  C   UNL A   1      38.128  30.010  27.907  1.00  0.00     0.016 A 
ATOM     24  C   UNL A   1      37.706  29.055  30.093  1.00  0.00     0.016 A 
ATOM     25  C   UNL A   1      39.358  29.339  27.845  1.00  0.00     0.010 A 
ATOM     26  C   UNL A   1      38.970  28.514  30.089  1.00  0.00     0.010 A 
ATOM     27  C   UNL A   1      39.800  28.628  28.963  1.00  0.00    -0.014 A 
BRANCH  27  28
ATOM     28  C   UNL A   1      41.015  27.813  29.036  1.00  0.00     0.031 A 
ATOM     29  C   UNL A   1      41.133  26.408  28.588  1.00  0.00     0.074 A 
ATOM     30  C   UNL A   1      42.096  28.478  29.498  1.00  0.00     0.049 A 
ATOM     31  N   UNL A   1      42.090  25.615  28.941  1.00  0.00    -0.248 NA
ATOM     32  C   UNL A   1      40.169  25.759  27.711  1.00  0.00     0.031 C 
ATOM     33  C   UNL A   1      43.502  28.113  29.482  1.00  0.00     0.029 A 
ATOM     34  N   UNL A   1      42.056  29.630  30.277  1.00  0.00    -0.354 N 
ATOM     35  C   UNL A   1      42.030  24.468  28.171  1.00  0.00     0.074 A 
ATOM     36  C   UNL A   1      40.765  24.579  27.480  1.00  0.00     0.031 C 
ATOM     37  C   UNL A   1      44.145  28.854  30.404  1.00  0.00     0.029 A 
ATOM     38  C   UNL A   1      43.133  29.599  31.148  1.00  0.00     0.049 A 
ATOM     39  H   UNL A   1      41.380  30.344  30.219  1.00  0.00     0.167 HD
ATOM     40  C   UNL A   1      43.120  23.639  28.133  1.00  0.00     0.037 A 
ATOM     41  C   UNL A   1      42.877  29.473  32.485  1.00  0.00     0.037 A 
ATOM     42  C   UNL A   1      44.126  24.090  29.101  1.00  0.00     0.049 A 
ATOM     43  C   UNL A   1      43.433  28.186  33.036  1.00  0.00     0.074 A 
ATOM     44  C   UNL A   1      45.267  24.864  28.964  1.00  0.00     0.029 A 
ATOM     45  N   UNL A   1      43.862  24.011  30.466  1.00  0.00    -0.354 N 
ATOM     46  N   UNL A   1      43.621  27.106  32.326  1.00  0.00    -0.248 NA
ATOM     47  C   UNL A   1      43.871  28.042  34.418  1.00  0.00     0.031 C 
ATOM     48  C   UNL A   1      45.621  25.346  30.250  1.00  0.00     0.029 A 
ATOM     49  C   UNL A   1      44.724  24.830  31.171  1.00  0.00     0.049 A 
ATOM     50  H   UNL A   1      43.161  23.450  30.872  1.00  0.00     0.167 HD
ATOM     51  C   UNL A   1      44.238  26.164  33.101  1.00  0.00     0.074 A 
ATOM     52  C   UNL A   1      44.363  26.792  34.407  1.00  0.00     0.031 C 
ATOM     53  C   UNL A   1      44.637  24.952  32.618  1.00  0.00     0.037 A 
BRANCH  40  54
ATOM     54  C   UNL A   1      43.438  22.588  27.064  1.00  0.00     0.058 A 
ATOM     55  C   UNL A   1      42.698  21.379  26.999  1.00  0.00     0.135 A 
ATOM     56  C   UNL A   1      44.486  22.658  26.124  1.00  0.00     0.135 A 
ATOM     57  F   UNL A   1      41.608  21.182  27.753  1.00  0.00    -0.206 F 
ATOM     58  C   UNL A   1      43.037  20.302  26.168  1.00  0.00     0.059 A 
ATOM     59  C   UNL A   1      44.863  21.586  25.301  1.00  0.00     0.059 A 
ATOM     60  F   UNL A   1      45.172  23.785  25.919  1.00  0.00    -0.206 F 
ATOM     61  C   UNL A   1      44.147  20.400  25.344  1.00  0.00     0.060 A 
BRANCH  61  62
ATOM     62  S   UNL A   1      44.624  18.981  24.337  1.00  0.00     0.124 S 
ATOM     63  O   UNL A   1      46.000  18.749  24.767  1.00  0.00    -0.237 OA
ATOM     64  O   UNL A   1      43.654  17.970  24.742  1.00  0.00    -0.237 OA
ATOM     65  O   UNL A   1      44.478  19.470  22.968  1.00  0.00    -0.744 OA
ENDBRANCH  61  62
ENDBRANCH  40  54
BRANCH  41  66
ATOM     66  C   UNL A   1      41.596  30.124  32.920  1.00  0.00     0.058 A 
ATOM     67  C   UNL A   1      40.516  29.289  33.282  1.00  0.00     0.135 A 
ATOM     68  C   UNL A   1      41.520  31.467  33.318  1.00  0.00     0.135 A 
ATOM     69  F   UNL A   1      40.530  27.989  32.939  1.00  0.00    -0.206 F 
ATOM     70  C   UNL A   1      39.478  29.728  34.099  1.00  0.00     0.059 A 
ATOM     71  C   UNL A   1      40.477  31.934  34.129  1.00  0.00     0.059 A 
ATOM     72  F   UNL A   1      42.503  32.324  33.006  1.00  0.00    -0.206 F 
ATOM     73  C   UNL A   1      39.487  31.045  34.550  1.00  0.00     0.060 A 
BRANCH  73  74
ATOM     74  S   UNL A   1      38.281  31.516  35.816  1.00  0.00     0.124 S 
ATOM     75  O   UNL A   1      38.084  30.256  36.525  1.00  0.00    -0.237 OA
ATOM     76  O   UNL A   1      39.006  32.550  36.553  1.00  0.00    -0.237 OA
ATOM     77  O   UNL A   1      37.142  31.990  35.037  1.00  0.00    -0.744 OA
ENDBRANCH  73  74
ENDBRANCH  41  66
BRANCH  53  78
ATOM     78  C   UNL A   1      45.112  23.821  33.485  1.00  0.00     0.058 A 
ATOM     79  C   UNL A   1      46.401  23.776  34.042  1.00  0.00     0.135 A 
ATOM     80  C   UNL A   1      44.224  22.801  33.895  1.00  0.00     0.135 A 
ATOM     81  F   UNL A   1      47.290  24.755  33.817  1.00  0.00    -0.206 F 
ATOM     82  C   UNL A   1      46.815  22.741  34.877  1.00  0.00     0.059 A 
ATOM     83  C   UNL A   1      44.600  21.788  34.771  1.00  0.00     0.059 A 
ATOM     84  F   UNL A   1      42.956  22.760  33.458  1.00  0.00    -0.206 F 
ATOM     85  C   UNL A   1      45.909  21.748  35.233  1.00  0.00     0.060 A 
BRANCH  85  86
ATOM     86  S   UNL A   1      46.416  20.429  36.348  1.00  0.00     0.124 S 
ATOM     87  O   UNL A   1      47.867  20.457  36.187  1.00  0.00    -0.237 OA
ATOM     88  O   UNL A   1      45.919  20.884  37.644  1.00  0.00    -0.237 OA
ATOM     89  O   UNL A   1      45.739  19.258  35.801  1.00  0.00    -0.744 OA
ENDBRANCH  85  86
ENDBRANCH  53  78
ENDBRANCH  27  28
ENDBRANCH  20  22
ENDBRANCH  19  20
ENDBRANCH   1  19
TORSDOF 16
ENDMDL
MODEL 2
REMARK VINA RESULT:     -13.2      2.971      4.258
REMARK SMILES Cc1ccc(C(F)(F)F)cc1/C=C/C(=O)OCCOC(=O)c1ccc(-c2c3nc(c(-c4c(F)cc(S(=O)(=O)[O-])cc4F)c4ccc([nH]4)c(-c4c(F)cc(S(=O)(=O)[O-])cc4F)c4nc(c(-c5c(F)cc(S(=O)(=O)[O-])cc5F)c5ccc2[nH]5)C=C4)C=C3)cc1
REMARK SMILES IDX 18 1 17 2 16 3 14 4 15 5 13 6 12 7 11 8 1 9 2 10 3 11 4 12
REMARK SMILES IDX 10 13 5 14 6 15 7 16 8 17 9 18 19 19 20 20 21 21 22 22 23 23
REMARK SMILES IDX 87 24 24 25 86 26 25 27 26 28 27 29 80 30 28 31 85 32 79 33
REMARK SMILES IDX 81 34 29 35 84 36 78 37 77 38 30 40 64 41 43 42 63 43 44 44
REMARK SMILES IDX 47 45 62 46 82 47 45 48 46 49 61 51 83 52 48 53 31 54 32 55
REMARK SMILES IDX 41 56 33 57 34 58 40 59 42 60 35 61 36 62 37 63 38 64 39 65
REMARK SMILES IDX 65 66 66 67 75 68 67 69 68 70 74 71 76 72 69 73 70 74 71 75
REMARK SMILES IDX 72 76 73 77 49 78 50 79 59 80 51 81 52 82 58 83 60 84 53 85
REMARK SMILES IDX 54 86 55 87 56 88 57 89
REMARK H PARENT 81 39 47 50
REMARK Flexibility Score: inf
ROOT
ATOM      1  C   UNL A   1      33.656  29.421  27.184  1.00  0.00     0.275 C 
ENDROOT
BRANCH   1   2
ATOM      2  C   UNL A   1      32.912  28.335  26.386  1.00  0.00     0.275 C 
BRANCH   2   3
ATOM      3  O   UNL A   1      33.824  27.321  25.949  1.00  0.00    -0.459 OA
BRANCH   3   4
ATOM      4  C   UNL A   1      33.869  27.138  24.611  1.00  0.00     0.330 C 
ATOM      5  O   UNL A   1      33.815  28.020  23.762  1.00  0.00    -0.247 OA
BRANCH   4   6
ATOM      6  C   UNL A   1      34.002  25.694  24.330  1.00  0.00     0.094 C 
ATOM      7  C   UNL A   1      34.519  24.897  25.278  1.00  0.00     0.016 C 
BRANCH   7   8
ATOM      8  C   UNL A   1      34.774  23.457  25.131  1.00  0.00    -0.022 A 
ATOM      9  C   UNL A   1      37.150  23.800  25.999  1.00  0.00     0.045 C 
ATOM     10  C   UNL A   1      36.022  22.923  25.519  1.00  0.00    -0.044 A 
ATOM     11  C   UNL A   1      36.242  21.541  25.422  1.00  0.00     0.004 A 
ATOM     12  C   UNL A   1      35.235  20.692  24.971  1.00  0.00     0.013 A 
ATOM     13  C   UNL A   1      33.765  22.590  24.675  1.00  0.00     0.021 A 
ATOM     14  C   UNL A   1      33.984  21.202  24.600  1.00  0.00     0.056 A 
BRANCH  14  15
ATOM     15  C   UNL A   1      32.912  20.252  24.126  1.00  0.00     0.416 C 
ATOM     16  F   UNL A   1      32.359  20.654  22.945  1.00  0.00    -0.166 F 
ATOM     17  F   UNL A   1      33.397  18.999  23.888  1.00  0.00    -0.166 F 
ATOM     18  F   UNL A   1      31.879  20.096  24.992  1.00  0.00    -0.166 F 
ENDBRANCH  14  15
ENDBRANCH   7   8
ENDBRANCH   4   6
ENDBRANCH   3   4
ENDBRANCH   2   3
ENDBRANCH   1   2
BRANCH   1  19
ATOM     19  O   UNL A   1      35.054  29.227  27.522  1.00  0.00    -0.458 OA
BRANCH  19  20
ATOM     20  C   UNL A   1      35.793  30.280  27.966  1.00  0.00     0.338 C 
ATOM     21  O   UNL A   1      35.339  31.407  28.127  1.00  0.00    -0.246 OA
BRANCH  20  22
ATOM     22  C   UNL A   1      37.122  29.808  28.446  1.00  0.00     0.060 A 
ATOM     23  C   UNL A   1      37.223  28.980  29.575  1.00  0.00     0.016 A 
ATOM     24  C   UNL A   1      38.219  29.969  27.601  1.00  0.00     0.016 A 
ATOM     25  C   UNL A   1      38.380  28.215  29.783  1.00  0.00     0.010 A 
ATOM     26  C   UNL A   1      39.291  29.118  27.728  1.00  0.00     0.010 A 
ATOM     27  C   UNL A   1      39.398  28.251  28.827  1.00  0.00    -0.014 A 
BRANCH  27  28
ATOM     28  C   UNL A   1      40.696  27.579  28.930  1.00  0.00     0.031 A 
ATOM     29  C   UNL A   1      40.990  26.208  28.457  1.00  0.00     0.074 A 
ATOM     30  C   UNL A   1      41.676  28.351  29.446  1.00  0.00     0.049 A 
ATOM     31  N   UNL A   1      42.019  25.521  28.829  1.00  0.00    -0.248 NA
ATOM     32  C   UNL A   1      40.138  25.475  27.531  1.00  0.00     0.031 C 
ATOM     33  C   UNL A   1      43.114  28.150  29.475  1.00  0.00     0.029 A 
ATOM     34  N   UNL A   1      41.475  29.471  30.246  1.00  0.00    -0.354 N 
ATOM     35  C   UNL A   1      42.118  24.394  28.034  1.00  0.00     0.074 A 
ATOM     36  C   UNL A   1      40.874  24.378  27.298  1.00  0.00     0.031 C 
ATOM     37  C   UNL A   1      43.634  28.936  30.437  1.00  0.00     0.029 A 
ATOM     38  C   UNL A   1      42.518  29.541  31.158  1.00  0.00     0.049 A 
ATOM     39  H   UNL A   1      40.725  30.104  30.178  1.00  0.00     0.167 HD
ATOM     40  C   UNL A   1      43.297  23.696  28.021  1.00  0.00     0.037 A 
ATOM     41  C   UNL A   1      42.231  29.354  32.481  1.00  0.00     0.037 A 
ATOM     42  C   UNL A   1      44.209  24.235  29.035  1.00  0.00     0.049 A 
ATOM     43  C   UNL A   1      42.911  28.125  33.025  1.00  0.00     0.074 A 
ATOM     44  C   UNL A   1      45.258  25.137  28.958  1.00  0.00     0.029 A 
ATOM     45  N   UNL A   1      43.909  24.092  30.387  1.00  0.00    -0.354 N 
ATOM     46  N   UNL A   1      43.247  27.092  32.301  1.00  0.00    -0.248 NA
ATOM     47  C   UNL A   1      43.314  27.998  34.420  1.00  0.00     0.031 C 
ATOM     48  C   UNL A   1      45.508  25.624  30.265  1.00  0.00     0.029 A 
ATOM     49  C   UNL A   1      44.645  24.986  31.141  1.00  0.00     0.049 A 
ATOM     50  H   UNL A   1      43.262  23.445  30.754  1.00  0.00     0.167 HD
ATOM     51  C   UNL A   1      43.941  26.207  33.079  1.00  0.00     0.074 A 
ATOM     52  C   UNL A   1      43.946  26.812  34.401  1.00  0.00     0.031 C 
ATOM     53  C   UNL A   1      44.493  25.061  32.586  1.00  0.00     0.037 A 
BRANCH  40  54
ATOM     54  C   UNL A   1      43.771  22.716  26.942  1.00  0.00     0.058 A 
ATOM     55  C   UNL A   1      43.051  21.519  26.689  1.00  0.00     0.135 A 
ATOM     56  C   UNL A   1      44.946  22.839  26.174  1.00  0.00     0.135 A 
ATOM     57  F   UNL A   1      41.863  21.281  27.261  1.00  0.00    -0.206 F 
ATOM     58  C   UNL A   1      43.512  20.497  25.847  1.00  0.00     0.059 A 
ATOM     59  C   UNL A   1      45.442  21.821  25.345  1.00  0.00     0.059 A 
ATOM     60  F   UNL A   1      45.652  23.973  26.147  1.00  0.00    -0.206 F 
ATOM     61  C   UNL A   1      44.731  20.640  25.204  1.00  0.00     0.060 A 
BRANCH  61  62
ATOM     62  S   UNL A   1      45.354  19.287  24.186  1.00  0.00     0.124 S 
ATOM     63  O   UNL A   1      45.047  18.120  25.008  1.00  0.00    -0.237 OA
ATOM     64  O   UNL A   1      44.569  19.427  22.965  1.00  0.00    -0.237 OA
ATOM     65  O   UNL A   1      46.777  19.591  24.049  1.00  0.00    -0.744 OA
ENDBRANCH  61  62
ENDBRANCH  40  54
BRANCH  41  66
ATOM     66  C   UNL A   1      40.869  29.842  32.880  1.00  0.00     0.058 A 
ATOM     67  C   UNL A   1      40.640  31.236  32.893  1.00  0.00     0.135 A 
ATOM     68  C   UNL A   1      39.736  29.014  32.896  1.00  0.00     0.135 A 
ATOM     69  F   UNL A   1      41.682  32.086  32.870  1.00  0.00    -0.206 F 
ATOM     70  C   UNL A   1      39.363  31.781  32.803  1.00  0.00     0.059 A 
ATOM     71  C   UNL A   1      38.440  29.542  32.819  1.00  0.00     0.059 A 
ATOM     72  F   UNL A   1      39.871  27.680  32.891  1.00  0.00    -0.206 F 
ATOM     73  C   UNL A   1      38.269  30.924  32.727  1.00  0.00     0.060 A 
BRANCH  73  74
ATOM     74  S   UNL A   1      36.652  31.644  32.345  1.00  0.00     0.124 S 
ATOM     75  O   UNL A   1      36.951  32.435  31.156  1.00  0.00    -0.237 OA
ATOM     76  O   UNL A   1      35.836  30.452  32.123  1.00  0.00    -0.237 OA
ATOM     77  O   UNL A   1      36.328  32.404  33.548  1.00  0.00    -0.744 OA
ENDBRANCH  73  74
ENDBRANCH  41  66
BRANCH  53  78
ATOM     78  C   UNL A   1      45.064  23.970  33.447  1.00  0.00     0.058 A 
ATOM     79  C   UNL A   1      46.352  24.033  34.004  1.00  0.00     0.135 A 
ATOM     80  C   UNL A   1      44.268  22.874  33.850  1.00  0.00     0.135 A 
ATOM     81  F   UNL A   1      47.153  25.087  33.786  1.00  0.00    -0.206 F 
ATOM     82  C   UNL A   1      46.854  23.033  34.834  1.00  0.00     0.059 A 
ATOM     83  C   UNL A   1      44.730  21.893  34.720  1.00  0.00     0.059 A 
ATOM     84  F   UNL A   1      43.008  22.727  33.412  1.00  0.00    -0.206 F 
ATOM     85  C   UNL A   1      46.037  21.964  35.183  1.00  0.00     0.060 A 
BRANCH  85  86
ATOM     86  S   UNL A   1      46.656  20.687  36.290  1.00  0.00     0.124 S 
ATOM     87  O   UNL A   1      45.896  19.524  35.843  1.00  0.00    -0.237 OA
ATOM     88  O   UNL A   1      48.085  20.656  35.990  1.00  0.00    -0.237 OA
ATOM     89  O   UNL A   1      46.312  21.201  37.611  1.00  0.00    -0.744 OA
ENDBRANCH  85  86
ENDBRANCH  53  78
ENDBRANCH  27  28
ENDBRANCH  20  22
ENDBRANCH  19  20
ENDBRANCH   1  19
TORSDOF 16
ENDMDL
MODEL 3
REMARK VINA RESULT:     -13.1      2.748      3.400
REMARK SMILES Cc1ccc(C(F)(F)F)cc1/C=C/C(=O)OCCOC(=O)c1ccc(-c2c3nc(c(-c4c(F)cc(S(=O)(=O)[O-])cc4F)c4ccc([nH]4)c(-c4c(F)cc(S(=O)(=O)[O-])cc4F)c4nc(c(-c5c(F)cc(S(=O)(=O)[O-])cc5F)c5ccc2[nH]5)C=C4)C=C3)cc1
REMARK SMILES IDX 18 1 17 2 16 3 14 4 15 5 13 6 12 7 11 8 1 9 2 10 3 11 4 12
REMARK SMILES IDX 10 13 5 14 6 15 7 16 8 17 9 18 19 19 20 20 21 21 22 22 23 23
REMARK SMILES IDX 87 24 24 25 86 26 25 27 26 28 27 29 80 30 28 31 85 32 79 33
REMARK SMILES IDX 81 34 29 35 84 36 78 37 77 38 30 40 64 41 43 42 63 43 44 44
REMARK SMILES IDX 47 45 62 46 82 47 45 48 46 49 61 51 83 52 48 53 31 54 32 55
REMARK SMILES IDX 41 56 33 57 34 58 40 59 42 60 35 61 36 62 37 63 38 64 39 65
REMARK SMILES IDX 65 66 66 67 75 68 67 69 68 70 74 71 76 72 69 73 70 74 71 75
REMARK SMILES IDX 72 76 73 77 49 78 50 79 59 80 51 81 52 82 58 83 60 84 53 85
REMARK SMILES IDX 54 86 55 87 56 88 57 89
REMARK H PARENT 81 39 47 50
REMARK Flexibility Score: inf
ROOT
ATOM      1  C   UNL A   1      34.328  31.207  27.736  1.00  0.00     0.275 C 
ENDROOT
BRANCH   1   2
ATOM      2  C   UNL A   1      34.024  30.044  26.775  1.00  0.00     0.275 C 
BRANCH   2   3
ATOM      3  O   UNL A   1      33.956  28.806  27.491  1.00  0.00    -0.459 OA
BRANCH   3   4
ATOM      4  C   UNL A   1      32.986  27.963  27.076  1.00  0.00     0.330 C 
ATOM      5  O   UNL A   1      31.800  28.025  27.379  1.00  0.00    -0.247 OA
BRANCH   4   6
ATOM      6  C   UNL A   1      33.583  26.949  26.183  1.00  0.00     0.094 C 
ATOM      7  C   UNL A   1      32.771  26.190  25.433  1.00  0.00     0.016 C 
BRANCH   7   8
ATOM      8  C   UNL A   1      33.204  25.101  24.545  1.00  0.00    -0.022 A 
ATOM      9  C   UNL A   1      30.921  25.138  23.403  1.00  0.00     0.045 C 
ATOM     10  C   UNL A   1      32.332  24.626  23.542  1.00  0.00    -0.044 A 
ATOM     11  C   UNL A   1      32.769  23.620  22.667  1.00  0.00     0.004 A 
ATOM     12  C   UNL A   1      34.059  23.105  22.765  1.00  0.00     0.013 A 
ATOM     13  C   UNL A   1      34.504  24.572  24.637  1.00  0.00     0.021 A 
ATOM     14  C   UNL A   1      34.944  23.578  23.744  1.00  0.00     0.056 A 
BRANCH  14  15
ATOM     15  C   UNL A   1      36.338  23.005  23.814  1.00  0.00     0.416 C 
ATOM     16  F   UNL A   1      36.355  21.772  24.398  1.00  0.00    -0.166 F 
ATOM     17  F   UNL A   1      36.889  22.826  22.579  1.00  0.00    -0.166 F 
ATOM     18  F   UNL A   1      37.221  23.764  24.513  1.00  0.00    -0.166 F 
ENDBRANCH  14  15
ENDBRANCH   7   8
ENDBRANCH   4   6
ENDBRANCH   3   4
ENDBRANCH   2   3
ENDBRANCH   1   2
BRANCH   1  19
ATOM     19  O   UNL A   1      35.696  31.443  28.160  1.00  0.00    -0.458 OA
BRANCH  19  20
ATOM     20  C   UNL A   1      36.141  30.908  29.330  1.00  0.00     0.338 C 
ATOM     21  O   UNL A   1      35.596  31.094  30.411  1.00  0.00    -0.246 OA
BRANCH  20  22
ATOM     22  C   UNL A   1      37.203  29.898  29.060  1.00  0.00     0.060 A 
ATOM     23  C   UNL A   1      37.968  29.960  27.884  1.00  0.00     0.016 A 
ATOM     24  C   UNL A   1      37.607  29.075  30.110  1.00  0.00     0.016 A 
ATOM     25  C   UNL A   1      39.201  29.297  27.814  1.00  0.00     0.010 A 
ATOM     26  C   UNL A   1      38.874  28.543  30.093  1.00  0.00     0.010 A 
ATOM     27  C   UNL A   1      39.676  28.626  28.943  1.00  0.00    -0.014 A 
BRANCH  27  28
ATOM     28  C   UNL A   1      40.899  27.822  29.013  1.00  0.00     0.031 A 
ATOM     29  C   UNL A   1      41.024  26.413  28.577  1.00  0.00     0.074 A 
ATOM     30  C   UNL A   1      41.978  28.500  29.458  1.00  0.00     0.049 A 
ATOM     31  N   UNL A   1      41.992  25.632  28.929  1.00  0.00    -0.248 NA
ATOM     32  C   UNL A   1      40.058  25.747  27.716  1.00  0.00     0.031 C 
ATOM     33  C   UNL A   1      43.387  28.148  29.432  1.00  0.00     0.029 A 
ATOM     34  N   UNL A   1      41.935  29.660  30.226  1.00  0.00    -0.354 N 
ATOM     35  C   UNL A   1      41.934  24.477  28.172  1.00  0.00     0.074 A 
ATOM     36  C   UNL A   1      40.662  24.571  27.491  1.00  0.00     0.031 C 
ATOM     37  C   UNL A   1      44.032  28.904  30.342  1.00  0.00     0.029 A 
ATOM     38  C   UNL A   1      43.021  29.647  31.088  1.00  0.00     0.049 A 
ATOM     39  H   UNL A   1      41.252  30.367  30.167  1.00  0.00     0.167 HD
ATOM     40  C   UNL A   1      43.031  23.657  28.131  1.00  0.00     0.037 A 
ATOM     41  C   UNL A   1      42.778  29.532  32.428  1.00  0.00     0.037 A 
ATOM     42  C   UNL A   1      44.042  24.127  29.085  1.00  0.00     0.049 A 
ATOM     43  C   UNL A   1      43.350  28.255  32.986  1.00  0.00     0.074 A 
ATOM     44  C   UNL A   1      45.175  24.909  28.930  1.00  0.00     0.029 A 
ATOM     45  N   UNL A   1      43.792  24.058  30.453  1.00  0.00    -0.354 N 
ATOM     46  N   UNL A   1      43.540  27.170  32.286  1.00  0.00    -0.248 NA
ATOM     47  C   UNL A   1      43.802  28.129  34.365  1.00  0.00     0.031 C 
ATOM     48  C   UNL A   1      45.537  25.406  30.207  1.00  0.00     0.029 A 
ATOM     49  C   UNL A   1      44.653  24.892  31.142  1.00  0.00     0.049 A 
ATOM     50  H   UNL A   1      43.099  23.496  30.871  1.00  0.00     0.167 HD
ATOM     51  C   UNL A   1      44.174  26.241  33.064  1.00  0.00     0.074 A 
ATOM     52  C   UNL A   1      44.305  26.882  34.362  1.00  0.00     0.031 C 
ATOM     53  C   UNL A   1      44.578  25.028  32.588  1.00  0.00     0.037 A 
BRANCH  40  54
ATOM     54  C   UNL A   1      43.348  22.599  27.069  1.00  0.00     0.058 A 
ATOM     55  C   UNL A   1      42.657  21.359  27.058  1.00  0.00     0.135 A 
ATOM     56  C   UNL A   1      44.353  22.692  26.086  1.00  0.00     0.135 A 
ATOM     57  F   UNL A   1      41.608  21.134  27.861  1.00  0.00    -0.206 F 
ATOM     58  C   UNL A   1      43.006  20.281  26.233  1.00  0.00     0.059 A 
ATOM     59  C   UNL A   1      44.740  21.620  25.267  1.00  0.00     0.059 A 
ATOM     60  F   UNL A   1      44.983  23.842  25.831  1.00  0.00    -0.206 F 
ATOM     61  C   UNL A   1      44.077  20.407  25.362  1.00  0.00     0.060 A 
BRANCH  61  62
ATOM     62  S   UNL A   1      44.571  18.988  24.363  1.00  0.00     0.124 S 
ATOM     63  O   UNL A   1      43.586  17.983  24.751  1.00  0.00    -0.237 OA
ATOM     64  O   UNL A   1      44.448  19.505  23.004  1.00  0.00    -0.237 OA
ATOM     65  O   UNL A   1      45.938  18.719  24.804  1.00  0.00    -0.744 OA
ENDBRANCH  61  62
ENDBRANCH  40  54
BRANCH  41  66
ATOM     66  C   UNL A   1      41.496  30.176  32.868  1.00  0.00     0.058 A 
ATOM     67  C   UNL A   1      40.437  29.336  33.279  1.00  0.00     0.135 A 
ATOM     68  C   UNL A   1      41.405  31.530  33.226  1.00  0.00     0.135 A 
ATOM     69  F   UNL A   1      40.465  28.026  32.977  1.00  0.00    -0.206 F 
ATOM     70  C   UNL A   1      39.409  29.784  34.103  1.00  0.00     0.059 A 
ATOM     71  C   UNL A   1      40.371  32.006  34.043  1.00  0.00     0.059 A 
ATOM     72  F   UNL A   1      42.368  32.392  32.866  1.00  0.00    -0.206 F 
ATOM     73  C   UNL A   1      39.405  31.115  34.512  1.00  0.00     0.060 A 
BRANCH  73  74
ATOM     74  S   UNL A   1      38.217  31.607  35.787  1.00  0.00     0.124 S 
ATOM     75  O   UNL A   1      38.981  32.593  36.544  1.00  0.00    -0.237 OA
ATOM     76  O   UNL A   1      37.117  32.139  34.985  1.00  0.00    -0.237 OA
ATOM     77  O   UNL A   1      37.931  30.356  36.482  1.00  0.00    -0.744 OA
ENDBRANCH  73  74
ENDBRANCH  41  66
BRANCH  53  78
ATOM     78  C   UNL A   1      45.071  23.909  33.462  1.00  0.00     0.058 A 
ATOM     79  C   UNL A   1      46.368  23.876  34.000  1.00  0.00     0.135 A 
ATOM     80  C   UNL A   1      44.194  22.890  33.897  1.00  0.00     0.135 A 
ATOM     81  F   UNL A   1      47.250  24.857  33.751  1.00  0.00    -0.206 F 
ATOM     82  C   UNL A   1      46.799  22.854  34.842  1.00  0.00     0.059 A 
ATOM     83  C   UNL A   1      44.587  21.890  34.780  1.00  0.00     0.059 A 
ATOM     84  F   UNL A   1      42.919  22.839  33.480  1.00  0.00    -0.206 F 
ATOM     85  C   UNL A   1      45.903  21.862  35.224  1.00  0.00     0.060 A 
BRANCH  85  86
ATOM     86  S   UNL A   1      46.432  20.558  36.346  1.00  0.00     0.124 S 
ATOM     87  O   UNL A   1      46.054  21.120  37.640  1.00  0.00    -0.237 OA
ATOM     88  O   UNL A   1      45.648  19.407  35.907  1.00  0.00    -0.237 OA
ATOM     89  O   UNL A   1      47.865  20.465  36.090  1.00  0.00    -0.744 OA
ENDBRANCH  85  86
ENDBRANCH  53  78
ENDBRANCH  27  28
ENDBRANCH  20  22
ENDBRANCH  19  20
ENDBRANCH   1  19
TORSDOF 16
ENDMDL
