MODEL 1
REMARK VINA RESULT:     -12.7      0.000      0.000
REMARK SMILES Cc1ccccc1NC(=O)C[NH+]1CCC(CC(=O)OCCOC(=O)c2ccc(-c3c4nc(c(-c5c(F)cc(S(=O)(=O)[O-])cc5F)c5ccc([nH]5)c(-c5c(F)cc(S(=O)(=O)[O-])cc5F)c5nc(c(-c6c(F)cc(S(=O)(=O)[O-])cc6F)c6ccc3[nH]6)C=C5)C=C4)cc2)CC1
REMARK SMILES IDX 20 1 19 2 17 3 18 4 16 5 15 6 12 7 13 8 92 9 14 11 91 12
REMARK SMILES IDX 11 13 9 14 8 15 10 17 7 18 1 19 2 20 3 21 4 22 6 23 5 24
REMARK SMILES IDX 21 25 22 26 23 27 24 28 25 29 26 30 90 31 27 32 89 33 28 34
REMARK SMILES IDX 29 35 30 36 83 37 31 38 88 39 82 40 84 41 32 42 87 43 81 44
REMARK SMILES IDX 80 45 33 47 67 48 46 49 66 50 47 51 50 52 65 53 85 54 48 55
REMARK SMILES IDX 49 56 64 58 86 59 51 60 34 61 35 62 44 63 36 64 37 65 43 66
REMARK SMILES IDX 45 67 38 68 39 69 40 70 41 71 42 72 68 73 69 74 78 75 70 76
REMARK SMILES IDX 71 77 77 78 79 79 72 80 73 81 74 82 75 83 76 84 52 85 53 86
REMARK SMILES IDX 62 87 54 88 55 89 61 90 63 91 56 92 57 93 58 94 59 95 60 96
REMARK H PARENT 12 10 8 16 84 46 50 57
REMARK Flexibility Score: inf
ROOT
ATOM      1  C   UNL A   1      36.076  22.662  26.119  1.00  0.00     0.274 C 
ENDROOT
BRANCH   1   2
ATOM      2  O   UNL A   1      35.343  22.031  25.050  1.00  0.00    -0.462 OA
BRANCH   2   3
ATOM      3  C   UNL A   1      34.013  22.227  25.068  1.00  0.00     0.306 C 
ATOM      4  O   UNL A   1      33.230  21.492  24.481  1.00  0.00    -0.252 OA
BRANCH   3   5
ATOM      5  C   UNL A   1      33.601  23.417  25.916  1.00  0.00     0.126 C 
BRANCH   5   6
ATOM      6  C   UNL A   1      32.612  24.212  25.083  1.00  0.00     0.011 C 
ATOM      7  N   UNL A   1      31.240  26.506  24.009  1.00  0.00    -0.327 N 
ATOM      8  C   UNL A   1      30.818  25.889  25.266  1.00  0.00     0.262 C 
ATOM      9  C   UNL A   1      31.940  25.565  23.121  1.00  0.00     0.262 C 
ATOM     10  H   UNL A   1      31.952  27.208  24.211  1.00  0.00     0.348 HD
ATOM     11  C   UNL A   1      32.038  25.333  25.956  1.00  0.00     0.066 C 
ATOM     12  C   UNL A   1      33.122  24.835  23.788  1.00  0.00     0.066 C 
BRANCH   7  13
ATOM     13  C   UNL A   1      30.121  27.245  23.393  1.00  0.00     0.363 C 
BRANCH  13  14
ATOM     14  C   UNL A   1      30.428  28.680  22.937  1.00  0.00     0.279 C 
ATOM     15  N   UNL A   1      31.300  29.524  23.564  1.00  0.00    -0.321 N 
ATOM     16  H   UNL A   1      31.392  30.395  23.115  1.00  0.00     0.170 HD
ATOM     17  O   UNL A   1      29.894  29.116  21.904  1.00  0.00    -0.268 OA
BRANCH  15  18
ATOM     18  C   UNL A   1      32.093  29.399  24.718  1.00  0.00     0.044 A 
ATOM     19  C   UNL A   1      34.116  28.641  23.300  1.00  0.00     0.046 C 
ATOM     20  C   UNL A   1      33.400  28.880  24.603  1.00  0.00    -0.027 A 
ATOM     21  C   UNL A   1      34.106  28.551  25.776  1.00  0.00     0.005 A 
ATOM     22  C   UNL A   1      33.549  28.753  27.036  1.00  0.00     0.000 A 
ATOM     23  C   UNL A   1      31.608  29.718  25.990  1.00  0.00     0.026 A 
ATOM     24  C   UNL A   1      32.311  29.366  27.144  1.00  0.00     0.002 A 
ENDBRANCH  15  18
ENDBRANCH  13  14
ENDBRANCH   7  13
ENDBRANCH   5   6
ENDBRANCH   3   5
ENDBRANCH   2   3
ENDBRANCH   1   2
BRANCH   1  25
ATOM     25  C   UNL A   1      37.327  23.533  25.759  1.00  0.00     0.275 C 
BRANCH  25  26
ATOM     26  O   UNL A   1      37.890  24.378  26.792  1.00  0.00    -0.458 OA
BRANCH  26  27
ATOM     27  C   UNL A   1      39.146  24.112  27.281  1.00  0.00     0.338 C 
ATOM     28  O   UNL A   1      39.695  23.031  27.255  1.00  0.00    -0.246 OA
BRANCH  27  29
ATOM     29  C   UNL A   1      39.814  25.415  27.576  1.00  0.00     0.060 A 
ATOM     30  C   UNL A   1      40.276  26.296  26.581  1.00  0.00     0.016 A 
ATOM     31  C   UNL A   1      39.618  25.876  28.862  1.00  0.00     0.016 A 
ATOM     32  C   UNL A   1      40.412  27.664  26.878  1.00  0.00     0.010 A 
ATOM     33  C   UNL A   1      39.381  27.202  29.014  1.00  0.00     0.010 A 
ATOM     34  C   UNL A   1      39.887  28.116  28.084  1.00  0.00    -0.014 A 
BRANCH  34  35
ATOM     35  C   UNL A   1      39.972  29.438  28.695  1.00  0.00     0.031 A 
ATOM     36  C   UNL A   1      38.862  30.399  28.767  1.00  0.00     0.074 A 
ATOM     37  C   UNL A   1      41.031  29.493  29.539  1.00  0.00     0.049 A 
ATOM     38  N   UNL A   1      39.020  31.620  29.137  1.00  0.00    -0.248 NA
ATOM     39  C   UNL A   1      37.474  30.095  28.446  1.00  0.00     0.031 C 
ATOM     40  C   UNL A   1      41.257  30.255  30.750  1.00  0.00     0.029 A 
ATOM     41  N   UNL A   1      42.182  28.710  29.441  1.00  0.00    -0.354 N 
ATOM     42  C   UNL A   1      37.773  32.147  29.412  1.00  0.00     0.074 A 
ATOM     43  C   UNL A   1      36.842  31.215  28.827  1.00  0.00     0.031 C 
ATOM     44  C   UNL A   1      42.553  30.110  31.106  1.00  0.00     0.029 A 
ATOM     45  C   UNL A   1      43.235  29.373  30.044  1.00  0.00     0.049 A 
ATOM     46  H   UNL A   1      42.235  27.826  29.012  1.00  0.00     0.167 HD
ATOM     47  C   UNL A   1      37.687  33.222  30.250  1.00  0.00     0.037 A 
ATOM     48  C   UNL A   1      44.169  29.844  29.160  1.00  0.00     0.037 A 
ATOM     49  C   UNL A   1      39.020  33.533  30.772  1.00  0.00     0.049 A 
ATOM     50  C   UNL A   1      44.034  31.343  28.976  1.00  0.00     0.074 A 
ATOM     51  C   UNL A   1      39.689  33.222  31.944  1.00  0.00     0.029 A 
ATOM     52  N   UNL A   1      39.983  33.970  29.891  1.00  0.00    -0.354 N 
ATOM     53  N   UNL A   1      43.108  32.070  29.541  1.00  0.00    -0.248 NA
ATOM     54  C   UNL A   1      44.912  32.146  28.133  1.00  0.00     0.031 C 
ATOM     55  C   UNL A   1      41.081  33.469  31.732  1.00  0.00     0.029 A 
ATOM     56  C   UNL A   1      41.246  33.935  30.440  1.00  0.00     0.049 A 
ATOM     57  H   UNL A   1      39.791  34.273  28.974  1.00  0.00     0.167 HD
ATOM     58  C   UNL A   1      43.218  33.371  29.157  1.00  0.00     0.074 A 
ATOM     59  C   UNL A   1      44.366  33.369  28.264  1.00  0.00     0.031 C 
ATOM     60  C   UNL A   1      42.357  34.341  29.591  1.00  0.00     0.037 A 
BRANCH  47  61
ATOM     61  C   UNL A   1      36.441  33.892  30.802  1.00  0.00     0.058 A 
ATOM     62  C   UNL A   1      35.438  34.346  29.911  1.00  0.00     0.135 A 
ATOM     63  C   UNL A   1      36.134  34.082  32.165  1.00  0.00     0.135 A 
ATOM     64  F   UNL A   1      35.545  34.183  28.585  1.00  0.00    -0.206 F 
ATOM     65  C   UNL A   1      34.270  34.986  30.323  1.00  0.00     0.059 A 
ATOM     66  C   UNL A   1      34.974  34.745  32.605  1.00  0.00     0.059 A 
ATOM     67  F   UNL A   1      36.917  33.593  33.134  1.00  0.00    -0.206 F 
ATOM     68  C   UNL A   1      34.049  35.197  31.673  1.00  0.00     0.060 A 
BRANCH  68  69
ATOM     69  S   UNL A   1      32.531  36.037  32.164  1.00  0.00     0.124 S 
ATOM     70  O   UNL A   1      32.997  36.893  33.251  1.00  0.00    -0.237 OA
ATOM     71  O   UNL A   1      32.149  36.724  30.936  1.00  0.00    -0.237 OA
ATOM     72  O   UNL A   1      31.652  34.943  32.570  1.00  0.00    -0.744 OA
ENDBRANCH  68  69
ENDBRANCH  47  61
BRANCH  48  73
ATOM     73  C   UNL A   1      44.447  28.812  28.078  1.00  0.00     0.058 A 
ATOM     74  C   UNL A   1      45.106  27.621  28.468  1.00  0.00     0.135 A 
ATOM     75  C   UNL A   1      43.703  28.748  26.885  1.00  0.00     0.135 A 
ATOM     76  F   UNL A   1      45.814  27.593  29.611  1.00  0.00    -0.206 F 
ATOM     77  C   UNL A   1      44.929  26.410  27.796  1.00  0.00     0.059 A 
ATOM     78  C   UNL A   1      43.525  27.542  26.186  1.00  0.00     0.059 A 
ATOM     79  F   UNL A   1      43.029  29.824  26.451  1.00  0.00    -0.206 F 
ATOM     80  C   UNL A   1      44.104  26.370  26.677  1.00  0.00     0.060 A 
BRANCH  80  81
ATOM     81  S   UNL A   1      43.679  24.745  25.988  1.00  0.00     0.124 S 
ATOM     82  O   UNL A   1      42.805  25.106  24.879  1.00  0.00    -0.237 OA
ATOM     83  O   UNL A   1      44.993  24.227  25.614  1.00  0.00    -0.237 OA
ATOM     84  O   UNL A   1      43.033  24.059  27.102  1.00  0.00    -0.744 OA
ENDBRANCH  80  81
ENDBRANCH  48  73
BRANCH  60  85
ATOM     85  C   UNL A   1      42.482  35.788  29.207  1.00  0.00     0.058 A 
ATOM     86  C   UNL A   1      41.848  36.306  28.070  1.00  0.00     0.135 A 
ATOM     87  C   UNL A   1      43.331  36.681  29.904  1.00  0.00     0.135 A 
ATOM     88  F   UNL A   1      41.115  35.517  27.269  1.00  0.00    -0.206 F 
ATOM     89  C   UNL A   1      41.960  37.646  27.712  1.00  0.00     0.059 A 
ATOM     90  C   UNL A   1      43.515  38.000  29.523  1.00  0.00     0.059 A 
ATOM     91  F   UNL A   1      43.993  36.326  31.013  1.00  0.00    -0.206 F 
ATOM     92  C   UNL A   1      42.788  38.487  28.451  1.00  0.00     0.060 A 
BRANCH  92  93
ATOM     93  S   UNL A   1      42.909  40.223  28.011  1.00  0.00     0.124 S 
ATOM     94  O   UNL A   1      43.957  40.215  26.994  1.00  0.00    -0.237 OA
ATOM     95  O   UNL A   1      41.558  40.490  27.526  1.00  0.00    -0.237 OA
ATOM     96  O   UNL A   1      43.266  40.872  29.268  1.00  0.00    -0.744 OA
ENDBRANCH  92  93
ENDBRANCH  60  85
ENDBRANCH  34  35
ENDBRANCH  27  29
ENDBRANCH  26  27
ENDBRANCH  25  26
ENDBRANCH   1  25
TORSDOF 18
ENDMDL
MODEL 2
REMARK VINA RESULT:     -12.5      1.708      2.719
REMARK SMILES Cc1ccccc1NC(=O)C[NH+]1CCC(CC(=O)OCCOC(=O)c2ccc(-c3c4nc(c(-c5c(F)cc(S(=O)(=O)[O-])cc5F)c5ccc([nH]5)c(-c5c(F)cc(S(=O)(=O)[O-])cc5F)c5nc(c(-c6c(F)cc(S(=O)(=O)[O-])cc6F)c6ccc3[nH]6)C=C5)C=C4)cc2)CC1
REMARK SMILES IDX 20 1 19 2 17 3 18 4 16 5 15 6 12 7 13 8 92 9 14 11 91 12
REMARK SMILES IDX 11 13 9 14 8 15 10 17 7 18 1 19 2 20 3 21 4 22 6 23 5 24
REMARK SMILES IDX 21 25 22 26 23 27 24 28 25 29 26 30 90 31 27 32 89 33 28 34
REMARK SMILES IDX 29 35 30 36 83 37 31 38 88 39 82 40 84 41 32 42 87 43 81 44
REMARK SMILES IDX 80 45 33 47 67 48 46 49 66 50 47 51 50 52 65 53 85 54 48 55
REMARK SMILES IDX 49 56 64 58 86 59 51 60 34 61 35 62 44 63 36 64 37 65 43 66
REMARK SMILES IDX 45 67 38 68 39 69 40 70 41 71 42 72 68 73 69 74 78 75 70 76
REMARK SMILES IDX 71 77 77 78 79 79 72 80 73 81 74 82 75 83 76 84 52 85 53 86
REMARK SMILES IDX 62 87 54 88 55 89 61 90 63 91 56 92 57 93 58 94 59 95 60 96
REMARK H PARENT 12 10 8 16 84 46 50 57
REMARK Flexibility Score: inf
ROOT
ATOM      1  C   UNL A   1      39.313  21.593  26.378  1.00  0.00     0.274 C 
ENDROOT
BRANCH   1   2
ATOM      2  O   UNL A   1      38.134  22.342  26.022  1.00  0.00    -0.462 OA
BRANCH   2   3
ATOM      3  C   UNL A   1      37.398  21.822  25.025  1.00  0.00     0.306 C 
ATOM      4  O   UNL A   1      37.236  20.617  24.885  1.00  0.00    -0.252 OA
BRANCH   3   5
ATOM      5  C   UNL A   1      36.772  22.881  24.136  1.00  0.00     0.126 C 
BRANCH   5   6
ATOM      6  C   UNL A   1      35.270  22.704  24.254  1.00  0.00     0.011 C 
ATOM      7  N   UNL A   1      32.497  23.422  24.571  1.00  0.00    -0.327 N 
ATOM      8  C   UNL A   1      33.360  23.197  25.729  1.00  0.00     0.262 C 
ATOM      9  C   UNL A   1      32.955  22.700  23.373  1.00  0.00     0.262 C 
ATOM     10  H   UNL A   1      32.570  24.401  24.292  1.00  0.00     0.348 HD
ATOM     11  C   UNL A   1      34.761  23.623  25.369  1.00  0.00     0.066 C 
ATOM     12  C   UNL A   1      34.430  22.962  23.008  1.00  0.00     0.066 C 
BRANCH   7  13
ATOM     13  C   UNL A   1      31.081  23.216  24.930  1.00  0.00     0.363 C 
BRANCH  13  14
ATOM     14  C   UNL A   1      30.585  23.963  26.178  1.00  0.00     0.279 C 
ATOM     15  N   UNL A   1      30.300  25.298  26.222  1.00  0.00    -0.321 N 
ATOM     16  H   UNL A   1      29.967  25.599  27.098  1.00  0.00     0.170 HD
ATOM     17  O   UNL A   1      30.379  23.327  27.224  1.00  0.00    -0.268 OA
BRANCH  15  18
ATOM     18  C   UNL A   1      30.384  26.328  25.268  1.00  0.00     0.044 A 
ATOM     19  C   UNL A   1      32.527  27.244  26.384  1.00  0.00     0.046 C 
ATOM     20  C   UNL A   1      31.384  27.315  25.407  1.00  0.00    -0.027 A 
ATOM     21  C   UNL A   1      31.329  28.458  24.586  1.00  0.00     0.005 A 
ATOM     22  C   UNL A   1      30.328  28.614  23.631  1.00  0.00     0.000 A 
ATOM     23  C   UNL A   1      29.471  26.442  24.216  1.00  0.00     0.026 A 
ATOM     24  C   UNL A   1      29.417  27.591  23.424  1.00  0.00     0.002 A 
ENDBRANCH  15  18
ENDBRANCH  13  14
ENDBRANCH   7  13
ENDBRANCH   5   6
ENDBRANCH   3   5
ENDBRANCH   2   3
ENDBRANCH   1   2
BRANCH   1  25
ATOM     25  C   UNL A   1      40.664  22.363  26.564  1.00  0.00     0.275 C 
BRANCH  25  26
ATOM     26  O   UNL A   1      40.629  23.651  27.227  1.00  0.00    -0.458 OA
BRANCH  26  27
ATOM     27  C   UNL A   1      41.053  24.773  26.557  1.00  0.00     0.338 C 
ATOM     28  O   UNL A   1      41.627  24.779  25.489  1.00  0.00    -0.246 OA
BRANCH  27  29
ATOM     29  C   UNL A   1      40.440  25.965  27.217  1.00  0.00     0.060 A 
ATOM     30  C   UNL A   1      39.931  25.954  28.529  1.00  0.00     0.016 A 
ATOM     31  C   UNL A   1      40.737  27.168  26.608  1.00  0.00     0.016 A 
ATOM     32  C   UNL A   1      39.850  27.159  29.250  1.00  0.00     0.010 A 
ATOM     33  C   UNL A   1      41.017  28.219  27.418  1.00  0.00     0.010 A 
ATOM     34  C   UNL A   1      40.469  28.278  28.704  1.00  0.00    -0.014 A 
BRANCH  34  35
ATOM     35  C   UNL A   1      40.460  29.661  29.166  1.00  0.00     0.031 A 
ATOM     36  C   UNL A   1      39.282  30.539  29.153  1.00  0.00     0.074 A 
ATOM     37  C   UNL A   1      41.520  29.886  29.981  1.00  0.00     0.049 A 
ATOM     38  N   UNL A   1      39.351  31.802  29.387  1.00  0.00    -0.248 NA
ATOM     39  C   UNL A   1      37.918  30.102  28.893  1.00  0.00     0.031 C 
ATOM     40  C   UNL A   1      41.700  30.789  31.099  1.00  0.00     0.029 A 
ATOM     41  N   UNL A   1      42.725  29.184  29.948  1.00  0.00    -0.354 N 
ATOM     42  C   UNL A   1      38.071  32.263  29.625  1.00  0.00     0.074 A 
ATOM     43  C   UNL A   1      37.207  31.207  29.161  1.00  0.00     0.031 C 
ATOM     44  C   UNL A   1      43.006  30.780  31.446  1.00  0.00     0.029 A 
ATOM     45  C   UNL A   1      43.731  29.984  30.457  1.00  0.00     0.049 A 
ATOM     46  H   UNL A   1      42.841  28.264  29.616  1.00  0.00     0.167 HD
ATOM     47  C   UNL A   1      37.913  33.414  30.344  1.00  0.00     0.037 A 
ATOM     48  C   UNL A   1      44.620  30.423  29.511  1.00  0.00     0.037 A 
ATOM     49  C   UNL A   1      39.223  33.877  30.805  1.00  0.00     0.049 A 
ATOM     50  C   UNL A   1      44.370  31.879  29.168  1.00  0.00     0.074 A 
ATOM     51  C   UNL A   1      39.925  33.746  31.992  1.00  0.00     0.029 A 
ATOM     52  N   UNL A   1      40.142  34.285  29.865  1.00  0.00    -0.354 N 
ATOM     53  N   UNL A   1      43.398  32.593  29.668  1.00  0.00    -0.248 NA
ATOM     54  C   UNL A   1      45.177  32.647  28.228  1.00  0.00     0.031 C 
ATOM     55  C   UNL A   1      41.293  34.070  31.730  1.00  0.00     0.029 A 
ATOM     56  C   UNL A   1      41.410  34.403  30.392  1.00  0.00     0.049 A 
ATOM     57  H   UNL A   1      39.919  34.471  28.925  1.00  0.00     0.167 HD
ATOM     58  C   UNL A   1      43.406  33.849  29.144  1.00  0.00     0.074 A 
ATOM     59  C   UNL A   1      44.542  33.834  28.236  1.00  0.00     0.031 C 
ATOM     60  C   UNL A   1      42.479  34.794  29.485  1.00  0.00     0.037 A 
BRANCH  47  61
ATOM     61  C   UNL A   1      36.625  34.046  30.842  1.00  0.00     0.058 A 
ATOM     62  C   UNL A   1      35.596  34.356  29.919  1.00  0.00     0.135 A 
ATOM     63  C   UNL A   1      36.305  34.332  32.185  1.00  0.00     0.135 A 
ATOM     64  F   UNL A   1      35.715  34.088  28.612  1.00  0.00    -0.206 F 
ATOM     65  C   UNL A   1      34.388  34.952  30.281  1.00  0.00     0.059 A 
ATOM     66  C   UNL A   1      35.104  34.954  32.572  1.00  0.00     0.059 A 
ATOM     67  F   UNL A   1      37.118  33.980  33.189  1.00  0.00    -0.206 F 
ATOM     68  C   UNL A   1      34.153  35.263  31.609  1.00  0.00     0.060 A 
BRANCH  68  69
ATOM     69  S   UNL A   1      32.583  36.042  32.033  1.00  0.00     0.124 S 
ATOM     70  O   UNL A   1      31.795  34.903  32.496  1.00  0.00    -0.237 OA
ATOM     71  O   UNL A   1      32.980  36.997  33.060  1.00  0.00    -0.237 OA
ATOM     72  O   UNL A   1      32.141  36.628  30.770  1.00  0.00    -0.744 OA
ENDBRANCH  68  69
ENDBRANCH  47  61
BRANCH  48  73
ATOM     73  C   UNL A   1      44.963  29.303  28.542  1.00  0.00     0.058 A 
ATOM     74  C   UNL A   1      44.387  29.361  27.249  1.00  0.00     0.135 A 
ATOM     75  C   UNL A   1      46.128  28.524  28.668  1.00  0.00     0.135 A 
ATOM     76  F   UNL A   1      43.288  30.107  27.042  1.00  0.00    -0.206 F 
ATOM     77  C   UNL A   1      45.000  28.799  26.128  1.00  0.00     0.059 A 
ATOM     78  C   UNL A   1      46.753  27.937  27.554  1.00  0.00     0.059 A 
ATOM     79  F   UNL A   1      46.753  28.429  29.851  1.00  0.00    -0.206 F 
ATOM     80  C   UNL A   1      46.205  28.122  26.282  1.00  0.00     0.060 A 
BRANCH  80  81
ATOM     81  S   UNL A   1      47.110  27.639  24.784  1.00  0.00     0.124 S 
ATOM     82  O   UNL A   1      46.783  28.727  23.870  1.00  0.00    -0.237 OA
ATOM     83  O   UNL A   1      48.489  27.609  25.264  1.00  0.00    -0.237 OA
ATOM     84  O   UNL A   1      46.540  26.339  24.444  1.00  0.00    -0.744 OA
ENDBRANCH  80  81
ENDBRANCH  48  73
BRANCH  60  85
ATOM     85  C   UNL A   1      42.491  36.196  28.945  1.00  0.00     0.058 A 
ATOM     86  C   UNL A   1      41.895  36.519  27.719  1.00  0.00     0.135 A 
ATOM     87  C   UNL A   1      43.197  37.244  29.585  1.00  0.00     0.135 A 
ATOM     88  F   UNL A   1      41.301  35.575  26.972  1.00  0.00    -0.206 F 
ATOM     89  C   UNL A   1      41.903  37.817  27.216  1.00  0.00     0.059 A 
ATOM     90  C   UNL A   1      43.280  38.525  29.066  1.00  0.00     0.059 A 
ATOM     91  F   UNL A   1      43.808  37.082  30.766  1.00  0.00    -0.206 F 
ATOM     92  C   UNL A   1      42.590  38.814  27.903  1.00  0.00     0.060 A 
BRANCH  92  93
ATOM     93  S   UNL A   1      42.574  40.495  27.273  1.00  0.00     0.124 S 
ATOM     94  O   UNL A   1      41.162  40.852  27.370  1.00  0.00    -0.237 OA
ATOM     95  O   UNL A   1      43.464  41.163  28.218  1.00  0.00    -0.237 OA
ATOM     96  O   UNL A   1      43.090  40.357  25.914  1.00  0.00    -0.744 OA
ENDBRANCH  92  93
ENDBRANCH  60  85
ENDBRANCH  34  35
ENDBRANCH  27  29
ENDBRANCH  26  27
ENDBRANCH  25  26
ENDBRANCH   1  25
TORSDOF 18
ENDMDL
MODEL 3
REMARK VINA RESULT:     -12.4      1.296      1.839
REMARK SMILES Cc1ccccc1NC(=O)C[NH+]1CCC(CC(=O)OCCOC(=O)c2ccc(-c3c4nc(c(-c5c(F)cc(S(=O)(=O)[O-])cc5F)c5ccc([nH]5)c(-c5c(F)cc(S(=O)(=O)[O-])cc5F)c5nc(c(-c6c(F)cc(S(=O)(=O)[O-])cc6F)c6ccc3[nH]6)C=C5)C=C4)cc2)CC1
REMARK SMILES IDX 20 1 19 2 17 3 18 4 16 5 15 6 12 7 13 8 92 9 14 11 91 12
REMARK SMILES IDX 11 13 9 14 8 15 10 17 7 18 1 19 2 20 3 21 4 22 6 23 5 24
REMARK SMILES IDX 21 25 22 26 23 27 24 28 25 29 26 30 90 31 27 32 89 33 28 34
REMARK SMILES IDX 29 35 30 36 83 37 31 38 88 39 82 40 84 41 32 42 87 43 81 44
REMARK SMILES IDX 80 45 33 47 67 48 46 49 66 50 47 51 50 52 65 53 85 54 48 55
REMARK SMILES IDX 49 56 64 58 86 59 51 60 34 61 35 62 44 63 36 64 37 65 43 66
REMARK SMILES IDX 45 67 38 68 39 69 40 70 41 71 42 72 68 73 69 74 78 75 70 76
REMARK SMILES IDX 71 77 77 78 79 79 72 80 73 81 74 82 75 83 76 84 52 85 53 86
REMARK SMILES IDX 62 87 54 88 55 89 61 90 63 91 56 92 57 93 58 94 59 95 60 96
REMARK H PARENT 12 10 8 16 84 46 50 57
REMARK Flexibility Score: inf
ROOT
ATOM      1  C   UNL A   1      35.835  22.114  25.406  1.00  0.00     0.274 C 
ENDROOT
BRANCH   1   2
ATOM      2  O   UNL A   1      34.849  21.925  24.371  1.00  0.00    -0.462 OA
BRANCH   2   3
ATOM      3  C   UNL A   1      33.569  21.949  24.781  1.00  0.00     0.306 C 
ATOM      4  O   UNL A   1      32.755  21.097  24.451  1.00  0.00    -0.252 OA
BRANCH   3   5
ATOM      5  C   UNL A   1      33.267  23.109  25.711  1.00  0.00     0.126 C 
BRANCH   5   6
ATOM      6  C   UNL A   1      32.307  24.017  24.963  1.00  0.00     0.011 C 
ATOM      7  N   UNL A   1      31.068  26.458  24.065  1.00  0.00    -0.327 N 
ATOM      8  C   UNL A   1      30.653  25.809  25.307  1.00  0.00     0.262 C 
ATOM      9  C   UNL A   1      31.658  25.515  23.101  1.00  0.00     0.262 C 
ATOM     10  H   UNL A   1      31.840  27.094  24.268  1.00  0.00     0.348 HD
ATOM     11  C   UNL A   1      31.856  25.131  25.914  1.00  0.00     0.066 C 
ATOM     12  C   UNL A   1      32.809  24.667  23.678  1.00  0.00     0.066 C 
BRANCH   7  13
ATOM     13  C   UNL A   1      29.984  27.308  23.536  1.00  0.00     0.363 C 
BRANCH  13  14
ATOM     14  C   UNL A   1      30.410  28.669  22.964  1.00  0.00     0.279 C 
ATOM     15  N   UNL A   1      31.344  29.491  23.529  1.00  0.00    -0.321 N 
ATOM     16  H   UNL A   1      31.509  30.311  23.009  1.00  0.00     0.170 HD
ATOM     17  O   UNL A   1      29.919  29.057  21.891  1.00  0.00    -0.268 OA
BRANCH  15  18
ATOM     18  C   UNL A   1      32.116  29.402  24.700  1.00  0.00     0.044 A 
ATOM     19  C   UNL A   1      34.103  28.425  23.367  1.00  0.00     0.046 C 
ATOM     20  C   UNL A   1      33.390  28.798  24.641  1.00  0.00    -0.027 A 
ATOM     21  C   UNL A   1      34.064  28.512  25.844  1.00  0.00     0.005 A 
ATOM     22  C   UNL A   1      33.508  28.837  27.078  1.00  0.00     0.000 A 
ATOM     23  C   UNL A   1      31.639  29.839  25.940  1.00  0.00     0.026 A 
ATOM     24  C   UNL A   1      32.309  29.529  27.125  1.00  0.00     0.002 A 
ENDBRANCH  15  18
ENDBRANCH  13  14
ENDBRANCH   7  13
ENDBRANCH   5   6
ENDBRANCH   3   5
ENDBRANCH   2   3
ENDBRANCH   1   2
BRANCH   1  25
ATOM     25  C   UNL A   1      37.136  22.915  25.066  1.00  0.00     0.275 C 
BRANCH  25  26
ATOM     26  O   UNL A   1      37.752  23.696  26.120  1.00  0.00    -0.458 OA
BRANCH  26  27
ATOM     27  C   UNL A   1      38.970  23.313  26.628  1.00  0.00     0.338 C 
ATOM     28  O   UNL A   1      39.474  22.218  26.495  1.00  0.00    -0.246 OA
BRANCH  27  29
ATOM     29  C   UNL A   1      39.676  24.538  27.108  1.00  0.00     0.060 A 
ATOM     30  C   UNL A   1      40.235  25.504  26.250  1.00  0.00     0.016 A 
ATOM     31  C   UNL A   1      39.426  24.858  28.428  1.00  0.00     0.016 A 
ATOM     32  C   UNL A   1      40.413  26.820  26.712  1.00  0.00     0.010 A 
ATOM     33  C   UNL A   1      39.239  26.169  28.722  1.00  0.00     0.010 A 
ATOM     34  C   UNL A   1      39.839  27.157  27.933  1.00  0.00    -0.014 A 
BRANCH  34  35
ATOM     35  C   UNL A   1      39.946  28.393  28.698  1.00  0.00     0.031 A 
ATOM     36  C   UNL A   1      38.994  29.510  28.621  1.00  0.00     0.074 A 
ATOM     37  C   UNL A   1      40.758  28.210  29.768  1.00  0.00     0.049 A 
ATOM     38  N   UNL A   1      39.218  30.656  29.159  1.00  0.00    -0.248 NA
ATOM     39  C   UNL A   1      37.703  29.460  27.950  1.00  0.00     0.031 C 
ATOM     40  C   UNL A   1      40.776  28.824  31.080  1.00  0.00     0.029 A 
ATOM     41  N   UNL A   1      41.780  27.264  29.852  1.00  0.00    -0.354 N 
ATOM     42  C   UNL A   1      38.025  31.351  29.194  1.00  0.00     0.074 A 
ATOM     43  C   UNL A   1      37.152  30.632  28.302  1.00  0.00     0.031 C 
ATOM     44  C   UNL A   1      41.909  28.445  31.711  1.00  0.00     0.029 A 
ATOM     45  C   UNL A   1      42.729  27.698  30.759  1.00  0.00     0.049 A 
ATOM     46  H   UNL A   1      41.819  26.420  29.345  1.00  0.00     0.167 HD
ATOM     47  C   UNL A   1      37.879  32.355  30.110  1.00  0.00     0.037 A 
ATOM     48  C   UNL A   1      43.910  28.083  30.181  1.00  0.00     0.037 A 
ATOM     49  C   UNL A   1      39.068  32.405  30.963  1.00  0.00     0.049 A 
ATOM     50  C   UNL A   1      44.028  29.596  30.148  1.00  0.00     0.074 A 
ATOM     51  C   UNL A   1      39.375  31.897  32.214  1.00  0.00     0.029 A 
ATOM     52  N   UNL A   1      40.270  32.753  30.390  1.00  0.00    -0.354 N 
ATOM     53  N   UNL A   1      43.098  30.412  30.562  1.00  0.00    -0.248 NA
ATOM     54  C   UNL A   1      45.189  30.313  29.636  1.00  0.00     0.031 C 
ATOM     55  C   UNL A   1      40.796  31.935  32.366  1.00  0.00     0.029 A 
ATOM     56  C   UNL A   1      41.340  32.472  31.212  1.00  0.00     0.049 A 
ATOM     57  H   UNL A   1      40.356  33.156  29.496  1.00  0.00     0.167 HD
ATOM     58  C   UNL A   1      43.475  31.706  30.371  1.00  0.00     0.074 A 
ATOM     59  C   UNL A   1      44.798  31.593  29.779  1.00  0.00     0.031 C 
ATOM     60  C   UNL A   1      42.672  32.762  30.702  1.00  0.00     0.037 A 
BRANCH  47  61
ATOM     61  C   UNL A   1      36.636  33.168  30.428  1.00  0.00     0.058 A 
ATOM     62  C   UNL A   1      35.999  33.903  29.400  1.00  0.00     0.135 A 
ATOM     63  C   UNL A   1      35.990  33.242  31.680  1.00  0.00     0.135 A 
ATOM     64  F   UNL A   1      36.448  33.887  28.137  1.00  0.00    -0.206 F 
ATOM     65  C   UNL A   1      34.865  34.690  29.600  1.00  0.00     0.059 A 
ATOM     66  C   UNL A   1      34.861  34.047  31.913  1.00  0.00     0.059 A 
ATOM     67  F   UNL A   1      36.393  32.503  32.721  1.00  0.00    -0.206 F 
ATOM     68  C   UNL A   1      34.307  34.771  30.865  1.00  0.00     0.060 A 
BRANCH  68  69
ATOM     69  S   UNL A   1      32.848  35.807  31.085  1.00  0.00     0.124 S 
ATOM     70  O   UNL A   1      33.435  37.061  31.549  1.00  0.00    -0.237 OA
ATOM     71  O   UNL A   1      32.284  35.831  29.741  1.00  0.00    -0.237 OA
ATOM     72  O   UNL A   1      32.063  35.083  32.081  1.00  0.00    -0.744 OA
ENDBRANCH  68  69
ENDBRANCH  47  61
BRANCH  48  73
ATOM     73  C   UNL A   1      44.306  27.113  29.080  1.00  0.00     0.058 A 
ATOM     74  C   UNL A   1      44.738  25.822  29.475  1.00  0.00     0.135 A 
ATOM     75  C   UNL A   1      43.837  27.233  27.759  1.00  0.00     0.135 A 
ATOM     76  F   UNL A   1      45.175  25.620  30.730  1.00  0.00    -0.206 F 
ATOM     77  C   UNL A   1      44.587  24.698  28.661  1.00  0.00     0.059 A 
ATOM     78  C   UNL A   1      43.690  26.116  26.919  1.00  0.00     0.059 A 
ATOM     79  F   UNL A   1      43.388  28.414  27.307  1.00  0.00    -0.206 F 
ATOM     80  C   UNL A   1      44.024  24.847  27.397  1.00  0.00     0.060 A 
BRANCH  80  81
ATOM     81  S   UNL A   1      43.593  23.344  26.474  1.00  0.00     0.124 S 
ATOM     82  O   UNL A   1      44.883  22.675  26.367  1.00  0.00    -0.237 OA
ATOM     83  O   UNL A   1      42.625  22.712  27.368  1.00  0.00    -0.237 OA
ATOM     84  O   UNL A   1      43.044  23.857  25.223  1.00  0.00    -0.744 OA
ENDBRANCH  80  81
ENDBRANCH  48  73
BRANCH  60  85
ATOM     85  C   UNL A   1      43.083  34.197  30.532  1.00  0.00     0.058 A 
ATOM     86  C   UNL A   1      43.309  35.035  31.633  1.00  0.00     0.135 A 
ATOM     87  C   UNL A   1      43.160  34.813  29.259  1.00  0.00     0.135 A 
ATOM     88  F   UNL A   1      43.147  34.583  32.887  1.00  0.00    -0.206 F 
ATOM     89  C   UNL A   1      43.691  36.364  31.480  1.00  0.00     0.059 A 
ATOM     90  C   UNL A   1      43.468  36.153  29.087  1.00  0.00     0.059 A 
ATOM     91  F   UNL A   1      42.977  34.133  28.120  1.00  0.00    -0.206 F 
ATOM     92  C   UNL A   1      43.778  36.910  30.202  1.00  0.00     0.060 A 
BRANCH  92  93
ATOM     93  S   UNL A   1      44.302  38.615  30.000  1.00  0.00     0.124 S 
ATOM     94  O   UNL A   1      44.043  39.180  31.322  1.00  0.00    -0.237 OA
ATOM     95  O   UNL A   1      45.709  38.442  29.649  1.00  0.00    -0.237 OA
ATOM     96  O   UNL A   1      43.444  39.114  28.931  1.00  0.00    -0.744 OA
ENDBRANCH  92  93
ENDBRANCH  60  85
ENDBRANCH  34  35
ENDBRANCH  27  29
ENDBRANCH  26  27
ENDBRANCH  25  26
ENDBRANCH   1  25
TORSDOF 18
ENDMDL
