MODEL 1
REMARK VINA RESULT:     -11.3      0.000      0.000
REMARK SMILES COc1ccc(C(=O)Nc2ccccc2C(=O)N[C@@H](C(=O)OCCOC(=O)c2ccc(-c3c4nc(c(-c5c(F)cc(S(=O)(=O)[O-])cc5F)c5ccc([nH]5)c(-c5c(F)cc(S(=O)(=O)[O-])cc5F)c5nc(c(-c6c(F)cc(S(=O)(=O)[O-])cc6F)c6ccc3[nH]6)C=C5)C=C4)cc2)C(C)C)cc1
REMARK SMILES IDX 23 1 22 2 20 3 21 4 19 5 18 6 16 7 17 8 15 10 10 11 11 12
REMARK SMILES IDX 12 13 14 14 13 15 9 16 7 17 8 18 6 20 3 21 4 22 98 23 5 24
REMARK SMILES IDX 97 25 2 26 1 27 94 28 95 29 96 30 24 31 25 32 26 33 27 34
REMARK SMILES IDX 28 35 29 36 93 37 30 38 92 39 31 40 32 41 33 42 86 43 34 44
REMARK SMILES IDX 91 45 85 46 87 47 35 48 90 49 84 50 83 51 36 53 70 54 49 55
REMARK SMILES IDX 69 56 50 57 53 58 68 59 88 60 51 61 52 62 67 64 89 65 54 66
REMARK SMILES IDX 37 67 38 68 47 69 39 70 40 71 46 72 48 73 41 74 42 75 43 76
REMARK SMILES IDX 44 77 45 78 71 79 72 80 81 81 73 82 74 83 80 84 82 85 75 86
REMARK SMILES IDX 76 87 77 88 78 89 79 90 55 91 56 92 65 93 57 94 58 95 64 96
REMARK SMILES IDX 66 97 59 98 60 99 61 100 62 101 63 102
REMARK H PARENT 18 9 9 19 87 52 53 63
REMARK Flexibility Score: inf
ROOT
ATOM      1  C   UNL A   1      35.880  23.956  26.274  1.00  0.00     0.274 C 
ENDROOT
BRANCH   1   2
ATOM      2  O   UNL A   1      34.462  23.686  26.204  1.00  0.00    -0.461 OA
BRANCH   2   3
ATOM      3  C   UNL A   1      34.052  22.476  26.684  1.00  0.00     0.329 C 
ATOM      4  O   UNL A   1      34.475  21.978  27.723  1.00  0.00    -0.250 OA
BRANCH   3   5
ATOM      5  C   UNL A   1      32.933  21.817  25.822  1.00  0.00     0.195 C 
BRANCH   5   6
ATOM      6  N   UNL A   1      31.627  22.014  26.469  1.00  0.00    -0.338 N 
ATOM      7  C   UNL A   1      30.718  23.049  26.466  1.00  0.00     0.254 C 
ATOM      8  O   UNL A   1      29.921  23.064  27.408  1.00  0.00    -0.269 OA
ATOM      9  H   UNL A   1      31.343  21.247  27.017  1.00  0.00     0.164 HD
BRANCH   7  10
ATOM     10  C   UNL A   1      30.634  24.157  25.457  1.00  0.00     0.063 A 
ATOM     11  C   UNL A   1      30.330  25.504  25.686  1.00  0.00     0.054 A 
ATOM     12  C   UNL A   1      30.046  26.365  24.609  1.00  0.00     0.027 A 
ATOM     13  C   UNL A   1      30.303  25.968  23.302  1.00  0.00     0.002 A 
ATOM     14  C   UNL A   1      30.923  23.789  24.124  1.00  0.00     0.016 A 
ATOM     15  C   UNL A   1      30.800  24.696  23.064  1.00  0.00     0.001 A 
BRANCH  11  16
ATOM     16  N   UNL A   1      30.471  26.174  26.907  1.00  0.00    -0.321 N 
ATOM     17  C   UNL A   1      31.274  27.268  27.144  1.00  0.00     0.255 C 
ATOM     18  O   UNL A   1      31.088  27.937  28.158  1.00  0.00    -0.269 OA
ATOM     19  H   UNL A   1      29.948  25.830  27.668  1.00  0.00     0.170 HD
BRANCH  17  20
ATOM     20  C   UNL A   1      32.260  27.745  26.155  1.00  0.00     0.040 A 
ATOM     21  C   UNL A   1      33.826  28.437  23.975  1.00  0.00     0.118 A 
ATOM     22  C   UNL A   1      32.855  29.323  24.412  1.00  0.00     0.047 A 
ATOM     23  C   UNL A   1      34.089  27.254  24.671  1.00  0.00     0.047 A 
ATOM     24  C   UNL A   1      32.060  28.957  25.490  1.00  0.00     0.017 A 
ATOM     25  C   UNL A   1      33.296  26.900  25.764  1.00  0.00     0.017 A 
BRANCH  21  26
ATOM     26  O   UNL A   1      34.480  28.739  22.813  1.00  0.00    -0.497 OA
ATOM     27  C   UNL A   1      33.910  27.982  21.742  1.00  0.00     0.278 C 
ENDBRANCH  21  26
ENDBRANCH  17  20
ENDBRANCH  11  16
ENDBRANCH   7  10
ENDBRANCH   5   6
BRANCH   5  28
ATOM     28  C   UNL A   1      33.306  20.311  25.638  1.00  0.00     0.017 C 
ATOM     29  C   UNL A   1      32.290  19.318  25.080  1.00  0.00     0.010 C 
ATOM     30  C   UNL A   1      34.609  20.135  24.846  1.00  0.00     0.010 C 
ENDBRANCH   5  28
ENDBRANCH   3   5
ENDBRANCH   2   3
ENDBRANCH   1   2
BRANCH   1  31
ATOM     31  C   UNL A   1      36.570  23.512  24.986  1.00  0.00     0.275 C 
BRANCH  31  32
ATOM     32  O   UNL A   1      37.940  23.946  25.015  1.00  0.00    -0.458 OA
BRANCH  32  33
ATOM     33  C   UNL A   1      38.746  23.308  25.901  1.00  0.00     0.338 C 
ATOM     34  O   UNL A   1      38.970  22.112  25.949  1.00  0.00    -0.246 OA
BRANCH  33  35
ATOM     35  C   UNL A   1      39.427  24.292  26.776  1.00  0.00     0.060 A 
ATOM     36  C   UNL A   1      39.187  24.276  28.141  1.00  0.00     0.016 A 
ATOM     37  C   UNL A   1      40.152  25.349  26.230  1.00  0.00     0.016 A 
ATOM     38  C   UNL A   1      39.453  25.413  28.909  1.00  0.00     0.010 A 
ATOM     39  C   UNL A   1      40.594  26.397  27.057  1.00  0.00     0.010 A 
ATOM     40  C   UNL A   1      40.186  26.491  28.401  1.00  0.00    -0.014 A 
BRANCH  40  41
ATOM     41  C   UNL A   1      40.479  27.713  29.232  1.00  0.00     0.031 A 
ATOM     42  C   UNL A   1      41.743  27.782  30.066  1.00  0.00     0.074 A 
ATOM     43  C   UNL A   1      39.657  28.788  29.262  1.00  0.00     0.049 A 
ATOM     44  N   UNL A   1      42.019  28.539  31.098  1.00  0.00    -0.248 NA
ATOM     45  C   UNL A   1      42.829  26.857  29.703  1.00  0.00     0.031 C 
ATOM     46  C   UNL A   1      38.437  28.966  28.474  1.00  0.00     0.029 A 
ATOM     47  N   UNL A   1      39.732  29.954  29.997  1.00  0.00    -0.354 N 
ATOM     48  C   UNL A   1      43.249  28.099  31.580  1.00  0.00     0.074 A 
ATOM     49  C   UNL A   1      43.682  27.031  30.703  1.00  0.00     0.031 C 
ATOM     50  C   UNL A   1      37.921  30.179  28.711  1.00  0.00     0.029 A 
ATOM     51  C   UNL A   1      38.669  30.804  29.791  1.00  0.00     0.049 A 
ATOM     52  H   UNL A   1      40.474  30.158  30.611  1.00  0.00     0.167 HD
ATOM     53  C   UNL A   1      43.941  28.532  32.664  1.00  0.00     0.037 A 
ATOM     54  C   UNL A   1      38.264  31.912  30.445  1.00  0.00     0.037 A 
ATOM     55  C   UNL A   1      43.563  29.669  33.464  1.00  0.00     0.049 A 
ATOM     56  C   UNL A   1      39.028  32.379  31.649  1.00  0.00     0.074 A 
ATOM     57  C   UNL A   1      44.206  30.197  34.571  1.00  0.00     0.029 A 
ATOM     58  N   UNL A   1      42.459  30.473  33.224  1.00  0.00    -0.354 N 
ATOM     59  N   UNL A   1      40.111  31.868  32.183  1.00  0.00    -0.248 NA
ATOM     60  C   UNL A   1      38.495  33.547  32.362  1.00  0.00     0.031 C 
ATOM     61  C   UNL A   1      43.473  31.303  35.018  1.00  0.00     0.029 A 
ATOM     62  C   UNL A   1      42.396  31.487  34.167  1.00  0.00     0.049 A 
ATOM     63  H   UNL A   1      41.815  30.343  32.492  1.00  0.00     0.167 HD
ATOM     64  C   UNL A   1      40.384  32.647  33.301  1.00  0.00     0.074 A 
ATOM     65  C   UNL A   1      39.369  33.680  33.350  1.00  0.00     0.031 C 
ATOM     66  C   UNL A   1      41.380  32.509  34.211  1.00  0.00     0.037 A 
BRANCH  53  67
ATOM     67  C   UNL A   1      45.136  27.722  33.094  1.00  0.00     0.058 A 
ATOM     68  C   UNL A   1      45.045  26.634  33.973  1.00  0.00     0.135 A 
ATOM     69  C   UNL A   1      46.411  28.057  32.601  1.00  0.00     0.135 A 
ATOM     70  F   UNL A   1      43.856  26.275  34.483  1.00  0.00    -0.206 F 
ATOM     71  C   UNL A   1      46.178  25.938  34.390  1.00  0.00     0.059 A 
ATOM     72  C   UNL A   1      47.553  27.360  32.982  1.00  0.00     0.059 A 
ATOM     73  F   UNL A   1      46.557  29.084  31.749  1.00  0.00    -0.206 F 
ATOM     74  C   UNL A   1      47.429  26.317  33.896  1.00  0.00     0.060 A 
BRANCH  74  75
ATOM     75  S   UNL A   1      48.898  25.440  34.475  1.00  0.00     0.124 S 
ATOM     76  O   UNL A   1      48.690  25.448  35.920  1.00  0.00    -0.237 OA
ATOM     77  O   UNL A   1      48.767  24.140  33.825  1.00  0.00    -0.237 OA
ATOM     78  O   UNL A   1      50.000  26.268  33.995  1.00  0.00    -0.744 OA
ENDBRANCH  74  75
ENDBRANCH  53  67
BRANCH  54  79
ATOM     79  C   UNL A   1      37.002  32.584  30.027  1.00  0.00     0.058 A 
ATOM     80  C   UNL A   1      35.774  32.260  30.617  1.00  0.00     0.135 A 
ATOM     81  C   UNL A   1      37.017  33.615  29.071  1.00  0.00     0.135 A 
ATOM     82  F   UNL A   1      35.703  31.269  31.519  1.00  0.00    -0.206 F 
ATOM     83  C   UNL A   1      34.607  32.945  30.291  1.00  0.00     0.059 A 
ATOM     84  C   UNL A   1      35.871  34.335  28.753  1.00  0.00     0.059 A 
ATOM     85  F   UNL A   1      38.170  33.969  28.481  1.00  0.00    -0.206 F 
ATOM     86  C   UNL A   1      34.670  33.993  29.369  1.00  0.00     0.060 A 
BRANCH  86  87
ATOM     87  S   UNL A   1      33.177  34.952  29.032  1.00  0.00     0.124 S 
ATOM     88  O   UNL A   1      33.740  36.219  28.578  1.00  0.00    -0.237 OA
ATOM     89  O   UNL A   1      32.514  34.147  28.012  1.00  0.00    -0.237 OA
ATOM     90  O   UNL A   1      32.503  34.987  30.326  1.00  0.00    -0.744 OA
ENDBRANCH  86  87
ENDBRANCH  54  79
BRANCH  66  91
ATOM     91  C   UNL A   1      41.434  33.511  35.328  1.00  0.00     0.058 A 
ATOM     92  C   UNL A   1      40.827  33.262  36.568  1.00  0.00     0.135 A 
ATOM     93  C   UNL A   1      42.135  34.717  35.168  1.00  0.00     0.135 A 
ATOM     94  F   UNL A   1      40.136  32.128  36.766  1.00  0.00    -0.206 F 
ATOM     95  C   UNL A   1      40.899  34.182  37.609  1.00  0.00     0.059 A 
ATOM     96  C   UNL A   1      42.238  35.642  36.203  1.00  0.00     0.059 A 
ATOM     97  F   UNL A   1      42.737  35.001  34.003  1.00  0.00    -0.206 F 
ATOM     98  C   UNL A   1      41.607  35.370  37.416  1.00  0.00     0.060 A 
BRANCH  98  99
ATOM     99  S   UNL A   1      41.723  36.543  38.784  1.00  0.00     0.124 S 
ATOM    100  O   UNL A   1      41.852  35.649  39.929  1.00  0.00    -0.237 OA
ATOM    101  O   UNL A   1      42.918  37.310  38.441  1.00  0.00    -0.237 OA
ATOM    102  O   UNL A   1      40.468  37.283  38.703  1.00  0.00    -0.744 OA
ENDBRANCH  98  99
ENDBRANCH  66  91
ENDBRANCH  40  41
ENDBRANCH  33  35
ENDBRANCH  32  33
ENDBRANCH  31  32
ENDBRANCH   1  31
TORSDOF 20
ENDMDL
MODEL 2
REMARK VINA RESULT:     -11.0      1.398      2.221
REMARK SMILES COc1ccc(C(=O)Nc2ccccc2C(=O)N[C@@H](C(=O)OCCOC(=O)c2ccc(-c3c4nc(c(-c5c(F)cc(S(=O)(=O)[O-])cc5F)c5ccc([nH]5)c(-c5c(F)cc(S(=O)(=O)[O-])cc5F)c5nc(c(-c6c(F)cc(S(=O)(=O)[O-])cc6F)c6ccc3[nH]6)C=C5)C=C4)cc2)C(C)C)cc1
REMARK SMILES IDX 23 1 22 2 20 3 21 4 19 5 18 6 16 7 17 8 15 10 10 11 11 12
REMARK SMILES IDX 12 13 14 14 13 15 9 16 7 17 8 18 6 20 3 21 4 22 98 23 5 24
REMARK SMILES IDX 97 25 2 26 1 27 94 28 95 29 96 30 24 31 25 32 26 33 27 34
REMARK SMILES IDX 28 35 29 36 93 37 30 38 92 39 31 40 32 41 33 42 86 43 34 44
REMARK SMILES IDX 91 45 85 46 87 47 35 48 90 49 84 50 83 51 36 53 70 54 49 55
REMARK SMILES IDX 69 56 50 57 53 58 68 59 88 60 51 61 52 62 67 64 89 65 54 66
REMARK SMILES IDX 37 67 38 68 47 69 39 70 40 71 46 72 48 73 41 74 42 75 43 76
REMARK SMILES IDX 44 77 45 78 71 79 72 80 81 81 73 82 74 83 80 84 82 85 75 86
REMARK SMILES IDX 76 87 77 88 78 89 79 90 55 91 56 92 65 93 57 94 58 95 64 96
REMARK SMILES IDX 66 97 59 98 60 99 61 100 62 101 63 102
REMARK H PARENT 18 9 9 19 87 52 53 63
REMARK Flexibility Score: inf
ROOT
ATOM      1  C   UNL A   1      36.159  22.276  24.882  1.00  0.00     0.274 C 
ENDROOT
BRANCH   1   2
ATOM      2  O   UNL A   1      35.803  21.000  25.459  1.00  0.00    -0.461 OA
BRANCH   2   3
ATOM      3  C   UNL A   1      34.510  20.866  25.876  1.00  0.00     0.329 C 
ATOM      4  O   UNL A   1      34.141  21.072  27.027  1.00  0.00    -0.250 OA
BRANCH   3   5
ATOM      5  C   UNL A   1      33.526  20.496  24.724  1.00  0.00     0.195 C 
BRANCH   5   6
ATOM      6  N   UNL A   1      32.207  21.092  24.986  1.00  0.00    -0.338 N 
ATOM      7  C   UNL A   1      31.684  22.350  24.786  1.00  0.00     0.254 C 
ATOM      8  O   UNL A   1      30.691  22.629  25.465  1.00  0.00    -0.269 OA
ATOM      9  H   UNL A   1      31.566  20.460  25.386  1.00  0.00     0.164 HD
BRANCH   7  10
ATOM     10  C   UNL A   1      32.221  23.401  23.861  1.00  0.00     0.063 A 
ATOM     11  C   UNL A   1      32.235  24.788  24.054  1.00  0.00     0.054 A 
ATOM     12  C   UNL A   1      32.545  25.654  22.989  1.00  0.00     0.027 A 
ATOM     13  C   UNL A   1      33.081  25.156  21.807  1.00  0.00     0.002 A 
ATOM     14  C   UNL A   1      32.801  22.922  22.666  1.00  0.00     0.016 A 
ATOM     15  C   UNL A   1      33.266  23.789  21.669  1.00  0.00     0.001 A 
BRANCH  11  16
ATOM     16  N   UNL A   1      32.162  25.437  25.292  1.00  0.00    -0.321 N 
ATOM     17  C   UNL A   1      31.273  26.432  25.634  1.00  0.00     0.255 C 
ATOM     18  O   UNL A   1      31.113  26.708  26.821  1.00  0.00    -0.269 OA
ATOM     19  H   UNL A   1      32.806  25.157  25.983  1.00  0.00     0.170 HD
BRANCH  17  20
ATOM     20  C   UNL A   1      30.406  27.086  24.635  1.00  0.00     0.040 A 
ATOM     21  C   UNL A   1      28.564  28.516  23.136  1.00  0.00     0.118 A 
ATOM     22  C   UNL A   1      29.797  29.086  23.405  1.00  0.00     0.047 A 
ATOM     23  C   UNL A   1      28.275  27.205  23.524  1.00  0.00     0.047 A 
ATOM     24  C   UNL A   1      30.704  28.371  24.176  1.00  0.00     0.017 A 
ATOM     25  C   UNL A   1      29.198  26.486  24.286  1.00  0.00     0.017 A 
BRANCH  21  26
ATOM     26  O   UNL A   1      27.626  29.299  22.523  1.00  0.00    -0.497 OA
ATOM     27  C   UNL A   1      27.757  30.645  22.992  1.00  0.00     0.278 C 
ENDBRANCH  21  26
ENDBRANCH  17  20
ENDBRANCH  11  16
ENDBRANCH   7  10
ENDBRANCH   5   6
BRANCH   5  28
ATOM     28  C   UNL A   1      33.486  18.937  24.621  1.00  0.00     0.017 C 
ATOM     29  C   UNL A   1      34.777  18.124  24.589  1.00  0.00     0.010 C 
ATOM     30  C   UNL A   1      32.573  18.315  25.687  1.00  0.00     0.010 C 
ENDBRANCH   5  28
ENDBRANCH   3   5
ENDBRANCH   2   3
ENDBRANCH   1   2
BRANCH   1  31
ATOM     31  C   UNL A   1      36.499  23.280  25.982  1.00  0.00     0.275 C 
BRANCH  31  32
ATOM     32  O   UNL A   1      37.667  24.023  25.593  1.00  0.00    -0.458 OA
BRANCH  32  33
ATOM     33  C   UNL A   1      38.853  23.543  26.042  1.00  0.00     0.338 C 
ATOM     34  O   UNL A   1      39.384  22.497  25.717  1.00  0.00    -0.246 OA
BRANCH  33  35
ATOM     35  C   UNL A   1      39.500  24.532  26.938  1.00  0.00     0.060 A 
ATOM     36  C   UNL A   1      39.245  24.491  28.301  1.00  0.00     0.016 A 
ATOM     37  C   UNL A   1      40.206  25.612  26.415  1.00  0.00     0.016 A 
ATOM     38  C   UNL A   1      39.476  25.623  29.086  1.00  0.00     0.010 A 
ATOM     39  C   UNL A   1      40.613  26.659  27.261  1.00  0.00     0.010 A 
ATOM     40  C   UNL A   1      40.188  26.726  28.602  1.00  0.00    -0.014 A 
BRANCH  40  41
ATOM     41  C   UNL A   1      40.442  27.943  29.452  1.00  0.00     0.031 A 
ATOM     42  C   UNL A   1      41.674  28.013  30.332  1.00  0.00     0.074 A 
ATOM     43  C   UNL A   1      39.613  29.013  29.460  1.00  0.00     0.049 A 
ATOM     44  N   UNL A   1      41.907  28.763  31.380  1.00  0.00    -0.248 NA
ATOM     45  C   UNL A   1      42.779  27.098  30.002  1.00  0.00     0.031 C 
ATOM     46  C   UNL A   1      38.421  29.189  28.629  1.00  0.00     0.029 A 
ATOM     47  N   UNL A   1      39.653  30.173  30.206  1.00  0.00    -0.354 N 
ATOM     48  C   UNL A   1      43.121  28.328  31.903  1.00  0.00     0.074 A 
ATOM     49  C   UNL A   1      43.593  27.269  31.035  1.00  0.00     0.031 C 
ATOM     50  C   UNL A   1      37.889  30.396  28.856  1.00  0.00     0.029 A 
ATOM     51  C   UNL A   1      38.593  31.018  29.968  1.00  0.00     0.049 A 
ATOM     52  H   UNL A   1      40.371  30.376  30.848  1.00  0.00     0.167 HD
ATOM     53  C   UNL A   1      43.770  28.756  33.015  1.00  0.00     0.037 A 
ATOM     54  C   UNL A   1      38.157  32.118  30.615  1.00  0.00     0.037 A 
ATOM     55  C   UNL A   1      43.356  29.884  33.810  1.00  0.00     0.049 A 
ATOM     56  C   UNL A   1      38.873  32.580  31.849  1.00  0.00     0.074 A 
ATOM     57  C   UNL A   1      43.954  30.408  34.943  1.00  0.00     0.029 A 
ATOM     58  N   UNL A   1      42.256  30.684  33.536  1.00  0.00    -0.354 N 
ATOM     59  N   UNL A   1      39.939  32.072  32.419  1.00  0.00    -0.248 NA
ATOM     60  C   UNL A   1      38.307  33.740  32.551  1.00  0.00     0.031 C 
ATOM     61  C   UNL A   1      43.198  31.505  35.372  1.00  0.00     0.029 A 
ATOM     62  C   UNL A   1      42.152  31.689  34.483  1.00  0.00     0.049 A 
ATOM     63  H   UNL A   1      41.640  30.555  32.779  1.00  0.00     0.167 HD
ATOM     64  C   UNL A   1      40.165  32.844  33.553  1.00  0.00     0.074 A 
ATOM     65  C   UNL A   1      39.142  33.870  33.572  1.00  0.00     0.031 C 
ATOM     66  C   UNL A   1      41.128  32.705  34.497  1.00  0.00     0.037 A 
BRANCH  53  67
ATOM     67  C   UNL A   1      44.955  27.950  33.482  1.00  0.00     0.058 A 
ATOM     68  C   UNL A   1      46.276  28.266  33.139  1.00  0.00     0.135 A 
ATOM     69  C   UNL A   1      44.745  26.826  34.302  1.00  0.00     0.135 A 
ATOM     70  F   UNL A   1      46.535  29.322  32.351  1.00  0.00    -0.206 F 
ATOM     71  C   UNL A   1      47.344  27.470  33.547  1.00  0.00     0.059 A 
ATOM     72  C   UNL A   1      45.798  26.032  34.743  1.00  0.00     0.059 A 
ATOM     73  F   UNL A   1      43.500  26.480  34.669  1.00  0.00    -0.206 F 
ATOM     74  C   UNL A   1      47.093  26.348  34.340  1.00  0.00     0.060 A 
BRANCH  74  75
ATOM     75  S   UNL A   1      48.477  25.295  34.828  1.00  0.00     0.124 S 
ATOM     76  O   UNL A   1      47.875  24.502  35.896  1.00  0.00    -0.237 OA
ATOM     77  O   UNL A   1      48.775  24.573  33.595  1.00  0.00    -0.237 OA
ATOM     78  O   UNL A   1      49.496  26.249  35.253  1.00  0.00    -0.744 OA
ENDBRANCH  74  75
ENDBRANCH  53  67
BRANCH  54  79
ATOM     79  C   UNL A   1      36.907  32.785  30.156  1.00  0.00     0.058 A 
ATOM     80  C   UNL A   1      35.656  32.422  30.670  1.00  0.00     0.135 A 
ATOM     81  C   UNL A   1      36.953  33.850  29.238  1.00  0.00     0.135 A 
ATOM     82  F   UNL A   1      35.556  31.400  31.533  1.00  0.00    -0.206 F 
ATOM     83  C   UNL A   1      34.496  33.101  30.309  1.00  0.00     0.059 A 
ATOM     84  C   UNL A   1      35.813  34.563  28.886  1.00  0.00     0.059 A 
ATOM     85  F   UNL A   1      38.128  34.241  28.721  1.00  0.00    -0.206 F 
ATOM     86  C   UNL A   1      34.588  34.181  29.427  1.00  0.00     0.060 A 
BRANCH  86  87
ATOM     87  S   UNL A   1      33.098  35.130  29.047  1.00  0.00     0.124 S 
ATOM     88  O   UNL A   1      33.664  36.352  28.486  1.00  0.00    -0.237 OA
ATOM     89  O   UNL A   1      32.406  34.256  28.106  1.00  0.00    -0.237 OA
ATOM     90  O   UNL A   1      32.452  35.271  30.348  1.00  0.00    -0.744 OA
ENDBRANCH  86  87
ENDBRANCH  54  79
BRANCH  66  91
ATOM     91  C   UNL A   1      41.134  33.699  35.623  1.00  0.00     0.058 A 
ATOM     92  C   UNL A   1      41.868  34.892  35.545  1.00  0.00     0.135 A 
ATOM     93  C   UNL A   1      40.366  33.472  36.776  1.00  0.00     0.135 A 
ATOM     94  F   UNL A   1      42.627  35.149  34.467  1.00  0.00    -0.206 F 
ATOM     95  C   UNL A   1      41.853  35.822  36.579  1.00  0.00     0.059 A 
ATOM     96  C   UNL A   1      40.320  34.399  37.814  1.00  0.00     0.059 A 
ATOM     97  F   UNL A   1      39.643  32.348  36.897  1.00  0.00    -0.206 F 
ATOM     98  C   UNL A   1      41.075  35.566  37.710  1.00  0.00     0.060 A 
BRANCH  98  99
ATOM     99  S   UNL A   1      41.037  36.794  39.033  1.00  0.00     0.124 S 
ATOM    100  O   UNL A   1      42.220  37.591  38.730  1.00  0.00    -0.237 OA
ATOM    101  O   UNL A   1      39.754  37.455  38.812  1.00  0.00    -0.237 OA
ATOM    102  O   UNL A   1      41.117  35.987  40.247  1.00  0.00    -0.744 OA
ENDBRANCH  98  99
ENDBRANCH  66  91
ENDBRANCH  40  41
ENDBRANCH  33  35
ENDBRANCH  32  33
ENDBRANCH  31  32
ENDBRANCH   1  31
TORSDOF 20
ENDMDL
MODEL 3
REMARK VINA RESULT:     -10.8      1.312      2.300
REMARK SMILES COc1ccc(C(=O)Nc2ccccc2C(=O)N[C@@H](C(=O)OCCOC(=O)c2ccc(-c3c4nc(c(-c5c(F)cc(S(=O)(=O)[O-])cc5F)c5ccc([nH]5)c(-c5c(F)cc(S(=O)(=O)[O-])cc5F)c5nc(c(-c6c(F)cc(S(=O)(=O)[O-])cc6F)c6ccc3[nH]6)C=C5)C=C4)cc2)C(C)C)cc1
REMARK SMILES IDX 23 1 22 2 20 3 21 4 19 5 18 6 16 7 17 8 15 10 10 11 11 12
REMARK SMILES IDX 12 13 14 14 13 15 9 16 7 17 8 18 6 20 3 21 4 22 98 23 5 24
REMARK SMILES IDX 97 25 2 26 1 27 94 28 95 29 96 30 24 31 25 32 26 33 27 34
REMARK SMILES IDX 28 35 29 36 93 37 30 38 92 39 31 40 32 41 33 42 86 43 34 44
REMARK SMILES IDX 91 45 85 46 87 47 35 48 90 49 84 50 83 51 36 53 70 54 49 55
REMARK SMILES IDX 69 56 50 57 53 58 68 59 88 60 51 61 52 62 67 64 89 65 54 66
REMARK SMILES IDX 37 67 38 68 47 69 39 70 40 71 46 72 48 73 41 74 42 75 43 76
REMARK SMILES IDX 44 77 45 78 71 79 72 80 81 81 73 82 74 83 80 84 82 85 75 86
REMARK SMILES IDX 76 87 77 88 78 89 79 90 55 91 56 92 65 93 57 94 58 95 64 96
REMARK SMILES IDX 66 97 59 98 60 99 61 100 62 101 63 102
REMARK H PARENT 18 9 9 19 87 52 53 63
REMARK Flexibility Score: inf
ROOT
ATOM      1  C   UNL A   1      37.286  20.193  25.318  1.00  0.00     0.274 C 
ENDROOT
BRANCH   1   2
ATOM      2  O   UNL A   1      35.987  20.227  24.688  1.00  0.00    -0.461 OA
BRANCH   2   3
ATOM      3  C   UNL A   1      35.100  21.139  25.181  1.00  0.00     0.329 C 
ATOM      4  O   UNL A   1      34.605  21.070  26.301  1.00  0.00    -0.250 OA
BRANCH   3   5
ATOM      5  C   UNL A   1      34.830  22.326  24.207  1.00  0.00     0.195 C 
BRANCH   5   6
ATOM      6  N   UNL A   1      35.106  23.600  24.888  1.00  0.00    -0.338 N 
ATOM      7  C   UNL A   1      34.312  24.660  25.265  1.00  0.00     0.254 C 
ATOM      8  O   UNL A   1      34.900  25.728  25.458  1.00  0.00    -0.269 OA
ATOM      9  H   UNL A   1      36.055  23.719  25.125  1.00  0.00     0.164 HD
BRANCH   7  10
ATOM     10  C   UNL A   1      32.820  24.642  25.426  1.00  0.00     0.063 A 
ATOM     11  C   UNL A   1      31.864  25.293  24.639  1.00  0.00     0.054 A 
ATOM     12  C   UNL A   1      30.526  25.381  25.066  1.00  0.00     0.027 A 
ATOM     13  C   UNL A   1      30.076  24.619  26.138  1.00  0.00     0.002 A 
ATOM     14  C   UNL A   1      32.332  23.849  26.489  1.00  0.00     0.016 A 
ATOM     15  C   UNL A   1      30.971  23.804  26.814  1.00  0.00     0.001 A 
BRANCH  11  16
ATOM     16  N   UNL A   1      32.052  25.722  23.319  1.00  0.00    -0.321 N 
ATOM     17  C   UNL A   1      32.449  26.981  22.925  1.00  0.00     0.255 C 
ATOM     18  O   UNL A   1      32.861  27.146  21.779  1.00  0.00    -0.269 OA
ATOM     19  H   UNL A   1      31.886  25.063  22.606  1.00  0.00     0.170 HD
BRANCH  17  20
ATOM     20  C   UNL A   1      32.525  28.111  23.871  1.00  0.00     0.040 A 
ATOM     21  C   UNL A   1      32.557  29.909  25.980  1.00  0.00     0.118 A 
ATOM     22  C   UNL A   1      33.734  29.276  25.621  1.00  0.00     0.047 A 
ATOM     23  C   UNL A   1      31.385  29.729  25.240  1.00  0.00     0.047 A 
ATOM     24  C   UNL A   1      33.703  28.360  24.578  1.00  0.00     0.017 A 
ATOM     25  C   UNL A   1      31.365  28.818  24.182  1.00  0.00     0.017 A 
BRANCH  21  26
ATOM     26  O   UNL A   1      32.571  30.676  27.112  1.00  0.00    -0.497 OA
ATOM     27  C   UNL A   1      33.926  30.976  27.460  1.00  0.00     0.278 C 
ENDBRANCH  21  26
ENDBRANCH  17  20
ENDBRANCH  11  16
ENDBRANCH   7  10
ENDBRANCH   5   6
BRANCH   5  28
ATOM     28  C   UNL A   1      33.353  22.203  23.711  1.00  0.00     0.017 C 
ATOM     29  C   UNL A   1      32.972  22.599  22.288  1.00  0.00     0.010 C 
ATOM     30  C   UNL A   1      32.775  20.805  23.973  1.00  0.00     0.010 C 
ENDBRANCH   5  28
ENDBRANCH   3   5
ENDBRANCH   2   3
ENDBRANCH   1   2
BRANCH   1  31
ATOM     31  C   UNL A   1      38.086  21.443  24.957  1.00  0.00     0.275 C 
BRANCH  31  32
ATOM     32  O   UNL A   1      38.388  22.171  26.160  1.00  0.00    -0.458 OA
BRANCH  32  33
ATOM     33  C   UNL A   1      39.647  22.668  26.252  1.00  0.00     0.338 C 
ATOM     34  O   UNL A   1      40.667  22.144  25.844  1.00  0.00    -0.246 OA
BRANCH  33  35
ATOM     35  C   UNL A   1      39.619  24.027  26.844  1.00  0.00     0.060 A 
ATOM     36  C   UNL A   1      40.476  25.003  26.360  1.00  0.00     0.016 A 
ATOM     37  C   UNL A   1      38.885  24.286  27.999  1.00  0.00     0.016 A 
ATOM     38  C   UNL A   1      40.778  26.117  27.147  1.00  0.00     0.010 A 
ATOM     39  C   UNL A   1      39.050  25.508  28.676  1.00  0.00     0.010 A 
ATOM     40  C   UNL A   1      40.059  26.418  28.308  1.00  0.00    -0.014 A 
BRANCH  40  41
ATOM     41  C   UNL A   1      40.380  27.624  29.152  1.00  0.00     0.031 A 
ATOM     42  C   UNL A   1      41.656  27.662  29.969  1.00  0.00     0.074 A 
ATOM     43  C   UNL A   1      39.576  28.711  29.208  1.00  0.00     0.049 A 
ATOM     44  N   UNL A   1      41.957  28.400  31.009  1.00  0.00    -0.248 NA
ATOM     45  C   UNL A   1      42.723  26.727  29.579  1.00  0.00     0.031 C 
ATOM     46  C   UNL A   1      38.348  28.917  28.439  1.00  0.00     0.029 A 
ATOM     47  N   UNL A   1      39.678  29.864  29.958  1.00  0.00    -0.354 N 
ATOM     48  C   UNL A   1      43.186  27.935  31.467  1.00  0.00     0.074 A 
ATOM     49  C   UNL A   1      43.592  26.873  30.570  1.00  0.00     0.031 C 
ATOM     50  C   UNL A   1      37.853  30.134  28.699  1.00  0.00     0.029 A 
ATOM     51  C   UNL A   1      38.625  30.733  29.777  1.00  0.00     0.049 A 
ATOM     52  H   UNL A   1      40.430  30.048  30.564  1.00  0.00     0.167 HD
ATOM     53  C   UNL A   1      43.899  28.342  32.548  1.00  0.00     0.037 A 
ATOM     54  C   UNL A   1      38.246  31.838  30.453  1.00  0.00     0.037 A 
ATOM     55  C   UNL A   1      43.549  29.473  33.369  1.00  0.00     0.049 A 
ATOM     56  C   UNL A   1      39.032  32.276  31.652  1.00  0.00     0.074 A 
ATOM     57  C   UNL A   1      44.215  29.977  34.474  1.00  0.00     0.029 A 
ATOM     58  N   UNL A   1      42.454  30.298  33.155  1.00  0.00    -0.354 N 
ATOM     59  N   UNL A   1      40.114  31.742  32.165  1.00  0.00    -0.248 NA
ATOM     60  C   UNL A   1      38.526  33.442  32.388  1.00  0.00     0.031 C 
ATOM     61  C   UNL A   1      43.504  31.087  34.947  1.00  0.00     0.029 A 
ATOM     62  C   UNL A   1      42.419  31.299  34.112  1.00  0.00     0.049 A 
ATOM     63  H   UNL A   1      41.798  30.187  32.429  1.00  0.00     0.167 HD
ATOM     64  C   UNL A   1      40.413  32.501  33.290  1.00  0.00     0.074 A 
ATOM     65  C   UNL A   1      39.414  33.548  33.367  1.00  0.00     0.031 C 
ATOM     66  C   UNL A   1      41.419  32.335  34.184  1.00  0.00     0.037 A 
BRANCH  53  67
ATOM     67  C   UNL A   1      45.088  27.509  32.950  1.00  0.00     0.058 A 
ATOM     68  C   UNL A   1      46.394  27.787  32.525  1.00  0.00     0.135 A 
ATOM     69  C   UNL A   1      44.898  26.397  33.792  1.00  0.00     0.135 A 
ATOM     70  F   UNL A   1      46.633  28.829  31.713  1.00  0.00    -0.206 F 
ATOM     71  C   UNL A   1      47.464  26.965  32.875  1.00  0.00     0.059 A 
ATOM     72  C   UNL A   1      45.956  25.578  34.176  1.00  0.00     0.059 A 
ATOM     73  F   UNL A   1      43.670  26.088  34.237  1.00  0.00    -0.206 F 
ATOM     74  C   UNL A   1      47.231  25.856  33.692  1.00  0.00     0.060 A 
BRANCH  74  75
ATOM     75  S   UNL A   1      48.615  24.771  34.106  1.00  0.00     0.124 S 
ATOM     76  O   UNL A   1      49.358  24.758  32.849  1.00  0.00    -0.237 OA
ATOM     77  O   UNL A   1      49.253  25.479  35.211  1.00  0.00    -0.237 OA
ATOM     78  O   UNL A   1      47.964  23.514  34.463  1.00  0.00    -0.744 OA
ENDBRANCH  74  75
ENDBRANCH  53  67
BRANCH  54  79
ATOM     79  C   UNL A   1      36.988  32.534  30.061  1.00  0.00     0.058 A 
ATOM     80  C   UNL A   1      35.775  32.268  30.708  1.00  0.00     0.135 A 
ATOM     81  C   UNL A   1      36.996  33.532  29.069  1.00  0.00     0.135 A 
ATOM     82  F   UNL A   1      35.711  31.310  31.646  1.00  0.00    -0.206 F 
ATOM     83  C   UNL A   1      34.617  32.978  30.405  1.00  0.00     0.059 A 
ATOM     84  C   UNL A   1      35.860  34.276  28.771  1.00  0.00     0.059 A 
ATOM     85  F   UNL A   1      38.134  33.830  28.424  1.00  0.00    -0.206 F 
ATOM     86  C   UNL A   1      34.674  33.992  29.445  1.00  0.00     0.060 A 
BRANCH  86  87
ATOM     87  S   UNL A   1      33.199  34.985  29.133  1.00  0.00     0.124 S 
ATOM     88  O   UNL A   1      33.783  36.245  28.687  1.00  0.00    -0.237 OA
ATOM     89  O   UNL A   1      32.509  34.205  28.111  1.00  0.00    -0.237 OA
ATOM     90  O   UNL A   1      32.538  35.020  30.434  1.00  0.00    -0.744 OA
ENDBRANCH  86  87
ENDBRANCH  54  79
BRANCH  66  91
ATOM     91  C   UNL A   1      41.502  33.321  35.314  1.00  0.00     0.058 A 
ATOM     92  C   UNL A   1      40.843  33.099  36.532  1.00  0.00     0.135 A 
ATOM     93  C   UNL A   1      42.285  34.480  35.190  1.00  0.00     0.135 A 
ATOM     94  F   UNL A   1      40.074  32.010  36.696  1.00  0.00    -0.206 F 
ATOM     95  C   UNL A   1      40.942  34.002  37.586  1.00  0.00     0.059 A 
ATOM     96  C   UNL A   1      42.415  35.386  36.238  1.00  0.00     0.059 A 
ATOM     97  F   UNL A   1      42.940  34.735  34.047  1.00  0.00    -0.206 F 
ATOM     98  C   UNL A   1      41.730  35.143  37.429  1.00  0.00     0.060 A 
BRANCH  98  99
ATOM     99  S   UNL A   1      41.879  36.293  38.813  1.00  0.00     0.124 S 
ATOM    100  O   UNL A   1      42.646  35.504  39.771  1.00  0.00    -0.237 OA
ATOM    101  O   UNL A   1      42.586  37.420  38.211  1.00  0.00    -0.237 OA
ATOM    102  O   UNL A   1      40.493  36.558  39.184  1.00  0.00    -0.744 OA
ENDBRANCH  98  99
ENDBRANCH  66  91
ENDBRANCH  40  41
ENDBRANCH  33  35
ENDBRANCH  32  33
ENDBRANCH  31  32
ENDBRANCH   1  31
TORSDOF 20
ENDMDL
