MODEL 1
REMARK VINA RESULT:     -10.7      0.000      0.000
REMARK SMILES C[C@H](CNS(=O)(=O)c1ccc(C(=O)OCCOC(=O)c2ccc(-c3c4nc(c(-c5c(F)cc(S(=O)(=O)[O-])cc5F)c5ccc([nH]5)c(-c5c(F)cc(S(=O)(=O)[O-])cc5F)c5nc(c(-c6c(F)cc(S(=O)(=O)[O-])cc6F)c6ccc3[nH]6)C=C5)C=C4)cc2)cc1F)[NH+](C)C
REMARK SMILES IDX 15 1 14 2 12 3 13 4 11 5 8 6 9 7 87 8 10 9 86 10 88 11 5 12
REMARK SMILES IDX 6 13 7 14 4 15 3 17 2 18 1 19 89 20 90 21 91 22 16 24 17 25
REMARK SMILES IDX 18 26 19 27 20 28 21 29 85 30 22 31 84 32 23 33 24 34 25 35
REMARK SMILES IDX 78 36 26 37 83 38 77 39 79 40 27 41 82 42 76 43 75 44 28 46
REMARK SMILES IDX 62 47 41 48 61 49 42 50 45 51 60 52 80 53 43 54 44 55 59 57
REMARK SMILES IDX 81 58 46 59 29 60 30 61 39 62 31 63 32 64 38 65 40 66 33 67
REMARK SMILES IDX 34 68 35 69 36 70 37 71 63 72 64 73 73 74 65 75 66 76 72 77
REMARK SMILES IDX 74 78 67 79 68 80 69 81 70 82 71 83 47 84 48 85 57 86 49 87
REMARK SMILES IDX 50 88 56 89 58 90 51 91 52 92 53 93 54 94 55 95
REMARK H PARENT 4 16 89 23 79 45 45 56
REMARK Flexibility Score: inf
ROOT
ATOM      1  C   UNL A   1      37.848  22.949  25.756  1.00  0.00     0.275 C 
ENDROOT
BRANCH   1   2
ATOM      2  O   UNL A   1      36.927  22.104  25.034  1.00  0.00    -0.458 OA
BRANCH   2   3
ATOM      3  C   UNL A   1      35.702  21.998  25.595  1.00  0.00     0.338 C 
ATOM      4  O   UNL A   1      35.359  21.218  26.469  1.00  0.00    -0.246 OA
BRANCH   3   5
ATOM      5  C   UNL A   1      34.770  23.000  25.045  1.00  0.00     0.063 A 
ATOM      6  C   UNL A   1      32.648  24.597  24.205  1.00  0.00     0.118 A 
ATOM      7  C   UNL A   1      33.112  24.709  25.513  1.00  0.00     0.026 A 
ATOM      8  C   UNL A   1      33.296  23.753  23.303  1.00  0.00     0.144 A 
ATOM      9  C   UNL A   1      34.158  23.894  25.932  1.00  0.00     0.017 A 
ATOM     10  C   UNL A   1      34.368  22.956  23.711  1.00  0.00     0.056 A 
ATOM     11  F   UNL A   1      32.888  23.662  22.030  1.00  0.00    -0.205 F 
BRANCH   6  12
ATOM     12  S   UNL A   1      31.159  25.389  23.700  1.00  0.00     0.243 S 
ATOM     13  O   UNL A   1      30.720  26.258  24.771  1.00  0.00    -0.207 OA
ATOM     14  O   UNL A   1      30.307  24.373  23.131  1.00  0.00    -0.207 OA
BRANCH  12  15
ATOM     15  N   UNL A   1      31.610  26.375  22.411  1.00  0.00    -0.205 NA
ATOM     16  H   UNL A   1      31.892  25.757  21.650  1.00  0.00     0.141 HD
BRANCH  15  17
ATOM     17  C   UNL A   1      32.697  27.360  22.587  1.00  0.00     0.163 C 
BRANCH  17  18
ATOM     18  C   UNL A   1      32.175  28.811  22.820  1.00  0.00     0.195 C 
ATOM     19  C   UNL A   1      30.689  28.971  22.457  1.00  0.00     0.076 C 
BRANCH  18  20
ATOM     20  N   UNL A   1      32.560  29.362  24.144  1.00  0.00    -0.337 N 
ATOM     21  C   UNL A   1      31.398  29.714  24.961  1.00  0.00     0.332 C 
ATOM     22  C   UNL A   1      33.500  28.553  24.909  1.00  0.00     0.332 C 
ATOM     23  H   UNL A   1      33.067  30.214  23.904  1.00  0.00     0.347 HD
ENDBRANCH  18  20
ENDBRANCH  17  18
ENDBRANCH  15  17
ENDBRANCH  12  15
ENDBRANCH   6  12
ENDBRANCH   3   5
ENDBRANCH   2   3
ENDBRANCH   1   2
BRANCH   1  24
ATOM     24  C   UNL A   1      39.158  22.225  26.070  1.00  0.00     0.275 C 
BRANCH  24  25
ATOM     25  O   UNL A   1      39.828  22.825  27.195  1.00  0.00    -0.458 OA
BRANCH  25  26
ATOM     26  C   UNL A   1      40.778  23.735  26.880  1.00  0.00     0.338 C 
ATOM     27  O   UNL A   1      41.743  23.567  26.153  1.00  0.00    -0.246 OA
BRANCH  26  28
ATOM     28  C   UNL A   1      40.500  25.036  27.512  1.00  0.00     0.060 A 
ATOM     29  C   UNL A   1      41.472  26.030  27.482  1.00  0.00     0.016 A 
ATOM     30  C   UNL A   1      39.385  25.179  28.337  1.00  0.00     0.016 A 
ATOM     31  C   UNL A   1      41.426  27.075  28.406  1.00  0.00     0.010 A 
ATOM     32  C   UNL A   1      39.273  26.306  29.162  1.00  0.00     0.010 A 
ATOM     33  C   UNL A   1      40.326  27.233  29.265  1.00  0.00    -0.014 A 
BRANCH  33  34
ATOM     34  C   UNL A   1      40.311  28.304  30.312  1.00  0.00     0.031 A 
ATOM     35  C   UNL A   1      41.348  28.306  31.415  1.00  0.00     0.074 A 
ATOM     36  C   UNL A   1      39.403  29.303  30.279  1.00  0.00     0.049 A 
ATOM     37  N   UNL A   1      41.380  29.010  32.520  1.00  0.00    -0.248 NA
ATOM     38  C   UNL A   1      42.490  27.388  31.265  1.00  0.00     0.031 C 
ATOM     39  C   UNL A   1      38.369  29.482  29.258  1.00  0.00     0.029 A 
ATOM     40  N   UNL A   1      39.216  30.375  31.121  1.00  0.00    -0.354 N 
ATOM     41  C   UNL A   1      42.493  28.564  33.228  1.00  0.00     0.074 A 
ATOM     42  C   UNL A   1      43.117  27.536  32.424  1.00  0.00     0.031 C 
ATOM     43  C   UNL A   1      37.708  30.625  29.491  1.00  0.00     0.029 A 
ATOM     44  C   UNL A   1      38.192  31.209  30.738  1.00  0.00     0.049 A 
ATOM     45  H   UNL A   1      39.765  30.529  31.924  1.00  0.00     0.167 HD
ATOM     46  C   UNL A   1      42.952  28.972  34.436  1.00  0.00     0.037 A 
ATOM     47  C   UNL A   1      37.666  32.298  31.332  1.00  0.00     0.037 A 
ATOM     48  C   UNL A   1      42.384  30.054  35.197  1.00  0.00     0.049 A 
ATOM     49  C   UNL A   1      38.192  32.741  32.667  1.00  0.00     0.074 A 
ATOM     50  C   UNL A   1      42.775  30.532  36.438  1.00  0.00     0.029 A 
ATOM     51  N   UNL A   1      41.335  30.854  34.775  1.00  0.00    -0.354 N 
ATOM     52  N   UNL A   1      39.169  32.228  33.376  1.00  0.00    -0.248 NA
ATOM     53  C   UNL A   1      37.526  33.889  33.299  1.00  0.00     0.031 C 
ATOM     54  C   UNL A   1      41.952  31.613  36.771  1.00  0.00     0.029 A 
ATOM     55  C   UNL A   1      41.070  31.828  35.724  1.00  0.00     0.049 A 
ATOM     56  H   UNL A   1      40.848  30.746  33.926  1.00  0.00     0.167 HD
ATOM     57  C   UNL A   1      39.235  32.991  34.536  1.00  0.00     0.074 A 
ATOM     58  C   UNL A   1      38.215  34.013  34.426  1.00  0.00     0.031 C 
ATOM     59  C   UNL A   1      40.061  32.848  35.599  1.00  0.00     0.037 A 
BRANCH  46  60
ATOM     60  C   UNL A   1      44.117  28.233  35.033  1.00  0.00     0.058 A 
ATOM     61  C   UNL A   1      43.894  27.107  35.846  1.00  0.00     0.135 A 
ATOM     62  C   UNL A   1      45.441  28.662  34.859  1.00  0.00     0.135 A 
ATOM     63  F   UNL A   1      42.647  26.652  36.043  1.00  0.00    -0.206 F 
ATOM     64  C   UNL A   1      44.943  26.442  36.473  1.00  0.00     0.059 A 
ATOM     65  C   UNL A   1      46.507  27.998  35.459  1.00  0.00     0.059 A 
ATOM     66  F   UNL A   1      45.709  29.718  34.074  1.00  0.00    -0.206 F 
ATOM     67  C   UNL A   1      46.247  26.897  36.276  1.00  0.00     0.060 A 
BRANCH  67  68
ATOM     68  S   UNL A   1      47.603  25.998  37.061  1.00  0.00     0.124 S 
ATOM     69  O   UNL A   1      47.453  24.667  36.485  1.00  0.00    -0.237 OA
ATOM     70  O   UNL A   1      48.772  26.755  36.620  1.00  0.00    -0.237 OA
ATOM     71  O   UNL A   1      47.299  26.109  38.485  1.00  0.00    -0.744 OA
ENDBRANCH  67  68
ENDBRANCH  46  60
BRANCH  47  72
ATOM     72  C   UNL A   1      36.551  33.026  30.674  1.00  0.00     0.058 A 
ATOM     73  C   UNL A   1      36.789  33.947  29.642  1.00  0.00     0.135 A 
ATOM     74  C   UNL A   1      35.226  32.847  31.099  1.00  0.00     0.135 A 
ATOM     75  F   UNL A   1      38.040  34.157  29.204  1.00  0.00    -0.206 F 
ATOM     76  C   UNL A   1      35.761  34.695  29.082  1.00  0.00     0.059 A 
ATOM     77  C   UNL A   1      34.175  33.565  30.535  1.00  0.00     0.059 A 
ATOM     78  F   UNL A   1      34.947  31.962  32.069  1.00  0.00    -0.206 F 
ATOM     79  C   UNL A   1      34.458  34.504  29.543  1.00  0.00     0.060 A 
BRANCH  79  80
ATOM     80  S   UNL A   1      33.136  35.502  28.824  1.00  0.00     0.124 S 
ATOM     81  O   UNL A   1      33.899  36.483  28.060  1.00  0.00    -0.237 OA
ATOM     82  O   UNL A   1      32.398  34.518  28.038  1.00  0.00    -0.237 OA
ATOM     83  O   UNL A   1      32.433  36.020  29.993  1.00  0.00    -0.744 OA
ENDBRANCH  79  80
ENDBRANCH  47  72
BRANCH  59  84
ATOM     84  C   UNL A   1      39.924  33.831  36.724  1.00  0.00     0.058 A 
ATOM     85  C   UNL A   1      39.060  33.566  37.798  1.00  0.00     0.135 A 
ATOM     86  C   UNL A   1      40.589  35.066  36.702  1.00  0.00     0.135 A 
ATOM     87  F   UNL A   1      38.401  32.399  37.863  1.00  0.00    -0.206 F 
ATOM     88  C   UNL A   1      38.851  34.498  38.808  1.00  0.00     0.059 A 
ATOM     89  C   UNL A   1      40.408  36.008  37.711  1.00  0.00     0.059 A 
ATOM     90  F   UNL A   1      41.433  35.359  35.701  1.00  0.00    -0.206 F 
ATOM     91  C   UNL A   1      39.524  35.720  38.751  1.00  0.00     0.060 A 
BRANCH  91  92
ATOM     92  S   UNL A   1      39.250  36.918  40.075  1.00  0.00     0.124 S 
ATOM     93  O   UNL A   1      38.435  36.148  41.008  1.00  0.00    -0.237 OA
ATOM     94  O   UNL A   1      40.610  37.214  40.513  1.00  0.00    -0.237 OA
ATOM     95  O   UNL A   1      38.565  38.015  39.398  1.00  0.00    -0.744 OA
ENDBRANCH  91  92
ENDBRANCH  59  84
ENDBRANCH  33  34
ENDBRANCH  26  28
ENDBRANCH  25  26
ENDBRANCH  24  25
ENDBRANCH   1  24
TORSDOF 19
ENDMDL
MODEL 2
REMARK VINA RESULT:     -10.5      6.855     11.655
REMARK SMILES C[C@H](CNS(=O)(=O)c1ccc(C(=O)OCCOC(=O)c2ccc(-c3c4nc(c(-c5c(F)cc(S(=O)(=O)[O-])cc5F)c5ccc([nH]5)c(-c5c(F)cc(S(=O)(=O)[O-])cc5F)c5nc(c(-c6c(F)cc(S(=O)(=O)[O-])cc6F)c6ccc3[nH]6)C=C5)C=C4)cc2)cc1F)[NH+](C)C
REMARK SMILES IDX 15 1 14 2 12 3 13 4 11 5 8 6 9 7 87 8 10 9 86 10 88 11 5 12
REMARK SMILES IDX 6 13 7 14 4 15 3 17 2 18 1 19 89 20 90 21 91 22 16 24 17 25
REMARK SMILES IDX 18 26 19 27 20 28 21 29 85 30 22 31 84 32 23 33 24 34 25 35
REMARK SMILES IDX 78 36 26 37 83 38 77 39 79 40 27 41 82 42 76 43 75 44 28 46
REMARK SMILES IDX 62 47 41 48 61 49 42 50 45 51 60 52 80 53 43 54 44 55 59 57
REMARK SMILES IDX 81 58 46 59 29 60 30 61 39 62 31 63 32 64 38 65 40 66 33 67
REMARK SMILES IDX 34 68 35 69 36 70 37 71 63 72 64 73 73 74 65 75 66 76 72 77
REMARK SMILES IDX 74 78 67 79 68 80 69 81 70 82 71 83 47 84 48 85 57 86 49 87
REMARK SMILES IDX 50 88 56 89 58 90 51 91 52 92 53 93 54 94 55 95
REMARK H PARENT 4 16 89 23 79 45 45 56
REMARK Flexibility Score: inf
ROOT
ATOM      1  C   UNL A   1      34.704  31.267  27.839  1.00  0.00     0.275 C 
ENDROOT
BRANCH   1   2
ATOM      2  O   UNL A   1      34.179  29.992  27.415  1.00  0.00    -0.458 OA
BRANCH   2   3
ATOM      3  C   UNL A   1      33.009  30.060  26.742  1.00  0.00     0.338 C 
ATOM      4  O   UNL A   1      32.164  30.937  26.823  1.00  0.00    -0.246 OA
BRANCH   3   5
ATOM      5  C   UNL A   1      32.856  28.925  25.813  1.00  0.00     0.063 A 
ATOM      6  C   UNL A   1      32.985  26.965  23.839  1.00  0.00     0.118 A 
ATOM      7  C   UNL A   1      33.777  26.842  24.977  1.00  0.00     0.026 A 
ATOM      8  C   UNL A   1      32.075  28.016  23.730  1.00  0.00     0.144 A 
ATOM      9  C   UNL A   1      33.724  27.835  25.949  1.00  0.00     0.017 A 
ATOM     10  C   UNL A   1      31.995  28.998  24.720  1.00  0.00     0.056 A 
ATOM     11  F   UNL A   1      31.276  28.128  22.661  1.00  0.00    -0.205 F 
BRANCH   6  12
ATOM     12  S   UNL A   1      33.212  25.899  22.456  1.00  0.00     0.243 S 
ATOM     13  O   UNL A   1      33.741  26.682  21.359  1.00  0.00    -0.207 OA
ATOM     14  O   UNL A   1      32.014  25.103  22.329  1.00  0.00    -0.207 OA
BRANCH  12  15
ATOM     15  N   UNL A   1      34.421  24.826  22.931  1.00  0.00    -0.205 NA
ATOM     16  H   UNL A   1      35.017  24.673  22.117  1.00  0.00     0.141 HD
BRANCH  15  17
ATOM     17  C   UNL A   1      34.055  23.492  23.449  1.00  0.00     0.163 C 
BRANCH  17  18
ATOM     18  C   UNL A   1      35.284  22.674  23.953  1.00  0.00     0.195 C 
ATOM     19  C   UNL A   1      36.545  22.918  23.107  1.00  0.00     0.076 C 
BRANCH  18  20
ATOM     20  N   UNL A   1      35.485  22.773  25.420  1.00  0.00    -0.337 N 
ATOM     21  C   UNL A   1      35.558  21.459  26.063  1.00  0.00     0.332 C 
ATOM     22  C   UNL A   1      36.595  23.615  25.845  1.00  0.00     0.332 C 
ATOM     23  H   UNL A   1      34.643  23.251  25.741  1.00  0.00     0.347 HD
ENDBRANCH  18  20
ENDBRANCH  17  18
ENDBRANCH  15  17
ENDBRANCH  12  15
ENDBRANCH   6  12
ENDBRANCH   3   5
ENDBRANCH   2   3
ENDBRANCH   1   2
BRANCH   1  24
ATOM     24  C   UNL A   1      35.330  31.191  29.232  1.00  0.00     0.275 C 
BRANCH  24  25
ATOM     25  O   UNL A   1      35.953  29.911  29.452  1.00  0.00    -0.458 OA
BRANCH  25  26
ATOM     26  C   UNL A   1      36.839  29.871  30.473  1.00  0.00     0.338 C 
ATOM     27  O   UNL A   1      36.592  29.686  31.653  1.00  0.00    -0.246 OA
BRANCH  26  28
ATOM     28  C   UNL A   1      38.219  30.049  29.989  1.00  0.00     0.060 A 
ATOM     29  C   UNL A   1      38.468  30.049  28.621  1.00  0.00     0.016 A 
ATOM     30  C   UNL A   1      39.282  29.971  30.889  1.00  0.00     0.016 A 
ATOM     31  C   UNL A   1      39.754  29.785  28.149  1.00  0.00     0.010 A 
ATOM     32  C   UNL A   1      40.592  29.849  30.406  1.00  0.00     0.010 A 
ATOM     33  C   UNL A   1      40.841  29.679  29.032  1.00  0.00    -0.014 A 
BRANCH  33  34
ATOM     34  C   UNL A   1      42.207  29.315  28.536  1.00  0.00     0.031 A 
ATOM     35  C   UNL A   1      42.493  27.909  28.051  1.00  0.00     0.074 A 
ATOM     36  C   UNL A   1      43.197  30.231  28.476  1.00  0.00     0.049 A 
ATOM     37  N   UNL A   1      43.645  27.343  27.786  1.00  0.00    -0.248 NA
ATOM     38  C   UNL A   1      41.337  27.019  27.853  1.00  0.00     0.031 C 
ATOM     39  C   UNL A   1      43.078  31.641  28.852  1.00  0.00     0.029 A 
ATOM     40  N   UNL A   1      44.502  30.117  28.055  1.00  0.00    -0.354 N 
ATOM     41  C   UNL A   1      43.358  26.018  27.470  1.00  0.00     0.074 A 
ATOM     42  C   UNL A   1      41.923  25.865  27.566  1.00  0.00     0.031 C 
ATOM     43  C   UNL A   1      44.229  32.272  28.580  1.00  0.00     0.029 A 
ATOM     44  C   UNL A   1      45.208  31.296  28.113  1.00  0.00     0.049 A 
ATOM     45  H   UNL A   1      44.893  29.270  27.741  1.00  0.00     0.167 HD
ATOM     46  C   UNL A   1      44.211  25.021  27.133  1.00  0.00     0.037 A 
ATOM     47  C   UNL A   1      46.504  31.566  27.862  1.00  0.00     0.037 A 
ATOM     48  C   UNL A   1      45.629  25.191  26.952  1.00  0.00     0.049 A 
ATOM     49  C   UNL A   1      47.434  30.450  27.482  1.00  0.00     0.074 A 
ATOM     50  C   UNL A   1      46.576  24.235  26.622  1.00  0.00     0.029 A 
ATOM     51  N   UNL A   1      46.299  26.401  27.043  1.00  0.00    -0.354 N 
ATOM     52  N   UNL A   1      47.163  29.179  27.307  1.00  0.00    -0.248 NA
ATOM     53  C   UNL A   1      48.851  30.796  27.296  1.00  0.00     0.031 C 
ATOM     54  C   UNL A   1      47.821  24.866  26.526  1.00  0.00     0.029 A 
ATOM     55  C   UNL A   1      47.645  26.218  26.766  1.00  0.00     0.049 A 
ATOM     56  H   UNL A   1      45.881  27.262  27.272  1.00  0.00     0.167 HD
ATOM     57  C   UNL A   1      48.373  28.574  26.989  1.00  0.00     0.074 A 
ATOM     58  C   UNL A   1      49.376  29.620  26.976  1.00  0.00     0.031 C 
ATOM     59  C   UNL A   1      48.630  27.268  26.743  1.00  0.00     0.037 A 
BRANCH  46  60
ATOM     60  C   UNL A   1      43.645  23.639  26.958  1.00  0.00     0.058 A 
ATOM     61  C   UNL A   1      43.308  23.173  25.675  1.00  0.00     0.135 A 
ATOM     62  C   UNL A   1      43.378  22.799  28.050  1.00  0.00     0.135 A 
ATOM     63  F   UNL A   1      43.546  23.935  24.596  1.00  0.00    -0.206 F 
ATOM     64  C   UNL A   1      42.717  21.929  25.483  1.00  0.00     0.059 A 
ATOM     65  C   UNL A   1      42.807  21.541  27.878  1.00  0.00     0.059 A 
ATOM     66  F   UNL A   1      43.702  23.187  29.293  1.00  0.00    -0.206 F 
ATOM     67  C   UNL A   1      42.467  21.121  26.592  1.00  0.00     0.060 A 
BRANCH  67  68
ATOM     68  S   UNL A   1      41.738  19.489  26.324  1.00  0.00     0.124 S 
ATOM     69  O   UNL A   1      42.455  19.031  25.139  1.00  0.00    -0.237 OA
ATOM     70  O   UNL A   1      42.060  18.799  27.570  1.00  0.00    -0.237 OA
ATOM     71  O   UNL A   1      40.320  19.783  26.130  1.00  0.00    -0.744 OA
ENDBRANCH  67  68
ENDBRANCH  46  60
BRANCH  47  72
ATOM     72  C   UNL A   1      47.003  32.959  27.997  1.00  0.00     0.058 A 
ATOM     73  C   UNL A   1      46.892  33.879  26.943  1.00  0.00     0.135 A 
ATOM     74  C   UNL A   1      47.643  33.382  29.172  1.00  0.00     0.135 A 
ATOM     75  F   UNL A   1      46.292  33.520  25.797  1.00  0.00    -0.206 F 
ATOM     76  C   UNL A   1      47.434  35.156  27.031  1.00  0.00     0.059 A 
ATOM     77  C   UNL A   1      48.171  34.665  29.294  1.00  0.00     0.059 A 
ATOM     78  F   UNL A   1      47.755  32.544  30.213  1.00  0.00    -0.206 F 
ATOM     79  C   UNL A   1      48.080  35.536  28.208  1.00  0.00     0.060 A 
BRANCH  79  80
ATOM     80  S   UNL A   1      48.801  37.189  28.297  1.00  0.00     0.124 S 
ATOM     81  O   UNL A   1      47.904  37.844  29.243  1.00  0.00    -0.237 OA
ATOM     82  O   UNL A   1      50.148  36.913  28.786  1.00  0.00    -0.237 OA
ATOM     83  O   UNL A   1      48.723  37.664  26.920  1.00  0.00    -0.744 OA
ENDBRANCH  79  80
ENDBRANCH  47  72
BRANCH  59  84
ATOM     84  C   UNL A   1      50.043  26.888  26.409  1.00  0.00     0.058 A 
ATOM     85  C   UNL A   1      50.468  26.837  25.072  1.00  0.00     0.135 A 
ATOM     86  C   UNL A   1      50.953  26.504  27.405  1.00  0.00     0.135 A 
ATOM     87  F   UNL A   1      49.633  27.193  24.083  1.00  0.00    -0.206 F 
ATOM     88  C   UNL A   1      51.744  26.405  24.733  1.00  0.00     0.059 A 
ATOM     89  C   UNL A   1      52.242  26.085  27.091  1.00  0.00     0.059 A 
ATOM     90  F   UNL A   1      50.594  26.547  28.698  1.00  0.00    -0.206 F 
ATOM     91  C   UNL A   1      52.623  26.024  25.749  1.00  0.00     0.060 A 
BRANCH  91  92
ATOM     92  S   UNL A   1      54.282  25.474  25.295  1.00  0.00     0.124 S 
ATOM     93  O   UNL A   1      55.046  25.819  26.489  1.00  0.00    -0.237 OA
ATOM     94  O   UNL A   1      54.083  24.047  25.059  1.00  0.00    -0.237 OA
ATOM     95  O   UNL A   1      54.584  26.262  24.104  1.00  0.00    -0.744 OA
ENDBRANCH  91  92
ENDBRANCH  59  84
ENDBRANCH  33  34
ENDBRANCH  26  28
ENDBRANCH  25  26
ENDBRANCH  24  25
ENDBRANCH   1  24
TORSDOF 19
ENDMDL
MODEL 3
REMARK VINA RESULT:     -10.4      6.664     11.718
REMARK SMILES C[C@H](CNS(=O)(=O)c1ccc(C(=O)OCCOC(=O)c2ccc(-c3c4nc(c(-c5c(F)cc(S(=O)(=O)[O-])cc5F)c5ccc([nH]5)c(-c5c(F)cc(S(=O)(=O)[O-])cc5F)c5nc(c(-c6c(F)cc(S(=O)(=O)[O-])cc6F)c6ccc3[nH]6)C=C5)C=C4)cc2)cc1F)[NH+](C)C
REMARK SMILES IDX 15 1 14 2 12 3 13 4 11 5 8 6 9 7 87 8 10 9 86 10 88 11 5 12
REMARK SMILES IDX 6 13 7 14 4 15 3 17 2 18 1 19 89 20 90 21 91 22 16 24 17 25
REMARK SMILES IDX 18 26 19 27 20 28 21 29 85 30 22 31 84 32 23 33 24 34 25 35
REMARK SMILES IDX 78 36 26 37 83 38 77 39 79 40 27 41 82 42 76 43 75 44 28 46
REMARK SMILES IDX 62 47 41 48 61 49 42 50 45 51 60 52 80 53 43 54 44 55 59 57
REMARK SMILES IDX 81 58 46 59 29 60 30 61 39 62 31 63 32 64 38 65 40 66 33 67
REMARK SMILES IDX 34 68 35 69 36 70 37 71 63 72 64 73 73 74 65 75 66 76 72 77
REMARK SMILES IDX 74 78 67 79 68 80 69 81 70 82 71 83 47 84 48 85 57 86 49 87
REMARK SMILES IDX 50 88 56 89 58 90 51 91 52 92 53 93 54 94 55 95
REMARK H PARENT 4 16 89 23 79 45 45 56
REMARK Flexibility Score: inf
ROOT
ATOM      1  C   UNL A   1      35.099  33.348  30.337  1.00  0.00     0.275 C 
ENDROOT
BRANCH   1   2
ATOM      2  O   UNL A   1      34.230  32.946  29.257  1.00  0.00    -0.458 OA
BRANCH   2   3
ATOM      3  C   UNL A   1      34.868  32.447  28.176  1.00  0.00     0.338 C 
ATOM      4  O   UNL A   1      35.830  32.931  27.602  1.00  0.00    -0.246 OA
BRANCH   3   5
ATOM      5  C   UNL A   1      34.280  31.163  27.750  1.00  0.00     0.063 A 
ATOM      6  C   UNL A   1      33.417  28.824  26.509  1.00  0.00     0.118 A 
ATOM      7  C   UNL A   1      34.680  28.862  27.092  1.00  0.00     0.026 A 
ATOM      8  C   UNL A   1      32.562  29.920  26.620  1.00  0.00     0.144 A 
ATOM      9  C   UNL A   1      35.114  30.039  27.691  1.00  0.00     0.017 A 
ATOM     10  C   UNL A   1      32.981  31.094  27.250  1.00  0.00     0.056 A 
ATOM     11  F   UNL A   1      31.328  29.888  26.100  1.00  0.00    -0.205 F 
BRANCH   6  12
ATOM     12  S   UNL A   1      32.924  27.469  25.498  1.00  0.00     0.243 S 
ATOM     13  O   UNL A   1      32.866  27.923  24.125  1.00  0.00    -0.207 OA
ATOM     14  O   UNL A   1      31.802  26.836  26.150  1.00  0.00    -0.207 OA
BRANCH  12  15
ATOM     15  N   UNL A   1      34.192  26.366  25.606  1.00  0.00    -0.205 NA
ATOM     16  H   UNL A   1      34.842  26.588  24.851  1.00  0.00     0.141 HD
BRANCH  15  17
ATOM     17  C   UNL A   1      33.914  24.918  25.519  1.00  0.00     0.163 C 
BRANCH  17  18
ATOM     18  C   UNL A   1      33.773  24.410  24.051  1.00  0.00     0.195 C 
ATOM     19  C   UNL A   1      34.906  23.453  23.644  1.00  0.00     0.076 C 
BRANCH  18  20
ATOM     20  N   UNL A   1      32.405  23.935  23.728  1.00  0.00    -0.337 N 
ATOM     21  C   UNL A   1      31.681  23.471  24.914  1.00  0.00     0.332 C 
ATOM     22  C   UNL A   1      31.586  24.860  22.956  1.00  0.00     0.332 C 
ATOM     23  H   UNL A   1      32.572  23.140  23.111  1.00  0.00     0.347 HD
ENDBRANCH  18  20
ENDBRANCH  17  18
ENDBRANCH  15  17
ENDBRANCH  12  15
ENDBRANCH   6  12
ENDBRANCH   3   5
ENDBRANCH   2   3
ENDBRANCH   1   2
BRANCH   1  24
ATOM     24  C   UNL A   1      35.111  32.322  31.470  1.00  0.00     0.275 C 
BRANCH  24  25
ATOM     25  O   UNL A   1      36.057  31.268  31.208  1.00  0.00    -0.458 OA
BRANCH  25  26
ATOM     26  C   UNL A   1      37.285  31.451  31.742  1.00  0.00     0.338 C 
ATOM     27  O   UNL A   1      37.570  32.137  32.710  1.00  0.00    -0.246 OA
BRANCH  26  28
ATOM     28  C   UNL A   1      38.303  30.669  31.020  1.00  0.00     0.060 A 
ATOM     29  C   UNL A   1      39.258  29.961  31.741  1.00  0.00     0.016 A 
ATOM     30  C   UNL A   1      38.455  30.838  29.644  1.00  0.00     0.016 A 
ATOM     31  C   UNL A   1      40.452  29.582  31.126  1.00  0.00     0.010 A 
ATOM     32  C   UNL A   1      39.593  30.327  29.004  1.00  0.00     0.010 A 
ATOM     33  C   UNL A   1      40.644  29.758  29.746  1.00  0.00    -0.014 A 
BRANCH  33  34
ATOM     34  C   UNL A   1      41.953  29.428  29.099  1.00  0.00     0.031 A 
ATOM     35  C   UNL A   1      42.181  28.060  28.492  1.00  0.00     0.074 A 
ATOM     36  C   UNL A   1      42.941  30.344  29.010  1.00  0.00     0.049 A 
ATOM     37  N   UNL A   1      43.298  27.512  28.080  1.00  0.00    -0.248 NA
ATOM     38  C   UNL A   1      41.004  27.187  28.343  1.00  0.00     0.031 C 
ATOM     39  C   UNL A   1      42.869  31.725  29.493  1.00  0.00     0.029 A 
ATOM     40  N   UNL A   1      44.199  30.258  28.460  1.00  0.00    -0.354 N 
ATOM     41  C   UNL A   1      42.971  26.212  27.700  1.00  0.00     0.074 A 
ATOM     42  C   UNL A   1      41.551  26.055  27.921  1.00  0.00     0.031 C 
ATOM     43  C   UNL A   1      43.995  32.372  29.158  1.00  0.00     0.029 A 
ATOM     44  C   UNL A   1      44.918  31.429  28.534  1.00  0.00     0.049 A 
ATOM     45  H   UNL A   1      44.552  29.435  28.052  1.00  0.00     0.167 HD
ATOM     46  C   UNL A   1      43.781  25.240  27.216  1.00  0.00     0.037 A 
ATOM     47  C   UNL A   1      46.187  31.714  28.181  1.00  0.00     0.037 A 
ATOM     48  C   UNL A   1      45.177  25.420  26.913  1.00  0.00     0.049 A 
ATOM     49  C   UNL A   1      47.067  30.626  27.637  1.00  0.00     0.074 A 
ATOM     50  C   UNL A   1      46.081  24.488  26.429  1.00  0.00     0.029 A 
ATOM     51  N   UNL A   1      45.863  26.620  27.025  1.00  0.00    -0.354 N 
ATOM     52  N   UNL A   1      46.771  29.371  27.400  1.00  0.00    -0.248 NA
ATOM     53  C   UNL A   1      48.463  30.982  27.343  1.00  0.00     0.031 C 
ATOM     54  C   UNL A   1      47.316  25.122  26.261  1.00  0.00     0.029 A 
ATOM     55  C   UNL A   1      47.174  26.455  26.610  1.00  0.00     0.049 A 
ATOM     56  H   UNL A   1      45.475  27.463  27.352  1.00  0.00     0.167 HD
ATOM     57  C   UNL A   1      47.940  28.788  26.928  1.00  0.00     0.074 A 
ATOM     58  C   UNL A   1      48.945  29.830  26.893  1.00  0.00     0.031 C 
ATOM     59  C   UNL A   1      48.162  27.502  26.567  1.00  0.00     0.037 A 
BRANCH  46  60
ATOM     60  C   UNL A   1      43.189  23.874  26.999  1.00  0.00     0.058 A 
ATOM     61  C   UNL A   1      43.042  22.991  28.082  1.00  0.00     0.135 A 
ATOM     62  C   UNL A   1      42.826  23.414  25.724  1.00  0.00     0.135 A 
ATOM     63  F   UNL A   1      43.371  23.382  29.323  1.00  0.00    -0.206 F 
ATOM     64  C   UNL A   1      42.566  21.696  27.907  1.00  0.00     0.059 A 
ATOM     65  C   UNL A   1      42.327  22.129  25.530  1.00  0.00     0.059 A 
ATOM     66  F   UNL A   1      42.926  24.226  24.660  1.00  0.00    -0.206 F 
ATOM     67  C   UNL A   1      42.214  21.272  26.625  1.00  0.00     0.060 A 
BRANCH  67  68
ATOM     68  S   UNL A   1      41.556  19.603  26.418  1.00  0.00     0.124 S 
ATOM     69  O   UNL A   1      41.883  18.990  27.700  1.00  0.00    -0.237 OA
ATOM     70  O   UNL A   1      40.138  19.857  26.177  1.00  0.00    -0.237 OA
ATOM     71  O   UNL A   1      42.294  19.091  25.266  1.00  0.00    -0.744 OA
ENDBRANCH  67  68
ENDBRANCH  46  60
BRANCH  47  72
ATOM     72  C   UNL A   1      46.707  33.093  28.365  1.00  0.00     0.058 A 
ATOM     73  C   UNL A   1      46.619  34.049  27.342  1.00  0.00     0.135 A 
ATOM     74  C   UNL A   1      47.347  33.466  29.557  1.00  0.00     0.135 A 
ATOM     75  F   UNL A   1      46.021  33.739  26.181  1.00  0.00    -0.206 F 
ATOM     76  C   UNL A   1      47.180  35.313  27.475  1.00  0.00     0.059 A 
ATOM     77  C   UNL A   1      47.894  34.736  29.725  1.00  0.00     0.059 A 
ATOM     78  F   UNL A   1      47.437  32.592  30.571  1.00  0.00    -0.206 F 
ATOM     79  C   UNL A   1      47.825  35.643  28.668  1.00  0.00     0.060 A 
BRANCH  79  80
ATOM     80  S   UNL A   1      48.573  37.280  28.817  1.00  0.00     0.124 S 
ATOM     81  O   UNL A   1      49.269  37.164  30.094  1.00  0.00    -0.237 OA
ATOM     82  O   UNL A   1      49.423  37.341  27.633  1.00  0.00    -0.237 OA
ATOM     83  O   UNL A   1      47.422  38.177  28.805  1.00  0.00    -0.744 OA
ENDBRANCH  79  80
ENDBRANCH  47  72
BRANCH  59  84
ATOM     84  C   UNL A   1      49.534  27.144  26.075  1.00  0.00     0.058 A 
ATOM     85  C   UNL A   1      49.834  27.199  24.706  1.00  0.00     0.135 A 
ATOM     86  C   UNL A   1      50.526  26.677  26.950  1.00  0.00     0.135 A 
ATOM     87  F   UNL A   1      48.917  27.638  23.830  1.00  0.00    -0.206 F 
ATOM     88  C   UNL A   1      51.069  26.791  24.217  1.00  0.00     0.059 A 
ATOM     89  C   UNL A   1      51.776  26.279  26.486  1.00  0.00     0.059 A 
ATOM     90  F   UNL A   1      50.288  26.618  28.270  1.00  0.00    -0.206 F 
ATOM     91  C   UNL A   1      52.032  26.325  25.115  1.00  0.00     0.060 A 
BRANCH  91  92
ATOM     92  S   UNL A   1      53.636  25.806  24.467  1.00  0.00     0.124 S 
ATOM     93  O   UNL A   1      53.645  24.386  24.799  1.00  0.00    -0.237 OA
ATOM     94  O   UNL A   1      53.517  26.127  23.048  1.00  0.00    -0.237 OA
ATOM     95  O   UNL A   1      54.582  26.633  25.211  1.00  0.00    -0.744 OA
ENDBRANCH  91  92
ENDBRANCH  59  84
ENDBRANCH  33  34
ENDBRANCH  26  28
ENDBRANCH  25  26
ENDBRANCH  24  25
ENDBRANCH   1  24
TORSDOF 19
ENDMDL
