MODEL 1
REMARK VINA RESULT:     -10.7      0.000      0.000
REMARK SMILES CC(C)[C@H](CO)Nc1ccc(C(F)(F)F)cc1C(=O)OCCOC(=O)c1ccc(-c2c3nc(c(-c4c(F)cc(S(=O)(=O)[O-])cc4F)c4ccc([nH]4)c(-c4c(F)cc(S(=O)(=O)[O-])cc4F)c4nc(c(-c5c(F)cc(S(=O)(=O)[O-])cc5F)c5ccc2[nH]5)C=C4)C=C3)cc1
REMARK SMILES IDX 21 1 20 2 18 3 19 4 17 5 8 6 9 7 10 8 16 9 11 10 7 11 4 13
REMARK SMILES IDX 2 14 1 15 3 16 5 17 6 18 12 20 13 21 14 22 15 23 22 24 23 25
REMARK SMILES IDX 24 26 25 27 26 28 27 29 91 30 28 31 90 32 29 33 30 34 31 35
REMARK SMILES IDX 84 36 32 37 89 38 83 39 85 40 33 41 88 42 82 43 81 44 34 46
REMARK SMILES IDX 68 47 47 48 67 49 48 50 51 51 66 52 86 53 49 54 50 55 65 57
REMARK SMILES IDX 87 58 52 59 35 60 36 61 45 62 37 63 38 64 44 65 46 66 39 67
REMARK SMILES IDX 40 68 41 69 42 70 43 71 69 72 70 73 79 74 71 75 72 76 78 77
REMARK SMILES IDX 80 78 73 79 74 80 75 81 76 82 77 83 53 84 54 85 63 86 55 87
REMARK SMILES IDX 56 88 62 89 64 90 57 91 58 92 59 93 60 94 61 95
REMARK H PARENT 7 12 6 19 85 45 51 56
REMARK Flexibility Score: inf
ROOT
ATOM      1  C   UNL A   1      33.462  27.543  25.652  1.00  0.00     0.275 C 
ENDROOT
BRANCH   1   2
ATOM      2  O   UNL A   1      33.501  27.587  24.212  1.00  0.00    -0.458 OA
BRANCH   2   3
ATOM      3  C   UNL A   1      32.907  26.560  23.561  1.00  0.00     0.340 C 
ATOM      4  O   UNL A   1      33.469  25.618  23.027  1.00  0.00    -0.246 OA
BRANCH   3   5
ATOM      5  C   UNL A   1      31.438  26.699  23.641  1.00  0.00     0.083 A 
ATOM      6  C   UNL A   1      30.557  25.688  24.073  1.00  0.00     0.049 A 
ATOM      7  C   UNL A   1      29.180  26.001  24.007  1.00  0.00     0.027 A 
ATOM      8  C   UNL A   1      28.697  27.230  23.541  1.00  0.00     0.015 A 
ATOM      9  C   UNL A   1      30.954  27.961  23.222  1.00  0.00     0.031 A 
ATOM     10  C   UNL A   1      29.582  28.225  23.129  1.00  0.00     0.057 A 
BRANCH   6  11
ATOM     11  N   UNL A   1      30.859  24.440  24.594  1.00  0.00    -0.379 N 
ATOM     12  H   UNL A   1      30.674  23.680  23.997  1.00  0.00     0.160 HD
BRANCH  11  13
ATOM     13  C   UNL A   1      31.410  24.086  25.901  1.00  0.00     0.107 C 
BRANCH  13  14
ATOM     14  C   UNL A   1      32.685  23.193  25.753  1.00  0.00     0.007 C 
ATOM     15  C   UNL A   1      32.863  22.539  24.380  1.00  0.00     0.009 C 
ATOM     16  C   UNL A   1      34.001  23.891  26.131  1.00  0.00     0.009 C 
ENDBRANCH  13  14
BRANCH  13  17
ATOM     17  C   UNL A   1      30.289  23.461  26.771  1.00  0.00     0.181 C 
BRANCH  17  18
ATOM     18  O   UNL A   1      29.909  22.158  26.322  1.00  0.00    -0.394 OA
ATOM     19  H   UNL A   1      30.559  21.508  26.634  1.00  0.00     0.210 HD
ENDBRANCH  17  18
ENDBRANCH  13  17
ENDBRANCH  11  13
ENDBRANCH   6  11
BRANCH  10  20
ATOM     20  C   UNL A   1      29.069  29.547  22.610  1.00  0.00     0.416 C 
ATOM     21  F   UNL A   1      29.915  30.118  21.707  1.00  0.00    -0.166 F 
ATOM     22  F   UNL A   1      27.872  29.423  21.975  1.00  0.00    -0.166 F 
ATOM     23  F   UNL A   1      28.888  30.471  23.590  1.00  0.00    -0.166 F 
ENDBRANCH  10  20
ENDBRANCH   3   5
ENDBRANCH   2   3
ENDBRANCH   1   2
BRANCH   1  24
ATOM     24  C   UNL A   1      33.356  28.966  26.204  1.00  0.00     0.275 C 
BRANCH  24  25
ATOM     25  O   UNL A   1      33.927  28.989  27.522  1.00  0.00    -0.458 OA
BRANCH  25  26
ATOM     26  C   UNL A   1      34.464  30.176  27.886  1.00  0.00     0.338 C 
ATOM     27  O   UNL A   1      33.888  31.229  28.094  1.00  0.00    -0.246 OA
BRANCH  26  28
ATOM     28  C   UNL A   1      35.865  29.923  28.232  1.00  0.00     0.060 A 
ATOM     29  C   UNL A   1      36.814  30.099  27.225  1.00  0.00     0.016 A 
ATOM     30  C   UNL A   1      36.240  29.506  29.505  1.00  0.00     0.016 A 
ATOM     31  C   UNL A   1      38.155  29.825  27.469  1.00  0.00     0.010 A 
ATOM     32  C   UNL A   1      37.590  29.259  29.759  1.00  0.00     0.010 A 
ATOM     33  C   UNL A   1      38.555  29.397  28.739  1.00  0.00    -0.014 A 
BRANCH  33  34
ATOM     34  C   UNL A   1      39.963  29.007  28.998  1.00  0.00     0.031 A 
ATOM     35  C   UNL A   1      40.911  30.036  29.547  1.00  0.00     0.074 A 
ATOM     36  C   UNL A   1      40.395  27.759  28.729  1.00  0.00     0.049 A 
ATOM     37  N   UNL A   1      42.214  30.016  29.605  1.00  0.00    -0.248 NA
ATOM     38  C   UNL A   1      40.301  31.265  30.082  1.00  0.00     0.031 C 
ATOM     39  C   UNL A   1      39.557  26.653  28.262  1.00  0.00     0.029 A 
ATOM     40  N   UNL A   1      41.653  27.216  28.802  1.00  0.00    -0.354 N 
ATOM     41  C   UNL A   1      42.586  31.252  30.122  1.00  0.00     0.074 A 
ATOM     42  C   UNL A   1      41.369  31.995  30.365  1.00  0.00     0.031 C 
ATOM     43  C   UNL A   1      40.324  25.564  28.093  1.00  0.00     0.029 A 
ATOM     44  C   UNL A   1      41.715  25.915  28.363  1.00  0.00     0.049 A 
ATOM     45  H   UNL A   1      42.437  27.711  29.135  1.00  0.00     0.167 HD
ATOM     46  C   UNL A   1      43.835  31.720  30.360  1.00  0.00     0.037 A 
ATOM     47  C   UNL A   1      42.778  25.113  28.154  1.00  0.00     0.037 A 
ATOM     48  C   UNL A   1      45.028  30.941  30.161  1.00  0.00     0.049 A 
ATOM     49  C   UNL A   1      44.158  25.656  28.410  1.00  0.00     0.074 A 
ATOM     50  C   UNL A   1      46.345  31.310  30.370  1.00  0.00     0.029 A 
ATOM     51  N   UNL A   1      45.046  29.624  29.723  1.00  0.00    -0.354 N 
ATOM     52  N   UNL A   1      44.507  26.852  28.827  1.00  0.00    -0.248 NA
ATOM     53  C   UNL A   1      45.288  24.756  28.150  1.00  0.00     0.031 C 
ATOM     54  C   UNL A   1      47.161  30.224  30.032  1.00  0.00     0.029 A 
ATOM     55  C   UNL A   1      46.350  29.166  29.653  1.00  0.00     0.049 A 
ATOM     56  H   UNL A   1      44.248  29.093  29.497  1.00  0.00     0.167 HD
ATOM     57  C   UNL A   1      45.895  26.840  28.894  1.00  0.00     0.074 A 
ATOM     58  C   UNL A   1      46.321  25.517  28.486  1.00  0.00     0.031 C 
ATOM     59  C   UNL A   1      46.743  27.836  29.257  1.00  0.00     0.037 A 
BRANCH  46  60
ATOM     60  C   UNL A   1      43.971  33.147  30.817  1.00  0.00     0.058 A 
ATOM     61  C   UNL A   1      44.104  34.212  29.914  1.00  0.00     0.135 A 
ATOM     62  C   UNL A   1      43.955  33.452  32.189  1.00  0.00     0.135 A 
ATOM     63  F   UNL A   1      44.146  33.977  28.593  1.00  0.00    -0.206 F 
ATOM     64  C   UNL A   1      44.245  35.526  30.354  1.00  0.00     0.059 A 
ATOM     65  C   UNL A   1      44.068  34.760  32.650  1.00  0.00     0.059 A 
ATOM     66  F   UNL A   1      43.835  32.470  33.098  1.00  0.00    -0.206 F 
ATOM     67  C   UNL A   1      44.230  35.788  31.725  1.00  0.00     0.060 A 
BRANCH  67  68
ATOM     68  S   UNL A   1      44.420  37.495  32.283  1.00  0.00     0.124 S 
ATOM     69  O   UNL A   1      43.957  38.236  31.115  1.00  0.00    -0.237 OA
ATOM     70  O   UNL A   1      43.546  37.544  33.451  1.00  0.00    -0.237 OA
ATOM     71  O   UNL A   1      45.848  37.603  32.569  1.00  0.00    -0.744 OA
ENDBRANCH  67  68
ENDBRANCH  46  60
BRANCH  47  72
ATOM     72  C   UNL A   1      42.577  23.732  27.636  1.00  0.00     0.058 A 
ATOM     73  C   UNL A   1      42.557  23.471  26.259  1.00  0.00     0.135 A 
ATOM     74  C   UNL A   1      42.428  22.642  28.509  1.00  0.00     0.135 A 
ATOM     75  F   UNL A   1      42.682  24.480  25.383  1.00  0.00    -0.206 F 
ATOM     76  C   UNL A   1      42.395  22.180  25.764  1.00  0.00     0.059 A 
ATOM     77  C   UNL A   1      42.290  21.340  28.038  1.00  0.00     0.059 A 
ATOM     78  F   UNL A   1      42.449  22.836  29.837  1.00  0.00    -0.206 F 
ATOM     79  C   UNL A   1      42.267  21.120  26.662  1.00  0.00     0.060 A 
BRANCH  79  80
ATOM     80  S   UNL A   1      42.122  19.440  26.013  1.00  0.00     0.124 S 
ATOM     81  O   UNL A   1      42.988  19.502  24.842  1.00  0.00    -0.237 OA
ATOM     82  O   UNL A   1      42.613  18.635  27.128  1.00  0.00    -0.237 OA
ATOM     83  O   UNL A   1      40.694  19.310  25.737  1.00  0.00    -0.744 OA
ENDBRANCH  79  80
ENDBRANCH  47  72
BRANCH  59  84
ATOM     84  C   UNL A   1      48.210  27.519  29.270  1.00  0.00     0.058 A 
ATOM     85  C   UNL A   1      49.026  27.766  28.156  1.00  0.00     0.135 A 
ATOM     86  C   UNL A   1      48.816  27.026  30.436  1.00  0.00     0.135 A 
ATOM     87  F   UNL A   1      48.491  28.231  27.016  1.00  0.00    -0.206 F 
ATOM     88  C   UNL A   1      50.395  27.523  28.194  1.00  0.00     0.059 A 
ATOM     89  C   UNL A   1      50.186  26.797  30.504  1.00  0.00     0.059 A 
ATOM     90  F   UNL A   1      48.078  26.783  31.531  1.00  0.00    -0.206 F 
ATOM     91  C   UNL A   1      50.967  27.041  29.374  1.00  0.00     0.060 A 
BRANCH  91  92
ATOM     92  S   UNL A   1      52.750  26.774  29.427  1.00  0.00     0.124 S 
ATOM     93  O   UNL A   1      52.899  26.020  30.667  1.00  0.00    -0.237 OA
ATOM     94  O   UNL A   1      52.993  26.028  28.196  1.00  0.00    -0.237 OA
ATOM     95  O   UNL A   1      53.295  28.129  29.446  1.00  0.00    -0.744 OA
ENDBRANCH  91  92
ENDBRANCH  59  84
ENDBRANCH  33  34
ENDBRANCH  26  28
ENDBRANCH  25  26
ENDBRANCH  24  25
ENDBRANCH   1  24
TORSDOF 20
ENDMDL
MODEL 2
REMARK VINA RESULT:     -10.6      5.642     11.109
REMARK SMILES CC(C)[C@H](CO)Nc1ccc(C(F)(F)F)cc1C(=O)OCCOC(=O)c1ccc(-c2c3nc(c(-c4c(F)cc(S(=O)(=O)[O-])cc4F)c4ccc([nH]4)c(-c4c(F)cc(S(=O)(=O)[O-])cc4F)c4nc(c(-c5c(F)cc(S(=O)(=O)[O-])cc5F)c5ccc2[nH]5)C=C4)C=C3)cc1
REMARK SMILES IDX 21 1 20 2 18 3 19 4 17 5 8 6 9 7 10 8 16 9 11 10 7 11 4 13
REMARK SMILES IDX 2 14 1 15 3 16 5 17 6 18 12 20 13 21 14 22 15 23 22 24 23 25
REMARK SMILES IDX 24 26 25 27 26 28 27 29 91 30 28 31 90 32 29 33 30 34 31 35
REMARK SMILES IDX 84 36 32 37 89 38 83 39 85 40 33 41 88 42 82 43 81 44 34 46
REMARK SMILES IDX 68 47 47 48 67 49 48 50 51 51 66 52 86 53 49 54 50 55 65 57
REMARK SMILES IDX 87 58 52 59 35 60 36 61 45 62 37 63 38 64 44 65 46 66 39 67
REMARK SMILES IDX 40 68 41 69 42 70 43 71 69 72 70 73 79 74 71 75 72 76 78 77
REMARK SMILES IDX 80 78 73 79 74 80 75 81 76 82 77 83 53 84 54 85 63 86 55 87
REMARK SMILES IDX 56 88 62 89 64 90 57 91 58 92 59 93 60 94 61 95
REMARK H PARENT 7 12 6 19 85 45 51 56
REMARK Flexibility Score: inf
ROOT
ATOM      1  C   UNL A   1      37.762  22.518  25.131  1.00  0.00     0.275 C 
ENDROOT
BRANCH   1   2
ATOM      2  O   UNL A   1      36.766  21.604  25.630  1.00  0.00    -0.458 OA
BRANCH   2   3
ATOM      3  C   UNL A   1      36.751  20.368  25.077  1.00  0.00     0.340 C 
ATOM      4  O   UNL A   1      37.724  19.713  24.741  1.00  0.00    -0.246 OA
BRANCH   3   5
ATOM      5  C   UNL A   1      35.361  19.875  24.993  1.00  0.00     0.083 A 
ATOM      6  C   UNL A   1      34.217  20.633  25.310  1.00  0.00     0.049 A 
ATOM      7  C   UNL A   1      32.983  19.950  25.231  1.00  0.00     0.027 A 
ATOM      8  C   UNL A   1      32.878  18.601  24.866  1.00  0.00     0.015 A 
ATOM      9  C   UNL A   1      35.252  18.528  24.571  1.00  0.00     0.031 A 
ATOM     10  C   UNL A   1      34.017  17.868  24.542  1.00  0.00     0.057 A 
BRANCH   6  11
ATOM     11  N   UNL A   1      34.134  21.973  25.651  1.00  0.00    -0.379 N 
ATOM     12  H   UNL A   1      34.991  22.407  25.861  1.00  0.00     0.160 HD
BRANCH  11  13
ATOM     13  C   UNL A   1      32.959  22.838  25.746  1.00  0.00     0.107 C 
BRANCH  13  14
ATOM     14  C   UNL A   1      33.161  24.157  24.929  1.00  0.00     0.007 C 
ATOM     15  C   UNL A   1      32.632  25.425  25.606  1.00  0.00     0.009 C 
ATOM     16  C   UNL A   1      34.608  24.415  24.480  1.00  0.00     0.009 C 
ENDBRANCH  13  14
BRANCH  13  17
ATOM     17  C   UNL A   1      32.611  23.058  27.240  1.00  0.00     0.181 C 
BRANCH  17  18
ATOM     18  O   UNL A   1      31.351  22.486  27.599  1.00  0.00    -0.394 OA
ATOM     19  H   UNL A   1      31.487  21.804  28.275  1.00  0.00     0.210 HD
ENDBRANCH  17  18
ENDBRANCH  13  17
ENDBRANCH  11  13
ENDBRANCH   6  11
BRANCH  10  20
ATOM     20  C   UNL A   1      33.914  16.409  24.164  1.00  0.00     0.416 C 
ATOM     21  F   UNL A   1      32.695  15.878  24.462  1.00  0.00    -0.166 F 
ATOM     22  F   UNL A   1      34.096  16.207  22.832  1.00  0.00    -0.166 F 
ATOM     23  F   UNL A   1      34.828  15.628  24.799  1.00  0.00    -0.166 F 
ENDBRANCH  10  20
ENDBRANCH   3   5
ENDBRANCH   2   3
ENDBRANCH   1   2
BRANCH   1  24
ATOM     24  C   UNL A   1      38.934  22.581  26.113  1.00  0.00     0.275 C 
BRANCH  24  25
ATOM     25  O   UNL A   1      39.140  23.951  26.491  1.00  0.00    -0.458 OA
BRANCH  25  26
ATOM     26  C   UNL A   1      40.402  24.248  26.878  1.00  0.00     0.338 C 
ATOM     27  O   UNL A   1      41.448  23.803  26.440  1.00  0.00    -0.246 OA
BRANCH  26  28
ATOM     28  C   UNL A   1      40.313  25.405  27.774  1.00  0.00     0.060 A 
ATOM     29  C   UNL A   1      41.275  26.403  27.626  1.00  0.00     0.016 A 
ATOM     30  C   UNL A   1      39.324  25.501  28.747  1.00  0.00     0.016 A 
ATOM     31  C   UNL A   1      41.282  27.503  28.477  1.00  0.00     0.010 A 
ATOM     32  C   UNL A   1      39.312  26.619  29.583  1.00  0.00     0.010 A 
ATOM     33  C   UNL A   1      40.301  27.618  29.468  1.00  0.00    -0.014 A 
BRANCH  33  34
ATOM     34  C   UNL A   1      40.343  28.731  30.449  1.00  0.00     0.031 A 
ATOM     35  C   UNL A   1      41.345  28.673  31.567  1.00  0.00     0.074 A 
ATOM     36  C   UNL A   1      39.489  29.768  30.354  1.00  0.00     0.049 A 
ATOM     37  N   UNL A   1      41.400  29.368  32.670  1.00  0.00    -0.248 NA
ATOM     38  C   UNL A   1      42.419  27.674  31.429  1.00  0.00     0.031 C 
ATOM     39  C   UNL A   1      38.520  29.975  29.277  1.00  0.00     0.029 A 
ATOM     40  N   UNL A   1      39.292  30.840  31.189  1.00  0.00    -0.354 N 
ATOM     41  C   UNL A   1      42.472  28.851  33.388  1.00  0.00     0.074 A 
ATOM     42  C   UNL A   1      43.043  27.786  32.593  1.00  0.00     0.031 C 
ATOM     43  C   UNL A   1      37.834  31.105  29.515  1.00  0.00     0.029 A 
ATOM     44  C   UNL A   1      38.259  31.658  30.797  1.00  0.00     0.049 A 
ATOM     45  H   UNL A   1      39.837  31.007  31.992  1.00  0.00     0.167 HD
ATOM     46  C   UNL A   1      42.926  29.231  34.606  1.00  0.00     0.037 A 
ATOM     47  C   UNL A   1      37.687  32.705  31.425  1.00  0.00     0.037 A 
ATOM     48  C   UNL A   1      42.375  30.330  35.354  1.00  0.00     0.049 A 
ATOM     49  C   UNL A   1      38.196  33.101  32.784  1.00  0.00     0.074 A 
ATOM     50  C   UNL A   1      42.756  30.807  36.596  1.00  0.00     0.029 A 
ATOM     51  N   UNL A   1      41.335  31.139  34.917  1.00  0.00    -0.354 N 
ATOM     52  N   UNL A   1      39.161  32.560  33.492  1.00  0.00    -0.248 NA
ATOM     53  C   UNL A   1      37.530  34.234  33.441  1.00  0.00     0.031 C 
ATOM     54  C   UNL A   1      41.927  31.886  36.921  1.00  0.00     0.029 A 
ATOM     55  C   UNL A   1      41.058  32.108  35.864  1.00  0.00     0.049 A 
ATOM     56  H   UNL A   1      40.864  31.038  34.058  1.00  0.00     0.167 HD
ATOM     57  C   UNL A   1      39.229  33.297  34.668  1.00  0.00     0.074 A 
ATOM     58  C   UNL A   1      38.215  34.328  34.573  1.00  0.00     0.031 C 
ATOM     59  C   UNL A   1      40.052  33.133  35.735  1.00  0.00     0.037 A 
BRANCH  46  60
ATOM     60  C   UNL A   1      44.040  28.426  35.219  1.00  0.00     0.058 A 
ATOM     61  C   UNL A   1      43.799  27.267  35.971  1.00  0.00     0.135 A 
ATOM     62  C   UNL A   1      45.377  28.821  35.037  1.00  0.00     0.135 A 
ATOM     63  F   UNL A   1      42.541  26.855  36.194  1.00  0.00    -0.206 F 
ATOM     64  C   UNL A   1      44.840  26.543  36.545  1.00  0.00     0.059 A 
ATOM     65  C   UNL A   1      46.435  28.097  35.579  1.00  0.00     0.059 A 
ATOM     66  F   UNL A   1      45.665  29.926  34.329  1.00  0.00    -0.206 F 
ATOM     67  C   UNL A   1      46.155  26.969  36.346  1.00  0.00     0.060 A 
BRANCH  67  68
ATOM     68  S   UNL A   1      47.496  26.024  37.100  1.00  0.00     0.124 S 
ATOM     69  O   UNL A   1      47.128  24.659  36.741  1.00  0.00    -0.237 OA
ATOM     70  O   UNL A   1      48.676  26.560  36.427  1.00  0.00    -0.237 OA
ATOM     71  O   UNL A   1      47.387  26.351  38.519  1.00  0.00    -0.744 OA
ENDBRANCH  67  68
ENDBRANCH  46  60
BRANCH  47  72
ATOM     72  C   UNL A   1      36.543  33.416  30.791  1.00  0.00     0.058 A 
ATOM     73  C   UNL A   1      35.244  33.301  31.307  1.00  0.00     0.135 A 
ATOM     74  C   UNL A   1      36.731  34.247  29.676  1.00  0.00     0.135 A 
ATOM     75  F   UNL A   1      35.009  32.508  32.364  1.00  0.00    -0.206 F 
ATOM     76  C   UNL A   1      34.171  33.981  30.738  1.00  0.00     0.059 A 
ATOM     77  C   UNL A   1      35.678  34.958  29.106  1.00  0.00     0.059 A 
ATOM     78  F   UNL A   1      37.956  34.400  29.149  1.00  0.00    -0.206 F 
ATOM     79  C   UNL A   1      34.400  34.812  29.640  1.00  0.00     0.060 A 
BRANCH  79  80
ATOM     80  S   UNL A   1      33.014  35.743  28.948  1.00  0.00     0.124 S 
ATOM     81  O   UNL A   1      33.705  36.806  28.229  1.00  0.00    -0.237 OA
ATOM     82  O   UNL A   1      32.351  34.739  28.122  1.00  0.00    -0.237 OA
ATOM     83  O   UNL A   1      32.268  36.162  30.131  1.00  0.00    -0.744 OA
ENDBRANCH  79  80
ENDBRANCH  47  72
BRANCH  59  84
ATOM     84  C   UNL A   1      39.919  34.114  36.862  1.00  0.00     0.058 A 
ATOM     85  C   UNL A   1      40.575  35.354  36.841  1.00  0.00     0.135 A 
ATOM     86  C   UNL A   1      39.071  33.836  37.945  1.00  0.00     0.135 A 
ATOM     87  F   UNL A   1      41.403  35.663  35.829  1.00  0.00    -0.206 F 
ATOM     88  C   UNL A   1      40.404  36.282  37.863  1.00  0.00     0.059 A 
ATOM     89  C   UNL A   1      38.867  34.757  38.967  1.00  0.00     0.059 A 
ATOM     90  F   UNL A   1      38.414  32.667  38.007  1.00  0.00    -0.206 F 
ATOM     91  C   UNL A   1      39.545  35.975  38.921  1.00  0.00     0.060 A 
BRANCH  91  92
ATOM     92  S   UNL A   1      39.293  37.206  40.216  1.00  0.00     0.124 S 
ATOM     93  O   UNL A   1      38.498  38.210  39.517  1.00  0.00    -0.237 OA
ATOM     94  O   UNL A   1      38.592  36.442  41.243  1.00  0.00    -0.237 OA
ATOM     95  O   UNL A   1      40.652  37.612  40.566  1.00  0.00    -0.744 OA
ENDBRANCH  91  92
ENDBRANCH  59  84
ENDBRANCH  33  34
ENDBRANCH  26  28
ENDBRANCH  25  26
ENDBRANCH  24  25
ENDBRANCH   1  24
TORSDOF 20
ENDMDL
MODEL 3
REMARK VINA RESULT:     -10.5      2.234      3.202
REMARK SMILES CC(C)[C@H](CO)Nc1ccc(C(F)(F)F)cc1C(=O)OCCOC(=O)c1ccc(-c2c3nc(c(-c4c(F)cc(S(=O)(=O)[O-])cc4F)c4ccc([nH]4)c(-c4c(F)cc(S(=O)(=O)[O-])cc4F)c4nc(c(-c5c(F)cc(S(=O)(=O)[O-])cc5F)c5ccc2[nH]5)C=C4)C=C3)cc1
REMARK SMILES IDX 21 1 20 2 18 3 19 4 17 5 8 6 9 7 10 8 16 9 11 10 7 11 4 13
REMARK SMILES IDX 2 14 1 15 3 16 5 17 6 18 12 20 13 21 14 22 15 23 22 24 23 25
REMARK SMILES IDX 24 26 25 27 26 28 27 29 91 30 28 31 90 32 29 33 30 34 31 35
REMARK SMILES IDX 84 36 32 37 89 38 83 39 85 40 33 41 88 42 82 43 81 44 34 46
REMARK SMILES IDX 68 47 47 48 67 49 48 50 51 51 66 52 86 53 49 54 50 55 65 57
REMARK SMILES IDX 87 58 52 59 35 60 36 61 45 62 37 63 38 64 44 65 46 66 39 67
REMARK SMILES IDX 40 68 41 69 42 70 43 71 69 72 70 73 79 74 71 75 72 76 78 77
REMARK SMILES IDX 80 78 73 79 74 80 75 81 76 82 77 83 53 84 54 85 63 86 55 87
REMARK SMILES IDX 56 88 62 89 64 90 57 91 58 92 59 93 60 94 61 95
REMARK H PARENT 7 12 6 19 85 45 51 56
REMARK Flexibility Score: inf
ROOT
ATOM      1  C   UNL A   1      34.019  29.329  26.104  1.00  0.00     0.275 C 
ENDROOT
BRANCH   1   2
ATOM      2  O   UNL A   1      32.684  29.652  25.669  1.00  0.00    -0.458 OA
BRANCH   2   3
ATOM      3  C   UNL A   1      31.776  28.649  25.715  1.00  0.00     0.340 C 
ATOM      4  O   UNL A   1      31.651  27.824  26.606  1.00  0.00    -0.246 OA
BRANCH   3   5
ATOM      5  C   UNL A   1      30.884  28.727  24.540  1.00  0.00     0.083 A 
ATOM      6  C   UNL A   1      30.688  27.688  23.609  1.00  0.00     0.049 A 
ATOM      7  C   UNL A   1      29.846  27.991  22.515  1.00  0.00     0.027 A 
ATOM      8  C   UNL A   1      29.238  29.241  22.342  1.00  0.00     0.015 A 
ATOM      9  C   UNL A   1      30.227  29.972  24.396  1.00  0.00     0.031 A 
ATOM     10  C   UNL A   1      29.432  30.255  23.278  1.00  0.00     0.057 A 
BRANCH   6  11
ATOM     11  N   UNL A   1      31.175  26.391  23.643  1.00  0.00    -0.379 N 
ATOM     12  H   UNL A   1      30.540  25.712  23.964  1.00  0.00     0.160 HD
BRANCH  11  13
ATOM     13  C   UNL A   1      32.494  25.883  23.271  1.00  0.00     0.107 C 
BRANCH  13  14
ATOM     14  C   UNL A   1      33.122  25.039  24.428  1.00  0.00     0.007 C 
ATOM     15  C   UNL A   1      34.259  25.727  25.189  1.00  0.00     0.009 C 
ATOM     16  C   UNL A   1      32.108  24.504  25.451  1.00  0.00     0.009 C 
ENDBRANCH  13  14
BRANCH  13  17
ATOM     17  C   UNL A   1      33.375  27.065  22.790  1.00  0.00     0.181 C 
BRANCH  17  18
ATOM     18  O   UNL A   1      33.580  27.056  21.376  1.00  0.00    -0.394 OA
ATOM     19  H   UNL A   1      34.521  27.199  21.185  1.00  0.00     0.210 HD
ENDBRANCH  17  18
ENDBRANCH  13  17
ENDBRANCH  11  13
ENDBRANCH   6  11
BRANCH  10  20
ATOM     20  C   UNL A   1      28.794  31.611  23.090  1.00  0.00     0.416 C 
ATOM     21  F   UNL A   1      29.319  32.555  23.919  1.00  0.00    -0.166 F 
ATOM     22  F   UNL A   1      28.957  32.087  21.827  1.00  0.00    -0.166 F 
ATOM     23  F   UNL A   1      27.455  31.607  23.328  1.00  0.00    -0.166 F 
ENDBRANCH  10  20
ENDBRANCH   3   5
ENDBRANCH   2   3
ENDBRANCH   1   2
BRANCH   1  24
ATOM     24  C   UNL A   1      34.355  30.132  27.363  1.00  0.00     0.275 C 
BRANCH  24  25
ATOM     25  O   UNL A   1      35.438  29.480  28.045  1.00  0.00    -0.458 OA
BRANCH  25  26
ATOM     26  C   UNL A   1      36.066  30.244  28.969  1.00  0.00     0.338 C 
ATOM     27  O   UNL A   1      35.567  30.921  29.850  1.00  0.00    -0.246 OA
BRANCH  26  28
ATOM     28  C   UNL A   1      37.494  29.925  28.887  1.00  0.00     0.060 A 
ATOM     29  C   UNL A   1      38.021  29.677  27.620  1.00  0.00     0.016 A 
ATOM     30  C   UNL A   1      38.293  29.851  30.023  1.00  0.00     0.016 A 
ATOM     31  C   UNL A   1      39.356  29.317  27.473  1.00  0.00     0.010 A 
ATOM     32  C   UNL A   1      39.641  29.518  29.874  1.00  0.00     0.010 A 
ATOM     33  C   UNL A   1      40.178  29.230  28.602  1.00  0.00    -0.014 A 
BRANCH  33  34
ATOM     34  C   UNL A   1      41.579  28.754  28.483  1.00  0.00     0.031 A 
ATOM     35  C   UNL A   1      42.695  29.750  28.620  1.00  0.00     0.074 A 
ATOM     36  C   UNL A   1      41.850  27.458  28.238  1.00  0.00     0.049 A 
ATOM     37  N   UNL A   1      43.955  29.634  28.302  1.00  0.00    -0.248 NA
ATOM     38  C   UNL A   1      42.332  31.066  29.173  1.00  0.00     0.031 C 
ATOM     39  C   UNL A   1      40.859  26.384  28.155  1.00  0.00     0.029 A 
ATOM     40  N   UNL A   1      43.045  26.826  28.002  1.00  0.00    -0.354 N 
ATOM     41  C   UNL A   1      44.524  30.877  28.552  1.00  0.00     0.074 A 
ATOM     42  C   UNL A   1      43.470  31.732  29.055  1.00  0.00     0.031 C 
ATOM     43  C   UNL A   1      41.487  25.226  27.890  1.00  0.00     0.029 A 
ATOM     44  C   UNL A   1      42.912  25.490  27.707  1.00  0.00     0.049 A 
ATOM     45  H   UNL A   1      43.916  27.285  28.039  1.00  0.00     0.167 HD
ATOM     46  C   UNL A   1      45.808  31.265  28.368  1.00  0.00     0.037 A 
ATOM     47  C   UNL A   1      43.825  24.592  27.287  1.00  0.00     0.037 A 
ATOM     48  C   UNL A   1      46.850  30.381  27.917  1.00  0.00     0.049 A 
ATOM     49  C   UNL A   1      45.243  25.046  27.074  1.00  0.00     0.074 A 
ATOM     50  C   UNL A   1      48.187  30.662  27.696  1.00  0.00     0.029 A 
ATOM     51  N   UNL A   1      46.673  29.032  27.638  1.00  0.00    -0.354 N 
ATOM     52  N   UNL A   1      45.758  26.243  27.240  1.00  0.00    -0.248 NA
ATOM     53  C   UNL A   1      46.201  24.040  26.597  1.00  0.00     0.031 C 
ATOM     54  C   UNL A   1      48.811  29.489  27.257  1.00  0.00     0.029 A 
ATOM     55  C   UNL A   1      47.873  28.469  27.244  1.00  0.00     0.049 A 
ATOM     56  H   UNL A   1      45.819  28.548  27.711  1.00  0.00     0.167 HD
ATOM     57  C   UNL A   1      47.102  26.128  26.905  1.00  0.00     0.074 A 
ATOM     58  C   UNL A   1      47.323  24.745  26.537  1.00  0.00     0.031 C 
ATOM     59  C   UNL A   1      48.067  27.082  26.898  1.00  0.00     0.037 A 
BRANCH  46  60
ATOM     60  C   UNL A   1      46.143  32.712  28.609  1.00  0.00     0.058 A 
ATOM     61  C   UNL A   1      46.647  33.169  29.836  1.00  0.00     0.135 A 
ATOM     62  C   UNL A   1      45.964  33.657  27.584  1.00  0.00     0.135 A 
ATOM     63  F   UNL A   1      46.818  32.313  30.857  1.00  0.00    -0.206 F 
ATOM     64  C   UNL A   1      46.937  34.514  30.049  1.00  0.00     0.059 A 
ATOM     65  C   UNL A   1      46.272  35.002  27.766  1.00  0.00     0.059 A 
ATOM     66  F   UNL A   1      45.480  33.276  26.391  1.00  0.00    -0.206 F 
ATOM     67  C   UNL A   1      46.741  35.423  29.008  1.00  0.00     0.060 A 
BRANCH  67  68
ATOM     68  S   UNL A   1      47.115  37.166  29.298  1.00  0.00     0.124 S 
ATOM     69  O   UNL A   1      45.898  37.809  28.813  1.00  0.00    -0.237 OA
ATOM     70  O   UNL A   1      47.321  37.208  30.742  1.00  0.00    -0.237 OA
ATOM     71  O   UNL A   1      48.310  37.397  28.492  1.00  0.00    -0.744 OA
ENDBRANCH  67  68
ENDBRANCH  46  60
BRANCH  47  72
ATOM     72  C   UNL A   1      43.412  23.190  27.003  1.00  0.00     0.058 A 
ATOM     73  C   UNL A   1      43.308  22.720  25.685  1.00  0.00     0.135 A 
ATOM     74  C   UNL A   1      43.141  22.286  28.041  1.00  0.00     0.135 A 
ATOM     75  F   UNL A   1      43.543  23.549  24.657  1.00  0.00    -0.206 F 
ATOM     76  C   UNL A   1      42.947  21.405  25.408  1.00  0.00     0.059 A 
ATOM     77  C   UNL A   1      42.804  20.959  27.789  1.00  0.00     0.059 A 
ATOM     78  F   UNL A   1      43.235  22.682  29.320  1.00  0.00    -0.206 F 
ATOM     79  C   UNL A   1      42.702  20.530  26.467  1.00  0.00     0.060 A 
BRANCH  79  80
ATOM     80  S   UNL A   1      42.299  18.807  26.100  1.00  0.00     0.124 S 
ATOM     81  O   UNL A   1      42.580  18.161  27.375  1.00  0.00    -0.237 OA
ATOM     82  O   UNL A   1      40.891  18.894  25.724  1.00  0.00    -0.237 OA
ATOM     83  O   UNL A   1      43.210  18.476  25.008  1.00  0.00    -0.744 OA
ENDBRANCH  79  80
ENDBRANCH  47  72
BRANCH  59  84
ATOM     84  C   UNL A   1      49.454  26.654  26.520  1.00  0.00     0.058 A 
ATOM     85  C   UNL A   1      50.332  26.091  27.459  1.00  0.00     0.135 A 
ATOM     86  C   UNL A   1      49.885  26.747  25.187  1.00  0.00     0.135 A 
ATOM     87  F   UNL A   1      49.969  25.988  28.747  1.00  0.00    -0.206 F 
ATOM     88  C   UNL A   1      51.597  25.645  27.090  1.00  0.00     0.059 A 
ATOM     89  C   UNL A   1      51.136  26.287  24.792  1.00  0.00     0.059 A 
ATOM     90  F   UNL A   1      49.077  27.269  24.250  1.00  0.00    -0.206 F 
ATOM     91  C   UNL A   1      51.989  25.744  25.753  1.00  0.00     0.060 A 
BRANCH  91  92
ATOM     92  S   UNL A   1      53.613  25.118  25.278  1.00  0.00     0.124 S 
ATOM     93  O   UNL A   1      53.810  25.762  23.984  1.00  0.00    -0.237 OA
ATOM     94  O   UNL A   1      54.464  25.597  26.363  1.00  0.00    -0.237 OA
ATOM     95  O   UNL A   1      53.419  23.671  25.237  1.00  0.00    -0.744 OA
ENDBRANCH  91  92
ENDBRANCH  59  84
ENDBRANCH  33  34
ENDBRANCH  26  28
ENDBRANCH  25  26
ENDBRANCH  24  25
ENDBRANCH   1  24
TORSDOF 20
ENDMDL
