MODEL 1
REMARK VINA RESULT:     -11.7      0.000      0.000
REMARK SMILES O=C(Cn1cccc1C(=O)OCCOC(=O)c1ccc(-c2c3nc(c(-c4c(F)cc(S(=O)(=O)[O-])cc4F)c4ccc([nH]4)c(-c4c(F)cc(S(=O)(=O)[O-])cc4F)c4nc(c(-c5c(F)cc(S(=O)(=O)[O-])cc5F)c5ccc2[nH]5)C=C4)C=C3)cc1)Nc1cccc(Br)c1
REMARK SMILES IDX 12 1 11 2 9 3 10 4 8 5 4 6 5 7 6 8 7 9 3 10 2 11 1 12 83 13
REMARK SMILES IDX 84 15 85 16 90 17 86 18 88 19 87 20 89 21 13 22 14 23 15 24
REMARK SMILES IDX 16 25 17 26 18 27 82 28 19 29 81 30 20 31 21 32 22 33 75 34
REMARK SMILES IDX 23 35 80 36 74 37 76 38 24 39 79 40 73 41 72 42 25 44 59 45
REMARK SMILES IDX 38 46 58 47 39 48 42 49 57 50 77 51 40 52 41 53 56 55 78 56
REMARK SMILES IDX 43 57 26 58 27 59 36 60 28 61 29 62 35 63 37 64 30 65 31 66
REMARK SMILES IDX 32 67 33 68 34 69 60 70 61 71 70 72 62 73 63 74 69 75 71 76
REMARK SMILES IDX 64 77 65 78 66 79 67 80 68 81 44 82 45 83 54 84 46 85 47 86
REMARK SMILES IDX 53 87 55 88 48 89 49 90 50 91 51 92 52 93
REMARK H PARENT 83 14 76 43 42 54
REMARK Flexibility Score: inf
ROOT
ATOM      1  C   UNL A   1      33.475  29.144  25.749  1.00  0.00     0.275 C 
ENDROOT
BRANCH   1   2
ATOM      2  O   UNL A   1      34.375  28.507  24.823  1.00  0.00    -0.457 OA
BRANCH   2   3
ATOM      3  C   UNL A   1      33.799  27.861  23.770  1.00  0.00     0.355 C 
ATOM      4  O   UNL A   1      33.761  28.311  22.628  1.00  0.00    -0.244 OA
BRANCH   3   5
ATOM      5  C   UNL A   1      33.318  26.539  24.145  1.00  0.00     0.128 A 
ATOM      6  N   UNL A   1      32.249  25.814  23.634  1.00  0.00    -0.333 N 
ATOM      7  C   UNL A   1      32.052  24.686  24.400  1.00  0.00     0.087 A 
ATOM      8  C   UNL A   1      33.031  24.634  25.362  1.00  0.00     0.020 A 
ATOM      9  C   UNL A   1      33.825  25.787  25.201  1.00  0.00     0.035 A 
BRANCH   6  10
ATOM     10  C   UNL A   1      31.419  26.204  22.495  1.00  0.00     0.222 C 
BRANCH  10  11
ATOM     11  C   UNL A   1      30.369  27.272  22.755  1.00  0.00     0.244 C 
ATOM     12  O   UNL A   1      29.371  27.005  23.422  1.00  0.00    -0.273 OA
ATOM     13  N   UNL A   1      30.693  28.533  22.274  1.00  0.00    -0.325 N 
ATOM     14  H   UNL A   1      31.513  28.602  21.735  1.00  0.00     0.169 HD
BRANCH  13  15
ATOM     15  C   UNL A   1      29.968  29.725  22.478  1.00  0.00     0.042 A 
ATOM     16  C   UNL A   1      29.885  30.207  23.791  1.00  0.00     0.026 A 
ATOM     17  C   UNL A   1      29.330  30.428  21.453  1.00  0.00     0.041 A 
ATOM     18  C   UNL A   1      29.206  31.395  24.071  1.00  0.00     0.003 A 
ATOM     19  C   UNL A   1      28.635  31.605  21.743  1.00  0.00     0.020 A 
ATOM     20  C   UNL A   1      28.578  32.096  23.045  1.00  0.00     0.016 A 
ATOM     21  Br  UNL A   1      27.748  32.537  20.355  1.00  0.00    -0.051 Br
ENDBRANCH  13  15
ENDBRANCH  10  11
ENDBRANCH   6  10
ENDBRANCH   3   5
ENDBRANCH   2   3
ENDBRANCH   1   2
BRANCH   1  22
ATOM     22  C   UNL A   1      33.975  29.064  27.190  1.00  0.00     0.275 C 
BRANCH  22  23
ATOM     23  O   UNL A   1      35.398  28.960  27.294  1.00  0.00    -0.458 OA
BRANCH  23  24
ATOM     24  C   UNL A   1      35.960  30.061  27.844  1.00  0.00     0.338 C 
ATOM     25  O   UNL A   1      35.602  31.219  27.705  1.00  0.00    -0.246 OA
BRANCH  24  26
ATOM     26  C   UNL A   1      37.253  29.749  28.438  1.00  0.00     0.060 A 
ATOM     27  C   UNL A   1      38.383  29.903  27.629  1.00  0.00     0.016 A 
ATOM     28  C   UNL A   1      37.266  28.982  29.609  1.00  0.00     0.016 A 
ATOM     29  C   UNL A   1      39.522  29.194  27.950  1.00  0.00     0.010 A 
ATOM     30  C   UNL A   1      38.391  28.239  29.902  1.00  0.00     0.010 A 
ATOM     31  C   UNL A   1      39.503  28.337  29.059  1.00  0.00    -0.014 A 
BRANCH  31  32
ATOM     32  C   UNL A   1      40.766  27.695  29.444  1.00  0.00     0.031 A 
ATOM     33  C   UNL A   1      40.954  26.412  28.587  1.00  0.00     0.074 A 
ATOM     34  C   UNL A   1      41.444  28.293  30.479  1.00  0.00     0.049 A 
ATOM     35  N   UNL A   1      41.523  25.288  28.883  1.00  0.00    -0.248 NA
ATOM     36  C   UNL A   1      40.312  26.319  27.236  1.00  0.00     0.031 C 
ATOM     37  C   UNL A   1      41.064  29.573  31.139  1.00  0.00     0.029 A 
ATOM     38  N   UNL A   1      42.576  27.972  31.201  1.00  0.00    -0.354 N 
ATOM     39  C   UNL A   1      41.522  24.476  27.721  1.00  0.00     0.074 A 
ATOM     40  C   UNL A   1      40.642  25.104  26.791  1.00  0.00     0.031 C 
ATOM     41  C   UNL A   1      41.871  29.847  32.192  1.00  0.00     0.029 A 
ATOM     42  C   UNL A   1      42.868  28.804  32.327  1.00  0.00     0.049 A 
ATOM     43  H   UNL A   1      43.151  27.212  30.954  1.00  0.00     0.167 HD
ATOM     44  C   UNL A   1      42.366  23.413  27.558  1.00  0.00     0.037 A 
ATOM     45  C   UNL A   1      43.811  28.614  33.312  1.00  0.00     0.037 A 
ATOM     46  C   UNL A   1      43.167  23.281  28.727  1.00  0.00     0.049 A 
ATOM     47  C   UNL A   1      44.552  27.432  32.855  1.00  0.00     0.074 A 
ATOM     48  C   UNL A   1      42.857  22.855  29.991  1.00  0.00     0.029 A 
ATOM     49  N   UNL A   1      44.323  24.024  28.759  1.00  0.00    -0.354 N 
ATOM     50  N   UNL A   1      45.381  27.415  31.857  1.00  0.00    -0.248 NA
ATOM     51  C   UNL A   1      44.241  26.140  33.480  1.00  0.00     0.031 C 
ATOM     52  C   UNL A   1      43.523  23.794  30.799  1.00  0.00     0.029 A 
ATOM     53  C   UNL A   1      44.439  24.525  30.030  1.00  0.00     0.049 A 
ATOM     54  H   UNL A   1      44.949  24.169  28.012  1.00  0.00     0.167 HD
ATOM     55  C   UNL A   1      45.412  26.083  31.531  1.00  0.00     0.074 A 
ATOM     56  C   UNL A   1      44.984  25.354  32.709  1.00  0.00     0.031 C 
ATOM     57  C   UNL A   1      45.247  25.703  30.239  1.00  0.00     0.037 A 
BRANCH  44  58
ATOM     58  C   UNL A   1      42.769  22.574  26.377  1.00  0.00     0.058 A 
ATOM     59  C   UNL A   1      42.411  21.199  26.400  1.00  0.00     0.135 A 
ATOM     60  C   UNL A   1      43.760  22.937  25.456  1.00  0.00     0.135 A 
ATOM     61  F   UNL A   1      41.413  20.761  27.187  1.00  0.00    -0.206 F 
ATOM     62  C   UNL A   1      43.109  20.230  25.693  1.00  0.00     0.059 A 
ATOM     63  C   UNL A   1      44.443  21.981  24.695  1.00  0.00     0.059 A 
ATOM     64  F   UNL A   1      44.147  24.213  25.327  1.00  0.00    -0.206 F 
ATOM     65  C   UNL A   1      44.152  20.627  24.869  1.00  0.00     0.060 A 
BRANCH  65  66
ATOM     66  S   UNL A   1      45.131  19.340  24.066  1.00  0.00     0.124 S 
ATOM     67  O   UNL A   1      44.760  18.158  24.836  1.00  0.00    -0.237 OA
ATOM     68  O   UNL A   1      44.628  19.384  22.695  1.00  0.00    -0.237 OA
ATOM     69  O   UNL A   1      46.503  19.806  24.236  1.00  0.00    -0.744 OA
ENDBRANCH  65  66
ENDBRANCH  44  58
BRANCH  45  70
ATOM     70  C   UNL A   1      44.197  29.123  34.700  1.00  0.00     0.058 A 
ATOM     71  C   UNL A   1      43.483  28.950  35.891  1.00  0.00     0.135 A 
ATOM     72  C   UNL A   1      45.480  29.727  34.890  1.00  0.00     0.135 A 
ATOM     73  F   UNL A   1      42.205  28.549  35.870  1.00  0.00    -0.206 F 
ATOM     74  C   UNL A   1      44.064  29.179  37.163  1.00  0.00     0.059 A 
ATOM     75  C   UNL A   1      46.099  29.900  36.127  1.00  0.00     0.059 A 
ATOM     76  F   UNL A   1      46.223  30.152  33.860  1.00  0.00    -0.206 F 
ATOM     77  C   UNL A   1      45.396  29.584  37.269  1.00  0.00     0.060 A 
BRANCH  77  78
ATOM     78  S   UNL A   1      46.267  29.568  38.856  1.00  0.00     0.124 S 
ATOM     79  O   UNL A   1      47.111  28.386  38.736  1.00  0.00    -0.237 OA
ATOM     80  O   UNL A   1      46.960  30.852  38.844  1.00  0.00    -0.237 OA
ATOM     81  O   UNL A   1      45.183  29.469  39.833  1.00  0.00    -0.744 OA
ENDBRANCH  77  78
ENDBRANCH  45  70
BRANCH  57  82
ATOM     82  C   UNL A   1      45.644  26.738  29.197  1.00  0.00     0.058 A 
ATOM     83  C   UNL A   1      46.982  27.159  29.122  1.00  0.00     0.135 A 
ATOM     84  C   UNL A   1      44.755  27.389  28.323  1.00  0.00     0.135 A 
ATOM     85  F   UNL A   1      47.905  26.591  29.915  1.00  0.00    -0.206 F 
ATOM     86  C   UNL A   1      47.410  28.152  28.236  1.00  0.00     0.059 A 
ATOM     87  C   UNL A   1      45.155  28.384  27.422  1.00  0.00     0.059 A 
ATOM     88  F   UNL A   1      43.460  27.076  28.317  1.00  0.00    -0.206 F 
ATOM     89  C   UNL A   1      46.492  28.758  27.382  1.00  0.00     0.060 A 
BRANCH  89  90
ATOM     90  S   UNL A   1      47.079  29.999  26.205  1.00  0.00     0.124 S 
ATOM     91  O   UNL A   1      46.604  31.245  26.797  1.00  0.00    -0.237 OA
ATOM     92  O   UNL A   1      48.524  29.794  26.241  1.00  0.00    -0.237 OA
ATOM     93  O   UNL A   1      46.429  29.623  24.950  1.00  0.00    -0.744 OA
ENDBRANCH  89  90
ENDBRANCH  57  82
ENDBRANCH  31  32
ENDBRANCH  24  26
ENDBRANCH  23  24
ENDBRANCH  22  23
ENDBRANCH   1  22
TORSDOF 17
ENDMDL
MODEL 2
REMARK VINA RESULT:     -11.7      3.774      5.744
REMARK SMILES O=C(Cn1cccc1C(=O)OCCOC(=O)c1ccc(-c2c3nc(c(-c4c(F)cc(S(=O)(=O)[O-])cc4F)c4ccc([nH]4)c(-c4c(F)cc(S(=O)(=O)[O-])cc4F)c4nc(c(-c5c(F)cc(S(=O)(=O)[O-])cc5F)c5ccc2[nH]5)C=C4)C=C3)cc1)Nc1cccc(Br)c1
REMARK SMILES IDX 12 1 11 2 9 3 10 4 8 5 4 6 5 7 6 8 7 9 3 10 2 11 1 12 83 13
REMARK SMILES IDX 84 15 85 16 90 17 86 18 88 19 87 20 89 21 13 22 14 23 15 24
REMARK SMILES IDX 16 25 17 26 18 27 82 28 19 29 81 30 20 31 21 32 22 33 75 34
REMARK SMILES IDX 23 35 80 36 74 37 76 38 24 39 79 40 73 41 72 42 25 44 59 45
REMARK SMILES IDX 38 46 58 47 39 48 42 49 57 50 77 51 40 52 41 53 56 55 78 56
REMARK SMILES IDX 43 57 26 58 27 59 36 60 28 61 29 62 35 63 37 64 30 65 31 66
REMARK SMILES IDX 32 67 33 68 34 69 60 70 61 71 70 72 62 73 63 74 69 75 71 76
REMARK SMILES IDX 64 77 65 78 66 79 67 80 68 81 44 82 45 83 54 84 46 85 47 86
REMARK SMILES IDX 53 87 55 88 48 89 49 90 50 91 51 92 52 93
REMARK H PARENT 83 14 76 43 42 54
REMARK Flexibility Score: inf
ROOT
ATOM      1  C   UNL A   1      35.726  32.600  29.768  1.00  0.00     0.275 C 
ENDROOT
BRANCH   1   2
ATOM      2  O   UNL A   1      36.512  31.902  30.752  1.00  0.00    -0.457 OA
BRANCH   2   3
ATOM      3  C   UNL A   1      35.956  31.779  31.990  1.00  0.00     0.355 C 
ATOM      4  O   UNL A   1      34.757  31.913  32.220  1.00  0.00    -0.244 OA
BRANCH   3   5
ATOM      5  C   UNL A   1      36.941  31.382  32.986  1.00  0.00     0.128 A 
ATOM      6  N   UNL A   1      37.232  31.960  34.216  1.00  0.00    -0.333 N 
ATOM      7  C   UNL A   1      38.351  31.361  34.751  1.00  0.00     0.087 A 
ATOM      8  C   UNL A   1      38.748  30.348  33.913  1.00  0.00     0.020 A 
ATOM      9  C   UNL A   1      37.867  30.356  32.814  1.00  0.00     0.035 A 
BRANCH   6  10
ATOM     10  C   UNL A   1      36.505  33.069  34.831  1.00  0.00     0.222 C 
BRANCH  10  11
ATOM     11  C   UNL A   1      36.234  34.277  33.948  1.00  0.00     0.244 C 
ATOM     12  O   UNL A   1      37.170  34.880  33.425  1.00  0.00    -0.273 OA
ATOM     13  N   UNL A   1      34.890  34.544  33.726  1.00  0.00    -0.325 N 
ATOM     14  H   UNL A   1      34.244  33.997  34.227  1.00  0.00     0.169 HD
BRANCH  13  15
ATOM     15  C   UNL A   1      34.357  35.518  32.858  1.00  0.00     0.042 A 
ATOM     16  C   UNL A   1      34.156  36.801  33.381  1.00  0.00     0.026 A 
ATOM     17  C   UNL A   1      34.014  35.264  31.527  1.00  0.00     0.041 A 
ATOM     18  C   UNL A   1      33.656  37.828  32.577  1.00  0.00     0.003 A 
ATOM     19  C   UNL A   1      33.494  36.290  30.734  1.00  0.00     0.020 A 
ATOM     20  C   UNL A   1      33.323  37.572  31.249  1.00  0.00     0.016 A 
ATOM     21  Br  UNL A   1      33.004  35.932  28.941  1.00  0.00    -0.051 Br
ENDBRANCH  13  15
ENDBRANCH  10  11
ENDBRANCH   6  10
ENDBRANCH   3   5
ENDBRANCH   2   3
ENDBRANCH   1   2
BRANCH   1  22
ATOM     22  C   UNL A   1      35.012  31.646  28.813  1.00  0.00     0.275 C 
BRANCH  22  23
ATOM     23  O   UNL A   1      35.829  31.217  27.720  1.00  0.00    -0.458 OA
BRANCH  23  24
ATOM     24  C   UNL A   1      36.068  29.886  27.741  1.00  0.00     0.338 C 
ATOM     25  O   UNL A   1      35.272  28.990  27.514  1.00  0.00    -0.246 OA
BRANCH  24  26
ATOM     26  C   UNL A   1      37.362  29.595  28.344  1.00  0.00     0.060 A 
ATOM     27  C   UNL A   1      38.493  29.747  27.536  1.00  0.00     0.016 A 
ATOM     28  C   UNL A   1      37.378  28.846  29.526  1.00  0.00     0.016 A 
ATOM     29  C   UNL A   1      39.637  29.053  27.870  1.00  0.00     0.010 A 
ATOM     30  C   UNL A   1      38.509  28.117  29.834  1.00  0.00     0.010 A 
ATOM     31  C   UNL A   1      39.622  28.213  28.993  1.00  0.00    -0.014 A 
BRANCH  31  32
ATOM     32  C   UNL A   1      40.890  27.587  29.390  1.00  0.00     0.031 A 
ATOM     33  C   UNL A   1      41.091  26.293  28.554  1.00  0.00     0.074 A 
ATOM     34  C   UNL A   1      41.560  28.208  30.418  1.00  0.00     0.049 A 
ATOM     35  N   UNL A   1      41.668  25.178  28.870  1.00  0.00    -0.248 NA
ATOM     36  C   UNL A   1      40.453  26.172  27.204  1.00  0.00     0.031 C 
ATOM     37  C   UNL A   1      41.168  29.494  31.056  1.00  0.00     0.029 A 
ATOM     38  N   UNL A   1      42.693  27.908  31.147  1.00  0.00    -0.354 N 
ATOM     39  C   UNL A   1      41.677  24.348  27.721  1.00  0.00     0.074 A 
ATOM     40  C   UNL A   1      40.794  24.953  26.779  1.00  0.00     0.031 C 
ATOM     41  C   UNL A   1      41.970  29.792  32.107  1.00  0.00     0.029 A 
ATOM     42  C   UNL A   1      42.976  28.760  32.260  1.00  0.00     0.049 A 
ATOM     43  H   UNL A   1      43.275  27.149  30.913  1.00  0.00     0.167 HD
ATOM     44  C   UNL A   1      42.530  23.289  27.577  1.00  0.00     0.037 A 
ATOM     45  C   UNL A   1      43.918  28.594  33.250  1.00  0.00     0.037 A 
ATOM     46  C   UNL A   1      43.330  23.183  28.750  1.00  0.00     0.049 A 
ATOM     47  C   UNL A   1      44.669  27.411  32.814  1.00  0.00     0.074 A 
ATOM     48  C   UNL A   1      43.020  22.775  30.020  1.00  0.00     0.029 A 
ATOM     49  N   UNL A   1      44.480  23.936  28.772  1.00  0.00    -0.354 N 
ATOM     50  N   UNL A   1      45.501  27.385  31.819  1.00  0.00    -0.248 NA
ATOM     51  C   UNL A   1      44.368  26.126  33.458  1.00  0.00     0.031 C 
ATOM     52  C   UNL A   1      43.677  23.732  30.814  1.00  0.00     0.029 A 
ATOM     53  C   UNL A   1      44.588  24.458  30.036  1.00  0.00     0.049 A 
ATOM     54  H   UNL A   1      45.105  24.075  28.025  1.00  0.00     0.167 HD
ATOM     55  C   UNL A   1      45.544  26.049  31.514  1.00  0.00     0.074 A 
ATOM     56  C   UNL A   1      45.120  25.335  32.702  1.00  0.00     0.031 C 
ATOM     57  C   UNL A   1      45.386  25.646  30.228  1.00  0.00     0.037 A 
BRANCH  44  58
ATOM     58  C   UNL A   1      42.943  22.435  26.410  1.00  0.00     0.058 A 
ATOM     59  C   UNL A   1      42.598  21.058  26.456  1.00  0.00     0.135 A 
ATOM     60  C   UNL A   1      43.932  22.793  25.485  1.00  0.00     0.135 A 
ATOM     61  F   UNL A   1      41.603  20.623  27.247  1.00  0.00    -0.206 F 
ATOM     62  C   UNL A   1      43.307  20.084  25.765  1.00  0.00     0.059 A 
ATOM     63  C   UNL A   1      44.626  21.830  24.741  1.00  0.00     0.059 A 
ATOM     64  F   UNL A   1      44.308  24.070  25.336  1.00  0.00    -0.206 F 
ATOM     65  C   UNL A   1      44.348  20.477  24.936  1.00  0.00     0.060 A 
BRANCH  65  66
ATOM     66  S   UNL A   1      45.340  19.187  24.156  1.00  0.00     0.124 S 
ATOM     67  O   UNL A   1      44.669  19.030  22.870  1.00  0.00    -0.237 OA
ATOM     68  O   UNL A   1      46.662  19.806  24.105  1.00  0.00    -0.237 OA
ATOM     69  O   UNL A   1      45.218  18.064  25.079  1.00  0.00    -0.744 OA
ENDBRANCH  65  66
ENDBRANCH  44  58
BRANCH  45  70
ATOM     70  C   UNL A   1      44.296  29.128  34.631  1.00  0.00     0.058 A 
ATOM     71  C   UNL A   1      45.512  29.709  35.008  1.00  0.00     0.135 A 
ATOM     72  C   UNL A   1      43.295  29.192  35.653  1.00  0.00     0.135 A 
ATOM     73  F   UNL A   1      46.597  29.588  34.231  1.00  0.00    -0.206 F 
ATOM     74  C   UNL A   1      45.658  30.450  36.207  1.00  0.00     0.059 A 
ATOM     75  C   UNL A   1      43.391  29.967  36.807  1.00  0.00     0.059 A 
ATOM     76  F   UNL A   1      42.140  28.521  35.556  1.00  0.00    -0.206 F 
ATOM     77  C   UNL A   1      44.569  30.633  37.061  1.00  0.00     0.060 A 
BRANCH  77  78
ATOM     78  S   UNL A   1      44.622  31.832  38.417  1.00  0.00     0.124 S 
ATOM     79  O   UNL A   1      44.344  33.088  37.732  1.00  0.00    -0.237 OA
ATOM     80  O   UNL A   1      43.573  31.343  39.306  1.00  0.00    -0.237 OA
ATOM     81  O   UNL A   1      45.980  31.688  38.940  1.00  0.00    -0.744 OA
ENDBRANCH  77  78
ENDBRANCH  45  70
BRANCH  57  82
ATOM     82  C   UNL A   1      45.777  26.668  29.170  1.00  0.00     0.058 A 
ATOM     83  C   UNL A   1      47.120  27.064  29.061  1.00  0.00     0.135 A 
ATOM     84  C   UNL A   1      44.878  27.330  28.314  1.00  0.00     0.135 A 
ATOM     85  F   UNL A   1      48.051  26.483  29.835  1.00  0.00    -0.206 F 
ATOM     86  C   UNL A   1      47.544  28.044  28.159  1.00  0.00     0.059 A 
ATOM     87  C   UNL A   1      45.275  28.313  27.397  1.00  0.00     0.059 A 
ATOM     88  F   UNL A   1      43.578  27.041  28.340  1.00  0.00    -0.206 F 
ATOM     89  C   UNL A   1      46.617  28.662  27.324  1.00  0.00     0.060 A 
BRANCH  89  90
ATOM     90  S   UNL A   1      47.199  29.885  26.124  1.00  0.00     0.124 S 
ATOM     91  O   UNL A   1      48.619  29.989  26.445  1.00  0.00    -0.237 OA
ATOM     92  O   UNL A   1      46.885  29.239  24.854  1.00  0.00    -0.237 OA
ATOM     93  O   UNL A   1      46.407  31.075  26.429  1.00  0.00    -0.744 OA
ENDBRANCH  89  90
ENDBRANCH  57  82
ENDBRANCH  31  32
ENDBRANCH  24  26
ENDBRANCH  23  24
ENDBRANCH  22  23
ENDBRANCH   1  22
TORSDOF 17
ENDMDL
MODEL 3
REMARK VINA RESULT:     -11.7      8.533     11.939
REMARK SMILES O=C(Cn1cccc1C(=O)OCCOC(=O)c1ccc(-c2c3nc(c(-c4c(F)cc(S(=O)(=O)[O-])cc4F)c4ccc([nH]4)c(-c4c(F)cc(S(=O)(=O)[O-])cc4F)c4nc(c(-c5c(F)cc(S(=O)(=O)[O-])cc5F)c5ccc2[nH]5)C=C4)C=C3)cc1)Nc1cccc(Br)c1
REMARK SMILES IDX 12 1 11 2 9 3 10 4 8 5 4 6 5 7 6 8 7 9 3 10 2 11 1 12 83 13
REMARK SMILES IDX 84 15 85 16 90 17 86 18 88 19 87 20 89 21 13 22 14 23 15 24
REMARK SMILES IDX 16 25 17 26 18 27 82 28 19 29 81 30 20 31 21 32 22 33 75 34
REMARK SMILES IDX 23 35 80 36 74 37 76 38 24 39 79 40 73 41 72 42 25 44 59 45
REMARK SMILES IDX 38 46 58 47 39 48 42 49 57 50 77 51 40 52 41 53 56 55 78 56
REMARK SMILES IDX 43 57 26 58 27 59 36 60 28 61 29 62 35 63 37 64 30 65 31 66
REMARK SMILES IDX 32 67 33 68 34 69 60 70 61 71 70 72 62 73 63 74 69 75 71 76
REMARK SMILES IDX 64 77 65 78 66 79 67 80 68 81 44 82 45 83 54 84 46 85 47 86
REMARK SMILES IDX 53 87 55 88 48 89 49 90 50 91 51 92 52 93
REMARK H PARENT 83 14 76 43 42 54
REMARK Flexibility Score: inf
ROOT
ATOM      1  C   UNL A   1      44.040  39.656  27.837  1.00  0.00     0.275 C 
ENDROOT
BRANCH   1   2
ATOM      2  O   UNL A   1      44.088  39.998  26.439  1.00  0.00    -0.457 OA
BRANCH   2   3
ATOM      3  C   UNL A   1      43.034  40.716  25.958  1.00  0.00     0.355 C 
ATOM      4  O   UNL A   1      41.864  40.346  26.024  1.00  0.00    -0.244 OA
BRANCH   3   5
ATOM      5  C   UNL A   1      43.454  42.012  25.443  1.00  0.00     0.128 A 
ATOM      6  N   UNL A   1      43.128  42.629  24.242  1.00  0.00    -0.333 N 
ATOM      7  C   UNL A   1      43.886  43.770  24.092  1.00  0.00     0.087 A 
ATOM      8  C   UNL A   1      44.651  43.939  25.220  1.00  0.00     0.020 A 
ATOM      9  C   UNL A   1      44.379  42.845  26.066  1.00  0.00     0.035 A 
BRANCH   6  10
ATOM     10  C   UNL A   1      42.171  42.128  23.257  1.00  0.00     0.222 C 
BRANCH  10  11
ATOM     11  C   UNL A   1      42.491  42.408  21.797  1.00  0.00     0.244 C 
ATOM     12  O   UNL A   1      43.187  41.622  21.157  1.00  0.00    -0.273 OA
ATOM     13  N   UNL A   1      41.861  43.527  21.270  1.00  0.00    -0.325 N 
ATOM     14  H   UNL A   1      41.350  44.083  21.901  1.00  0.00     0.169 HD
BRANCH  13  15
ATOM     15  C   UNL A   1      41.878  43.949  19.925  1.00  0.00     0.042 A 
ATOM     16  C   UNL A   1      40.679  43.851  19.208  1.00  0.00     0.026 A 
ATOM     17  C   UNL A   1      43.017  44.440  19.282  1.00  0.00     0.041 A 
ATOM     18  C   UNL A   1      40.608  44.273  17.878  1.00  0.00     0.003 A 
ATOM     19  C   UNL A   1      42.945  44.841  17.946  1.00  0.00     0.020 A 
ATOM     20  C   UNL A   1      41.745  44.769  17.244  1.00  0.00     0.016 A 
ATOM     21  Br  UNL A   1      44.499  45.477  17.072  1.00  0.00    -0.051 Br
ENDBRANCH  13  15
ENDBRANCH  10  11
ENDBRANCH   6  10
ENDBRANCH   3   5
ENDBRANCH   2   3
ENDBRANCH   1   2
BRANCH   1  22
ATOM     22  C   UNL A   1      45.209  38.766  28.255  1.00  0.00     0.275 C 
BRANCH  22  23
ATOM     23  O   UNL A   1      44.908  37.916  29.365  1.00  0.00    -0.458 OA
BRANCH  23  24
ATOM     24  C   UNL A   1      45.811  36.920  29.515  1.00  0.00     0.338 C 
ATOM     25  O   UNL A   1      47.028  37.017  29.487  1.00  0.00    -0.246 OA
BRANCH  24  26
ATOM     26  C   UNL A   1      45.169  35.614  29.451  1.00  0.00     0.060 A 
ATOM     27  C   UNL A   1      44.400  35.334  28.318  1.00  0.00     0.016 A 
ATOM     28  C   UNL A   1      45.046  34.888  30.641  1.00  0.00     0.016 A 
ATOM     29  C   UNL A   1      43.418  34.369  28.413  1.00  0.00     0.010 A 
ATOM     30  C   UNL A   1      44.034  33.956  30.748  1.00  0.00     0.010 A 
ATOM     31  C   UNL A   1      43.217  33.718  29.638  1.00  0.00    -0.014 A 
BRANCH  31  32
ATOM     32  C   UNL A   1      42.251  32.613  29.670  1.00  0.00     0.031 A 
ATOM     33  C   UNL A   1      42.860  31.396  28.920  1.00  0.00     0.074 A 
ATOM     34  C   UNL A   1      41.043  32.898  30.262  1.00  0.00     0.049 A 
ATOM     35  N   UNL A   1      42.282  30.474  28.219  1.00  0.00    -0.248 NA
ATOM     36  C   UNL A   1      44.348  31.242  28.838  1.00  0.00     0.031 C 
ATOM     37  C   UNL A   1      40.698  34.169  30.957  1.00  0.00     0.029 A 
ATOM     38  N   UNL A   1      39.856  32.209  30.408  1.00  0.00    -0.354 N 
ATOM     39  C   UNL A   1      43.270  29.534  27.832  1.00  0.00     0.074 A 
ATOM     40  C   UNL A   1      44.532  30.132  28.118  1.00  0.00     0.031 C 
ATOM     41  C   UNL A   1      39.399  34.186  31.345  1.00  0.00     0.029 A 
ATOM     42  C   UNL A   1      38.763  32.939  30.971  1.00  0.00     0.049 A 
ATOM     43  H   UNL A   1      39.768  31.266  30.140  1.00  0.00     0.167 HD
ATOM     44  C   UNL A   1      42.966  28.261  27.434  1.00  0.00     0.037 A 
ATOM     45  C   UNL A   1      37.440  32.567  31.064  1.00  0.00     0.037 A 
ATOM     46  C   UNL A   1      41.552  28.099  27.457  1.00  0.00     0.049 A 
ATOM     47  C   UNL A   1      37.439  31.179  30.585  1.00  0.00     0.074 A 
ATOM     48  C   UNL A   1      40.572  28.600  26.642  1.00  0.00     0.029 A 
ATOM     49  N   UNL A   1      41.004  27.712  28.657  1.00  0.00    -0.354 N 
ATOM     50  N   UNL A   1      37.920  30.167  31.241  1.00  0.00    -0.248 NA
ATOM     51  C   UNL A   1      36.986  30.924  29.213  1.00  0.00     0.031 C 
ATOM     52  C   UNL A   1      39.585  28.993  27.562  1.00  0.00     0.029 A 
ATOM     53  C   UNL A   1      39.854  28.439  28.821  1.00  0.00     0.049 A 
ATOM     54  H   UNL A   1      41.368  27.041  29.280  1.00  0.00     0.167 HD
ATOM     55  C   UNL A   1      38.136  29.254  30.242  1.00  0.00     0.074 A 
ATOM     56  C   UNL A   1      37.276  29.629  29.137  1.00  0.00     0.031 C 
ATOM     57  C   UNL A   1      39.334  28.621  30.156  1.00  0.00     0.037 A 
BRANCH  44  58
ATOM     58  C   UNL A   1      43.777  27.010  27.238  1.00  0.00     0.058 A 
ATOM     59  C   UNL A   1      44.223  26.721  25.921  1.00  0.00     0.135 A 
ATOM     60  C   UNL A   1      43.812  25.946  28.148  1.00  0.00     0.135 A 
ATOM     61  F   UNL A   1      44.309  27.692  24.995  1.00  0.00    -0.206 F 
ATOM     62  C   UNL A   1      44.511  25.432  25.492  1.00  0.00     0.059 A 
ATOM     63  C   UNL A   1      44.148  24.646  27.748  1.00  0.00     0.059 A 
ATOM     64  F   UNL A   1      43.446  26.118  29.426  1.00  0.00    -0.206 F 
ATOM     65  C   UNL A   1      44.434  24.391  26.406  1.00  0.00     0.060 A 
BRANCH  65  66
ATOM     66  S   UNL A   1      44.680  22.711  25.796  1.00  0.00     0.124 S 
ATOM     67  O   UNL A   1      44.466  22.879  24.362  1.00  0.00    -0.237 OA
ATOM     68  O   UNL A   1      46.056  22.436  26.200  1.00  0.00    -0.237 OA
ATOM     69  O   UNL A   1      43.662  21.943  26.505  1.00  0.00    -0.744 OA
ENDBRANCH  65  66
ENDBRANCH  44  58
BRANCH  45  70
ATOM     70  C   UNL A   1      36.058  33.155  31.346  1.00  0.00     0.058 A 
ATOM     71  C   UNL A   1      35.357  33.120  32.556  1.00  0.00     0.135 A 
ATOM     72  C   UNL A   1      35.424  33.956  30.344  1.00  0.00     0.135 A 
ATOM     73  F   UNL A   1      35.729  32.289  33.539  1.00  0.00    -0.206 F 
ATOM     74  C   UNL A   1      34.238  33.952  32.807  1.00  0.00     0.059 A 
ATOM     75  C   UNL A   1      34.366  34.831  30.583  1.00  0.00     0.059 A 
ATOM     76  F   UNL A   1      35.834  33.953  29.069  1.00  0.00    -0.206 F 
ATOM     77  C   UNL A   1      33.798  34.856  31.838  1.00  0.00     0.060 A 
BRANCH  77  78
ATOM     78  S   UNL A   1      32.598  36.154  32.230  1.00  0.00     0.124 S 
ATOM     79  O   UNL A   1      31.390  35.386  32.508  1.00  0.00    -0.237 OA
ATOM     80  O   UNL A   1      33.215  36.812  33.378  1.00  0.00    -0.237 OA
ATOM     81  O   UNL A   1      32.564  36.960  31.011  1.00  0.00    -0.744 OA
ENDBRANCH  77  78
ENDBRANCH  45  70
BRANCH  57  82
ATOM     82  C   UNL A   1      40.102  28.497  31.463  1.00  0.00     0.058 A 
ATOM     83  C   UNL A   1      39.560  27.732  32.510  1.00  0.00     0.135 A 
ATOM     84  C   UNL A   1      41.309  29.157  31.758  1.00  0.00     0.135 A 
ATOM     85  F   UNL A   1      38.412  27.062  32.319  1.00  0.00    -0.206 F 
ATOM     86  C   UNL A   1      40.175  27.625  33.760  1.00  0.00     0.059 A 
ATOM     87  C   UNL A   1      41.950  29.065  33.001  1.00  0.00     0.059 A 
ATOM     88  F   UNL A   1      41.907  29.918  30.843  1.00  0.00    -0.206 F 
ATOM     89  C   UNL A   1      41.375  28.290  33.999  1.00  0.00     0.060 A 
BRANCH  89  90
ATOM     90  S   UNL A   1      42.182  28.088  35.605  1.00  0.00     0.124 S 
ATOM     91  O   UNL A   1      43.361  28.939  35.474  1.00  0.00    -0.237 OA
ATOM     92  O   UNL A   1      41.156  28.571  36.524  1.00  0.00    -0.237 OA
ATOM     93  O   UNL A   1      42.458  26.655  35.679  1.00  0.00    -0.744 OA
ENDBRANCH  89  90
ENDBRANCH  57  82
ENDBRANCH  31  32
ENDBRANCH  24  26
ENDBRANCH  23  24
ENDBRANCH  22  23
ENDBRANCH   1  22
TORSDOF 17
ENDMDL
