MODEL 1
REMARK VINA RESULT:     -12.7      0.000      0.000
REMARK SMILES COc1ccc2c(c1)c(CC(=O)OCCOC(=O)c1ccc(-c3c4nc(c(-c5c(F)cc(S(=O)(=O)[O-])cc5F)c5ccc([nH]5)c(-c5c(F)cc(S(=O)(=O)[O-])cc5F)c5nc(c(-c6c(F)cc(S(=O)(=O)[O-])cc6F)c6ccc3[nH]6)C=C5)C=C4)cc1)c(C)n2Cc1ccc(Br)cc1
REMARK SMILES IDX 14 1 13 2 11 3 12 4 10 5 9 6 3 7 4 8 8 9 5 10 7 11 6 12
REMARK SMILES IDX 87 13 85 14 86 15 2 16 1 17 88 18 89 19 90 20 95 21 91 22
REMARK SMILES IDX 94 23 92 24 93 25 15 26 16 27 17 28 18 29 19 30 20 31 84 32
REMARK SMILES IDX 21 33 83 34 22 35 23 36 24 37 77 38 25 39 82 40 76 41 78 42
REMARK SMILES IDX 26 43 81 44 75 45 74 46 27 48 61 49 40 50 60 51 41 52 44 53
REMARK SMILES IDX 59 54 79 55 42 56 43 57 58 59 80 60 45 61 28 62 29 63 38 64
REMARK SMILES IDX 30 65 31 66 37 67 39 68 32 69 33 70 34 71 35 72 36 73 62 74
REMARK SMILES IDX 63 75 72 76 64 77 65 78 71 79 73 80 66 81 67 82 68 83 69 84
REMARK SMILES IDX 70 85 46 86 47 87 56 88 48 89 49 90 55 91 57 92 50 93 51 94
REMARK SMILES IDX 52 95 53 96 54 97
REMARK H PARENT 78 47 44 58
REMARK Flexibility Score: inf
ROOT
ATOM      1  C   UNL A   1      37.306  21.475  24.702  1.00  0.00     0.274 C 
ENDROOT
BRANCH   1   2
ATOM      2  O   UNL A   1      37.372  22.743  24.012  1.00  0.00    -0.462 OA
BRANCH   2   3
ATOM      3  C   UNL A   1      36.174  23.313  23.741  1.00  0.00     0.310 C 
ATOM      4  O   UNL A   1      35.556  23.136  22.694  1.00  0.00    -0.252 OA
BRANCH   3   5
ATOM      5  C   UNL A   1      35.675  24.293  24.761  1.00  0.00     0.160 C 
BRANCH   5   6
ATOM      6  C   UNL A   1      34.227  24.422  25.126  1.00  0.00    -0.008 A 
ATOM      7  C   UNL A   1      31.785  21.450  25.434  1.00  0.00     0.119 A 
ATOM      8  C   UNL A   1      30.673  22.208  25.772  1.00  0.00     0.048 A 
ATOM      9  C   UNL A   1      33.042  22.066  25.316  1.00  0.00     0.057 A 
ATOM     10  C   UNL A   1      30.780  23.592  25.943  1.00  0.00     0.031 A 
ATOM     11  C   UNL A   1      33.171  23.473  25.366  1.00  0.00     0.007 A 
ATOM     12  C   UNL A   1      32.019  24.208  25.688  1.00  0.00     0.049 A 
ATOM     13  N   UNL A   1      32.399  25.536  25.712  1.00  0.00    -0.340 N 
ATOM     14  C   UNL A   1      33.590  25.658  25.035  1.00  0.00     0.020 A 
ATOM     15  C   UNL A   1      34.092  26.909  24.394  1.00  0.00     0.065 C 
BRANCH   7  16
ATOM     16  O   UNL A   1      31.758  20.093  25.241  1.00  0.00    -0.497 OA
ATOM     17  C   UNL A   1      33.009  19.424  25.397  1.00  0.00     0.278 C 
ENDBRANCH   7  16
BRANCH  13  18
ATOM     18  C   UNL A   1      31.674  26.627  26.353  1.00  0.00     0.157 C 
BRANCH  18  19
ATOM     19  C   UNL A   1      31.019  27.523  25.316  1.00  0.00    -0.028 A 
ATOM     20  C   UNL A   1      30.156  26.992  24.341  1.00  0.00     0.007 A 
ATOM     21  C   UNL A   1      31.297  28.895  25.275  1.00  0.00     0.007 A 
ATOM     22  C   UNL A   1      29.624  27.789  23.328  1.00  0.00     0.016 A 
ATOM     23  C   UNL A   1      30.739  29.706  24.280  1.00  0.00     0.016 A 
ATOM     24  C   UNL A   1      29.916  29.146  23.304  1.00  0.00     0.017 A 
ATOM     25  Br  UNL A   1      29.193  30.234  21.938  1.00  0.00    -0.051 Br
ENDBRANCH  18  19
ENDBRANCH  13  18
ENDBRANCH   5   6
ENDBRANCH   3   5
ENDBRANCH   2   3
ENDBRANCH   1   2
BRANCH   1  26
ATOM     26  C   UNL A   1      38.513  21.290  25.625  1.00  0.00     0.275 C 
BRANCH  26  27
ATOM     27  O   UNL A   1      38.826  22.550  26.237  1.00  0.00    -0.458 OA
BRANCH  27  28
ATOM     28  C   UNL A   1      40.120  22.768  26.574  1.00  0.00     0.338 C 
ATOM     29  O   UNL A   1      41.111  22.242  26.099  1.00  0.00    -0.246 OA
BRANCH  28  30
ATOM     30  C   UNL A   1      40.112  24.006  27.375  1.00  0.00     0.060 A 
ATOM     31  C   UNL A   1      39.150  24.988  27.142  1.00  0.00     0.016 A 
ATOM     32  C   UNL A   1      41.229  24.267  28.178  1.00  0.00     0.016 A 
ATOM     33  C   UNL A   1      39.378  26.275  27.610  1.00  0.00     0.010 A 
ATOM     34  C   UNL A   1      41.472  25.562  28.609  1.00  0.00     0.010 A 
ATOM     35  C   UNL A   1      40.572  26.573  28.282  1.00  0.00    -0.014 A 
BRANCH  35  36
ATOM     36  C   UNL A   1      40.725  27.899  28.856  1.00  0.00     0.031 A 
ATOM     37  C   UNL A   1      41.972  28.561  28.421  1.00  0.00     0.074 A 
ATOM     38  C   UNL A   1      39.869  28.578  29.641  1.00  0.00     0.049 A 
ATOM     39  N   UNL A   1      43.084  28.616  29.073  1.00  0.00    -0.248 NA
ATOM     40  C   UNL A   1      42.042  29.078  27.050  1.00  0.00     0.031 C 
ATOM     41  C   UNL A   1      38.468  28.306  29.950  1.00  0.00     0.029 A 
ATOM     42  N   UNL A   1      40.117  29.745  30.304  1.00  0.00    -0.354 N 
ATOM     43  C   UNL A   1      43.951  29.348  28.274  1.00  0.00     0.074 A 
ATOM     44  C   UNL A   1      43.324  29.441  26.981  1.00  0.00     0.031 C 
ATOM     45  C   UNL A   1      37.941  29.376  30.597  1.00  0.00     0.029 A 
ATOM     46  C   UNL A   1      39.003  30.330  30.885  1.00  0.00     0.049 A 
ATOM     47  H   UNL A   1      41.017  30.140  30.366  1.00  0.00     0.167 HD
ATOM     48  C   UNL A   1      45.019  30.000  28.807  1.00  0.00     0.037 A 
ATOM     49  C   UNL A   1      38.974  31.521  31.535  1.00  0.00     0.037 A 
ATOM     50  C   UNL A   1      45.266  29.581  30.166  1.00  0.00     0.049 A 
ATOM     51  C   UNL A   1      40.352  31.790  32.028  1.00  0.00     0.074 A 
ATOM     52  C   UNL A   1      45.577  28.383  30.777  1.00  0.00     0.029 A 
ATOM     53  N   UNL A   1      44.845  30.421  31.169  1.00  0.00    -0.354 N 
ATOM     54  N   UNL A   1      40.952  31.092  32.955  1.00  0.00    -0.248 NA
ATOM     55  C   UNL A   1      41.228  32.640  31.233  1.00  0.00     0.031 C 
ATOM     56  C   UNL A   1      44.918  28.422  32.041  1.00  0.00     0.029 A 
ATOM     57  C   UNL A   1      44.263  29.651  32.143  1.00  0.00     0.049 A 
ATOM     58  H   UNL A   1      44.944  31.401  31.186  1.00  0.00     0.167 HD
ATOM     59  C   UNL A   1      42.290  31.096  32.598  1.00  0.00     0.074 A 
ATOM     60  C   UNL A   1      42.416  32.163  31.613  1.00  0.00     0.031 C 
ATOM     61  C   UNL A   1      43.117  30.061  32.931  1.00  0.00     0.037 A 
BRANCH  48  62
ATOM     62  C   UNL A   1      45.612  31.269  28.249  1.00  0.00     0.058 A 
ATOM     63  C   UNL A   1      44.805  32.423  28.183  1.00  0.00     0.135 A 
ATOM     64  C   UNL A   1      46.817  31.321  27.515  1.00  0.00     0.135 A 
ATOM     65  F   UNL A   1      43.643  32.487  28.852  1.00  0.00    -0.206 F 
ATOM     66  C   UNL A   1      45.117  33.503  27.359  1.00  0.00     0.059 A 
ATOM     67  C   UNL A   1      47.177  32.414  26.735  1.00  0.00     0.059 A 
ATOM     68  F   UNL A   1      47.653  30.280  27.428  1.00  0.00    -0.206 F 
ATOM     69  C   UNL A   1      46.294  33.473  26.617  1.00  0.00     0.060 A 
BRANCH  69  70
ATOM     70  S   UNL A   1      46.617  34.779  25.422  1.00  0.00     0.124 S 
ATOM     71  O   UNL A   1      48.007  34.509  25.073  1.00  0.00    -0.237 OA
ATOM     72  O   UNL A   1      45.629  34.495  24.386  1.00  0.00    -0.237 OA
ATOM     73  O   UNL A   1      46.382  35.999  26.188  1.00  0.00    -0.744 OA
ENDBRANCH  69  70
ENDBRANCH  48  62
BRANCH  49  74
ATOM     74  C   UNL A   1      37.916  32.564  31.522  1.00  0.00     0.058 A 
ATOM     75  C   UNL A   1      37.182  32.846  30.352  1.00  0.00     0.135 A 
ATOM     76  C   UNL A   1      37.398  33.095  32.720  1.00  0.00     0.135 A 
ATOM     77  F   UNL A   1      37.590  32.367  29.168  1.00  0.00    -0.206 F 
ATOM     78  C   UNL A   1      35.978  33.557  30.379  1.00  0.00     0.059 A 
ATOM     79  C   UNL A   1      36.204  33.815  32.768  1.00  0.00     0.059 A 
ATOM     80  F   UNL A   1      37.989  32.849  33.899  1.00  0.00    -0.206 F 
ATOM     81  C   UNL A   1      35.484  34.017  31.598  1.00  0.00     0.060 A 
BRANCH  81  82
ATOM     82  S   UNL A   1      33.843  34.777  31.662  1.00  0.00     0.124 S 
ATOM     83  O   UNL A   1      33.174  33.964  32.672  1.00  0.00    -0.237 OA
ATOM     84  O   UNL A   1      34.154  36.148  32.048  1.00  0.00    -0.237 OA
ATOM     85  O   UNL A   1      33.342  34.614  30.299  1.00  0.00    -0.744 OA
ENDBRANCH  81  82
ENDBRANCH  49  74
BRANCH  61  86
ATOM     86  C   UNL A   1      42.689  29.120  34.025  1.00  0.00     0.058 A 
ATOM     87  C   UNL A   1      41.833  28.022  33.837  1.00  0.00     0.135 A 
ATOM     88  C   UNL A   1      43.322  29.236  35.274  1.00  0.00     0.135 A 
ATOM     89  F   UNL A   1      41.257  27.790  32.648  1.00  0.00    -0.206 F 
ATOM     90  C   UNL A   1      41.609  27.087  34.851  1.00  0.00     0.059 A 
ATOM     91  C   UNL A   1      43.137  28.300  36.286  1.00  0.00     0.059 A 
ATOM     92  F   UNL A   1      44.190  30.237  35.496  1.00  0.00    -0.206 F 
ATOM     93  C   UNL A   1      42.277  27.227  36.069  1.00  0.00     0.060 A 
BRANCH  93  94
ATOM     94  S   UNL A   1      42.090  25.945  37.328  1.00  0.00     0.124 S 
ATOM     95  O   UNL A   1      43.018  26.389  38.362  1.00  0.00    -0.237 OA
ATOM     96  O   UNL A   1      40.672  26.036  37.666  1.00  0.00    -0.237 OA
ATOM     97  O   UNL A   1      42.475  24.721  36.630  1.00  0.00    -0.744 OA
ENDBRANCH  93  94
ENDBRANCH  61  86
ENDBRANCH  35  36
ENDBRANCH  28  30
ENDBRANCH  27  28
ENDBRANCH  26  27
ENDBRANCH   1  26
TORSDOF 18
ENDMDL
MODEL 2
REMARK VINA RESULT:     -12.3      1.227      2.069
REMARK SMILES COc1ccc2c(c1)c(CC(=O)OCCOC(=O)c1ccc(-c3c4nc(c(-c5c(F)cc(S(=O)(=O)[O-])cc5F)c5ccc([nH]5)c(-c5c(F)cc(S(=O)(=O)[O-])cc5F)c5nc(c(-c6c(F)cc(S(=O)(=O)[O-])cc6F)c6ccc3[nH]6)C=C5)C=C4)cc1)c(C)n2Cc1ccc(Br)cc1
REMARK SMILES IDX 14 1 13 2 11 3 12 4 10 5 9 6 3 7 4 8 8 9 5 10 7 11 6 12
REMARK SMILES IDX 87 13 85 14 86 15 2 16 1 17 88 18 89 19 90 20 95 21 91 22
REMARK SMILES IDX 94 23 92 24 93 25 15 26 16 27 17 28 18 29 19 30 20 31 84 32
REMARK SMILES IDX 21 33 83 34 22 35 23 36 24 37 77 38 25 39 82 40 76 41 78 42
REMARK SMILES IDX 26 43 81 44 75 45 74 46 27 48 61 49 40 50 60 51 41 52 44 53
REMARK SMILES IDX 59 54 79 55 42 56 43 57 58 59 80 60 45 61 28 62 29 63 38 64
REMARK SMILES IDX 30 65 31 66 37 67 39 68 32 69 33 70 34 71 35 72 36 73 62 74
REMARK SMILES IDX 63 75 72 76 64 77 65 78 71 79 73 80 66 81 67 82 68 83 69 84
REMARK SMILES IDX 70 85 46 86 47 87 56 88 48 89 49 90 55 91 57 92 50 93 51 94
REMARK SMILES IDX 52 95 53 96 54 97
REMARK H PARENT 78 47 44 58
REMARK Flexibility Score: inf
ROOT
ATOM      1  C   UNL A   1      36.835  21.775  24.831  1.00  0.00     0.274 C 
ENDROOT
BRANCH   1   2
ATOM      2  O   UNL A   1      36.983  23.062  24.190  1.00  0.00    -0.462 OA
BRANCH   2   3
ATOM      3  C   UNL A   1      35.894  23.495  23.510  1.00  0.00     0.310 C 
ATOM      4  O   UNL A   1      35.498  22.989  22.463  1.00  0.00    -0.252 OA
BRANCH   3   5
ATOM      5  C   UNL A   1      35.240  24.731  24.053  1.00  0.00     0.160 C 
BRANCH   5   6
ATOM      6  C   UNL A   1      33.805  24.769  24.487  1.00  0.00    -0.008 A 
ATOM      7  C   UNL A   1      31.768  21.666  25.546  1.00  0.00     0.119 A 
ATOM      8  C   UNL A   1      30.588  22.348  25.807  1.00  0.00     0.048 A 
ATOM      9  C   UNL A   1      32.932  22.382  25.219  1.00  0.00     0.057 A 
ATOM     10  C   UNL A   1      30.530  23.741  25.696  1.00  0.00     0.031 A 
ATOM     11  C   UNL A   1      32.888  23.776  24.984  1.00  0.00     0.007 A 
ATOM     12  C   UNL A   1      31.670  24.427  25.237  1.00  0.00     0.049 A 
ATOM     13  N   UNL A   1      31.884  25.766  24.973  1.00  0.00    -0.340 N 
ATOM     14  C   UNL A   1      33.017  25.881  24.202  1.00  0.00     0.020 A 
ATOM     15  C   UNL A   1      33.329  27.024  23.294  1.00  0.00     0.065 C 
BRANCH   7  16
ATOM     16  O   UNL A   1      31.900  20.304  25.625  1.00  0.00    -0.497 OA
ATOM     17  C   UNL A   1      33.226  19.804  25.458  1.00  0.00     0.278 C 
ENDBRANCH   7  16
BRANCH  13  18
ATOM     18  C   UNL A   1      31.060  26.877  25.438  1.00  0.00     0.157 C 
BRANCH  18  19
ATOM     19  C   UNL A   1      31.926  27.996  25.990  1.00  0.00    -0.028 A 
ATOM     20  C   UNL A   1      32.906  27.741  26.965  1.00  0.00     0.007 A 
ATOM     21  C   UNL A   1      31.735  29.321  25.577  1.00  0.00     0.007 A 
ATOM     22  C   UNL A   1      33.641  28.774  27.546  1.00  0.00     0.016 A 
ATOM     23  C   UNL A   1      32.493  30.358  26.133  1.00  0.00     0.016 A 
ATOM     24  C   UNL A   1      33.433  30.080  27.124  1.00  0.00     0.017 A 
ATOM     25  Br  UNL A   1      34.430  31.485  27.903  1.00  0.00    -0.051 Br
ENDBRANCH  18  19
ENDBRANCH  13  18
ENDBRANCH   5   6
ENDBRANCH   3   5
ENDBRANCH   2   3
ENDBRANCH   1   2
BRANCH   1  26
ATOM     26  C   UNL A   1      38.142  21.343  25.500  1.00  0.00     0.275 C 
BRANCH  26  27
ATOM     27  O   UNL A   1      38.556  22.369  26.413  1.00  0.00    -0.458 OA
BRANCH  27  28
ATOM     28  C   UNL A   1      39.831  22.313  26.869  1.00  0.00     0.338 C 
ATOM     29  O   UNL A   1      40.610  21.380  26.782  1.00  0.00    -0.246 OA
BRANCH  28  30
ATOM     30  C   UNL A   1      40.199  23.707  27.174  1.00  0.00     0.060 A 
ATOM     31  C   UNL A   1      41.327  23.984  27.946  1.00  0.00     0.016 A 
ATOM     32  C   UNL A   1      39.260  24.705  26.887  1.00  0.00     0.016 A 
ATOM     33  C   UNL A   1      41.443  25.233  28.541  1.00  0.00     0.010 A 
ATOM     34  C   UNL A   1      39.359  25.937  27.514  1.00  0.00     0.010 A 
ATOM     35  C   UNL A   1      40.423  26.181  28.379  1.00  0.00    -0.014 A 
BRANCH  35  36
ATOM     36  C   UNL A   1      40.633  27.513  28.921  1.00  0.00     0.031 A 
ATOM     37  C   UNL A   1      41.753  28.219  28.264  1.00  0.00     0.074 A 
ATOM     38  C   UNL A   1      39.914  28.163  29.855  1.00  0.00     0.049 A 
ATOM     39  N   UNL A   1      42.963  28.316  28.697  1.00  0.00    -0.248 NA
ATOM     40  C   UNL A   1      41.547  28.735  26.907  1.00  0.00     0.031 C 
ATOM     41  C   UNL A   1      38.607  27.841  30.419  1.00  0.00     0.029 A 
ATOM     42  N   UNL A   1      40.239  29.340  30.465  1.00  0.00    -0.354 N 
ATOM     43  C   UNL A   1      43.639  29.076  27.754  1.00  0.00     0.074 A 
ATOM     44  C   UNL A   1      42.779  29.144  26.601  1.00  0.00     0.031 C 
ATOM     45  C   UNL A   1      38.171  28.893  31.158  1.00  0.00     0.029 A 
ATOM     46  C   UNL A   1      39.233  29.885  31.246  1.00  0.00     0.049 A 
ATOM     47  H   UNL A   1      41.120  29.767  30.360  1.00  0.00     0.167 HD
ATOM     48  C   UNL A   1      44.763  29.769  28.082  1.00  0.00     0.037 A 
ATOM     49  C   UNL A   1      39.283  31.075  31.895  1.00  0.00     0.037 A 
ATOM     50  C   UNL A   1      45.275  29.362  29.369  1.00  0.00     0.049 A 
ATOM     51  C   UNL A   1      40.719  31.395  32.124  1.00  0.00     0.074 A 
ATOM     52  C   UNL A   1      45.738  28.177  29.906  1.00  0.00     0.029 A 
ATOM     53  N   UNL A   1      45.018  30.189  30.436  1.00  0.00    -0.354 N 
ATOM     54  N   UNL A   1      41.505  30.723  32.920  1.00  0.00    -0.248 NA
ATOM     55  C   UNL A   1      41.399  32.275  31.184  1.00  0.00     0.031 C 
ATOM     56  C   UNL A   1      45.325  28.195  31.270  1.00  0.00     0.029 A 
ATOM     57  C   UNL A   1      44.656  29.401  31.499  1.00  0.00     0.049 A 
ATOM     58  H   UNL A   1      45.083  31.171  30.439  1.00  0.00     0.167 HD
ATOM     59  C   UNL A   1      42.753  30.774  32.320  1.00  0.00     0.074 A 
ATOM     60  C   UNL A   1      42.653  31.842  31.333  1.00  0.00     0.031 C 
ATOM     61  C   UNL A   1      43.664  29.771  32.488  1.00  0.00     0.037 A 
BRANCH  48  62
ATOM     62  C   UNL A   1      45.197  31.056  27.428  1.00  0.00     0.058 A 
ATOM     63  C   UNL A   1      46.479  31.122  26.845  1.00  0.00     0.135 A 
ATOM     64  C   UNL A   1      44.541  32.293  27.607  1.00  0.00     0.135 A 
ATOM     65  F   UNL A   1      47.188  30.005  26.617  1.00  0.00    -0.206 F 
ATOM     66  C   UNL A   1      47.108  32.335  26.567  1.00  0.00     0.059 A 
ATOM     67  C   UNL A   1      45.126  33.511  27.279  1.00  0.00     0.059 A 
ATOM     68  F   UNL A   1      43.349  32.397  28.207  1.00  0.00    -0.206 F 
ATOM     69  C   UNL A   1      46.430  33.524  26.816  1.00  0.00     0.060 A 
BRANCH  69  70
ATOM     70  S   UNL A   1      47.297  35.089  26.626  1.00  0.00     0.124 S 
ATOM     71  O   UNL A   1      46.313  35.872  25.887  1.00  0.00    -0.237 OA
ATOM     72  O   UNL A   1      47.520  35.485  28.013  1.00  0.00    -0.237 OA
ATOM     73  O   UNL A   1      48.498  34.719  25.884  1.00  0.00    -0.744 OA
ENDBRANCH  69  70
ENDBRANCH  48  62
BRANCH  49  74
ATOM     74  C   UNL A   1      38.204  32.079  32.084  1.00  0.00     0.058 A 
ATOM     75  C   UNL A   1      37.751  32.876  31.014  1.00  0.00     0.135 A 
ATOM     76  C   UNL A   1      37.392  32.072  33.236  1.00  0.00     0.135 A 
ATOM     77  F   UNL A   1      38.449  32.931  29.871  1.00  0.00    -0.206 F 
ATOM     78  C   UNL A   1      36.538  33.572  31.061  1.00  0.00     0.059 A 
ATOM     79  C   UNL A   1      36.185  32.766  33.309  1.00  0.00     0.059 A 
ATOM     80  F   UNL A   1      37.704  31.312  34.297  1.00  0.00    -0.206 F 
ATOM     81  C   UNL A   1      35.749  33.490  32.207  1.00  0.00     0.060 A 
BRANCH  81  82
ATOM     82  S   UNL A   1      34.101  34.237  32.205  1.00  0.00     0.124 S 
ATOM     83  O   UNL A   1      33.734  34.154  30.795  1.00  0.00    -0.237 OA
ATOM     84  O   UNL A   1      33.366  33.361  33.110  1.00  0.00    -0.237 OA
ATOM     85  O   UNL A   1      34.341  35.587  32.708  1.00  0.00    -0.744 OA
ENDBRANCH  81  82
ENDBRANCH  49  74
BRANCH  61  86
ATOM     86  C   UNL A   1      43.481  28.817  33.638  1.00  0.00     0.058 A 
ATOM     87  C   UNL A   1      44.051  28.991  34.911  1.00  0.00     0.135 A 
ATOM     88  C   UNL A   1      42.539  27.785  33.490  1.00  0.00     0.135 A 
ATOM     89  F   UNL A   1      44.892  30.005  35.159  1.00  0.00    -0.206 F 
ATOM     90  C   UNL A   1      43.707  28.166  35.985  1.00  0.00     0.059 A 
ATOM     91  C   UNL A   1      42.159  26.972  34.554  1.00  0.00     0.059 A 
ATOM     92  F   UNL A   1      41.922  27.603  32.310  1.00  0.00    -0.206 F 
ATOM     93  C   UNL A   1      42.749  27.167  35.800  1.00  0.00     0.060 A 
BRANCH  93  94
ATOM     94  S   UNL A   1      42.208  26.192  37.222  1.00  0.00     0.124 S 
ATOM     95  O   UNL A   1      43.207  26.533  38.229  1.00  0.00    -0.237 OA
ATOM     96  O   UNL A   1      40.862  26.706  37.465  1.00  0.00    -0.237 OA
ATOM     97  O   UNL A   1      42.259  24.816  36.734  1.00  0.00    -0.744 OA
ENDBRANCH  93  94
ENDBRANCH  61  86
ENDBRANCH  35  36
ENDBRANCH  28  30
ENDBRANCH  27  28
ENDBRANCH  26  27
ENDBRANCH   1  26
TORSDOF 18
ENDMDL
MODEL 3
REMARK VINA RESULT:     -12.2      1.972      3.737
REMARK SMILES COc1ccc2c(c1)c(CC(=O)OCCOC(=O)c1ccc(-c3c4nc(c(-c5c(F)cc(S(=O)(=O)[O-])cc5F)c5ccc([nH]5)c(-c5c(F)cc(S(=O)(=O)[O-])cc5F)c5nc(c(-c6c(F)cc(S(=O)(=O)[O-])cc6F)c6ccc3[nH]6)C=C5)C=C4)cc1)c(C)n2Cc1ccc(Br)cc1
REMARK SMILES IDX 14 1 13 2 11 3 12 4 10 5 9 6 3 7 4 8 8 9 5 10 7 11 6 12
REMARK SMILES IDX 87 13 85 14 86 15 2 16 1 17 88 18 89 19 90 20 95 21 91 22
REMARK SMILES IDX 94 23 92 24 93 25 15 26 16 27 17 28 18 29 19 30 20 31 84 32
REMARK SMILES IDX 21 33 83 34 22 35 23 36 24 37 77 38 25 39 82 40 76 41 78 42
REMARK SMILES IDX 26 43 81 44 75 45 74 46 27 48 61 49 40 50 60 51 41 52 44 53
REMARK SMILES IDX 59 54 79 55 42 56 43 57 58 59 80 60 45 61 28 62 29 63 38 64
REMARK SMILES IDX 30 65 31 66 37 67 39 68 32 69 33 70 34 71 35 72 36 73 62 74
REMARK SMILES IDX 63 75 72 76 64 77 65 78 71 79 73 80 66 81 67 82 68 83 69 84
REMARK SMILES IDX 70 85 46 86 47 87 56 88 48 89 49 90 55 91 57 92 50 93 51 94
REMARK SMILES IDX 52 95 53 96 54 97
REMARK H PARENT 78 47 44 58
REMARK Flexibility Score: inf
ROOT
ATOM      1  C   UNL A   1      37.873  22.279  25.782  1.00  0.00     0.274 C 
ENDROOT
BRANCH   1   2
ATOM      2  O   UNL A   1      37.924  22.932  24.493  1.00  0.00    -0.462 OA
BRANCH   2   3
ATOM      3  C   UNL A   1      36.728  23.349  24.013  1.00  0.00     0.310 C 
ATOM      4  O   UNL A   1      36.367  23.187  22.850  1.00  0.00    -0.252 OA
BRANCH   3   5
ATOM      5  C   UNL A   1      35.887  24.143  24.967  1.00  0.00     0.160 C 
BRANCH   5   6
ATOM      6  C   UNL A   1      34.391  24.050  25.006  1.00  0.00    -0.008 A 
ATOM      7  C   UNL A   1      32.005  26.745  23.614  1.00  0.00     0.119 A 
ATOM      8  C   UNL A   1      30.829  26.087  23.949  1.00  0.00     0.048 A 
ATOM      9  C   UNL A   1      33.242  26.108  23.808  1.00  0.00     0.057 A 
ATOM     10  C   UNL A   1      30.865  24.815  24.529  1.00  0.00     0.031 A 
ATOM     11  C   UNL A   1      33.327  24.876  24.496  1.00  0.00     0.007 A 
ATOM     12  C   UNL A   1      32.117  24.252  24.838  1.00  0.00     0.049 A 
ATOM     13  N   UNL A   1      32.455  23.065  25.459  1.00  0.00    -0.340 N 
ATOM     14  C   UNL A   1      33.768  23.144  25.860  1.00  0.00     0.020 A 
ATOM     15  C   UNL A   1      34.380  22.348  26.966  1.00  0.00     0.065 C 
BRANCH   7  16
ATOM     16  O   UNL A   1      32.050  27.994  23.051  1.00  0.00    -0.497 OA
ATOM     17  C   UNL A   1      31.005  28.884  23.443  1.00  0.00     0.278 C 
ENDBRANCH   7  16
BRANCH  13  18
ATOM     18  C   UNL A   1      31.579  21.914  25.651  1.00  0.00     0.157 C 
BRANCH  18  19
ATOM     19  C   UNL A   1      32.199  20.660  25.060  1.00  0.00    -0.028 A 
ATOM     20  C   UNL A   1      32.279  20.477  23.668  1.00  0.00     0.007 A 
ATOM     21  C   UNL A   1      32.662  19.629  25.889  1.00  0.00     0.007 A 
ATOM     22  C   UNL A   1      32.759  19.290  23.116  1.00  0.00     0.016 A 
ATOM     23  C   UNL A   1      33.176  18.449  25.339  1.00  0.00     0.016 A 
ATOM     24  C   UNL A   1      33.210  18.281  23.956  1.00  0.00     0.017 A 
ATOM     25  Br  UNL A   1      33.869  16.672  23.215  1.00  0.00    -0.051 Br
ENDBRANCH  18  19
ENDBRANCH  13  18
ENDBRANCH   5   6
ENDBRANCH   3   5
ENDBRANCH   2   3
ENDBRANCH   1   2
BRANCH   1  26
ATOM     26  C   UNL A   1      39.170  21.513  26.059  1.00  0.00     0.275 C 
BRANCH  26  27
ATOM     27  O   UNL A   1      39.979  22.282  26.960  1.00  0.00    -0.458 OA
BRANCH  27  28
ATOM     28  C   UNL A   1      41.180  22.709  26.502  1.00  0.00     0.338 C 
ATOM     29  O   UNL A   1      41.892  22.170  25.673  1.00  0.00    -0.246 OA
BRANCH  28  30
ATOM     30  C   UNL A   1      41.290  24.112  26.939  1.00  0.00     0.060 A 
ATOM     31  C   UNL A   1      41.994  24.433  28.100  1.00  0.00     0.016 A 
ATOM     32  C   UNL A   1      40.470  25.056  26.310  1.00  0.00     0.016 A 
ATOM     33  C   UNL A   1      41.770  25.664  28.701  1.00  0.00     0.010 A 
ATOM     34  C   UNL A   1      40.219  26.268  26.934  1.00  0.00     0.010 A 
ATOM     35  C   UNL A   1      40.830  26.549  28.153  1.00  0.00    -0.014 A 
BRANCH  35  36
ATOM     36  C   UNL A   1      40.706  27.871  28.743  1.00  0.00     0.031 A 
ATOM     37  C   UNL A   1      41.819  28.765  28.362  1.00  0.00     0.074 A 
ATOM     38  C   UNL A   1      39.709  28.362  29.502  1.00  0.00     0.049 A 
ATOM     39  N   UNL A   1      42.875  29.021  29.055  1.00  0.00    -0.248 NA
ATOM     40  C   UNL A   1      41.837  29.307  26.999  1.00  0.00     0.031 C 
ATOM     41  C   UNL A   1      38.376  27.824  29.755  1.00  0.00     0.029 A 
ATOM     42  N   UNL A   1      39.706  29.545  30.183  1.00  0.00    -0.354 N 
ATOM     43  C   UNL A   1      43.615  29.917  28.296  1.00  0.00     0.074 A 
ATOM     44  C   UNL A   1      43.028  29.908  26.981  1.00  0.00     0.031 C 
ATOM     45  C   UNL A   1      37.631  28.764  30.391  1.00  0.00     0.029 A 
ATOM     46  C   UNL A   1      38.481  29.898  30.726  1.00  0.00     0.049 A 
ATOM     47  H   UNL A   1      40.511  30.103  30.282  1.00  0.00     0.167 HD
ATOM     48  C   UNL A   1      44.518  30.753  28.874  1.00  0.00     0.037 A 
ATOM     49  C   UNL A   1      38.202  31.051  31.384  1.00  0.00     0.037 A 
ATOM     50  C   UNL A   1      44.793  30.368  30.238  1.00  0.00     0.049 A 
ATOM     51  C   UNL A   1      39.485  31.571  31.931  1.00  0.00     0.074 A 
ATOM     52  C   UNL A   1      45.305  29.242  30.850  1.00  0.00     0.029 A 
ATOM     53  N   UNL A   1      44.184  31.097  31.230  1.00  0.00    -0.354 N 
ATOM     54  N   UNL A   1      40.173  30.987  32.874  1.00  0.00    -0.248 NA
ATOM     55  C   UNL A   1      40.209  32.584  31.177  1.00  0.00     0.031 C 
ATOM     56  C   UNL A   1      44.607  29.135  32.089  1.00  0.00     0.029 A 
ATOM     57  C   UNL A   1      43.725  30.216  32.176  1.00  0.00     0.049 A 
ATOM     58  H   UNL A   1      44.093  32.077  31.259  1.00  0.00     0.167 HD
ATOM     59  C   UNL A   1      41.498  31.251  32.568  1.00  0.00     0.074 A 
ATOM     60  C   UNL A   1      41.452  32.337  31.597  1.00  0.00     0.031 C 
ATOM     61  C   UNL A   1      42.495  30.388  32.923  1.00  0.00     0.037 A 
BRANCH  48  62
ATOM     62  C   UNL A   1      44.878  32.120  28.348  1.00  0.00     0.058 A 
ATOM     63  C   UNL A   1      46.216  32.374  27.983  1.00  0.00     0.135 A 
ATOM     64  C   UNL A   1      44.049  33.255  28.467  1.00  0.00     0.135 A 
ATOM     65  F   UNL A   1      47.089  31.366  27.830  1.00  0.00    -0.206 F 
ATOM     66  C   UNL A   1      46.719  33.668  27.857  1.00  0.00     0.059 A 
ATOM     67  C   UNL A   1      44.516  34.552  28.285  1.00  0.00     0.059 A 
ATOM     68  F   UNL A   1      42.776  33.179  28.870  1.00  0.00    -0.206 F 
ATOM     69  C   UNL A   1      45.864  34.750  28.039  1.00  0.00     0.060 A 
BRANCH  69  70
ATOM     70  S   UNL A   1      46.541  36.417  28.051  1.00  0.00     0.124 S 
ATOM     71  O   UNL A   1      45.588  37.106  28.914  1.00  0.00    -0.237 OA
ATOM     72  O   UNL A   1      47.872  36.201  28.610  1.00  0.00    -0.237 OA
ATOM     73  O   UNL A   1      46.512  36.800  26.643  1.00  0.00    -0.744 OA
ENDBRANCH  69  70
ENDBRANCH  48  62
BRANCH  49  74
ATOM     74  C   UNL A   1      36.964  31.873  31.339  1.00  0.00     0.058 A 
ATOM     75  C   UNL A   1      36.166  32.054  32.486  1.00  0.00     0.135 A 
ATOM     76  C   UNL A   1      36.699  32.736  30.258  1.00  0.00     0.135 A 
ATOM     77  F   UNL A   1      36.358  31.290  33.570  1.00  0.00    -0.206 F 
ATOM     78  C   UNL A   1      35.206  33.069  32.576  1.00  0.00     0.059 A 
ATOM     79  C   UNL A   1      35.742  33.749  30.322  1.00  0.00     0.059 A 
ATOM     80  F   UNL A   1      37.430  32.683  29.134  1.00  0.00    -0.206 F 
ATOM     81  C   UNL A   1      35.019  33.928  31.495  1.00  0.00     0.060 A 
BRANCH  81  82
ATOM     82  S   UNL A   1      33.914  35.350  31.671  1.00  0.00     0.124 S 
ATOM     83  O   UNL A   1      34.703  36.242  32.513  1.00  0.00    -0.237 OA
ATOM     84  O   UNL A   1      33.732  35.772  30.287  1.00  0.00    -0.237 OA
ATOM     85  O   UNL A   1      32.728  34.779  32.306  1.00  0.00    -0.744 OA
ENDBRANCH  81  82
ENDBRANCH  49  74
BRANCH  61  86
ATOM     86  C   UNL A   1      42.216  29.366  33.992  1.00  0.00     0.058 A 
ATOM     87  C   UNL A   1      41.561  28.143  33.770  1.00  0.00     0.135 A 
ATOM     88  C   UNL A   1      42.802  29.561  35.254  1.00  0.00     0.135 A 
ATOM     89  F   UNL A   1      41.051  27.841  32.567  1.00  0.00    -0.206 F 
ATOM     90  C   UNL A   1      41.483  27.163  34.763  1.00  0.00     0.059 A 
ATOM     91  C   UNL A   1      42.763  28.587  36.247  1.00  0.00     0.059 A 
ATOM     92  F   UNL A   1      43.485  30.690  35.510  1.00  0.00    -0.206 F 
ATOM     93  C   UNL A   1      42.100  27.389  35.995  1.00  0.00     0.060 A 
BRANCH  93  94
ATOM     94  S   UNL A   1      42.114  26.068  37.228  1.00  0.00     0.124 S 
ATOM     95  O   UNL A   1      43.043  26.587  38.227  1.00  0.00    -0.237 OA
ATOM     96  O   UNL A   1      40.714  26.002  37.639  1.00  0.00    -0.237 OA
ATOM     97  O   UNL A   1      42.589  24.907  36.480  1.00  0.00    -0.744 OA
ENDBRANCH  93  94
ENDBRANCH  61  86
ENDBRANCH  35  36
ENDBRANCH  28  30
ENDBRANCH  27  28
ENDBRANCH  26  27
ENDBRANCH   1  26
TORSDOF 18
ENDMDL
