MODEL 1
REMARK VINA RESULT:     -10.1      0.000      0.000
REMARK SMILES CCCCc1[nH]ncc1C(=O)OCCOC(=O)c1ccc(-c2c3nc(c(-c4c(F)cc(S(=O)(=O)[O-])cc4F)c4ccc([nH]4)c(-c4c(F)cc(S(=O)(=O)[O-])cc4F)c4nc(c(-c5c(F)cc(S(=O)(=O)[O-])cc5F)c5ccc2[nH]5)C=C4)C=C3)cc1
REMARK SMILES IDX 13 1 12 2 10 3 11 4 9 5 5 6 6 7 7 8 8 10 4 11 3 12 2 13 1 14
REMARK SMILES IDX 14 15 15 16 16 17 17 18 18 19 19 20 83 21 20 22 82 23 21 24
REMARK SMILES IDX 22 25 23 26 76 27 24 28 81 29 75 30 77 31 25 32 80 33 74 34
REMARK SMILES IDX 73 35 26 37 60 38 39 39 59 40 40 41 43 42 58 43 78 44 41 45
REMARK SMILES IDX 42 46 57 48 79 49 44 50 27 51 28 52 37 53 29 54 30 55 36 56
REMARK SMILES IDX 38 57 31 58 32 59 33 60 34 61 35 62 61 63 62 64 71 65 63 66
REMARK SMILES IDX 64 67 70 68 72 69 65 70 66 71 67 72 68 73 69 74 45 75 46 76
REMARK SMILES IDX 55 77 47 78 48 79 54 80 56 81 49 82 50 83 51 84 52 85 53 86
REMARK H PARENT 6 9 77 36 43 47
REMARK Flexibility Score: inf
ROOT
ATOM      1  C   UNL A   1      40.430  20.988  26.671  1.00  0.00     0.275 C 
ENDROOT
BRANCH   1   2
ATOM      2  O   UNL A   1      41.494  20.718  25.739  1.00  0.00    -0.458 OA
BRANCH   2   3
ATOM      3  C   UNL A   1      42.765  20.952  26.183  1.00  0.00     0.341 C 
ATOM      4  O   UNL A   1      43.037  21.598  27.180  1.00  0.00    -0.246 OA
BRANCH   3   5
ATOM      5  C   UNL A   1      43.777  20.247  25.411  1.00  0.00     0.100 A 
ATOM      6  C   UNL A   1      44.946  20.699  24.818  1.00  0.00     0.050 A 
ATOM      7  N   UNL A   1      45.392  19.654  24.050  1.00  0.00    -0.282 N 
ATOM      8  N   UNL A   1      44.746  18.506  24.278  1.00  0.00    -0.183 NA
ATOM      9  H   UNL A   1      46.120  19.740  23.392  1.00  0.00     0.190 HD
ATOM     10  C   UNL A   1      43.773  18.862  25.116  1.00  0.00     0.150 A 
BRANCH   6  11
ATOM     11  C   UNL A   1      45.719  21.967  24.915  1.00  0.00     0.056 C 
BRANCH  11  12
ATOM     12  C   UNL A   1      44.873  23.171  24.462  1.00  0.00     0.006 C 
BRANCH  12  13
ATOM     13  C   UNL A   1      45.319  24.540  24.994  1.00  0.00    -0.003 C 
ATOM     14  C   UNL A   1      44.830  24.837  26.403  1.00  0.00     0.004 C 
ENDBRANCH  12  13
ENDBRANCH  11  12
ENDBRANCH   6  11
ENDBRANCH   3   5
ENDBRANCH   2   3
ENDBRANCH   1   2
BRANCH   1  15
ATOM     15  C   UNL A   1      39.665  22.257  26.284  1.00  0.00     0.275 C 
BRANCH  15  16
ATOM     16  O   UNL A   1      39.828  23.278  27.285  1.00  0.00    -0.458 OA
BRANCH  16  17
ATOM     17  C   UNL A   1      40.700  24.267  26.978  1.00  0.00     0.338 C 
ATOM     18  O   UNL A   1      41.464  24.312  26.029  1.00  0.00    -0.246 OA
BRANCH  17  19
ATOM     19  C   UNL A   1      40.499  25.387  27.911  1.00  0.00     0.060 A 
ATOM     20  C   UNL A   1      41.526  26.322  28.021  1.00  0.00     0.016 A 
ATOM     21  C   UNL A   1      39.372  25.479  28.725  1.00  0.00     0.016 A 
ATOM     22  C   UNL A   1      41.445  27.356  28.947  1.00  0.00     0.010 A 
ATOM     23  C   UNL A   1      39.280  26.531  29.647  1.00  0.00     0.010 A 
ATOM     24  C   UNL A   1      40.321  27.471  29.773  1.00  0.00    -0.014 A 
BRANCH  24  25
ATOM     25  C   UNL A   1      40.280  28.539  30.804  1.00  0.00     0.031 A 
ATOM     26  C   UNL A   1      41.239  28.501  31.961  1.00  0.00     0.074 A 
ATOM     27  C   UNL A   1      39.416  29.566  30.681  1.00  0.00     0.049 A 
ATOM     28  N   UNL A   1      41.296  29.273  33.015  1.00  0.00    -0.248 NA
ATOM     29  C   UNL A   1      42.269  27.451  31.928  1.00  0.00     0.031 C 
ATOM     30  C   UNL A   1      38.476  29.751  29.574  1.00  0.00     0.029 A 
ATOM     31  N   UNL A   1      39.193  30.652  31.491  1.00  0.00    -0.354 N 
ATOM     32  C   UNL A   1      42.341  28.782  33.789  1.00  0.00     0.074 A 
ATOM     33  C   UNL A   1      42.887  27.641  33.086  1.00  0.00     0.031 C 
ATOM     34  C   UNL A   1      37.788  30.889  29.768  1.00  0.00     0.029 A 
ATOM     35  C   UNL A   1      38.195  31.482  31.038  1.00  0.00     0.049 A 
ATOM     36  H   UNL A   1      39.700  30.820  32.318  1.00  0.00     0.167 HD
ATOM     37  C   UNL A   1      42.802  29.243  34.977  1.00  0.00     0.037 A 
ATOM     38  C   UNL A   1      37.649  32.580  31.597  1.00  0.00     0.037 A 
ATOM     39  C   UNL A   1      42.278  30.401  35.653  1.00  0.00     0.049 A 
ATOM     40  C   UNL A   1      38.153  33.053  32.932  1.00  0.00     0.074 A 
ATOM     41  C   UNL A   1      42.676  30.948  36.861  1.00  0.00     0.029 A 
ATOM     42  N   UNL A   1      41.249  31.199  35.174  1.00  0.00    -0.354 N 
ATOM     43  N   UNL A   1      39.109  32.550  33.676  1.00  0.00    -0.248 NA
ATOM     44  C   UNL A   1      37.496  34.231  33.513  1.00  0.00     0.031 C 
ATOM     45  C   UNL A   1      41.867  32.059  37.127  1.00  0.00     0.029 A 
ATOM     46  C   UNL A   1      40.991  32.227  36.068  1.00  0.00     0.049 A 
ATOM     47  H   UNL A   1      40.772  31.057  34.326  1.00  0.00     0.167 HD
ATOM     48  C   UNL A   1      39.177  33.357  34.806  1.00  0.00     0.074 A 
ATOM     49  C   UNL A   1      38.176  34.391  34.641  1.00  0.00     0.031 C 
ATOM     50  C   UNL A   1      39.992  33.250  35.884  1.00  0.00     0.037 A 
BRANCH  37  51
ATOM     51  C   UNL A   1      43.907  28.468  35.640  1.00  0.00     0.058 A 
ATOM     52  C   UNL A   1      43.646  27.436  36.553  1.00  0.00     0.135 A 
ATOM     53  C   UNL A   1      45.248  28.754  35.338  1.00  0.00     0.135 A 
ATOM     54  F   UNL A   1      42.382  27.134  36.890  1.00  0.00    -0.206 F 
ATOM     55  C   UNL A   1      44.678  26.730  37.166  1.00  0.00     0.059 A 
ATOM     56  C   UNL A   1      46.295  28.046  35.921  1.00  0.00     0.059 A 
ATOM     57  F   UNL A   1      45.553  29.733  34.472  1.00  0.00    -0.206 F 
ATOM     58  C   UNL A   1      46.000  27.046  36.847  1.00  0.00     0.060 A 
BRANCH  58  59
ATOM     59  S   UNL A   1      47.331  26.130  37.652  1.00  0.00     0.124 S 
ATOM     60  O   UNL A   1      46.925  26.199  39.052  1.00  0.00    -0.237 OA
ATOM     61  O   UNL A   1      47.229  24.813  37.029  1.00  0.00    -0.237 OA
ATOM     62  O   UNL A   1      48.526  26.891  37.305  1.00  0.00    -0.744 OA
ENDBRANCH  58  59
ENDBRANCH  37  51
BRANCH  38  63
ATOM     63  C   UNL A   1      36.535  33.286  30.907  1.00  0.00     0.058 A 
ATOM     64  C   UNL A   1      35.219  33.203  31.380  1.00  0.00     0.135 A 
ATOM     65  C   UNL A   1      36.772  34.070  29.766  1.00  0.00     0.135 A 
ATOM     66  F   UNL A   1      34.940  32.456  32.459  1.00  0.00    -0.206 F 
ATOM     67  C   UNL A   1      34.174  33.868  30.746  1.00  0.00     0.059 A 
ATOM     68  C   UNL A   1      35.748  34.762  29.128  1.00  0.00     0.059 A 
ATOM     69  F   UNL A   1      38.016  34.187  29.276  1.00  0.00    -0.206 F 
ATOM     70  C   UNL A   1      34.449  34.648  29.621  1.00  0.00     0.060 A 
BRANCH  70  71
ATOM     71  S   UNL A   1      33.099  35.556  28.836  1.00  0.00     0.124 S 
ATOM     72  O   UNL A   1      32.331  35.999  29.994  1.00  0.00    -0.237 OA
ATOM     73  O   UNL A   1      33.810  36.599  28.105  1.00  0.00    -0.237 OA
ATOM     74  O   UNL A   1      32.458  34.544  28.001  1.00  0.00    -0.744 OA
ENDBRANCH  70  71
ENDBRANCH  38  63
BRANCH  50  75
ATOM     75  C   UNL A   1      39.850  34.289  36.960  1.00  0.00     0.058 A 
ATOM     76  C   UNL A   1      40.483  35.538  36.862  1.00  0.00     0.135 A 
ATOM     77  C   UNL A   1      39.035  34.050  38.078  1.00  0.00     0.135 A 
ATOM     78  F   UNL A   1      41.278  35.812  35.815  1.00  0.00    -0.206 F 
ATOM     79  C   UNL A   1      40.327  36.508  37.845  1.00  0.00     0.059 A 
ATOM     80  C   UNL A   1      38.848  35.015  39.063  1.00  0.00     0.059 A 
ATOM     81  F   UNL A   1      38.401  32.874  38.213  1.00  0.00    -0.206 F 
ATOM     82  C   UNL A   1      39.508  36.237  38.943  1.00  0.00     0.060 A 
BRANCH  82  83
ATOM     83  S   UNL A   1      39.286  37.516  40.199  1.00  0.00     0.124 S 
ATOM     84  O   UNL A   1      40.604  38.140  40.218  1.00  0.00    -0.237 OA
ATOM     85  O   UNL A   1      38.209  38.326  39.637  1.00  0.00    -0.237 OA
ATOM     86  O   UNL A   1      38.932  36.758  41.395  1.00  0.00    -0.744 OA
ENDBRANCH  82  83
ENDBRANCH  50  75
ENDBRANCH  24  25
ENDBRANCH  17  19
ENDBRANCH  16  17
ENDBRANCH  15  16
ENDBRANCH   1  15
TORSDOF 17
ENDMDL
MODEL 2
REMARK VINA RESULT:     -10.1      6.408     14.328
REMARK SMILES CCCCc1[nH]ncc1C(=O)OCCOC(=O)c1ccc(-c2c3nc(c(-c4c(F)cc(S(=O)(=O)[O-])cc4F)c4ccc([nH]4)c(-c4c(F)cc(S(=O)(=O)[O-])cc4F)c4nc(c(-c5c(F)cc(S(=O)(=O)[O-])cc5F)c5ccc2[nH]5)C=C4)C=C3)cc1
REMARK SMILES IDX 13 1 12 2 10 3 11 4 9 5 5 6 6 7 7 8 8 10 4 11 3 12 2 13 1 14
REMARK SMILES IDX 14 15 15 16 16 17 17 18 18 19 19 20 83 21 20 22 82 23 21 24
REMARK SMILES IDX 22 25 23 26 76 27 24 28 81 29 75 30 77 31 25 32 80 33 74 34
REMARK SMILES IDX 73 35 26 37 60 38 39 39 59 40 40 41 43 42 58 43 78 44 41 45
REMARK SMILES IDX 42 46 57 48 79 49 44 50 27 51 28 52 37 53 29 54 30 55 36 56
REMARK SMILES IDX 38 57 31 58 32 59 33 60 34 61 35 62 61 63 62 64 71 65 63 66
REMARK SMILES IDX 64 67 70 68 72 69 65 70 66 71 67 72 68 73 69 74 45 75 46 76
REMARK SMILES IDX 55 77 47 78 48 79 54 80 56 81 49 82 50 83 51 84 52 85 53 86
REMARK H PARENT 6 9 77 36 43 47
REMARK Flexibility Score: inf
ROOT
ATOM      1  C   UNL A   1      36.624  34.222  31.812  1.00  0.00     0.275 C 
ENDROOT
BRANCH   1   2
ATOM      2  O   UNL A   1      35.665  34.673  32.787  1.00  0.00    -0.458 OA
BRANCH   2   3
ATOM      3  C   UNL A   1      34.357  34.685  32.392  1.00  0.00     0.341 C 
ATOM      4  O   UNL A   1      33.616  33.718  32.435  1.00  0.00    -0.246 OA
BRANCH   3   5
ATOM      5  C   UNL A   1      33.886  36.010  32.021  1.00  0.00     0.100 A 
ATOM      6  C   UNL A   1      33.373  36.491  30.826  1.00  0.00     0.050 A 
ATOM      7  N   UNL A   1      33.296  37.851  30.983  1.00  0.00    -0.282 N 
ATOM      8  N   UNL A   1      33.491  38.257  32.242  1.00  0.00    -0.183 NA
ATOM      9  H   UNL A   1      33.114  38.471  30.240  1.00  0.00     0.190 HD
ATOM     10  C   UNL A   1      33.836  37.138  32.877  1.00  0.00     0.150 A 
BRANCH   6  11
ATOM     11  C   UNL A   1      32.907  35.834  29.574  1.00  0.00     0.056 C 
BRANCH  11  12
ATOM     12  C   UNL A   1      34.093  35.296  28.753  1.00  0.00     0.006 C 
BRANCH  12  13
ATOM     13  C   UNL A   1      34.315  33.778  28.815  1.00  0.00    -0.003 C 
ATOM     14  C   UNL A   1      35.502  33.300  27.992  1.00  0.00     0.004 C 
ENDBRANCH  12  13
ENDBRANCH  11  12
ENDBRANCH   6  11
ENDBRANCH   3   5
ENDBRANCH   2   3
ENDBRANCH   1   2
BRANCH   1  15
ATOM     15  C   UNL A   1      36.926  32.731  31.984  1.00  0.00     0.275 C 
BRANCH  15  16
ATOM     16  O   UNL A   1      36.547  31.993  30.808  1.00  0.00    -0.458 OA
BRANCH  16  17
ATOM     17  C   UNL A   1      36.567  30.645  30.930  1.00  0.00     0.338 C 
ATOM     18  O   UNL A   1      35.670  29.924  31.331  1.00  0.00    -0.246 OA
BRANCH  17  19
ATOM     19  C   UNL A   1      37.826  30.134  30.366  1.00  0.00     0.060 A 
ATOM     20  C   UNL A   1      38.750  29.583  31.252  1.00  0.00     0.016 A 
ATOM     21  C   UNL A   1      38.139  30.264  29.014  1.00  0.00     0.016 A 
ATOM     22  C   UNL A   1      39.997  29.163  30.804  1.00  0.00     0.010 A 
ATOM     23  C   UNL A   1      39.389  29.824  28.556  1.00  0.00     0.010 A 
ATOM     24  C   UNL A   1      40.332  29.281  29.450  1.00  0.00    -0.014 A 
BRANCH  24  25
ATOM     25  C   UNL A   1      41.692  28.891  28.998  1.00  0.00     0.031 A 
ATOM     26  C   UNL A   1      42.805  29.901  29.016  1.00  0.00     0.074 A 
ATOM     27  C   UNL A   1      41.942  27.623  28.616  1.00  0.00     0.049 A 
ATOM     28  N   UNL A   1      44.028  29.794  28.567  1.00  0.00    -0.248 NA
ATOM     29  C   UNL A   1      42.498  31.209  29.617  1.00  0.00     0.031 C 
ATOM     30  C   UNL A   1      40.963  26.534  28.611  1.00  0.00     0.029 A 
ATOM     31  N   UNL A   1      43.097  27.034  28.164  1.00  0.00    -0.354 N 
ATOM     32  C   UNL A   1      44.627  31.027  28.796  1.00  0.00     0.074 A 
ATOM     33  C   UNL A   1      43.629  31.871  29.419  1.00  0.00     0.031 C 
ATOM     34  C   UNL A   1      41.561  25.407  28.190  1.00  0.00     0.029 A 
ATOM     35  C   UNL A   1      42.947  25.706  27.842  1.00  0.00     0.049 A 
ATOM     36  H   UNL A   1      43.949  27.517  28.079  1.00  0.00     0.167 HD
ATOM     37  C   UNL A   1      45.894  31.417  28.512  1.00  0.00     0.037 A 
ATOM     38  C   UNL A   1      43.820  24.834  27.299  1.00  0.00     0.037 A 
ATOM     39  C   UNL A   1      46.892  30.561  27.927  1.00  0.00     0.049 A 
ATOM     40  C   UNL A   1      45.209  25.299  26.960  1.00  0.00     0.074 A 
ATOM     41  C   UNL A   1      48.202  30.863  27.599  1.00  0.00     0.029 A 
ATOM     42  N   UNL A   1      46.694  29.230  27.590  1.00  0.00    -0.354 N 
ATOM     43  N   UNL A   1      45.747  26.483  27.137  1.00  0.00    -0.248 NA
ATOM     44  C   UNL A   1      46.107  24.319  26.335  1.00  0.00     0.031 C 
ATOM     45  C   UNL A   1      48.787  29.723  27.038  1.00  0.00     0.029 A 
ATOM     46  C   UNL A   1      47.854  28.700  27.049  1.00  0.00     0.049 A 
ATOM     47  H   UNL A   1      45.853  28.734  27.717  1.00  0.00     0.167 HD
ATOM     48  C   UNL A   1      47.047  26.385  26.657  1.00  0.00     0.074 A 
ATOM     49  C   UNL A   1      47.222  25.023  26.196  1.00  0.00     0.031 C 
ATOM     50  C   UNL A   1      48.009  27.339  26.599  1.00  0.00     0.037 A 
BRANCH  37  51
ATOM     51  C   UNL A   1      46.258  32.847  28.799  1.00  0.00     0.058 A 
ATOM     52  C   UNL A   1      46.818  33.240  30.024  1.00  0.00     0.135 A 
ATOM     53  C   UNL A   1      46.063  33.836  27.821  1.00  0.00     0.135 A 
ATOM     54  F   UNL A   1      47.010  32.338  31.000  1.00  0.00    -0.206 F 
ATOM     55  C   UNL A   1      47.145  34.569  30.281  1.00  0.00     0.059 A 
ATOM     56  C   UNL A   1      46.404  35.166  28.047  1.00  0.00     0.059 A 
ATOM     57  F   UNL A   1      45.530  33.513  26.632  1.00  0.00    -0.206 F 
ATOM     58  C   UNL A   1      46.929  35.526  29.286  1.00  0.00     0.060 A 
BRANCH  58  59
ATOM     59  S   UNL A   1      47.351  37.247  29.632  1.00  0.00     0.124 S 
ATOM     60  O   UNL A   1      48.703  37.113  30.164  1.00  0.00    -0.237 OA
ATOM     61  O   UNL A   1      47.248  37.867  28.314  1.00  0.00    -0.237 OA
ATOM     62  O   UNL A   1      46.335  37.659  30.594  1.00  0.00    -0.744 OA
ENDBRANCH  58  59
ENDBRANCH  37  51
BRANCH  38  63
ATOM     63  C   UNL A   1      43.389  23.439  27.009  1.00  0.00     0.058 A 
ATOM     64  C   UNL A   1      43.152  23.010  25.696  1.00  0.00     0.135 A 
ATOM     65  C   UNL A   1      43.221  22.504  28.043  1.00  0.00     0.135 A 
ATOM     66  F   UNL A   1      43.286  23.871  24.675  1.00  0.00    -0.206 F 
ATOM     67  C   UNL A   1      42.758  21.706  25.416  1.00  0.00     0.059 A 
ATOM     68  C   UNL A   1      42.852  21.188  27.786  1.00  0.00     0.059 A 
ATOM     69  F   UNL A   1      43.443  22.863  29.317  1.00  0.00    -0.206 F 
ATOM     70  C   UNL A   1      42.613  20.800  26.468  1.00  0.00     0.060 A 
BRANCH  70  71
ATOM     71  S   UNL A   1      42.159  19.092  26.095  1.00  0.00     0.124 S 
ATOM     72  O   UNL A   1      42.504  18.418  27.341  1.00  0.00    -0.237 OA
ATOM     73  O   UNL A   1      40.734  19.206  25.804  1.00  0.00    -0.237 OA
ATOM     74  O   UNL A   1      43.000  18.767  24.946  1.00  0.00    -0.744 OA
ENDBRANCH  70  71
ENDBRANCH  38  63
BRANCH  50  75
ATOM     75  C   UNL A   1      49.344  26.937  26.037  1.00  0.00     0.058 A 
ATOM     76  C   UNL A   1      49.656  27.126  24.681  1.00  0.00     0.135 A 
ATOM     77  C   UNL A   1      50.336  26.400  26.872  1.00  0.00     0.135 A 
ATOM     78  F   UNL A   1      48.739  27.630  23.840  1.00  0.00    -0.206 F 
ATOM     79  C   UNL A   1      50.902  26.779  24.169  1.00  0.00     0.059 A 
ATOM     80  C   UNL A   1      51.595  26.066  26.385  1.00  0.00     0.059 A 
ATOM     81  F   UNL A   1      50.089  26.208  28.178  1.00  0.00    -0.206 F 
ATOM     82  C   UNL A   1      51.865  26.249  25.030  1.00  0.00     0.060 A 
BRANCH  82  83
ATOM     83  S   UNL A   1      53.490  25.832  24.362  1.00  0.00     0.124 S 
ATOM     84  O   UNL A   1      53.339  26.214  22.962  1.00  0.00    -0.237 OA
ATOM     85  O   UNL A   1      54.382  26.673  25.155  1.00  0.00    -0.237 OA
ATOM     86  O   UNL A   1      53.603  24.399  24.614  1.00  0.00    -0.744 OA
ENDBRANCH  82  83
ENDBRANCH  50  75
ENDBRANCH  24  25
ENDBRANCH  17  19
ENDBRANCH  16  17
ENDBRANCH  15  16
ENDBRANCH   1  15
TORSDOF 17
ENDMDL
MODEL 3
REMARK VINA RESULT:     -10.0      5.098      6.344
REMARK SMILES CCCCc1[nH]ncc1C(=O)OCCOC(=O)c1ccc(-c2c3nc(c(-c4c(F)cc(S(=O)(=O)[O-])cc4F)c4ccc([nH]4)c(-c4c(F)cc(S(=O)(=O)[O-])cc4F)c4nc(c(-c5c(F)cc(S(=O)(=O)[O-])cc5F)c5ccc2[nH]5)C=C4)C=C3)cc1
REMARK SMILES IDX 13 1 12 2 10 3 11 4 9 5 5 6 6 7 7 8 8 10 4 11 3 12 2 13 1 14
REMARK SMILES IDX 14 15 15 16 16 17 17 18 18 19 19 20 83 21 20 22 82 23 21 24
REMARK SMILES IDX 22 25 23 26 76 27 24 28 81 29 75 30 77 31 25 32 80 33 74 34
REMARK SMILES IDX 73 35 26 37 60 38 39 39 59 40 40 41 43 42 58 43 78 44 41 45
REMARK SMILES IDX 42 46 57 48 79 49 44 50 27 51 28 52 37 53 29 54 30 55 36 56
REMARK SMILES IDX 38 57 31 58 32 59 33 60 34 61 35 62 61 63 62 64 71 65 63 66
REMARK SMILES IDX 64 67 70 68 72 69 65 70 66 71 67 72 68 73 69 74 45 75 46 76
REMARK SMILES IDX 55 77 47 78 48 79 54 80 56 81 49 82 50 83 51 84 52 85 53 86
REMARK H PARENT 6 9 77 36 43 47
REMARK Flexibility Score: inf
ROOT
ATOM      1  C   UNL A   1      41.289  19.640  26.435  1.00  0.00     0.275 C 
ENDROOT
BRANCH   1   2
ATOM      2  O   UNL A   1      42.187  19.499  25.318  1.00  0.00    -0.458 OA
BRANCH   2   3
ATOM      3  C   UNL A   1      43.478  19.164  25.615  1.00  0.00     0.341 C 
ATOM      4  O   UNL A   1      43.829  18.068  26.017  1.00  0.00    -0.246 OA
BRANCH   3   5
ATOM      5  C   UNL A   1      44.429  20.215  25.287  1.00  0.00     0.100 A 
ATOM      6  C   UNL A   1      44.253  21.581  25.125  1.00  0.00     0.050 A 
ATOM      7  N   UNL A   1      45.441  22.043  24.619  1.00  0.00    -0.282 N 
ATOM      8  N   UNL A   1      46.429  21.143  24.661  1.00  0.00    -0.183 NA
ATOM      9  H   UNL A   1      45.556  22.952  24.257  1.00  0.00     0.190 HD
ATOM     10  C   UNL A   1      45.819  20.036  25.081  1.00  0.00     0.150 A 
BRANCH   6  11
ATOM     11  C   UNL A   1      43.131  22.512  25.426  1.00  0.00     0.056 C 
BRANCH  11  12
ATOM     12  C   UNL A   1      43.381  23.281  26.736  1.00  0.00     0.006 C 
BRANCH  12  13
ATOM     13  C   UNL A   1      42.949  22.566  28.024  1.00  0.00    -0.003 C 
ATOM     14  C   UNL A   1      43.255  23.350  29.290  1.00  0.00     0.004 C 
ENDBRANCH  12  13
ENDBRANCH  11  12
ENDBRANCH   6  11
ENDBRANCH   3   5
ENDBRANCH   2   3
ENDBRANCH   1   2
BRANCH   1  15
ATOM     15  C   UNL A   1      40.046  20.446  26.044  1.00  0.00     0.275 C 
BRANCH  15  16
ATOM     16  O   UNL A   1      39.941  21.642  26.838  1.00  0.00    -0.458 OA
BRANCH  16  17
ATOM     17  C   UNL A   1      39.153  22.617  26.328  1.00  0.00     0.338 C 
ATOM     18  O   UNL A   1      38.162  22.479  25.630  1.00  0.00    -0.246 OA
BRANCH  17  19
ATOM     19  C   UNL A   1      39.594  23.916  26.859  1.00  0.00     0.060 A 
ATOM     20  C   UNL A   1      40.013  24.876  25.941  1.00  0.00     0.016 A 
ATOM     21  C   UNL A   1      39.680  24.165  28.228  1.00  0.00     0.016 A 
ATOM     22  C   UNL A   1      40.528  26.093  26.375  1.00  0.00     0.010 A 
ATOM     23  C   UNL A   1      40.183  25.398  28.667  1.00  0.00     0.010 A 
ATOM     24  C   UNL A   1      40.621  26.366  27.744  1.00  0.00    -0.014 A 
BRANCH  24  25
ATOM     25  C   UNL A   1      41.237  27.642  28.193  1.00  0.00     0.031 A 
ATOM     26  C   UNL A   1      42.719  27.848  28.053  1.00  0.00     0.074 A 
ATOM     27  C   UNL A   1      40.464  28.631  28.684  1.00  0.00     0.049 A 
ATOM     28  N   UNL A   1      43.461  28.837  28.477  1.00  0.00    -0.248 NA
ATOM     29  C   UNL A   1      43.466  26.797  27.344  1.00  0.00     0.031 C 
ATOM     30  C   UNL A   1      39.006  28.579  28.814  1.00  0.00     0.029 A 
ATOM     31  N   UNL A   1      40.796  29.877  29.156  1.00  0.00    -0.354 N 
ATOM     32  C   UNL A   1      44.765  28.514  28.120  1.00  0.00     0.074 A 
ATOM     33  C   UNL A   1      44.713  27.233  27.450  1.00  0.00     0.031 C 
ATOM     34  C   UNL A   1      38.569  29.744  29.320  1.00  0.00     0.029 A 
ATOM     35  C   UNL A   1      39.716  30.602  29.602  1.00  0.00     0.049 A 
ATOM     36  H   UNL A   1      41.718  30.218  29.174  1.00  0.00     0.167 HD
ATOM     37  C   UNL A   1      45.900  29.224  28.333  1.00  0.00     0.037 A 
ATOM     38  C   UNL A   1      39.659  31.809  30.199  1.00  0.00     0.037 A 
ATOM     39  C   UNL A   1      45.939  30.516  28.968  1.00  0.00     0.049 A 
ATOM     40  C   UNL A   1      40.935  32.562  30.456  1.00  0.00     0.074 A 
ATOM     41  C   UNL A   1      47.039  31.314  29.231  1.00  0.00     0.029 A 
ATOM     42  N   UNL A   1      44.827  31.204  29.430  1.00  0.00    -0.354 N 
ATOM     43  N   UNL A   1      42.166  32.222  30.158  1.00  0.00    -0.248 NA
ATOM     44  C   UNL A   1      40.818  33.855  31.145  1.00  0.00     0.031 C 
ATOM     45  C   UNL A   1      46.595  32.472  29.879  1.00  0.00     0.029 A 
ATOM     46  C   UNL A   1      45.215  32.413  29.986  1.00  0.00     0.049 A 
ATOM     47  H   UNL A   1      43.899  30.882  29.372  1.00  0.00     0.167 HD
ATOM     48  C   UNL A   1      42.968  33.263  30.610  1.00  0.00     0.074 A 
ATOM     49  C   UNL A   1      42.083  34.253  31.189  1.00  0.00     0.031 C 
ATOM     50  C   UNL A   1      44.317  33.387  30.555  1.00  0.00     0.037 A 
BRANCH  37  51
ATOM     51  C   UNL A   1      47.199  28.598  27.907  1.00  0.00     0.058 A 
ATOM     52  C   UNL A   1      47.970  27.819  28.782  1.00  0.00     0.135 A 
ATOM     53  C   UNL A   1      47.666  28.765  26.594  1.00  0.00     0.135 A 
ATOM     54  F   UNL A   1      47.579  27.642  30.054  1.00  0.00    -0.206 F 
ATOM     55  C   UNL A   1      49.175  27.250  28.379  1.00  0.00     0.059 A 
ATOM     56  C   UNL A   1      48.856  28.187  26.161  1.00  0.00     0.059 A 
ATOM     57  F   UNL A   1      46.967  29.502  25.716  1.00  0.00    -0.206 F 
ATOM     58  C   UNL A   1      49.612  27.444  27.066  1.00  0.00     0.060 A 
BRANCH  58  59
ATOM     59  S   UNL A   1      51.179  26.708  26.555  1.00  0.00     0.124 S 
ATOM     60  O   UNL A   1      52.133  27.720  26.996  1.00  0.00    -0.237 OA
ATOM     61  O   UNL A   1      51.197  25.454  27.301  1.00  0.00    -0.237 OA
ATOM     62  O   UNL A   1      51.033  26.570  25.110  1.00  0.00    -0.744 OA
ENDBRANCH  58  59
ENDBRANCH  37  51
BRANCH  38  63
ATOM     63  C   UNL A   1      38.345  32.362  30.627  1.00  0.00     0.058 A 
ATOM     64  C   UNL A   1      37.837  32.116  31.910  1.00  0.00     0.135 A 
ATOM     65  C   UNL A   1      37.580  33.160  29.762  1.00  0.00     0.135 A 
ATOM     66  F   UNL A   1      38.525  31.348  32.768  1.00  0.00    -0.206 F 
ATOM     67  C   UNL A   1      36.614  32.637  32.321  1.00  0.00     0.059 A 
ATOM     68  C   UNL A   1      36.366  33.711  30.158  1.00  0.00     0.059 A 
ATOM     69  F   UNL A   1      38.026  33.430  28.525  1.00  0.00    -0.206 F 
ATOM     70  C   UNL A   1      35.886  33.437  31.438  1.00  0.00     0.060 A 
BRANCH  70  71
ATOM     71  S   UNL A   1      34.328  34.160  31.995  1.00  0.00     0.124 S 
ATOM     72  O   UNL A   1      33.762  33.068  32.780  1.00  0.00    -0.237 OA
ATOM     73  O   UNL A   1      34.777  35.323  32.752  1.00  0.00    -0.237 OA
ATOM     74  O   UNL A   1      33.636  34.466  30.746  1.00  0.00    -0.744 OA
ENDBRANCH  70  71
ENDBRANCH  38  63
BRANCH  50  75
ATOM     75  C   UNL A   1      44.916  34.646  31.115  1.00  0.00     0.058 A 
ATOM     76  C   UNL A   1      45.345  34.723  32.450  1.00  0.00     0.135 A 
ATOM     77  C   UNL A   1      45.106  35.770  30.297  1.00  0.00     0.135 A 
ATOM     78  F   UNL A   1      45.179  33.677  33.275  1.00  0.00    -0.206 F 
ATOM     79  C   UNL A   1      45.925  35.880  32.958  1.00  0.00     0.059 A 
ATOM     80  C   UNL A   1      45.703  36.930  30.779  1.00  0.00     0.059 A 
ATOM     81  F   UNL A   1      44.721  35.742  29.010  1.00  0.00    -0.206 F 
ATOM     82  C   UNL A   1      46.099  36.980  32.115  1.00  0.00     0.060 A 
BRANCH  82  83
ATOM     83  S   UNL A   1      46.883  38.466  32.776  1.00  0.00     0.124 S 
ATOM     84  O   UNL A   1      47.745  38.861  31.668  1.00  0.00    -0.237 OA
ATOM     85  O   UNL A   1      45.740  39.338  33.032  1.00  0.00    -0.237 OA
ATOM     86  O   UNL A   1      47.573  37.983  33.969  1.00  0.00    -0.744 OA
ENDBRANCH  82  83
ENDBRANCH  50  75
ENDBRANCH  24  25
ENDBRANCH  17  19
ENDBRANCH  16  17
ENDBRANCH  15  16
ENDBRANCH   1  15
TORSDOF 17
ENDMDL
