MODEL 1
REMARK VINA RESULT:     -12.6      0.000      0.000
REMARK SMILES CS(=O)(=O)c1ccc(-c2cc(Cl)cc3c2O[C@H](C(F)(F)F)C(C(=O)OCCOC(=O)c2ccc(-c4c5nc(c(-c6c(F)cc(S(=O)(=O)[O-])cc6F)c6ccc([nH]6)c(-c6c(F)cc(S(=O)(=O)[O-])cc6F)c6nc(c(-c7c(F)cc(S(=O)(=O)[O-])cc7F)c7ccc4[nH]7)C=C6)C=C5)cc2)=C3)cc1
REMARK SMILES IDX 27 1 26 2 25 3 23 4 24 5 22 6 9 7 10 8 15 9 11 10 14 11
REMARK SMILES IDX 16 12 12 13 13 14 97 15 17 16 8 17 5 18 6 19 99 20 7 21
REMARK SMILES IDX 98 22 2 23 1 24 3 25 4 26 18 27 19 28 20 29 21 30 28 31
REMARK SMILES IDX 29 32 30 33 31 34 32 35 96 36 33 37 95 38 34 39 35 40 36 41
REMARK SMILES IDX 89 42 37 43 94 44 88 45 90 46 38 47 93 48 87 49 86 50 39 52
REMARK SMILES IDX 73 53 52 54 72 55 53 56 56 57 71 58 91 59 54 60 55 61 70 63
REMARK SMILES IDX 92 64 57 65 40 66 41 67 50 68 42 69 43 70 49 71 51 72 44 73
REMARK SMILES IDX 45 74 46 75 47 76 48 77 74 78 75 79 84 80 76 81 77 82 83 83
REMARK SMILES IDX 85 84 78 85 79 86 80 87 81 88 82 89 58 90 59 91 68 92 60 93
REMARK SMILES IDX 61 94 67 95 69 96 62 97 63 98 64 99 65 100 66 101
REMARK H PARENT 90 51 56 62
REMARK Flexibility Score: inf
ROOT
ATOM      1  C   UNL A   1      32.553  29.618  26.978  1.00  0.00     0.275 C 
ENDROOT
BRANCH   1   2
ATOM      2  C   UNL A   1      32.082  28.928  25.693  1.00  0.00     0.275 C 
BRANCH   2   3
ATOM      3  O   UNL A   1      31.114  27.871  25.921  1.00  0.00    -0.459 OA
BRANCH   3   4
ATOM      4  C   UNL A   1      31.011  27.016  24.869  1.00  0.00     0.338 C 
ATOM      5  O   UNL A   1      29.993  26.872  24.199  1.00  0.00    -0.246 OA
BRANCH   4   6
ATOM      6  C   UNL A   1      32.257  26.271  24.552  1.00  0.00     0.087 C 
ATOM      7  C   UNL A   1      32.219  22.230  24.815  1.00  0.00     0.026 A 
ATOM      8  C   UNL A   1      31.151  22.062  25.728  1.00  0.00     0.033 A 
ATOM      9  C   UNL A   1      32.656  23.553  24.700  1.00  0.00     0.135 A 
ATOM     10  C   UNL A   1      30.695  23.069  26.588  1.00  0.00     0.042 A 
ATOM     11  C   UNL A   1      32.389  24.464  25.756  1.00  0.00     0.019 A 
ATOM     12  O   UNL A   1      33.131  24.127  23.524  1.00  0.00    -0.475 OA
ATOM     13  Cl  UNL A   1      29.231  23.000  27.480  1.00  0.00    -0.084 Cl
ATOM     14  C   UNL A   1      31.412  24.227  26.703  1.00  0.00     0.032 A 
ATOM     15  C   UNL A   1      32.902  25.840  25.649  1.00  0.00     0.027 C 
ATOM     16  C   UNL A   1      32.518  25.491  23.275  1.00  0.00     0.316 C 
BRANCH   7  17
ATOM     17  C   UNL A   1      32.821  20.948  24.310  1.00  0.00    -0.015 A 
ATOM     18  C   UNL A   1      33.677  18.209  24.241  1.00  0.00     0.067 A 
ATOM     19  C   UNL A   1      32.524  18.612  23.565  1.00  0.00     0.021 A 
ATOM     20  C   UNL A   1      34.455  19.169  24.881  1.00  0.00     0.021 A 
ATOM     21  C   UNL A   1      32.129  19.975  23.569  1.00  0.00     0.010 A 
ATOM     22  C   UNL A   1      34.023  20.511  24.920  1.00  0.00     0.010 A 
BRANCH  18  23
ATOM     23  S   UNL A   1      34.261  16.517  24.139  1.00  0.00     0.175 S 
ATOM     24  C   UNL A   1      33.012  15.515  24.887  1.00  0.00     0.163 C 
ATOM     25  O   UNL A   1      35.451  16.439  24.962  1.00  0.00    -0.224 OA
ATOM     26  O   UNL A   1      34.332  16.181  22.725  1.00  0.00    -0.224 OA
ENDBRANCH  18  23
ENDBRANCH   7  17
BRANCH  16  27
ATOM     27  C   UNL A   1      33.464  26.379  22.455  1.00  0.00     0.430 C 
ATOM     28  F   UNL A   1      33.395  27.678  22.839  1.00  0.00    -0.167 F 
ATOM     29  F   UNL A   1      34.752  25.991  22.545  1.00  0.00    -0.167 F 
ATOM     30  F   UNL A   1      33.135  26.348  21.135  1.00  0.00    -0.167 F 
ENDBRANCH  16  27
ENDBRANCH   4   6
ENDBRANCH   3   4
ENDBRANCH   2   3
ENDBRANCH   1   2
BRANCH   1  31
ATOM     31  O   UNL A   1      33.947  29.365  27.243  1.00  0.00    -0.458 OA
BRANCH  31  32
ATOM     32  C   UNL A   1      34.553  30.337  27.968  1.00  0.00     0.338 C 
ATOM     33  O   UNL A   1      34.028  31.381  28.334  1.00  0.00    -0.246 OA
BRANCH  32  34
ATOM     34  C   UNL A   1      35.920  29.941  28.399  1.00  0.00     0.060 A 
ATOM     35  C   UNL A   1      36.904  29.975  27.418  1.00  0.00     0.016 A 
ATOM     36  C   UNL A   1      36.274  29.531  29.692  1.00  0.00     0.016 A 
ATOM     37  C   UNL A   1      38.224  29.662  27.745  1.00  0.00     0.010 A 
ATOM     38  C   UNL A   1      37.625  29.225  30.012  1.00  0.00     0.010 A 
ATOM     39  C   UNL A   1      38.635  29.323  29.047  1.00  0.00    -0.014 A 
BRANCH  39  40
ATOM     40  C   UNL A   1      40.111  29.067  29.269  1.00  0.00     0.031 A 
ATOM     41  C   UNL A   1      40.685  27.743  28.850  1.00  0.00     0.074 A 
ATOM     42  C   UNL A   1      40.998  30.036  29.610  1.00  0.00     0.049 A 
ATOM     43  N   UNL A   1      41.938  27.369  28.810  1.00  0.00    -0.248 NA
ATOM     44  C   UNL A   1      39.731  26.713  28.410  1.00  0.00     0.031 C 
ATOM     45  C   UNL A   1      40.638  31.390  29.972  1.00  0.00     0.029 A 
ATOM     46  N   UNL A   1      42.380  30.081  29.623  1.00  0.00    -0.354 N 
ATOM     47  C   UNL A   1      41.925  26.066  28.339  1.00  0.00     0.074 A 
ATOM     48  C   UNL A   1      40.543  25.723  28.076  1.00  0.00     0.031 C 
ATOM     49  C   UNL A   1      41.718  32.185  29.962  1.00  0.00     0.029 A 
ATOM     50  C   UNL A   1      42.903  31.350  29.825  1.00  0.00     0.049 A 
ATOM     51  H   UNL A   1      42.943  29.283  29.501  1.00  0.00     0.167 HD
ATOM     52  C   UNL A   1      42.963  25.216  28.172  1.00  0.00     0.037 A 
ATOM     53  C   UNL A   1      44.172  31.801  29.957  1.00  0.00     0.037 A 
ATOM     54  C   UNL A   1      44.329  25.519  28.504  1.00  0.00     0.049 A 
ATOM     55  C   UNL A   1      45.286  30.788  29.991  1.00  0.00     0.074 A 
ATOM     56  C   UNL A   1      45.445  24.722  28.320  1.00  0.00     0.029 A 
ATOM     57  N   UNL A   1      44.768  26.683  29.117  1.00  0.00    -0.354 N 
ATOM     58  N   UNL A   1      45.211  29.491  29.809  1.00  0.00    -0.248 NA
ATOM     59  C   UNL A   1      46.643  31.274  30.278  1.00  0.00     0.031 C 
ATOM     60  C   UNL A   1      46.554  25.394  28.842  1.00  0.00     0.029 A 
ATOM     61  C   UNL A   1      46.148  26.654  29.254  1.00  0.00     0.049 A 
ATOM     62  H   UNL A   1      44.187  27.420  29.413  1.00  0.00     0.167 HD
ATOM     63  C   UNL A   1      46.510  29.014  29.914  1.00  0.00     0.074 A 
ATOM     64  C   UNL A   1      47.351  30.154  30.218  1.00  0.00     0.031 C 
ATOM     65  C   UNL A   1      46.968  27.756  29.699  1.00  0.00     0.037 A 
BRANCH  52  66
ATOM     66  C   UNL A   1      42.629  23.839  27.677  1.00  0.00     0.058 A 
ATOM     67  C   UNL A   1      42.438  22.758  28.552  1.00  0.00     0.135 A 
ATOM     68  C   UNL A   1      42.533  23.598  26.299  1.00  0.00     0.135 A 
ATOM     69  F   UNL A   1      42.559  22.932  29.879  1.00  0.00    -0.206 F 
ATOM     70  C   UNL A   1      42.197  21.474  28.074  1.00  0.00     0.059 A 
ATOM     71  C   UNL A   1      42.270  22.328  25.799  1.00  0.00     0.059 A 
ATOM     72  F   UNL A   1      42.725  24.597  25.423  1.00  0.00    -0.206 F 
ATOM     73  C   UNL A   1      42.123  21.270  26.695  1.00  0.00     0.060 A 
BRANCH  73  74
ATOM     74  S   UNL A   1      41.865  19.592  26.084  1.00  0.00     0.124 S 
ATOM     75  O   UNL A   1      42.791  19.548  24.957  1.00  0.00    -0.237 OA
ATOM     76  O   UNL A   1      42.232  18.780  27.239  1.00  0.00    -0.237 OA
ATOM     77  O   UNL A   1      40.449  19.572  25.731  1.00  0.00    -0.744 OA
ENDBRANCH  73  74
ENDBRANCH  52  66
BRANCH  53  78
ATOM     78  C   UNL A   1      44.479  33.254  30.162  1.00  0.00     0.058 A 
ATOM     79  C   UNL A   1      44.444  33.844  31.440  1.00  0.00     0.135 A 
ATOM     80  C   UNL A   1      44.764  34.103  29.080  1.00  0.00     0.135 A 
ATOM     81  F   UNL A   1      44.155  33.092  32.514  1.00  0.00    -0.206 F 
ATOM     82  C   UNL A   1      44.656  35.211  31.631  1.00  0.00     0.059 A 
ATOM     83  C   UNL A   1      45.024  35.460  29.250  1.00  0.00     0.059 A 
ATOM     84  F   UNL A   1      44.805  33.610  27.833  1.00  0.00    -0.206 F 
ATOM     85  C   UNL A   1      44.950  36.011  30.527  1.00  0.00     0.060 A 
BRANCH  85  86
ATOM     86  S   UNL A   1      45.251  37.778  30.771  1.00  0.00     0.124 S 
ATOM     87  O   UNL A   1      46.573  37.768  31.385  1.00  0.00    -0.237 OA
ATOM     88  O   UNL A   1      45.182  38.292  29.407  1.00  0.00    -0.237 OA
ATOM     89  O   UNL A   1      44.154  38.186  31.643  1.00  0.00    -0.744 OA
ENDBRANCH  85  86
ENDBRANCH  53  78
BRANCH  65  90
ATOM     90  C   UNL A   1      48.456  27.549  29.770  1.00  0.00     0.058 A 
ATOM     91  C   UNL A   1      49.106  27.144  30.945  1.00  0.00     0.135 A 
ATOM     92  C   UNL A   1      49.239  27.738  28.618  1.00  0.00     0.135 A 
ATOM     93  F   UNL A   1      48.410  26.982  32.082  1.00  0.00    -0.206 F 
ATOM     94  C   UNL A   1      50.482  26.930  30.973  1.00  0.00     0.059 A 
ATOM     95  C   UNL A   1      50.607  27.496  28.615  1.00  0.00     0.059 A 
ATOM     96  F   UNL A   1      48.668  28.146  27.474  1.00  0.00    -0.206 F 
ATOM     97  C   UNL A   1      51.221  27.097  29.800  1.00  0.00     0.060 A 
BRANCH  97  98
ATOM     98  S   UNL A   1      52.993  26.751  29.833  1.00  0.00     0.124 S 
ATOM     99  O   UNL A   1      53.548  28.074  30.091  1.00  0.00    -0.237 OA
ATOM    100  O   UNL A   1      53.099  25.793  30.930  1.00  0.00    -0.237 OA
ATOM    101  O   UNL A   1      53.257  26.205  28.506  1.00  0.00    -0.744 OA
ENDBRANCH  97  98
ENDBRANCH  65  90
ENDBRANCH  39  40
ENDBRANCH  32  34
ENDBRANCH  31  32
ENDBRANCH   1  31
TORSDOF 17
ENDMDL
MODEL 2
REMARK VINA RESULT:     -12.4      1.313      7.931
REMARK SMILES CS(=O)(=O)c1ccc(-c2cc(Cl)cc3c2O[C@H](C(F)(F)F)C(C(=O)OCCOC(=O)c2ccc(-c4c5nc(c(-c6c(F)cc(S(=O)(=O)[O-])cc6F)c6ccc([nH]6)c(-c6c(F)cc(S(=O)(=O)[O-])cc6F)c6nc(c(-c7c(F)cc(S(=O)(=O)[O-])cc7F)c7ccc4[nH]7)C=C6)C=C5)cc2)=C3)cc1
REMARK SMILES IDX 27 1 26 2 25 3 23 4 24 5 22 6 9 7 10 8 15 9 11 10 14 11
REMARK SMILES IDX 16 12 12 13 13 14 97 15 17 16 8 17 5 18 6 19 99 20 7 21
REMARK SMILES IDX 98 22 2 23 1 24 3 25 4 26 18 27 19 28 20 29 21 30 28 31
REMARK SMILES IDX 29 32 30 33 31 34 32 35 96 36 33 37 95 38 34 39 35 40 36 41
REMARK SMILES IDX 89 42 37 43 94 44 88 45 90 46 38 47 93 48 87 49 86 50 39 52
REMARK SMILES IDX 73 53 52 54 72 55 53 56 56 57 71 58 91 59 54 60 55 61 70 63
REMARK SMILES IDX 92 64 57 65 40 66 41 67 50 68 42 69 43 70 49 71 51 72 44 73
REMARK SMILES IDX 45 74 46 75 47 76 48 77 74 78 75 79 84 80 76 81 77 82 83 83
REMARK SMILES IDX 85 84 78 85 79 86 80 87 81 88 82 89 58 90 59 91 68 92 60 93
REMARK SMILES IDX 61 94 67 95 69 96 62 97 63 98 64 99 65 100 66 101
REMARK H PARENT 90 51 56 62
REMARK Flexibility Score: inf
ROOT
ATOM      1  C   UNL A   1      32.398  29.934  26.583  1.00  0.00     0.275 C 
ENDROOT
BRANCH   1   2
ATOM      2  C   UNL A   1      31.491  28.723  26.341  1.00  0.00     0.275 C 
BRANCH   2   3
ATOM      3  O   UNL A   1      31.225  28.465  24.938  1.00  0.00    -0.459 OA
BRANCH   3   4
ATOM      4  C   UNL A   1      31.034  27.146  24.671  1.00  0.00     0.338 C 
ATOM      5  O   UNL A   1      29.938  26.596  24.679  1.00  0.00    -0.246 OA
BRANCH   4   6
ATOM      6  C   UNL A   1      32.271  26.400  24.322  1.00  0.00     0.087 C 
ATOM      7  C   UNL A   1      32.279  22.370  24.722  1.00  0.00     0.026 A 
ATOM      8  C   UNL A   1      31.255  22.226  25.688  1.00  0.00     0.033 A 
ATOM      9  C   UNL A   1      32.699  23.691  24.543  1.00  0.00     0.135 A 
ATOM     10  C   UNL A   1      30.830  23.258  26.533  1.00  0.00     0.042 A 
ATOM     11  C   UNL A   1      32.472  24.635  25.579  1.00  0.00     0.019 A 
ATOM     12  O   UNL A   1      33.116  24.228  23.327  1.00  0.00    -0.475 OA
ATOM     13  Cl  UNL A   1      29.409  23.209  27.493  1.00  0.00    -0.084 Cl
ATOM     14  C   UNL A   1      31.542  24.425  26.577  1.00  0.00     0.032 A 
ATOM     15  C   UNL A   1      32.969  26.011  25.402  1.00  0.00     0.027 C 
ATOM     16  C   UNL A   1      32.481  25.579  23.061  1.00  0.00     0.316 C 
BRANCH   7  17
ATOM     17  C   UNL A   1      32.868  21.076  24.233  1.00  0.00    -0.015 A 
ATOM     18  C   UNL A   1      33.666  18.319  24.186  1.00  0.00     0.067 A 
ATOM     19  C   UNL A   1      32.543  18.748  23.476  1.00  0.00     0.021 A 
ATOM     20  C   UNL A   1      34.445  19.262  24.851  1.00  0.00     0.021 A 
ATOM     21  C   UNL A   1      32.178  20.119  23.470  1.00  0.00     0.010 A 
ATOM     22  C   UNL A   1      34.041  20.612  24.878  1.00  0.00     0.010 A 
BRANCH  18  23
ATOM     23  S   UNL A   1      34.216  16.614  24.098  1.00  0.00     0.175 S 
ATOM     24  C   UNL A   1      32.965  15.648  24.887  1.00  0.00     0.163 C 
ATOM     25  O   UNL A   1      35.422  16.527  24.898  1.00  0.00    -0.224 OA
ATOM     26  O   UNL A   1      34.251  16.255  22.689  1.00  0.00    -0.224 OA
ENDBRANCH  18  23
ENDBRANCH   7  17
BRANCH  16  27
ATOM     27  C   UNL A   1      33.380  26.445  22.170  1.00  0.00     0.430 C 
ATOM     28  F   UNL A   1      34.686  26.343  22.520  1.00  0.00    -0.167 F 
ATOM     29  F   UNL A   1      33.278  26.128  20.863  1.00  0.00    -0.167 F 
ATOM     30  F   UNL A   1      33.052  27.761  22.282  1.00  0.00    -0.167 F 
ENDBRANCH  16  27
ENDBRANCH   4   6
ENDBRANCH   3   4
ENDBRANCH   2   3
ENDBRANCH   1   2
BRANCH   1  31
ATOM     31  O   UNL A   1      33.746  29.540  26.908  1.00  0.00    -0.458 OA
BRANCH  31  32
ATOM     32  C   UNL A   1      34.414  30.442  27.668  1.00  0.00     0.338 C 
ATOM     33  O   UNL A   1      33.945  31.482  28.112  1.00  0.00    -0.246 OA
BRANCH  32  34
ATOM     34  C   UNL A   1      35.775  29.965  28.030  1.00  0.00     0.060 A 
ATOM     35  C   UNL A   1      36.743  30.072  27.039  1.00  0.00     0.016 A 
ATOM     36  C   UNL A   1      36.138  29.417  29.268  1.00  0.00     0.016 A 
ATOM     37  C   UNL A   1      38.058  29.691  27.307  1.00  0.00     0.010 A 
ATOM     38  C   UNL A   1      37.484  29.043  29.530  1.00  0.00     0.010 A 
ATOM     39  C   UNL A   1      38.481  29.210  28.560  1.00  0.00    -0.014 A 
BRANCH  39  40
ATOM     40  C   UNL A   1      39.952  28.892  28.727  1.00  0.00     0.031 A 
ATOM     41  C   UNL A   1      40.783  29.768  29.623  1.00  0.00     0.074 A 
ATOM     42  C   UNL A   1      40.522  27.736  28.304  1.00  0.00     0.049 A 
ATOM     43  N   UNL A   1      42.017  29.593  30.023  1.00  0.00    -0.248 NA
ATOM     44  C   UNL A   1      40.143  30.986  30.143  1.00  0.00     0.031 C 
ATOM     45  C   UNL A   1      39.855  26.737  27.496  1.00  0.00     0.029 A 
ATOM     46  N   UNL A   1      41.747  27.145  28.557  1.00  0.00    -0.354 N 
ATOM     47  C   UNL A   1      42.300  30.674  30.842  1.00  0.00     0.074 A 
ATOM     48  C   UNL A   1      41.101  31.483  30.909  1.00  0.00     0.031 C 
ATOM     49  C   UNL A   1      40.552  25.592  27.490  1.00  0.00     0.029 A 
ATOM     50  C   UNL A   1      41.850  25.839  28.102  1.00  0.00     0.049 A 
ATOM     51  H   UNL A   1      42.480  27.611  29.019  1.00  0.00     0.167 HD
ATOM     52  C   UNL A   1      43.462  30.988  31.457  1.00  0.00     0.037 A 
ATOM     53  C   UNL A   1      42.873  24.953  28.104  1.00  0.00     0.037 A 
ATOM     54  C   UNL A   1      44.681  30.234  31.335  1.00  0.00     0.049 A 
ATOM     55  C   UNL A   1      44.218  25.421  28.594  1.00  0.00     0.074 A 
ATOM     56  C   UNL A   1      45.890  30.466  31.966  1.00  0.00     0.029 A 
ATOM     57  N   UNL A   1      44.868  29.135  30.509  1.00  0.00    -0.354 N 
ATOM     58  N   UNL A   1      44.530  26.577  29.130  1.00  0.00    -0.248 NA
ATOM     59  C   UNL A   1      45.354  24.499  28.458  1.00  0.00     0.031 C 
ATOM     60  C   UNL A   1      46.813  29.522  31.505  1.00  0.00     0.029 A 
ATOM     61  C   UNL A   1      46.152  28.636  30.670  1.00  0.00     0.049 A 
ATOM     62  H   UNL A   1      44.189  28.765  29.900  1.00  0.00     0.167 HD
ATOM     63  C   UNL A   1      45.883  26.505  29.434  1.00  0.00     0.074 A 
ATOM     64  C   UNL A   1      46.344  25.207  28.986  1.00  0.00     0.031 C 
ATOM     65  C   UNL A   1      46.649  27.407  30.096  1.00  0.00     0.037 A 
BRANCH  52  66
ATOM     66  C   UNL A   1      43.477  32.258  32.256  1.00  0.00     0.058 A 
ATOM     67  C   UNL A   1      43.820  33.494  31.685  1.00  0.00     0.135 A 
ATOM     68  C   UNL A   1      43.173  32.225  33.625  1.00  0.00     0.135 A 
ATOM     69  F   UNL A   1      44.157  33.569  30.387  1.00  0.00    -0.206 F 
ATOM     70  C   UNL A   1      43.895  34.650  32.455  1.00  0.00     0.059 A 
ATOM     71  C   UNL A   1      43.218  33.372  34.409  1.00  0.00     0.059 A 
ATOM     72  F   UNL A   1      42.855  31.063  34.219  1.00  0.00    -0.206 F 
ATOM     73  C   UNL A   1      43.599  34.575  33.817  1.00  0.00     0.060 A 
BRANCH  73  74
ATOM     74  S   UNL A   1      43.753  36.069  34.817  1.00  0.00     0.124 S 
ATOM     75  O   UNL A   1      45.198  36.139  35.013  1.00  0.00    -0.237 OA
ATOM     76  O   UNL A   1      43.182  37.088  33.944  1.00  0.00    -0.237 OA
ATOM     77  O   UNL A   1      42.974  35.761  36.012  1.00  0.00    -0.744 OA
ENDBRANCH  73  74
ENDBRANCH  52  66
BRANCH  53  78
ATOM     78  C   UNL A   1      42.722  23.568  27.548  1.00  0.00     0.058 A 
ATOM     79  C   UNL A   1      42.308  22.490  28.353  1.00  0.00     0.135 A 
ATOM     80  C   UNL A   1      43.038  23.277  26.212  1.00  0.00     0.135 A 
ATOM     81  F   UNL A   1      42.014  22.697  29.647  1.00  0.00    -0.206 F 
ATOM     82  C   UNL A   1      42.235  21.185  27.862  1.00  0.00     0.059 A 
ATOM     83  C   UNL A   1      42.929  21.992  25.686  1.00  0.00     0.059 A 
ATOM     84  F   UNL A   1      43.447  24.255  25.390  1.00  0.00    -0.206 F 
ATOM     85  C   UNL A   1      42.545  20.947  26.523  1.00  0.00     0.060 A 
BRANCH  85  86
ATOM     86  S   UNL A   1      42.427  19.263  25.874  1.00  0.00     0.124 S 
ATOM     87  O   UNL A   1      43.182  19.374  24.632  1.00  0.00    -0.237 OA
ATOM     88  O   UNL A   1      43.052  18.481  26.936  1.00  0.00    -0.237 OA
ATOM     89  O   UNL A   1      40.989  19.063  25.722  1.00  0.00    -0.744 OA
ENDBRANCH  85  86
ENDBRANCH  53  78
BRANCH  65  90
ATOM     90  C   UNL A   1      48.069  27.011  30.391  1.00  0.00     0.058 A 
ATOM     91  C   UNL A   1      49.141  27.373  29.562  1.00  0.00     0.135 A 
ATOM     92  C   UNL A   1      48.357  26.273  31.552  1.00  0.00     0.135 A 
ATOM     93  F   UNL A   1      48.918  28.049  28.424  1.00  0.00    -0.206 F 
ATOM     94  C   UNL A   1      50.450  27.019  29.877  1.00  0.00     0.059 A 
ATOM     95  C   UNL A   1      49.659  25.938  31.904  1.00  0.00     0.059 A 
ATOM     96  F   UNL A   1      47.364  25.883  32.368  1.00  0.00    -0.206 F 
ATOM     97  C   UNL A   1      50.700  26.312  31.057  1.00  0.00     0.060 A 
BRANCH  97  98
ATOM     98  S   UNL A   1      52.408  25.918  31.487  1.00  0.00     0.124 S 
ATOM     99  O   UNL A   1      53.080  26.074  30.203  1.00  0.00    -0.237 OA
ATOM    100  O   UNL A   1      52.715  26.931  32.492  1.00  0.00    -0.237 OA
ATOM    101  O   UNL A   1      52.324  24.551  31.991  1.00  0.00    -0.744 OA
ENDBRANCH  97  98
ENDBRANCH  65  90
ENDBRANCH  39  40
ENDBRANCH  32  34
ENDBRANCH  31  32
ENDBRANCH   1  31
TORSDOF 17
ENDMDL
MODEL 3
REMARK VINA RESULT:     -12.1      3.915      6.425
REMARK SMILES CS(=O)(=O)c1ccc(-c2cc(Cl)cc3c2O[C@H](C(F)(F)F)C(C(=O)OCCOC(=O)c2ccc(-c4c5nc(c(-c6c(F)cc(S(=O)(=O)[O-])cc6F)c6ccc([nH]6)c(-c6c(F)cc(S(=O)(=O)[O-])cc6F)c6nc(c(-c7c(F)cc(S(=O)(=O)[O-])cc7F)c7ccc4[nH]7)C=C6)C=C5)cc2)=C3)cc1
REMARK SMILES IDX 27 1 26 2 25 3 23 4 24 5 22 6 9 7 10 8 15 9 11 10 14 11
REMARK SMILES IDX 16 12 12 13 13 14 97 15 17 16 8 17 5 18 6 19 99 20 7 21
REMARK SMILES IDX 98 22 2 23 1 24 3 25 4 26 18 27 19 28 20 29 21 30 28 31
REMARK SMILES IDX 29 32 30 33 31 34 32 35 96 36 33 37 95 38 34 39 35 40 36 41
REMARK SMILES IDX 89 42 37 43 94 44 88 45 90 46 38 47 93 48 87 49 86 50 39 52
REMARK SMILES IDX 73 53 52 54 72 55 53 56 56 57 71 58 91 59 54 60 55 61 70 63
REMARK SMILES IDX 92 64 57 65 40 66 41 67 50 68 42 69 43 70 49 71 51 72 44 73
REMARK SMILES IDX 45 74 46 75 47 76 48 77 74 78 75 79 84 80 76 81 77 82 83 83
REMARK SMILES IDX 85 84 78 85 79 86 80 87 81 88 82 89 58 90 59 91 68 92 60 93
REMARK SMILES IDX 61 94 67 95 69 96 62 97 63 98 64 99 65 100 66 101
REMARK H PARENT 90 51 56 62
REMARK Flexibility Score: inf
ROOT
ATOM      1  C   UNL A   1      36.657  32.204  33.702  1.00  0.00     0.275 C 
ENDROOT
BRANCH   1   2
ATOM      2  C   UNL A   1      36.902  33.260  32.618  1.00  0.00     0.275 C 
BRANCH   2   3
ATOM      3  O   UNL A   1      36.018  33.136  31.473  1.00  0.00    -0.459 OA
BRANCH   3   4
ATOM      4  C   UNL A   1      36.603  33.527  30.311  1.00  0.00     0.338 C 
ATOM      5  O   UNL A   1      37.804  33.744  30.185  1.00  0.00    -0.246 OA
BRANCH   4   6
ATOM      6  C   UNL A   1      35.672  33.642  29.158  1.00  0.00     0.087 C 
ATOM      7  C   UNL A   1      34.137  30.250  27.563  1.00  0.00     0.026 A 
ATOM      8  C   UNL A   1      35.132  29.328  27.966  1.00  0.00     0.033 A 
ATOM      9  C   UNL A   1      34.502  31.587  27.753  1.00  0.00     0.135 A 
ATOM     10  C   UNL A   1      36.433  29.695  28.332  1.00  0.00     0.042 A 
ATOM     11  C   UNL A   1      35.879  31.922  27.842  1.00  0.00     0.019 A 
ATOM     12  O   UNL A   1      33.617  32.604  28.101  1.00  0.00    -0.475 OA
ATOM     13  Cl  UNL A   1      37.559  28.655  29.103  1.00  0.00    -0.084 Cl
ATOM     14  C   UNL A   1      36.849  30.982  28.129  1.00  0.00     0.032 A 
ATOM     15  C   UNL A   1      36.253  33.339  27.985  1.00  0.00     0.027 C 
ATOM     16  C   UNL A   1      34.164  33.468  29.220  1.00  0.00     0.316 C 
BRANCH   7  17
ATOM     17  C   UNL A   1      32.982  29.642  26.819  1.00  0.00    -0.015 A 
ATOM     18  C   UNL A   1      31.490  27.850  25.144  1.00  0.00     0.067 A 
ATOM     19  C   UNL A   1      31.383  27.781  26.534  1.00  0.00     0.021 A 
ATOM     20  C   UNL A   1      32.267  28.856  24.575  1.00  0.00     0.021 A 
ATOM     21  C   UNL A   1      32.091  28.697  27.355  1.00  0.00     0.010 A 
ATOM     22  C   UNL A   1      33.005  29.725  25.404  1.00  0.00     0.010 A 
BRANCH  18  23
ATOM     23  S   UNL A   1      30.503  26.787  24.089  1.00  0.00     0.175 S 
ATOM     24  C   UNL A   1      31.644  25.756  23.218  1.00  0.00     0.163 C 
ATOM     25  O   UNL A   1      29.852  27.651  23.124  1.00  0.00    -0.224 OA
ATOM     26  O   UNL A   1      29.705  25.947  24.967  1.00  0.00    -0.224 OA
ENDBRANCH  18  23
ENDBRANCH   7  17
BRANCH  16  27
ATOM     27  C   UNL A   1      33.597  34.892  29.145  1.00  0.00     0.430 C 
ATOM     28  F   UNL A   1      32.409  34.927  28.494  1.00  0.00    -0.167 F 
ATOM     29  F   UNL A   1      33.417  35.445  30.362  1.00  0.00    -0.167 F 
ATOM     30  F   UNL A   1      34.439  35.713  28.461  1.00  0.00    -0.167 F 
ENDBRANCH  16  27
ENDBRANCH   4   6
ENDBRANCH   3   4
ENDBRANCH   2   3
ENDBRANCH   1   2
BRANCH   1  31
ATOM     31  O   UNL A   1      37.709  31.220  33.741  1.00  0.00    -0.458 OA
BRANCH  31  32
ATOM     32  C   UNL A   1      37.625  30.287  32.761  1.00  0.00     0.338 C 
ATOM     33  O   UNL A   1      36.608  29.688  32.437  1.00  0.00    -0.246 OA
BRANCH  32  34
ATOM     34  C   UNL A   1      38.900  30.154  32.008  1.00  0.00     0.060 A 
ATOM     35  C   UNL A   1      39.847  29.297  32.557  1.00  0.00     0.016 A 
ATOM     36  C   UNL A   1      39.212  30.827  30.818  1.00  0.00     0.016 A 
ATOM     37  C   UNL A   1      41.054  29.078  31.893  1.00  0.00     0.010 A 
ATOM     38  C   UNL A   1      40.442  30.584  30.148  1.00  0.00     0.010 A 
ATOM     39  C   UNL A   1      41.373  29.671  30.657  1.00  0.00    -0.014 A 
BRANCH  39  40
ATOM     40  C   UNL A   1      42.694  29.294  30.022  1.00  0.00     0.031 A 
ATOM     41  C   UNL A   1      42.805  27.970  29.317  1.00  0.00     0.074 A 
ATOM     42  C   UNL A   1      43.719  30.166  29.846  1.00  0.00     0.049 A 
ATOM     43  N   UNL A   1      43.787  27.513  28.582  1.00  0.00    -0.248 NA
ATOM     44  C   UNL A   1      41.664  27.050  29.445  1.00  0.00     0.031 C 
ATOM     45  C   UNL A   1      43.758  31.508  30.386  1.00  0.00     0.029 A 
ATOM     46  N   UNL A   1      44.880  30.112  29.097  1.00  0.00    -0.354 N 
ATOM     47  C   UNL A   1      43.382  26.257  28.158  1.00  0.00     0.074 A 
ATOM     48  C   UNL A   1      42.054  26.036  28.690  1.00  0.00     0.031 C 
ATOM     49  C   UNL A   1      44.734  32.222  29.806  1.00  0.00     0.029 A 
ATOM     50  C   UNL A   1      45.557  31.319  29.014  1.00  0.00     0.049 A 
ATOM     51  H   UNL A   1      45.198  29.288  28.661  1.00  0.00     0.167 HD
ATOM     52  C   UNL A   1      44.066  25.352  27.422  1.00  0.00     0.037 A 
ATOM     53  C   UNL A   1      46.732  31.666  28.438  1.00  0.00     0.037 A 
ATOM     54  C   UNL A   1      45.415  25.530  26.955  1.00  0.00     0.049 A 
ATOM     55  C   UNL A   1      47.571  30.578  27.823  1.00  0.00     0.074 A 
ATOM     56  C   UNL A   1      46.158  24.673  26.163  1.00  0.00     0.029 A 
ATOM     57  N   UNL A   1      46.236  26.605  27.259  1.00  0.00    -0.354 N 
ATOM     58  N   UNL A   1      47.274  29.309  27.674  1.00  0.00    -0.248 NA
ATOM     59  C   UNL A   1      48.907  30.941  27.329  1.00  0.00     0.031 C 
ATOM     60  C   UNL A   1      47.436  25.220  26.008  1.00  0.00     0.029 A 
ATOM     61  C   UNL A   1      47.455  26.467  26.611  1.00  0.00     0.049 A 
ATOM     62  H   UNL A   1      45.990  27.355  27.847  1.00  0.00     0.167 HD
ATOM     63  C   UNL A   1      48.362  28.734  27.032  1.00  0.00     0.074 A 
ATOM     64  C   UNL A   1      49.346  29.782  26.856  1.00  0.00     0.031 C 
ATOM     65  C   UNL A   1      48.495  27.469  26.564  1.00  0.00     0.037 A 
BRANCH  52  66
ATOM     66  C   UNL A   1      43.375  24.048  27.153  1.00  0.00     0.058 A 
ATOM     67  C   UNL A   1      42.678  23.807  25.957  1.00  0.00     0.135 A 
ATOM     68  C   UNL A   1      43.386  23.038  28.126  1.00  0.00     0.135 A 
ATOM     69  F   UNL A   1      42.606  24.759  25.012  1.00  0.00    -0.206 F 
ATOM     70  C   UNL A   1      41.985  22.619  25.751  1.00  0.00     0.059 A 
ATOM     71  C   UNL A   1      42.721  21.833  27.931  1.00  0.00     0.059 A 
ATOM     72  F   UNL A   1      44.024  23.229  29.291  1.00  0.00    -0.206 F 
ATOM     73  C   UNL A   1      42.007  21.642  26.749  1.00  0.00     0.060 A 
BRANCH  73  74
ATOM     74  S   UNL A   1      41.061  20.128  26.494  1.00  0.00     0.124 S 
ATOM     75  O   UNL A   1      41.140  19.510  27.814  1.00  0.00    -0.237 OA
ATOM     76  O   UNL A   1      39.750  20.640  26.111  1.00  0.00    -0.237 OA
ATOM     77  O   UNL A   1      41.796  19.441  25.437  1.00  0.00    -0.744 OA
ENDBRANCH  73  74
ENDBRANCH  52  66
BRANCH  53  78
ATOM     78  C   UNL A   1      47.250  33.073  28.483  1.00  0.00     0.058 A 
ATOM     79  C   UNL A   1      47.987  33.554  29.582  1.00  0.00     0.135 A 
ATOM     80  C   UNL A   1      46.979  33.987  27.453  1.00  0.00     0.135 A 
ATOM     81  F   UNL A   1      48.261  32.737  30.611  1.00  0.00    -0.206 F 
ATOM     82  C   UNL A   1      48.411  34.883  29.665  1.00  0.00     0.059 A 
ATOM     83  C   UNL A   1      47.429  35.305  27.491  1.00  0.00     0.059 A 
ATOM     84  F   UNL A   1      46.274  33.599  26.379  1.00  0.00    -0.206 F 
ATOM     85  C   UNL A   1      48.129  35.750  28.609  1.00  0.00     0.060 A 
BRANCH  85  86
ATOM     86  S   UNL A   1      48.697  37.465  28.700  1.00  0.00     0.124 S 
ATOM     87  O   UNL A   1      47.454  38.197  28.490  1.00  0.00    -0.237 OA
ATOM     88  O   UNL A   1      49.260  37.532  30.044  1.00  0.00    -0.237 OA
ATOM     89  O   UNL A   1      49.670  37.552  27.615  1.00  0.00    -0.744 OA
ENDBRANCH  85  86
ENDBRANCH  53  78
BRANCH  65  90
ATOM     90  C   UNL A   1      49.749  27.151  25.797  1.00  0.00     0.058 A 
ATOM     91  C   UNL A   1      49.858  27.353  24.413  1.00  0.00     0.135 A 
ATOM     92  C   UNL A   1      50.874  26.658  26.479  1.00  0.00     0.135 A 
ATOM     93  F   UNL A   1      48.803  27.790  23.707  1.00  0.00    -0.206 F 
ATOM     94  C   UNL A   1      51.043  27.079  23.734  1.00  0.00     0.059 A 
ATOM     95  C   UNL A   1      52.076  26.411  25.828  1.00  0.00     0.059 A 
ATOM     96  F   UNL A   1      50.814  26.428  27.801  1.00  0.00    -0.206 F 
ATOM     97  C   UNL A   1      52.149  26.620  24.453  1.00  0.00     0.060 A 
BRANCH  97  98
ATOM     98  S   UNL A   1      53.699  26.333  23.572  1.00  0.00     0.124 S 
ATOM     99  O   UNL A   1      53.220  25.953  22.248  1.00  0.00    -0.237 OA
ATOM    100  O   UNL A   1      54.351  27.636  23.661  1.00  0.00    -0.237 OA
ATOM    101  O   UNL A   1      54.334  25.268  24.341  1.00  0.00    -0.744 OA
ENDBRANCH  97  98
ENDBRANCH  65  90
ENDBRANCH  39  40
ENDBRANCH  32  34
ENDBRANCH  31  32
ENDBRANCH   1  31
TORSDOF 17
ENDMDL
