MODEL 1
REMARK VINA RESULT:      -9.5      0.000      0.000
REMARK SMILES CC[C@H](Oc1ccc(C)nc1C[NH3+])C(=O)OCCOC(=O)c1ccc(-c2c3nc(c(-c4c(F)cc(S(=O)(=O)[O-])cc4F)c4ccc([nH]4)c(-c4c(F)cc(S(=O)(=O)[O-])cc4F)c4nc(c(-c5c(F)cc(S(=O)(=O)[O-])cc5F)c5ccc2[nH]5)C=C4)C=C3)cc1
REMARK SMILES IDX 17 1 16 2 14 3 15 4 3 5 2 6 1 7 4 8 5 9 6 10 11 11 7 12
REMARK SMILES IDX 10 13 8 14 9 15 12 16 13 17 18 21 19 22 20 23 21 24 22 25
REMARK SMILES IDX 23 26 87 27 24 28 86 29 25 30 26 31 27 32 80 33 28 34 85 35
REMARK SMILES IDX 79 36 81 37 29 38 84 39 78 40 77 41 30 43 64 44 43 45 63 46
REMARK SMILES IDX 44 47 47 48 62 49 82 50 45 51 46 52 61 54 83 55 48 56 31 57
REMARK SMILES IDX 32 58 41 59 33 60 34 61 40 62 42 63 35 64 36 65 37 66 38 67
REMARK SMILES IDX 39 68 65 69 66 70 75 71 67 72 68 73 74 74 76 75 69 76 70 77
REMARK SMILES IDX 71 78 72 79 73 80 49 81 50 82 59 83 51 84 52 85 58 86 60 87
REMARK SMILES IDX 53 88 54 89 55 90 56 91 57 92
REMARK H PARENT 13 18 13 19 13 20 81 42 47 53
REMARK Flexibility Score: inf
ROOT
ATOM      1  C   UNL A   1      34.020  31.525  28.315  1.00  0.00     0.274 C 
ENDROOT
BRANCH   1   2
ATOM      2  O   UNL A   1      33.757  32.771  27.640  1.00  0.00    -0.459 OA
BRANCH   2   3
ATOM      3  C   UNL A   1      34.393  33.861  28.149  1.00  0.00     0.347 C 
ATOM      4  O   UNL A   1      35.140  34.593  27.505  1.00  0.00    -0.248 OA
BRANCH   3   5
ATOM      5  C   UNL A   1      34.134  34.075  29.647  1.00  0.00     0.282 C 
BRANCH   5   6
ATOM      6  C   UNL A   1      32.935  35.034  29.803  1.00  0.00     0.054 C 
ATOM      7  C   UNL A   1      33.193  36.323  30.568  1.00  0.00     0.008 C 
ENDBRANCH   5   6
BRANCH   5   8
ATOM      8  O   UNL A   1      35.312  34.481  30.340  1.00  0.00    -0.477 OA
BRANCH   8   9
ATOM      9  C   UNL A   1      35.877  33.635  31.259  1.00  0.00     0.147 A 
ATOM     10  C   UNL A   1      35.310  33.301  32.490  1.00  0.00     0.050 A 
ATOM     11  C   UNL A   1      37.138  33.095  30.963  1.00  0.00     0.136 A 
ATOM     12  C   UNL A   1      36.019  32.518  33.400  1.00  0.00     0.027 A 
ATOM     13  N   UNL A   1      37.843  32.343  31.861  1.00  0.00    -0.248 NA
ATOM     14  C   UNL A   1      37.291  32.085  33.066  1.00  0.00     0.038 A 
ATOM     15  C   UNL A   1      38.125  31.311  34.040  1.00  0.00     0.067 C 
BRANCH  11  16
ATOM     16  C   UNL A   1      37.796  33.294  29.609  1.00  0.00     0.320 C 
BRANCH  16  17
ATOM     17  N   UNL A   1      37.971  34.710  29.242  1.00  0.00    -0.352 N 
ATOM     18  H   UNL A   1      38.885  35.032  29.558  1.00  0.00     0.344 HD
ATOM     19  H   UNL A   1      37.242  35.268  29.686  1.00  0.00     0.344 HD
ATOM     20  H   UNL A   1      37.905  34.809  28.229  1.00  0.00     0.344 HD
ENDBRANCH  16  17
ENDBRANCH  11  16
ENDBRANCH   8   9
ENDBRANCH   5   8
ENDBRANCH   3   5
ENDBRANCH   2   3
ENDBRANCH   1   2
BRANCH   1  21
ATOM     21  C   UNL A   1      35.239  30.803  27.733  1.00  0.00     0.275 C 
BRANCH  21  22
ATOM     22  O   UNL A   1      35.536  29.587  28.443  1.00  0.00    -0.458 OA
BRANCH  22  23
ATOM     23  C   UNL A   1      36.229  29.758  29.595  1.00  0.00     0.338 C 
ATOM     24  O   UNL A   1      35.770  29.946  30.709  1.00  0.00    -0.246 OA
BRANCH  23  25
ATOM     25  C   UNL A   1      37.664  29.554  29.343  1.00  0.00     0.060 A 
ATOM     26  C   UNL A   1      38.106  29.586  28.017  1.00  0.00     0.016 A 
ATOM     27  C   UNL A   1      38.548  29.250  30.380  1.00  0.00     0.016 A 
ATOM     28  C   UNL A   1      39.438  29.313  27.719  1.00  0.00     0.010 A 
ATOM     29  C   UNL A   1      39.885  28.966  30.077  1.00  0.00     0.010 A 
ATOM     30  C   UNL A   1      40.334  28.983  28.745  1.00  0.00    -0.014 A 
BRANCH  30  31
ATOM     31  C   UNL A   1      41.721  28.588  28.405  1.00  0.00     0.031 A 
ATOM     32  C   UNL A   1      42.812  29.621  28.412  1.00  0.00     0.074 A 
ATOM     33  C   UNL A   1      42.005  27.302  28.123  1.00  0.00     0.049 A 
ATOM     34  N   UNL A   1      44.072  29.494  28.089  1.00  0.00    -0.248 NA
ATOM     35  C   UNL A   1      42.432  30.976  28.838  1.00  0.00     0.031 C 
ATOM     36  C   UNL A   1      41.036  26.206  28.127  1.00  0.00     0.029 A 
ATOM     37  N   UNL A   1      43.189  26.704  27.778  1.00  0.00    -0.354 N 
ATOM     38  C   UNL A   1      44.636  30.753  28.258  1.00  0.00     0.074 A 
ATOM     39  C   UNL A   1      43.574  31.634  28.696  1.00  0.00     0.031 C 
ATOM     40  C   UNL A   1      41.665  25.067  27.793  1.00  0.00     0.029 A 
ATOM     41  C   UNL A   1      43.070  25.359  27.517  1.00  0.00     0.049 A 
ATOM     42  H   UNL A   1      44.043  27.190  27.722  1.00  0.00     0.167 HD
ATOM     43  C   UNL A   1      45.922  31.136  28.070  1.00  0.00     0.037 A 
ATOM     44  C   UNL A   1      43.984  24.472  27.079  1.00  0.00     0.037 A 
ATOM     45  C   UNL A   1      46.974  30.251  27.643  1.00  0.00     0.049 A 
ATOM     46  C   UNL A   1      45.396  24.931  26.831  1.00  0.00     0.074 A 
ATOM     47  C   UNL A   1      48.310  30.542  27.423  1.00  0.00     0.029 A 
ATOM     48  N   UNL A   1      46.810  28.901  27.368  1.00  0.00    -0.354 N 
ATOM     49  N   UNL A   1      45.913  26.126  26.987  1.00  0.00    -0.248 NA
ATOM     50  C   UNL A   1      46.348  23.921  26.347  1.00  0.00     0.031 C 
ATOM     51  C   UNL A   1      48.946  29.376  26.985  1.00  0.00     0.029 A 
ATOM     52  C   UNL A   1      48.017  28.348  26.969  1.00  0.00     0.049 A 
ATOM     53  H   UNL A   1      45.962  28.408  27.446  1.00  0.00     0.167 HD
ATOM     54  C   UNL A   1      47.252  26.011  26.635  1.00  0.00     0.074 A 
ATOM     55  C   UNL A   1      47.470  24.625  26.271  1.00  0.00     0.031 C 
ATOM     56  C   UNL A   1      48.215  26.965  26.613  1.00  0.00     0.037 A 
BRANCH  43  57
ATOM     57  C   UNL A   1      46.253  32.584  28.299  1.00  0.00     0.058 A 
ATOM     58  C   UNL A   1      46.671  33.057  29.552  1.00  0.00     0.135 A 
ATOM     59  C   UNL A   1      46.168  33.508  27.245  1.00  0.00     0.135 A 
ATOM     60  F   UNL A   1      46.752  32.218  30.598  1.00  0.00    -0.206 F 
ATOM     61  C   UNL A   1      46.969  34.400  29.760  1.00  0.00     0.059 A 
ATOM     62  C   UNL A   1      46.483  34.852  27.425  1.00  0.00     0.059 A 
ATOM     63  F   UNL A   1      45.772  33.109  26.026  1.00  0.00    -0.206 F 
ATOM     64  C   UNL A   1      46.867  35.291  28.691  1.00  0.00     0.060 A 
BRANCH  64  65
ATOM     65  S   UNL A   1      47.250  37.033  28.973  1.00  0.00     0.124 S 
ATOM     66  O   UNL A   1      47.697  37.450  27.648  1.00  0.00    -0.237 OA
ATOM     67  O   UNL A   1      45.963  37.571  29.405  1.00  0.00    -0.237 OA
ATOM     68  O   UNL A   1      48.284  36.991  30.001  1.00  0.00    -0.744 OA
ENDBRANCH  64  65
ENDBRANCH  43  57
BRANCH  44  69
ATOM     69  C   UNL A   1      43.581  23.063  26.825  1.00  0.00     0.058 A 
ATOM     70  C   UNL A   1      43.518  22.550  25.522  1.00  0.00     0.135 A 
ATOM     71  C   UNL A   1      43.272  22.199  27.886  1.00  0.00     0.135 A 
ATOM     72  F   UNL A   1      43.794  23.341  24.475  1.00  0.00    -0.206 F 
ATOM     73  C   UNL A   1      43.155  21.229  25.278  1.00  0.00     0.059 A 
ATOM     74  C   UNL A   1      42.928  20.868  27.669  1.00  0.00     0.059 A 
ATOM     75  F   UNL A   1      43.328  22.641  29.153  1.00  0.00    -0.206 F 
ATOM     76  C   UNL A   1      42.866  20.395  26.360  1.00  0.00     0.060 A 
BRANCH  76  77
ATOM     77  S   UNL A   1      42.458  18.665  26.040  1.00  0.00     0.124 S 
ATOM     78  O   UNL A   1      43.354  18.352  24.933  1.00  0.00    -0.237 OA
ATOM     79  O   UNL A   1      42.774  18.031  27.317  1.00  0.00    -0.237 OA
ATOM     80  O   UNL A   1      41.037  18.712  25.711  1.00  0.00    -0.744 OA
ENDBRANCH  76  77
ENDBRANCH  44  69
BRANCH  56  81
ATOM     81  C   UNL A   1      49.597  26.541  26.204  1.00  0.00     0.058 A 
ATOM     82  C   UNL A   1      50.069  26.735  24.897  1.00  0.00     0.135 A 
ATOM     83  C   UNL A   1      50.475  25.978  27.144  1.00  0.00     0.135 A 
ATOM     84  F   UNL A   1      49.266  27.264  23.961  1.00  0.00    -0.206 F 
ATOM     85  C   UNL A   1      51.359  26.368  24.530  1.00  0.00     0.059 A 
ATOM     86  C   UNL A   1      51.777  25.622  26.804  1.00  0.00     0.059 A 
ATOM     87  F   UNL A   1      50.074  25.779  28.410  1.00  0.00    -0.206 F 
ATOM     88  C   UNL A   1      52.206  25.811  25.491  1.00  0.00     0.060 A 
BRANCH  88  89
ATOM     89  S   UNL A   1      53.890  25.367  25.013  1.00  0.00     0.124 S 
ATOM     90  O   UNL A   1      54.025  26.063  23.737  1.00  0.00    -0.237 OA
ATOM     91  O   UNL A   1      54.683  25.903  26.115  1.00  0.00    -0.237 OA
ATOM     92  O   UNL A   1      53.847  23.910  24.933  1.00  0.00    -0.744 OA
ENDBRANCH  88  89
ENDBRANCH  56  81
ENDBRANCH  30  31
ENDBRANCH  23  25
ENDBRANCH  22  23
ENDBRANCH  21  22
ENDBRANCH   1  21
TORSDOF 19
ENDMDL
MODEL 2
REMARK VINA RESULT:      -9.5      7.079     13.674
REMARK SMILES CC[C@H](Oc1ccc(C)nc1C[NH3+])C(=O)OCCOC(=O)c1ccc(-c2c3nc(c(-c4c(F)cc(S(=O)(=O)[O-])cc4F)c4ccc([nH]4)c(-c4c(F)cc(S(=O)(=O)[O-])cc4F)c4nc(c(-c5c(F)cc(S(=O)(=O)[O-])cc5F)c5ccc2[nH]5)C=C4)C=C3)cc1
REMARK SMILES IDX 17 1 16 2 14 3 15 4 3 5 2 6 1 7 4 8 5 9 6 10 11 11 7 12
REMARK SMILES IDX 10 13 8 14 9 15 12 16 13 17 18 21 19 22 20 23 21 24 22 25
REMARK SMILES IDX 23 26 87 27 24 28 86 29 25 30 26 31 27 32 80 33 28 34 85 35
REMARK SMILES IDX 79 36 81 37 29 38 84 39 78 40 77 41 30 43 64 44 43 45 63 46
REMARK SMILES IDX 44 47 47 48 62 49 82 50 45 51 46 52 61 54 83 55 48 56 31 57
REMARK SMILES IDX 32 58 41 59 33 60 34 61 40 62 42 63 35 64 36 65 37 66 38 67
REMARK SMILES IDX 39 68 65 69 66 70 75 71 67 72 68 73 74 74 76 75 69 76 70 77
REMARK SMILES IDX 71 78 72 79 73 80 49 81 50 82 59 83 51 84 52 85 58 86 60 87
REMARK SMILES IDX 53 88 54 89 55 90 56 91 57 92
REMARK H PARENT 13 18 13 19 13 20 81 42 47 53
REMARK Flexibility Score: inf
ROOT
ATOM      1  C   UNL A   1      37.360  23.415  25.816  1.00  0.00     0.274 C 
ENDROOT
BRANCH   1   2
ATOM      2  O   UNL A   1      37.134  22.407  24.810  1.00  0.00    -0.459 OA
BRANCH   2   3
ATOM      3  C   UNL A   1      36.467  22.825  23.700  1.00  0.00     0.347 C 
ATOM      4  O   UNL A   1      37.002  23.343  22.723  1.00  0.00    -0.248 OA
BRANCH   3   5
ATOM      5  C   UNL A   1      34.947  22.637  23.793  1.00  0.00     0.282 C 
BRANCH   5   6
ATOM      6  C   UNL A   1      34.271  24.004  23.557  1.00  0.00     0.054 C 
ATOM      7  C   UNL A   1      34.267  24.971  24.731  1.00  0.00     0.008 C 
ENDBRANCH   5   6
BRANCH   5   8
ATOM      8  O   UNL A   1      34.563  21.987  25.002  1.00  0.00    -0.477 OA
BRANCH   8   9
ATOM      9  C   UNL A   1      34.192  20.667  24.968  1.00  0.00     0.147 A 
ATOM     10  C   UNL A   1      35.068  19.597  24.777  1.00  0.00     0.050 A 
ATOM     11  C   UNL A   1      32.827  20.368  25.092  1.00  0.00     0.136 A 
ATOM     12  C   UNL A   1      34.575  18.300  24.648  1.00  0.00     0.027 A 
ATOM     13  N   UNL A   1      32.339  19.099  24.947  1.00  0.00    -0.248 NA
ATOM     14  C   UNL A   1      33.206  18.093  24.705  1.00  0.00     0.038 A 
ATOM     15  C   UNL A   1      32.621  16.732  24.491  1.00  0.00     0.067 C 
BRANCH  11  16
ATOM     16  C   UNL A   1      31.800  21.436  25.419  1.00  0.00     0.320 C 
BRANCH  16  17
ATOM     17  N   UNL A   1      32.088  22.169  26.664  1.00  0.00    -0.352 N 
ATOM     18  H   UNL A   1      32.589  21.558  27.309  1.00  0.00     0.344 HD
ATOM     19  H   UNL A   1      31.213  22.469  27.091  1.00  0.00     0.344 HD
ATOM     20  H   UNL A   1      32.661  22.986  26.453  1.00  0.00     0.344 HD
ENDBRANCH  16  17
ENDBRANCH  11  16
ENDBRANCH   8   9
ENDBRANCH   5   8
ENDBRANCH   3   5
ENDBRANCH   2   3
ENDBRANCH   1   2
BRANCH   1  21
ATOM     21  C   UNL A   1      38.734  23.268  26.476  1.00  0.00     0.275 C 
BRANCH  21  22
ATOM     22  O   UNL A   1      39.624  24.339  26.116  1.00  0.00    -0.458 OA
BRANCH  22  23
ATOM     23  C   UNL A   1      40.709  24.470  26.918  1.00  0.00     0.338 C 
ATOM     24  O   UNL A   1      41.760  23.857  26.840  1.00  0.00    -0.246 OA
BRANCH  23  25
ATOM     25  C   UNL A   1      40.496  25.582  27.858  1.00  0.00     0.060 A 
ATOM     26  C   UNL A   1      41.459  26.594  27.903  1.00  0.00     0.016 A 
ATOM     27  C   UNL A   1      39.414  25.589  28.741  1.00  0.00     0.016 A 
ATOM     28  C   UNL A   1      41.348  27.621  28.836  1.00  0.00     0.010 A 
ATOM     29  C   UNL A   1      39.310  26.618  29.684  1.00  0.00     0.010 A 
ATOM     30  C   UNL A   1      40.282  27.632  29.745  1.00  0.00    -0.014 A 
BRANCH  30  31
ATOM     31  C   UNL A   1      40.233  28.669  30.803  1.00  0.00     0.031 A 
ATOM     32  C   UNL A   1      41.160  28.574  31.981  1.00  0.00     0.074 A 
ATOM     33  C   UNL A   1      39.383  29.706  30.690  1.00  0.00     0.049 A 
ATOM     34  N   UNL A   1      41.235  29.341  33.038  1.00  0.00    -0.248 NA
ATOM     35  C   UNL A   1      42.131  27.469  31.968  1.00  0.00     0.031 C 
ATOM     36  C   UNL A   1      38.466  29.925  29.571  1.00  0.00     0.029 A 
ATOM     37  N   UNL A   1      39.151  30.768  31.527  1.00  0.00    -0.354 N 
ATOM     38  C   UNL A   1      42.249  28.806  33.824  1.00  0.00     0.074 A 
ATOM     39  C   UNL A   1      42.749  27.638  33.129  1.00  0.00     0.031 C 
ATOM     40  C   UNL A   1      37.765  31.050  29.794  1.00  0.00     0.029 A 
ATOM     41  C   UNL A   1      38.157  31.609  31.085  1.00  0.00     0.049 A 
ATOM     42  H   UNL A   1      39.649  30.913  32.363  1.00  0.00     0.167 HD
ATOM     43  C   UNL A   1      42.723  29.251  35.012  1.00  0.00     0.037 A 
ATOM     44  C   UNL A   1      37.608  32.690  31.670  1.00  0.00     0.037 A 
ATOM     45  C   UNL A   1      42.226  30.419  35.693  1.00  0.00     0.049 A 
ATOM     46  C   UNL A   1      38.118  33.140  33.013  1.00  0.00     0.074 A 
ATOM     47  C   UNL A   1      42.639  30.954  36.901  1.00  0.00     0.029 A 
ATOM     48  N   UNL A   1      41.205  31.234  35.224  1.00  0.00    -0.354 N 
ATOM     49  N   UNL A   1      39.071  32.621  33.748  1.00  0.00    -0.248 NA
ATOM     50  C   UNL A   1      37.477  34.322  33.607  1.00  0.00     0.031 C 
ATOM     51  C   UNL A   1      41.846  32.073  37.179  1.00  0.00     0.029 A 
ATOM     52  C   UNL A   1      40.965  32.259  36.126  1.00  0.00     0.049 A 
ATOM     53  H   UNL A   1      40.722  31.103  34.377  1.00  0.00     0.167 HD
ATOM     54  C   UNL A   1      39.155  33.417  34.884  1.00  0.00     0.074 A 
ATOM     55  C   UNL A   1      38.165  34.465  34.732  1.00  0.00     0.031 C 
ATOM     56  C   UNL A   1      39.976  33.294  35.956  1.00  0.00     0.037 A 
BRANCH  43  57
ATOM     57  C   UNL A   1      43.816  28.453  35.664  1.00  0.00     0.058 A 
ATOM     58  C   UNL A   1      43.536  27.418  36.569  1.00  0.00     0.135 A 
ATOM     59  C   UNL A   1      45.163  28.716  35.365  1.00  0.00     0.135 A 
ATOM     60  F   UNL A   1      42.266  27.138  36.902  1.00  0.00    -0.206 F 
ATOM     61  C   UNL A   1      44.553  26.688  37.176  1.00  0.00     0.059 A 
ATOM     62  C   UNL A   1      46.195  27.983  35.943  1.00  0.00     0.059 A 
ATOM     63  F   UNL A   1      45.487  29.697  34.508  1.00  0.00    -0.206 F 
ATOM     64  C   UNL A   1      45.880  26.981  36.860  1.00  0.00     0.060 A 
BRANCH  64  65
ATOM     65  S   UNL A   1      47.193  26.032  37.658  1.00  0.00     0.124 S 
ATOM     66  O   UNL A   1      47.905  25.493  36.504  1.00  0.00    -0.237 OA
ATOM     67  O   UNL A   1      47.903  27.055  38.419  1.00  0.00    -0.237 OA
ATOM     68  O   UNL A   1      46.464  25.054  38.459  1.00  0.00    -0.744 OA
ENDBRANCH  64  65
ENDBRANCH  43  57
BRANCH  44  69
ATOM     69  C   UNL A   1      36.496  33.409  30.994  1.00  0.00     0.058 A 
ATOM     70  C   UNL A   1      36.729  34.212  29.868  1.00  0.00     0.135 A 
ATOM     71  C   UNL A   1      35.175  33.290  31.452  1.00  0.00     0.135 A 
ATOM     72  F   UNL A   1      37.976  34.365  29.400  1.00  0.00    -0.206 F 
ATOM     73  C   UNL A   1      35.691  34.877  29.223  1.00  0.00     0.059 A 
ATOM     74  C   UNL A   1      34.118  33.927  30.810  1.00  0.00     0.059 A 
ATOM     75  F   UNL A   1      34.900  32.525  32.520  1.00  0.00    -0.206 F 
ATOM     76  C   UNL A   1      34.388  34.724  29.700  1.00  0.00     0.060 A 
BRANCH  76  77
ATOM     77  S   UNL A   1      33.038  35.539  28.819  1.00  0.00     0.124 S 
ATOM     78  O   UNL A   1      33.757  36.546  28.047  1.00  0.00    -0.237 OA
ATOM     79  O   UNL A   1      32.460  34.439  28.052  1.00  0.00    -0.237 OA
ATOM     80  O   UNL A   1      32.196  36.049  29.896  1.00  0.00    -0.744 OA
ENDBRANCH  76  77
ENDBRANCH  44  69
BRANCH  56  81
ATOM     81  C   UNL A   1      39.856  34.329  37.038  1.00  0.00     0.058 A 
ATOM     82  C   UNL A   1      40.469  35.586  36.924  1.00  0.00     0.135 A 
ATOM     83  C   UNL A   1      39.080  34.077  38.180  1.00  0.00     0.135 A 
ATOM     84  F   UNL A   1      41.227  35.874  35.854  1.00  0.00    -0.206 F 
ATOM     85  C   UNL A   1      40.332  36.553  37.914  1.00  0.00     0.059 A 
ATOM     86  C   UNL A   1      38.912  35.037  39.175  1.00  0.00     0.059 A 
ATOM     87  F   UNL A   1      38.467  32.893  38.333  1.00  0.00    -0.206 F 
ATOM     88  C   UNL A   1      39.552  36.268  39.038  1.00  0.00     0.060 A 
BRANCH  88  89
ATOM     89  S   UNL A   1      39.353  37.541  40.303  1.00  0.00     0.124 S 
ATOM     90  O   UNL A   1      38.855  36.758  41.430  1.00  0.00    -0.237 OA
ATOM     91  O   UNL A   1      40.710  38.061  40.443  1.00  0.00    -0.237 OA
ATOM     92  O   UNL A   1      38.394  38.465  39.707  1.00  0.00    -0.744 OA
ENDBRANCH  88  89
ENDBRANCH  56  81
ENDBRANCH  30  31
ENDBRANCH  23  25
ENDBRANCH  22  23
ENDBRANCH  21  22
ENDBRANCH   1  21
TORSDOF 19
ENDMDL
MODEL 3
REMARK VINA RESULT:      -9.5      5.927     14.031
REMARK SMILES CC[C@H](Oc1ccc(C)nc1C[NH3+])C(=O)OCCOC(=O)c1ccc(-c2c3nc(c(-c4c(F)cc(S(=O)(=O)[O-])cc4F)c4ccc([nH]4)c(-c4c(F)cc(S(=O)(=O)[O-])cc4F)c4nc(c(-c5c(F)cc(S(=O)(=O)[O-])cc5F)c5ccc2[nH]5)C=C4)C=C3)cc1
REMARK SMILES IDX 17 1 16 2 14 3 15 4 3 5 2 6 1 7 4 8 5 9 6 10 11 11 7 12
REMARK SMILES IDX 10 13 8 14 9 15 12 16 13 17 18 21 19 22 20 23 21 24 22 25
REMARK SMILES IDX 23 26 87 27 24 28 86 29 25 30 26 31 27 32 80 33 28 34 85 35
REMARK SMILES IDX 79 36 81 37 29 38 84 39 78 40 77 41 30 43 64 44 43 45 63 46
REMARK SMILES IDX 44 47 47 48 62 49 82 50 45 51 46 52 61 54 83 55 48 56 31 57
REMARK SMILES IDX 32 58 41 59 33 60 34 61 40 62 42 63 35 64 36 65 37 66 38 67
REMARK SMILES IDX 39 68 65 69 66 70 75 71 67 72 68 73 74 74 76 75 69 76 70 77
REMARK SMILES IDX 71 78 72 79 73 80 49 81 50 82 59 83 51 84 52 85 58 86 60 87
REMARK SMILES IDX 53 88 54 89 55 90 56 91 57 92
REMARK H PARENT 13 18 13 19 13 20 81 42 47 53
REMARK Flexibility Score: inf
ROOT
ATOM      1  C   UNL A   1      41.029  21.334  26.394  1.00  0.00     0.274 C 
ENDROOT
BRANCH   1   2
ATOM      2  O   UNL A   1      42.363  21.480  25.869  1.00  0.00    -0.459 OA
BRANCH   2   3
ATOM      3  C   UNL A   1      42.967  20.328  25.468  1.00  0.00     0.347 C 
ATOM      4  O   UNL A   1      42.425  19.226  25.464  1.00  0.00    -0.248 OA
BRANCH   3   5
ATOM      5  C   UNL A   1      44.434  20.517  25.062  1.00  0.00     0.282 C 
BRANCH   5   6
ATOM      6  C   UNL A   1      45.037  19.132  24.748  1.00  0.00     0.054 C 
ATOM      7  C   UNL A   1      46.303  18.755  25.503  1.00  0.00     0.008 C 
ENDBRANCH   5   6
BRANCH   5   8
ATOM      8  O   UNL A   1      45.162  21.275  26.026  1.00  0.00    -0.477 OA
BRANCH   8   9
ATOM      9  C   UNL A   1      45.766  22.446  25.645  1.00  0.00     0.147 A 
ATOM     10  C   UNL A   1      46.224  22.724  24.357  1.00  0.00     0.050 A 
ATOM     11  C   UNL A   1      45.979  23.422  26.630  1.00  0.00     0.136 A 
ATOM     12  C   UNL A   1      46.924  23.902  24.099  1.00  0.00     0.027 A 
ATOM     13  N   UNL A   1      46.682  24.569  26.385  1.00  0.00    -0.248 NA
ATOM     14  C   UNL A   1      47.163  24.783  25.141  1.00  0.00     0.038 A 
ATOM     15  C   UNL A   1      47.979  26.021  24.935  1.00  0.00     0.067 C 
BRANCH  11  16
ATOM     16  C   UNL A   1      45.421  23.278  28.034  1.00  0.00     0.320 C 
BRANCH  16  17
ATOM     17  N   UNL A   1      43.967  23.048  28.069  1.00  0.00    -0.352 N 
ATOM     18  H   UNL A   1      43.488  23.832  27.628  1.00  0.00     0.344 HD
ATOM     19  H   UNL A   1      43.660  22.963  29.038  1.00  0.00     0.344 HD
ATOM     20  H   UNL A   1      43.747  22.188  27.566  1.00  0.00     0.344 HD
ENDBRANCH  16  17
ENDBRANCH  11  16
ENDBRANCH   8   9
ENDBRANCH   5   8
ENDBRANCH   3   5
ENDBRANCH   2   3
ENDBRANCH   1   2
BRANCH   1  21
ATOM     21  C   UNL A   1      40.745  22.326  27.525  1.00  0.00     0.275 C 
BRANCH  21  22
ATOM     22  O   UNL A   1      40.029  23.484  27.062  1.00  0.00    -0.458 OA
BRANCH  22  23
ATOM     23  C   UNL A   1      40.812  24.539  26.727  1.00  0.00     0.338 C 
ATOM     24  O   UNL A   1      41.521  24.646  25.741  1.00  0.00    -0.246 OA
BRANCH  23  25
ATOM     25  C   UNL A   1      40.595  25.637  27.681  1.00  0.00     0.060 A 
ATOM     26  C   UNL A   1      41.540  26.666  27.721  1.00  0.00     0.016 A 
ATOM     27  C   UNL A   1      39.528  25.617  28.582  1.00  0.00     0.016 A 
ATOM     28  C   UNL A   1      41.426  27.683  28.666  1.00  0.00     0.010 A 
ATOM     29  C   UNL A   1      39.420  26.634  29.537  1.00  0.00     0.010 A 
ATOM     30  C   UNL A   1      40.375  27.665  29.592  1.00  0.00    -0.014 A 
BRANCH  30  31
ATOM     31  C   UNL A   1      40.325  28.691  30.661  1.00  0.00     0.031 A 
ATOM     32  C   UNL A   1      41.263  28.593  31.830  1.00  0.00     0.074 A 
ATOM     33  C   UNL A   1      39.462  29.720  30.566  1.00  0.00     0.049 A 
ATOM     34  N   UNL A   1      41.339  29.350  32.894  1.00  0.00    -0.248 NA
ATOM     35  C   UNL A   1      42.245  27.499  31.797  1.00  0.00     0.031 C 
ATOM     36  C   UNL A   1      38.533  29.940  29.457  1.00  0.00     0.029 A 
ATOM     37  N   UNL A   1      39.227  30.770  31.416  1.00  0.00    -0.354 N 
ATOM     38  C   UNL A   1      42.366  28.818  33.665  1.00  0.00     0.074 A 
ATOM     39  C   UNL A   1      42.871  27.662  32.954  1.00  0.00     0.031 C 
ATOM     40  C   UNL A   1      37.823  31.055  29.698  1.00  0.00     0.029 A 
ATOM     41  C   UNL A   1      38.221  31.605  30.992  1.00  0.00     0.049 A 
ATOM     42  H   UNL A   1      39.731  30.912  32.249  1.00  0.00     0.167 HD
ATOM     43  C   UNL A   1      42.845  29.257  34.854  1.00  0.00     0.037 A 
ATOM     44  C   UNL A   1      37.665  32.675  31.593  1.00  0.00     0.037 A 
ATOM     45  C   UNL A   1      42.342  30.412  35.551  1.00  0.00     0.049 A 
ATOM     46  C   UNL A   1      38.182  33.117  32.935  1.00  0.00     0.074 A 
ATOM     47  C   UNL A   1      42.760  30.939  36.761  1.00  0.00     0.029 A 
ATOM     48  N   UNL A   1      41.308  31.221  35.100  1.00  0.00    -0.354 N 
ATOM     49  N   UNL A   1      39.147  32.599  33.657  1.00  0.00    -0.248 NA
ATOM     50  C   UNL A   1      37.534  34.286  33.547  1.00  0.00     0.031 C 
ATOM     51  C   UNL A   1      41.958  32.046  37.057  1.00  0.00     0.029 A 
ATOM     52  C   UNL A   1      41.066  32.234  36.014  1.00  0.00     0.049 A 
ATOM     53  H   UNL A   1      40.820  31.093  34.255  1.00  0.00     0.167 HD
ATOM     54  C   UNL A   1      39.233  33.385  34.800  1.00  0.00     0.074 A 
ATOM     55  C   UNL A   1      38.231  34.424  34.667  1.00  0.00     0.031 C 
ATOM     56  C   UNL A   1      40.065  33.260  35.863  1.00  0.00     0.037 A 
BRANCH  43  57
ATOM     57  C   UNL A   1      43.952  28.464  35.488  1.00  0.00     0.058 A 
ATOM     58  C   UNL A   1      43.692  27.422  36.392  1.00  0.00     0.135 A 
ATOM     59  C   UNL A   1      45.293  28.738  35.173  1.00  0.00     0.135 A 
ATOM     60  F   UNL A   1      42.428  27.130  36.739  1.00  0.00    -0.206 F 
ATOM     61  C   UNL A   1      44.722  26.697  36.982  1.00  0.00     0.059 A 
ATOM     62  C   UNL A   1      46.339  28.010  35.735  1.00  0.00     0.059 A 
ATOM     63  F   UNL A   1      45.599  29.725  34.317  1.00  0.00    -0.206 F 
ATOM     64  C   UNL A   1      46.043  27.001  36.650  1.00  0.00     0.060 A 
BRANCH  64  65
ATOM     65  S   UNL A   1      47.372  26.058  37.427  1.00  0.00     0.124 S 
ATOM     66  O   UNL A   1      46.660  25.394  38.514  1.00  0.00    -0.237 OA
ATOM     67  O   UNL A   1      47.820  25.191  36.341  1.00  0.00    -0.237 OA
ATOM     68  O   UNL A   1      48.324  27.086  37.836  1.00  0.00    -0.744 OA
ENDBRANCH  64  65
ENDBRANCH  43  57
BRANCH  44  69
ATOM     69  C   UNL A   1      36.540  33.389  30.934  1.00  0.00     0.058 A 
ATOM     70  C   UNL A   1      36.753  34.198  29.809  1.00  0.00     0.135 A 
ATOM     71  C   UNL A   1      35.225  33.258  31.407  1.00  0.00     0.135 A 
ATOM     72  F   UNL A   1      37.993  34.362  29.325  1.00  0.00    -0.206 F 
ATOM     73  C   UNL A   1      35.702  34.859  29.179  1.00  0.00     0.059 A 
ATOM     74  C   UNL A   1      34.156  33.890  30.782  1.00  0.00     0.059 A 
ATOM     75  F   UNL A   1      34.969  32.487  32.476  1.00  0.00    -0.206 F 
ATOM     76  C   UNL A   1      34.406  34.694  29.672  1.00  0.00     0.060 A 
BRANCH  76  77
ATOM     77  S   UNL A   1      33.040  35.504  28.811  1.00  0.00     0.124 S 
ATOM     78  O   UNL A   1      32.501  34.405  28.018  1.00  0.00    -0.237 OA
ATOM     79  O   UNL A   1      32.205  35.961  29.918  1.00  0.00    -0.237 OA
ATOM     80  O   UNL A   1      33.700  36.564  28.058  1.00  0.00    -0.744 OA
ENDBRANCH  76  77
ENDBRANCH  44  69
BRANCH  56  81
ATOM     81  C   UNL A   1      39.944  34.283  36.957  1.00  0.00     0.058 A 
ATOM     82  C   UNL A   1      40.599  35.522  36.881  1.00  0.00     0.135 A 
ATOM     83  C   UNL A   1      39.125  34.039  38.071  1.00  0.00     0.135 A 
ATOM     84  F   UNL A   1      41.398  35.800  35.840  1.00  0.00    -0.206 F 
ATOM     85  C   UNL A   1      40.461  36.478  37.882  1.00  0.00     0.059 A 
ATOM     86  C   UNL A   1      38.956  34.989  39.074  1.00  0.00     0.059 A 
ATOM     87  F   UNL A   1      38.470  32.873  38.187  1.00  0.00    -0.206 F 
ATOM     88  C   UNL A   1      39.638  36.202  38.976  1.00  0.00     0.060 A 
BRANCH  88  89
ATOM     89  S   UNL A   1      39.440  37.462  40.254  1.00  0.00     0.124 S 
ATOM     90  O   UNL A   1      38.467  38.357  39.635  1.00  0.00    -0.237 OA
ATOM     91  O   UNL A   1      38.954  36.685  41.390  1.00  0.00    -0.237 OA
ATOM     92  O   UNL A   1      40.786  38.004  40.406  1.00  0.00    -0.744 OA
ENDBRANCH  88  89
ENDBRANCH  56  81
ENDBRANCH  30  31
ENDBRANCH  23  25
ENDBRANCH  22  23
ENDBRANCH  21  22
ENDBRANCH   1  21
TORSDOF 19
ENDMDL
