MODEL 1
REMARK VINA RESULT:     -11.3      0.000      0.000
REMARK SMILES O=C(OCCOC(=O)c1cc(F)ccc1NS(=O)(=O)c1ccc(Cl)s1)c1ccc(-c2c3nc(c(-c4c(F)cc(S(=O)(=O)[O-])cc4F)c4ccc([nH]4)c(-c4c(F)cc(S(=O)(=O)[O-])cc4F)c4nc(c(-c5c(F)cc(S(=O)(=O)[O-])cc5F)c5ccc2[nH]5)C=C4)C=C3)cc1
REMARK SMILES IDX 4 1 3 2 2 3 1 4 26 5 27 6 91 7 28 8 90 9 29 10 30 11 31 12
REMARK SMILES IDX 84 13 32 14 89 15 83 16 85 17 33 18 88 19 82 20 81 21 34 23
REMARK SMILES IDX 68 24 47 25 67 26 48 27 51 28 66 29 86 30 49 31 50 32 65 34
REMARK SMILES IDX 87 35 52 36 35 37 36 38 45 39 37 40 38 41 44 42 46 43 39 44
REMARK SMILES IDX 40 45 41 46 42 47 43 48 69 49 70 50 79 51 71 52 72 53 78 54
REMARK SMILES IDX 80 55 73 56 74 57 75 58 76 59 77 60 53 61 54 62 63 63 55 64
REMARK SMILES IDX 56 65 62 66 64 67 57 68 58 69 59 70 60 71 61 72 5 73 6 74
REMARK SMILES IDX 7 75 8 76 9 77 10 78 15 79 11 80 14 81 12 82 13 83 16 84
REMARK SMILES IDX 17 86 18 87 19 88 20 89 21 90 25 91 22 92 23 93 24 94
REMARK H PARENT 85 22 51 33 16 85
REMARK Flexibility Score: inf
ROOT
ATOM      1  C   UNL A   1      45.608  25.334  25.403  1.00  0.00     0.275 C 
ENDROOT
BRANCH   1   2
ATOM      2  O   UNL A   1      44.182  25.490  25.450  1.00  0.00    -0.458 OA
BRANCH   2   3
ATOM      3  C   UNL A   1      43.289  25.241  26.434  1.00  0.00     0.338 C 
ATOM      4  O   UNL A   1      42.685  24.170  26.395  1.00  0.00    -0.246 OA
BRANCH   3   5
ATOM      5  C   UNL A   1      42.930  26.209  27.523  1.00  0.00     0.060 A 
ATOM      6  C   UNL A   1      43.568  27.413  27.816  1.00  0.00     0.016 A 
ATOM      7  C   UNL A   1      41.848  25.844  28.342  1.00  0.00     0.016 A 
ATOM      8  C   UNL A   1      43.097  28.254  28.834  1.00  0.00     0.010 A 
ATOM      9  C   UNL A   1      41.347  26.689  29.335  1.00  0.00     0.010 A 
ATOM     10  C   UNL A   1      41.979  27.904  29.594  1.00  0.00    -0.014 A 
BRANCH  10  11
ATOM     11  C   UNL A   1      41.563  28.739  30.744  1.00  0.00     0.031 A 
ATOM     12  C   UNL A   1      42.296  28.592  32.044  1.00  0.00     0.074 A 
ATOM     13  C   UNL A   1      40.566  29.635  30.615  1.00  0.00     0.049 A 
ATOM     14  N   UNL A   1      42.124  29.245  33.161  1.00  0.00    -0.248 NA
ATOM     15  C   UNL A   1      43.379  27.593  32.089  1.00  0.00     0.031 C 
ATOM     16  C   UNL A   1      39.828  29.895  29.384  1.00  0.00     0.029 A 
ATOM     17  N   UNL A   1      39.993  30.484  31.526  1.00  0.00    -0.354 N 
ATOM     18  C   UNL A   1      43.108  28.776  34.020  1.00  0.00     0.074 A 
ATOM     19  C   UNL A   1      43.810  27.716  33.334  1.00  0.00     0.031 C 
ATOM     20  C   UNL A   1      38.863  30.798  29.624  1.00  0.00     0.029 A 
ATOM     21  C   UNL A   1      38.929  31.199  31.023  1.00  0.00     0.049 A 
ATOM     22  H   UNL A   1      40.312  30.575  32.453  1.00  0.00     0.167 HD
ATOM     23  C   UNL A   1      43.433  29.231  35.252  1.00  0.00     0.037 A 
ATOM     24  C   UNL A   1      38.108  32.082  31.622  1.00  0.00     0.037 A 
ATOM     25  C   UNL A   1      42.720  30.278  35.928  1.00  0.00     0.049 A 
ATOM     26  C   UNL A   1      38.398  32.475  33.044  1.00  0.00     0.074 A 
ATOM     27  C   UNL A   1      42.963  30.820  37.175  1.00  0.00     0.029 A 
ATOM     28  N   UNL A   1      41.613  30.938  35.408  1.00  0.00    -0.354 N 
ATOM     29  N   UNL A   1      39.365  32.056  33.826  1.00  0.00    -0.248 NA
ATOM     30  C   UNL A   1      37.517  33.476  33.656  1.00  0.00     0.031 C 
ATOM     31  C   UNL A   1      41.978  31.781  37.428  1.00  0.00     0.029 A 
ATOM     32  C   UNL A   1      41.147  31.867  36.320  1.00  0.00     0.049 A 
ATOM     33  H   UNL A   1      41.220  30.771  34.521  1.00  0.00     0.167 HD
ATOM     34  C   UNL A   1      39.237  32.775  35.008  1.00  0.00     0.074 A 
ATOM     35  C   UNL A   1      38.092  33.648  34.841  1.00  0.00     0.031 C 
ATOM     36  C   UNL A   1      40.006  32.727  36.123  1.00  0.00     0.037 A 
BRANCH  23  37
ATOM     37  C   UNL A   1      44.623  28.605  35.917  1.00  0.00     0.058 A 
ATOM     38  C   UNL A   1      45.915  29.104  35.704  1.00  0.00     0.135 A 
ATOM     39  C   UNL A   1      44.475  27.505  36.780  1.00  0.00     0.135 A 
ATOM     40  F   UNL A   1      46.108  30.162  34.902  1.00  0.00    -0.206 F 
ATOM     41  C   UNL A   1      47.023  28.533  36.322  1.00  0.00     0.059 A 
ATOM     42  C   UNL A   1      45.566  26.933  37.426  1.00  0.00     0.059 A 
ATOM     43  F   UNL A   1      43.254  27.011  37.042  1.00  0.00    -0.206 F 
ATOM     44  C   UNL A   1      46.838  27.449  37.183  1.00  0.00     0.060 A 
BRANCH  44  45
ATOM     45  S   UNL A   1      48.278  26.758  38.024  1.00  0.00     0.124 S 
ATOM     46  O   UNL A   1      48.467  27.703  39.118  1.00  0.00    -0.237 OA
ATOM     47  O   UNL A   1      47.803  25.430  38.402  1.00  0.00    -0.237 OA
ATOM     48  O   UNL A   1      49.311  26.772  36.992  1.00  0.00    -0.744 OA
ENDBRANCH  44  45
ENDBRANCH  23  37
BRANCH  24  49
ATOM     49  C   UNL A   1      36.972  32.676  30.867  1.00  0.00     0.058 A 
ATOM     50  C   UNL A   1      37.168  33.767  30.005  1.00  0.00     0.135 A 
ATOM     51  C   UNL A   1      35.666  32.184  31.007  1.00  0.00     0.135 A 
ATOM     52  F   UNL A   1      38.397  34.281  29.840  1.00  0.00    -0.206 F 
ATOM     53  C   UNL A   1      36.110  34.358  29.321  1.00  0.00     0.059 A 
ATOM     54  C   UNL A   1      34.592  32.747  30.320  1.00  0.00     0.059 A 
ATOM     55  F   UNL A   1      35.428  31.139  31.815  1.00  0.00    -0.206 F 
ATOM     56  C   UNL A   1      34.824  33.842  29.488  1.00  0.00     0.060 A 
BRANCH  56  57
ATOM     57  S   UNL A   1      33.461  34.628  28.598  1.00  0.00     0.124 S 
ATOM     58  O   UNL A   1      33.029  33.550  27.713  1.00  0.00    -0.237 OA
ATOM     59  O   UNL A   1      32.544  34.966  29.682  1.00  0.00    -0.237 OA
ATOM     60  O   UNL A   1      34.097  35.763  27.939  1.00  0.00    -0.744 OA
ENDBRANCH  56  57
ENDBRANCH  24  49
BRANCH  36  61
ATOM     61  C   UNL A   1      39.658  33.661  37.244  1.00  0.00     0.058 A 
ATOM     62  C   UNL A   1      40.260  34.926  37.324  1.00  0.00     0.135 A 
ATOM     63  C   UNL A   1      38.808  33.265  38.288  1.00  0.00     0.135 A 
ATOM     64  F   UNL A   1      41.083  35.347  36.351  1.00  0.00    -0.206 F 
ATOM     65  C   UNL A   1      40.056  35.757  38.419  1.00  0.00     0.059 A 
ATOM     66  C   UNL A   1      38.571  34.091  39.381  1.00  0.00     0.059 A 
ATOM     67  F   UNL A   1      38.200  32.070  38.246  1.00  0.00    -0.206 F 
ATOM     68  C   UNL A   1      39.217  35.326  39.447  1.00  0.00     0.060 A 
BRANCH  68  69
ATOM     69  S   UNL A   1      38.973  36.410  40.869  1.00  0.00     0.124 S 
ATOM     70  O   UNL A   1      37.924  35.709  41.600  1.00  0.00    -0.237 OA
ATOM     71  O   UNL A   1      40.294  36.406  41.490  1.00  0.00    -0.237 OA
ATOM     72  O   UNL A   1      38.577  37.678  40.263  1.00  0.00    -0.744 OA
ENDBRANCH  68  69
ENDBRANCH  36  61
ENDBRANCH  10  11
ENDBRANCH   3   5
ENDBRANCH   2   3
ENDBRANCH   1   2
BRANCH   1  73
ATOM     73  C   UNL A   1      46.089  24.113  24.622  1.00  0.00     0.275 C 
BRANCH  73  74
ATOM     74  O   UNL A   1      45.687  22.859  25.188  1.00  0.00    -0.458 OA
BRANCH  74  75
ATOM     75  C   UNL A   1      44.662  22.209  24.570  1.00  0.00     0.340 C 
ATOM     76  O   UNL A   1      43.966  22.632  23.662  1.00  0.00    -0.246 OA
BRANCH  75  77
ATOM     77  C   UNL A   1      44.591  20.830  25.097  1.00  0.00     0.087 A 
ATOM     78  C   UNL A   1      45.800  20.126  25.218  1.00  0.00     0.057 A 
ATOM     79  C   UNL A   1      43.352  20.231  25.428  1.00  0.00     0.064 A 
ATOM     80  C   UNL A   1      45.781  18.805  25.621  1.00  0.00     0.124 A 
ATOM     81  C   UNL A   1      43.379  18.862  25.715  1.00  0.00     0.030 A 
ATOM     82  F   UNL A   1      46.932  18.146  25.781  1.00  0.00    -0.207 F 
ATOM     83  C   UNL A   1      44.579  18.149  25.811  1.00  0.00     0.041 A 
BRANCH  79  84
ATOM     84  N   UNL A   1      42.221  21.067  25.758  1.00  0.00    -0.278 N 
ATOM     85  H   UNL A   1      42.323  22.022  25.543  1.00  0.00     0.180 HD
BRANCH  84  86
ATOM     86  S   UNL A   1      40.752  20.633  26.454  1.00  0.00     0.271 S 
ATOM     87  O   UNL A   1      40.193  19.579  25.634  1.00  0.00    -0.200 OA
ATOM     88  O   UNL A   1      40.960  20.418  27.867  1.00  0.00    -0.200 OA
BRANCH  86  89
ATOM     89  C   UNL A   1      39.545  21.933  26.431  1.00  0.00     0.141 A 
ATOM     90  C   UNL A   1      39.553  23.186  27.026  1.00  0.00     0.036 A 
ATOM     91  S   UNL A   1      38.132  21.691  25.491  1.00  0.00    -0.110 S 
ATOM     92  C   UNL A   1      38.460  23.993  26.598  1.00  0.00     0.034 A 
ATOM     93  C   UNL A   1      37.646  23.295  25.743  1.00  0.00     0.094 A 
ATOM     94  Cl  UNL A   1      36.255  23.900  24.941  1.00  0.00    -0.072 Cl
ENDBRANCH  86  89
ENDBRANCH  84  86
ENDBRANCH  79  84
ENDBRANCH  75  77
ENDBRANCH  74  75
ENDBRANCH  73  74
ENDBRANCH   1  73
TORSDOF 17
ENDMDL
MODEL 2
REMARK VINA RESULT:     -11.2      0.586      8.400
REMARK SMILES O=C(OCCOC(=O)c1cc(F)ccc1NS(=O)(=O)c1ccc(Cl)s1)c1ccc(-c2c3nc(c(-c4c(F)cc(S(=O)(=O)[O-])cc4F)c4ccc([nH]4)c(-c4c(F)cc(S(=O)(=O)[O-])cc4F)c4nc(c(-c5c(F)cc(S(=O)(=O)[O-])cc5F)c5ccc2[nH]5)C=C4)C=C3)cc1
REMARK SMILES IDX 4 1 3 2 2 3 1 4 26 5 27 6 91 7 28 8 90 9 29 10 30 11 31 12
REMARK SMILES IDX 84 13 32 14 89 15 83 16 85 17 33 18 88 19 82 20 81 21 34 23
REMARK SMILES IDX 68 24 47 25 67 26 48 27 51 28 66 29 86 30 49 31 50 32 65 34
REMARK SMILES IDX 87 35 52 36 35 37 36 38 45 39 37 40 38 41 44 42 46 43 39 44
REMARK SMILES IDX 40 45 41 46 42 47 43 48 69 49 70 50 79 51 71 52 72 53 78 54
REMARK SMILES IDX 80 55 73 56 74 57 75 58 76 59 77 60 53 61 54 62 63 63 55 64
REMARK SMILES IDX 56 65 62 66 64 67 57 68 58 69 59 70 60 71 61 72 5 73 6 74
REMARK SMILES IDX 7 75 8 76 9 77 10 78 15 79 11 80 14 81 12 82 13 83 16 84
REMARK SMILES IDX 17 86 18 87 19 88 20 89 21 90 25 91 22 92 23 93 24 94
REMARK H PARENT 85 22 51 33 16 85
REMARK Flexibility Score: inf
ROOT
ATOM      1  C   UNL A   1      44.003  24.238  26.416  1.00  0.00     0.275 C 
ENDROOT
BRANCH   1   2
ATOM      2  O   UNL A   1      42.663  24.478  25.959  1.00  0.00    -0.458 OA
BRANCH   2   3
ATOM      3  C   UNL A   1      41.867  25.565  26.062  1.00  0.00     0.338 C 
ATOM      4  O   UNL A   1      41.340  25.983  25.033  1.00  0.00    -0.246 OA
BRANCH   3   5
ATOM      5  C   UNL A   1      41.643  26.339  27.329  1.00  0.00     0.060 A 
ATOM      6  C   UNL A   1      40.663  26.103  28.291  1.00  0.00     0.016 A 
ATOM      7  C   UNL A   1      42.504  27.428  27.548  1.00  0.00     0.016 A 
ATOM      8  C   UNL A   1      40.596  26.873  29.461  1.00  0.00     0.010 A 
ATOM      9  C   UNL A   1      42.471  28.179  28.725  1.00  0.00     0.010 A 
ATOM     10  C   UNL A   1      41.503  27.909  29.692  1.00  0.00    -0.014 A 
BRANCH  10  11
ATOM     11  C   UNL A   1      41.349  28.792  30.870  1.00  0.00     0.031 A 
ATOM     12  C   UNL A   1      40.320  29.882  30.824  1.00  0.00     0.074 A 
ATOM     13  C   UNL A   1      42.097  28.600  31.973  1.00  0.00     0.049 A 
ATOM     14  N   UNL A   1      39.993  30.741  31.751  1.00  0.00    -0.248 NA
ATOM     15  C   UNL A   1      39.541  30.011  29.580  1.00  0.00     0.031 C 
ATOM     16  C   UNL A   1      43.085  27.539  32.141  1.00  0.00     0.029 A 
ATOM     17  N   UNL A   1      42.156  29.292  33.155  1.00  0.00    -0.354 N 
ATOM     18  C   UNL A   1      38.938  31.473  31.223  1.00  0.00     0.074 A 
ATOM     19  C   UNL A   1      38.743  31.028  29.863  1.00  0.00     0.031 C 
ATOM     20  C   UNL A   1      43.692  27.678  33.331  1.00  0.00     0.029 A 
ATOM     21  C   UNL A   1      43.121  28.827  34.020  1.00  0.00     0.049 A 
ATOM     22  H   UNL A   1      41.564  30.050  33.365  1.00  0.00     0.167 HD
ATOM     23  C   UNL A   1      38.164  32.394  31.841  1.00  0.00     0.037 A 
ATOM     24  C   UNL A   1      43.493  29.273  35.235  1.00  0.00     0.037 A 
ATOM     25  C   UNL A   1      38.376  32.835  33.191  1.00  0.00     0.049 A 
ATOM     26  C   UNL A   1      42.710  30.398  35.853  1.00  0.00     0.074 A 
ATOM     27  C   UNL A   1      37.653  33.761  33.917  1.00  0.00     0.029 A 
ATOM     28  N   UNL A   1      39.398  32.382  34.016  1.00  0.00    -0.354 N 
ATOM     29  N   UNL A   1      41.682  31.046  35.358  1.00  0.00    -0.248 NA
ATOM     30  C   UNL A   1      43.107  30.832  37.198  1.00  0.00     0.031 C 
ATOM     31  C   UNL A   1      38.261  33.899  35.170  1.00  0.00     0.029 A 
ATOM     32  C   UNL A   1      39.339  33.027  35.237  1.00  0.00     0.049 A 
ATOM     33  H   UNL A   1      40.064  31.701  33.768  1.00  0.00     0.167 HD
ATOM     34  C   UNL A   1      41.280  31.935  36.347  1.00  0.00     0.074 A 
ATOM     35  C   UNL A   1      42.183  31.746  37.466  1.00  0.00     0.031 C 
ATOM     36  C   UNL A   1      40.248  32.814  36.336  1.00  0.00     0.037 A 
BRANCH  23  37
ATOM     37  C   UNL A   1      37.014  32.954  31.057  1.00  0.00     0.058 A 
ATOM     38  C   UNL A   1      35.709  32.481  31.254  1.00  0.00     0.135 A 
ATOM     39  C   UNL A   1      37.211  33.972  30.108  1.00  0.00     0.135 A 
ATOM     40  F   UNL A   1      35.466  31.522  32.159  1.00  0.00    -0.206 F 
ATOM     41  C   UNL A   1      34.637  33.000  30.535  1.00  0.00     0.059 A 
ATOM     42  C   UNL A   1      36.151  34.520  29.395  1.00  0.00     0.059 A 
ATOM     43  F   UNL A   1      38.438  34.480  29.907  1.00  0.00    -0.206 F 
ATOM     44  C   UNL A   1      34.867  34.020  29.610  1.00  0.00     0.060 A 
BRANCH  44  45
ATOM     45  S   UNL A   1      33.456  34.722  28.729  1.00  0.00     0.124 S 
ATOM     46  O   UNL A   1      32.535  35.009  29.822  1.00  0.00    -0.237 OA
ATOM     47  O   UNL A   1      34.051  35.884  28.075  1.00  0.00    -0.237 OA
ATOM     48  O   UNL A   1      33.051  33.647  27.827  1.00  0.00    -0.744 OA
ENDBRANCH  44  45
ENDBRANCH  23  37
BRANCH  24  49
ATOM     49  C   UNL A   1      44.628  28.630  35.950  1.00  0.00     0.058 A 
ATOM     50  C   UNL A   1      44.413  27.562  36.837  1.00  0.00     0.135 A 
ATOM     51  C   UNL A   1      45.946  29.082  35.785  1.00  0.00     0.135 A 
ATOM     52  F   UNL A   1      43.170  27.096  37.038  1.00  0.00    -0.206 F 
ATOM     53  C   UNL A   1      45.458  26.975  37.542  1.00  0.00     0.059 A 
ATOM     54  C   UNL A   1      47.013  28.499  36.466  1.00  0.00     0.059 A 
ATOM     55  F   UNL A   1      46.204  30.095  34.944  1.00  0.00    -0.206 F 
ATOM     56  C   UNL A   1      46.756  27.453  37.353  1.00  0.00     0.060 A 
BRANCH  56  57
ATOM     57  S   UNL A   1      48.100  26.683  38.284  1.00  0.00     0.124 S 
ATOM     58  O   UNL A   1      48.345  25.477  37.501  1.00  0.00    -0.237 OA
ATOM     59  O   UNL A   1      49.139  27.705  38.220  1.00  0.00    -0.237 OA
ATOM     60  O   UNL A   1      47.516  26.467  39.604  1.00  0.00    -0.744 OA
ENDBRANCH  56  57
ENDBRANCH  24  49
BRANCH  36  61
ATOM     61  C   UNL A   1      40.017  33.625  37.577  1.00  0.00     0.058 A 
ATOM     62  C   UNL A   1      39.043  33.230  38.508  1.00  0.00     0.135 A 
ATOM     63  C   UNL A   1      40.686  34.839  37.792  1.00  0.00     0.135 A 
ATOM     64  F   UNL A   1      38.375  32.078  38.342  1.00  0.00    -0.206 F 
ATOM     65  C   UNL A   1      38.717  34.030  39.596  1.00  0.00     0.059 A 
ATOM     66  C   UNL A   1      40.393  35.642  38.888  1.00  0.00     0.059 A 
ATOM     67  F   UNL A   1      41.634  35.247  36.935  1.00  0.00    -0.206 F 
ATOM     68  C   UNL A   1      39.391  35.239  39.773  1.00  0.00     0.060 A 
BRANCH  68  69
ATOM     69  S   UNL A   1      38.947  36.273  41.184  1.00  0.00     0.124 S 
ATOM     70  O   UNL A   1      37.747  35.603  41.676  1.00  0.00    -0.237 OA
ATOM     71  O   UNL A   1      40.130  36.163  42.032  1.00  0.00    -0.237 OA
ATOM     72  O   UNL A   1      38.733  37.586  40.585  1.00  0.00    -0.744 OA
ENDBRANCH  68  69
ENDBRANCH  36  61
ENDBRANCH  10  11
ENDBRANCH   3   5
ENDBRANCH   2   3
ENDBRANCH   1   2
BRANCH   1  73
ATOM     73  C   UNL A   1      45.067  24.282  25.321  1.00  0.00     0.275 C 
BRANCH  73  74
ATOM     74  O   UNL A   1      45.585  22.997  24.954  1.00  0.00    -0.458 OA
BRANCH  74  75
ATOM     75  C   UNL A   1      44.744  22.169  24.276  1.00  0.00     0.340 C 
ATOM     76  O   UNL A   1      44.127  22.424  23.256  1.00  0.00    -0.246 OA
BRANCH  75  77
ATOM     77  C   UNL A   1      44.782  20.835  24.912  1.00  0.00     0.087 A 
ATOM     78  C   UNL A   1      46.042  20.241  25.086  1.00  0.00     0.057 A 
ATOM     79  C   UNL A   1      43.593  20.166  25.292  1.00  0.00     0.064 A 
ATOM     80  C   UNL A   1      46.126  18.959  25.593  1.00  0.00     0.124 A 
ATOM     81  C   UNL A   1      43.728  18.832  25.687  1.00  0.00     0.030 A 
ATOM     82  F   UNL A   1      47.326  18.408  25.801  1.00  0.00    -0.207 F 
ATOM     83  C   UNL A   1      44.980  18.227  25.837  1.00  0.00     0.041 A 
BRANCH  79  84
ATOM     84  N   UNL A   1      42.397  20.933  25.557  1.00  0.00    -0.278 N 
ATOM     85  H   UNL A   1      42.396  21.852  25.204  1.00  0.00     0.180 HD
BRANCH  84  86
ATOM     86  S   UNL A   1      41.006  20.472  26.383  1.00  0.00     0.271 S 
ATOM     87  O   UNL A   1      40.469  19.318  25.692  1.00  0.00    -0.200 OA
ATOM     88  O   UNL A   1      41.313  20.394  27.792  1.00  0.00    -0.200 OA
BRANCH  86  89
ATOM     89  C   UNL A   1      39.715  21.689  26.333  1.00  0.00     0.141 A 
ATOM     90  C   UNL A   1      39.633  22.945  26.915  1.00  0.00     0.036 A 
ATOM     91  S   UNL A   1      38.334  21.344  25.379  1.00  0.00    -0.110 S 
ATOM     92  C   UNL A   1      38.494  23.673  26.465  1.00  0.00     0.034 A 
ATOM     93  C   UNL A   1      37.738  22.914  25.608  1.00  0.00     0.094 A 
ATOM     94  Cl  UNL A   1      36.320  23.417  24.784  1.00  0.00    -0.072 Cl
ENDBRANCH  86  89
ENDBRANCH  84  86
ENDBRANCH  79  84
ENDBRANCH  75  77
ENDBRANCH  74  75
ENDBRANCH  73  74
ENDBRANCH   1  73
TORSDOF 17
ENDMDL
MODEL 3
REMARK VINA RESULT:     -11.1      5.585     13.997
REMARK SMILES O=C(OCCOC(=O)c1cc(F)ccc1NS(=O)(=O)c1ccc(Cl)s1)c1ccc(-c2c3nc(c(-c4c(F)cc(S(=O)(=O)[O-])cc4F)c4ccc([nH]4)c(-c4c(F)cc(S(=O)(=O)[O-])cc4F)c4nc(c(-c5c(F)cc(S(=O)(=O)[O-])cc5F)c5ccc2[nH]5)C=C4)C=C3)cc1
REMARK SMILES IDX 4 1 3 2 2 3 1 4 26 5 27 6 91 7 28 8 90 9 29 10 30 11 31 12
REMARK SMILES IDX 84 13 32 14 89 15 83 16 85 17 33 18 88 19 82 20 81 21 34 23
REMARK SMILES IDX 68 24 47 25 67 26 48 27 51 28 66 29 86 30 49 31 50 32 65 34
REMARK SMILES IDX 87 35 52 36 35 37 36 38 45 39 37 40 38 41 44 42 46 43 39 44
REMARK SMILES IDX 40 45 41 46 42 47 43 48 69 49 70 50 79 51 71 52 72 53 78 54
REMARK SMILES IDX 80 55 73 56 74 57 75 58 76 59 77 60 53 61 54 62 63 63 55 64
REMARK SMILES IDX 56 65 62 66 64 67 57 68 58 69 59 70 60 71 61 72 5 73 6 74
REMARK SMILES IDX 7 75 8 76 9 77 10 78 15 79 11 80 14 81 12 82 13 83 16 84
REMARK SMILES IDX 17 86 18 87 19 88 20 89 21 90 25 91 22 92 23 93 24 94
REMARK H PARENT 85 22 51 33 16 85
REMARK Flexibility Score: inf
ROOT
ATOM      1  C   UNL A   1      37.321  32.149  33.997  1.00  0.00     0.275 C 
ENDROOT
BRANCH   1   2
ATOM      2  O   UNL A   1      36.958  31.064  33.129  1.00  0.00    -0.458 OA
BRANCH   2   3
ATOM      3  C   UNL A   1      37.042  30.929  31.788  1.00  0.00     0.338 C 
ATOM      4  O   UNL A   1      36.005  31.048  31.138  1.00  0.00    -0.246 OA
BRANCH   3   5
ATOM      5  C   UNL A   1      38.297  30.570  31.046  1.00  0.00     0.060 A 
ATOM      6  C   UNL A   1      38.464  30.510  29.663  1.00  0.00     0.016 A 
ATOM      7  C   UNL A   1      39.410  30.241  31.837  1.00  0.00     0.016 A 
ATOM      8  C   UNL A   1      39.710  30.211  29.095  1.00  0.00     0.010 A 
ATOM      9  C   UNL A   1      40.665  29.977  31.285  1.00  0.00     0.010 A 
ATOM     10  C   UNL A   1      40.821  29.951  29.900  1.00  0.00    -0.014 A 
BRANCH  10  11
ATOM     11  C   UNL A   1      42.101  29.518  29.295  1.00  0.00     0.031 A 
ATOM     12  C   UNL A   1      43.196  30.529  29.122  1.00  0.00     0.074 A 
ATOM     13  C   UNL A   1      42.289  28.235  28.934  1.00  0.00     0.049 A 
ATOM     14  N   UNL A   1      44.401  30.360  28.652  1.00  0.00    -0.248 NA
ATOM     15  C   UNL A   1      42.903  31.907  29.553  1.00  0.00     0.031 C 
ATOM     16  C   UNL A   1      41.313  27.164  29.109  1.00  0.00     0.029 A 
ATOM     17  N   UNL A   1      43.355  27.611  28.338  1.00  0.00    -0.354 N 
ATOM     18  C   UNL A   1      45.026  31.593  28.782  1.00  0.00     0.074 A 
ATOM     19  C   UNL A   1      44.041  32.525  29.280  1.00  0.00     0.031 C 
ATOM     20  C   UNL A   1      41.798  26.027  28.583  1.00  0.00     0.029 A 
ATOM     21  C   UNL A   1      43.130  26.283  28.054  1.00  0.00     0.049 A 
ATOM     22  H   UNL A   1      44.201  28.070  28.133  1.00  0.00     0.167 HD
ATOM     23  C   UNL A   1      46.323  31.903  28.559  1.00  0.00     0.037 A 
ATOM     24  C   UNL A   1      43.916  25.375  27.444  1.00  0.00     0.037 A 
ATOM     25  C   UNL A   1      47.290  30.970  28.053  1.00  0.00     0.049 A 
ATOM     26  C   UNL A   1      45.315  25.778  27.071  1.00  0.00     0.074 A 
ATOM     27  C   UNL A   1      48.630  31.175  27.791  1.00  0.00     0.029 A 
ATOM     28  N   UNL A   1      47.011  29.649  27.724  1.00  0.00    -0.354 N 
ATOM     29  N   UNL A   1      45.906  26.937  27.246  1.00  0.00    -0.248 NA
ATOM     30  C   UNL A   1      46.166  24.755  26.452  1.00  0.00     0.031 C 
ATOM     31  C   UNL A   1      49.155  29.990  27.264  1.00  0.00     0.029 A 
ATOM     32  C   UNL A   1      48.150  29.034  27.238  1.00  0.00     0.049 A 
ATOM     33  H   UNL A   1      46.133  29.216  27.823  1.00  0.00     0.167 HD
ATOM     34  C   UNL A   1      47.211  26.771  26.801  1.00  0.00     0.074 A 
ATOM     35  C   UNL A   1      47.320  25.400  26.339  1.00  0.00     0.031 C 
ATOM     36  C   UNL A   1      48.230  27.665  26.790  1.00  0.00     0.037 A 
BRANCH  23  37
ATOM     37  C   UNL A   1      46.755  33.302  28.888  1.00  0.00     0.058 A 
ATOM     38  C   UNL A   1      46.698  34.320  27.926  1.00  0.00     0.135 A 
ATOM     39  C   UNL A   1      47.223  33.633  30.171  1.00  0.00     0.135 A 
ATOM     40  F   UNL A   1      46.243  34.060  26.692  1.00  0.00    -0.206 F 
ATOM     41  C   UNL A   1      47.090  35.621  28.225  1.00  0.00     0.059 A 
ATOM     42  C   UNL A   1      47.600  34.931  30.498  1.00  0.00     0.059 A 
ATOM     43  F   UNL A   1      47.267  32.699  31.136  1.00  0.00    -0.206 F 
ATOM     44  C   UNL A   1      47.538  35.917  29.515  1.00  0.00     0.060 A 
BRANCH  44  45
ATOM     45  S   UNL A   1      47.988  37.621  29.903  1.00  0.00     0.124 S 
ATOM     46  O   UNL A   1      48.799  37.450  31.103  1.00  0.00    -0.237 OA
ATOM     47  O   UNL A   1      48.707  38.030  28.700  1.00  0.00    -0.237 OA
ATOM     48  O   UNL A   1      46.697  38.275  30.102  1.00  0.00    -0.744 OA
ENDBRANCH  44  45
ENDBRANCH  23  37
BRANCH  24  49
ATOM     49  C   UNL A   1      43.408  24.000  27.191  1.00  0.00     0.058 A 
ATOM     50  C   UNL A   1      42.895  23.637  25.935  1.00  0.00     0.135 A 
ATOM     51  C   UNL A   1      43.400  23.027  28.202  1.00  0.00     0.135 A 
ATOM     52  F   UNL A   1      42.874  24.532  24.934  1.00  0.00    -0.206 F 
ATOM     53  C   UNL A   1      42.381  22.368  25.693  1.00  0.00     0.059 A 
ATOM     54  C   UNL A   1      42.907  21.743  27.981  1.00  0.00     0.059 A 
ATOM     55  F   UNL A   1      43.884  23.323  29.418  1.00  0.00    -0.206 F 
ATOM     56  C   UNL A   1      42.388  21.427  26.724  1.00  0.00     0.060 A 
BRANCH  56  57
ATOM     57  S   UNL A   1      41.708  19.785  26.395  1.00  0.00     0.124 S 
ATOM     58  O   UNL A   1      40.304  20.094  26.148  1.00  0.00    -0.237 OA
ATOM     59  O   UNL A   1      42.481  19.364  25.231  1.00  0.00    -0.237 OA
ATOM     60  O   UNL A   1      41.982  19.052  27.626  1.00  0.00    -0.744 OA
ENDBRANCH  56  57
ENDBRANCH  24  49
BRANCH  36  61
ATOM     61  C   UNL A   1      49.562  27.191  26.289  1.00  0.00     0.058 A 
ATOM     62  C   UNL A   1      49.849  27.216  24.914  1.00  0.00     0.135 A 
ATOM     63  C   UNL A   1      50.509  26.623  27.153  1.00  0.00     0.135 A 
ATOM     64  F   UNL A   1      48.972  27.747  24.049  1.00  0.00    -0.206 F 
ATOM     65  C   UNL A   1      51.020  26.664  24.410  1.00  0.00     0.059 A 
ATOM     66  C   UNL A   1      51.698  26.087  26.672  1.00  0.00     0.059 A 
ATOM     67  F   UNL A   1      50.282  26.591  28.475  1.00  0.00    -0.206 F 
ATOM     68  C   UNL A   1      51.934  26.093  25.297  1.00  0.00     0.060 A 
BRANCH  68  69
ATOM     69  S   UNL A   1      53.444  25.367  24.625  1.00  0.00     0.124 S 
ATOM     70  O   UNL A   1      53.304  25.656  23.202  1.00  0.00    -0.237 OA
ATOM     71  O   UNL A   1      54.484  26.113  25.327  1.00  0.00    -0.237 OA
ATOM     72  O   UNL A   1      53.335  23.960  24.994  1.00  0.00    -0.744 OA
ENDBRANCH  68  69
ENDBRANCH  36  61
ENDBRANCH  10  11
ENDBRANCH   3   5
ENDBRANCH   2   3
ENDBRANCH   1   2
BRANCH   1  73
ATOM     73  C   UNL A   1      36.174  33.095  34.348  1.00  0.00     0.275 C 
BRANCH  73  74
ATOM     74  O   UNL A   1      35.783  33.964  33.277  1.00  0.00    -0.458 OA
BRANCH  74  75
ATOM     75  C   UNL A   1      34.518  33.811  32.796  1.00  0.00     0.340 C 
ATOM     76  O   UNL A   1      33.753  32.890  33.023  1.00  0.00    -0.246 OA
BRANCH  75  77
ATOM     77  C   UNL A   1      34.157  35.021  32.027  1.00  0.00     0.087 A 
ATOM     78  C   UNL A   1      34.189  36.248  32.709  1.00  0.00     0.057 A 
ATOM     79  C   UNL A   1      33.755  34.940  30.672  1.00  0.00     0.064 A 
ATOM     80  C   UNL A   1      33.774  37.397  32.062  1.00  0.00     0.124 A 
ATOM     81  C   UNL A   1      33.235  36.108  30.106  1.00  0.00     0.030 A 
ATOM     82  F   UNL A   1      33.846  38.572  32.693  1.00  0.00    -0.207 F 
ATOM     83  C   UNL A   1      33.241  37.329  30.789  1.00  0.00     0.041 A 
BRANCH  79  84
ATOM     84  N   UNL A   1      34.173  33.813  29.870  1.00  0.00    -0.278 N 
ATOM     85  H   UNL A   1      34.705  33.131  30.342  1.00  0.00     0.180 HD
BRANCH  84  86
ATOM     86  S   UNL A   1      33.873  33.502  28.244  1.00  0.00     0.271 S 
ATOM     87  O   UNL A   1      32.445  33.633  28.047  1.00  0.00    -0.200 OA
ATOM     88  O   UNL A   1      34.790  34.287  27.451  1.00  0.00    -0.200 OA
BRANCH  86  89
ATOM     89  C   UNL A   1      34.261  31.841  27.757  1.00  0.00     0.141 A 
ATOM     90  C   UNL A   1      35.468  31.157  27.754  1.00  0.00     0.036 A 
ATOM     91  S   UNL A   1      32.968  30.839  27.246  1.00  0.00    -0.110 S 
ATOM     92  C   UNL A   1      35.303  29.772  27.460  1.00  0.00     0.034 A 
ATOM     93  C   UNL A   1      33.987  29.485  27.199  1.00  0.00     0.094 A 
ATOM     94  Cl  UNL A   1      33.332  27.936  26.861  1.00  0.00    -0.072 Cl
ENDBRANCH  86  89
ENDBRANCH  84  86
ENDBRANCH  79  84
ENDBRANCH  75  77
ENDBRANCH  74  75
ENDBRANCH  73  74
ENDBRANCH   1  73
TORSDOF 17
ENDMDL
