MODEL 1
REMARK VINA RESULT:     -12.1      0.000      0.000
REMARK SMILES C[C@@H](C(=O)OCCOC(=O)c1ccc(-c2c3nc(c(-c4c(F)cc(S(=O)(=O)[O-])cc4F)c4ccc([nH]4)c(-c4c(F)cc(S(=O)(=O)[O-])cc4F)c4nc(c(-c5c(F)cc(S(=O)(=O)[O-])cc5F)c5ccc2[nH]5)C=C4)C=C3)cc1)c1ccc(C[C@H]2CCCC2=O)c(-c2ccc(OC(F)(F)F)cc2)c1
REMARK SMILES IDX 6 1 5 2 3 3 4 4 2 5 1 6 77 7 78 8 100 9 79 10 88 11 80 12
REMARK SMILES IDX 89 13 90 14 99 15 91 16 98 17 92 18 93 19 94 20 95 21 96 22
REMARK SMILES IDX 97 23 81 24 82 25 83 26 86 27 84 28 85 29 87 30 7 31 8 32
REMARK SMILES IDX 9 33 10 34 11 35 12 36 76 37 13 38 75 39 14 40 15 41 16 42
REMARK SMILES IDX 69 43 17 44 74 45 68 46 70 47 18 48 73 49 67 50 66 51 19 53
REMARK SMILES IDX 53 54 32 55 52 56 33 57 36 58 51 59 71 60 34 61 35 62 50 64
REMARK SMILES IDX 72 65 37 66 20 67 21 68 30 69 22 70 23 71 29 72 31 73 24 74
REMARK SMILES IDX 25 75 26 76 27 77 28 78 54 79 55 80 64 81 56 82 57 83 63 84
REMARK SMILES IDX 65 85 58 86 59 87 60 88 61 89 62 90 38 91 39 92 48 93 40 94
REMARK SMILES IDX 41 95 47 96 49 97 42 98 43 99 44 100 45 101 46 102
REMARK H PARENT 70 52 36 63
REMARK Flexibility Score: inf
ROOT
ATOM      1  C   UNL A   1      33.141  29.192  25.861  1.00  0.00     0.274 C 
ENDROOT
BRANCH   1   2
ATOM      2  O   UNL A   1      31.721  28.916  25.823  1.00  0.00    -0.462 OA
BRANCH   2   3
ATOM      3  C   UNL A   1      31.339  27.647  26.157  1.00  0.00     0.313 C 
ATOM      4  O   UNL A   1      31.069  27.292  27.300  1.00  0.00    -0.252 OA
BRANCH   3   5
ATOM      5  C   UNL A   1      31.254  26.691  24.941  1.00  0.00     0.126 C 
ATOM      6  C   UNL A   1      29.833  26.190  24.655  1.00  0.00     0.025 C 
BRANCH   5   7
ATOM      7  C   UNL A   1      32.239  25.553  25.151  1.00  0.00    -0.033 A 
ATOM      8  C   UNL A   1      33.535  25.903  25.488  1.00  0.00     0.005 A 
ATOM      9  C   UNL A   1      31.968  24.199  24.867  1.00  0.00     0.013 A 
ATOM     10  C   UNL A   1      34.554  24.998  25.285  1.00  0.00     0.004 A 
ATOM     11  C   UNL A   1      33.019  23.255  24.729  1.00  0.00    -0.015 A 
ATOM     12  C   UNL A   1      34.338  23.725  24.775  1.00  0.00    -0.039 A 
BRANCH  11  13
ATOM     13  C   UNL A   1      32.774  21.817  24.574  1.00  0.00    -0.018 A 
ATOM     14  C   UNL A   1      32.910  20.964  25.688  1.00  0.00     0.012 A 
ATOM     15  C   UNL A   1      32.536  21.241  23.326  1.00  0.00     0.012 A 
ATOM     16  C   UNL A   1      32.876  19.578  25.543  1.00  0.00     0.047 A 
ATOM     17  C   UNL A   1      32.493  19.850  23.181  1.00  0.00     0.047 A 
ATOM     18  C   UNL A   1      32.663  19.013  24.288  1.00  0.00     0.129 A 
BRANCH  18  19
ATOM     19  O   UNL A   1      32.668  17.648  24.272  1.00  0.00    -0.406 OA
BRANCH  19  20
ATOM     20  C   UNL A   1      33.930  17.018  24.164  1.00  0.00     0.573 C 
ATOM     21  F   UNL A   1      34.009  16.272  23.038  1.00  0.00    -0.132 F 
ATOM     22  F   UNL A   1      34.933  17.920  24.175  1.00  0.00    -0.132 F 
ATOM     23  F   UNL A   1      34.095  16.188  25.219  1.00  0.00    -0.132 F 
ENDBRANCH  19  20
ENDBRANCH  18  19
ENDBRANCH  11  13
BRANCH  12  24
ATOM     24  C   UNL A   1      35.558  22.987  24.260  1.00  0.00     0.047 C 
BRANCH  24  25
ATOM     25  C   UNL A   1      36.369  22.181  25.290  1.00  0.00     0.060 C 
ATOM     26  C   UNL A   1      36.624  20.702  24.966  1.00  0.00     0.012 C 
ATOM     27  C   UNL A   1      37.758  22.662  25.673  1.00  0.00     0.136 C 
ATOM     28  C   UNL A   1      38.137  20.493  24.952  1.00  0.00     0.009 C 
ATOM     29  C   UNL A   1      38.705  21.524  25.902  1.00  0.00     0.076 C 
ATOM     30  O   UNL A   1      38.083  23.822  25.886  1.00  0.00    -0.299 OA
ENDBRANCH  24  25
ENDBRANCH  12  24
ENDBRANCH   5   7
ENDBRANCH   3   5
ENDBRANCH   2   3
ENDBRANCH   1   2
BRANCH   1  31
ATOM     31  C   UNL A   1      33.602  29.527  27.286  1.00  0.00     0.275 C 
BRANCH  31  32
ATOM     32  O   UNL A   1      35.025  29.309  27.441  1.00  0.00    -0.458 OA
BRANCH  32  33
ATOM     33  C   UNL A   1      35.632  29.987  28.451  1.00  0.00     0.338 C 
ATOM     34  O   UNL A   1      35.097  30.734  29.247  1.00  0.00    -0.246 OA
BRANCH  33  35
ATOM     35  C   UNL A   1      37.038  29.537  28.591  1.00  0.00     0.060 A 
ATOM     36  C   UNL A   1      37.842  29.727  27.481  1.00  0.00     0.016 A 
ATOM     37  C   UNL A   1      37.578  28.902  29.715  1.00  0.00     0.016 A 
ATOM     38  C   UNL A   1      39.204  29.437  27.543  1.00  0.00     0.010 A 
ATOM     39  C   UNL A   1      38.957  28.567  29.753  1.00  0.00     0.010 A 
ATOM     40  C   UNL A   1      39.802  28.890  28.682  1.00  0.00    -0.014 A 
BRANCH  40  41
ATOM     41  C   UNL A   1      41.282  28.657  28.593  1.00  0.00     0.031 A 
ATOM     42  C   UNL A   1      41.766  27.342  28.029  1.00  0.00     0.074 A 
ATOM     43  C   UNL A   1      42.181  29.657  28.755  1.00  0.00     0.049 A 
ATOM     44  N   UNL A   1      42.989  26.941  27.796  1.00  0.00    -0.248 NA
ATOM     45  C   UNL A   1      40.735  26.355  27.661  1.00  0.00     0.031 C 
ATOM     46  C   UNL A   1      41.857  31.021  29.164  1.00  0.00     0.029 A 
ATOM     47  N   UNL A   1      43.541  29.712  28.514  1.00  0.00    -0.354 N 
ATOM     48  C   UNL A   1      42.874  25.635  27.339  1.00  0.00     0.074 A 
ATOM     49  C   UNL A   1      41.465  25.354  27.199  1.00  0.00     0.031 C 
ATOM     50  C   UNL A   1      42.952  31.795  29.042  1.00  0.00     0.029 A 
ATOM     51  C   UNL A   1      44.090  30.978  28.626  1.00  0.00     0.049 A 
ATOM     52  H   UNL A   1      44.076  28.918  28.281  1.00  0.00     0.167 HD
ATOM     53  C   UNL A   1      43.851  24.716  27.155  1.00  0.00     0.037 A 
ATOM     54  C   UNL A   1      45.357  31.420  28.428  1.00  0.00     0.037 A 
ATOM     55  C   UNL A   1      45.248  24.988  27.345  1.00  0.00     0.049 A 
ATOM     56  C   UNL A   1      46.440  30.386  28.192  1.00  0.00     0.074 A 
ATOM     57  C   UNL A   1      46.307  24.100  27.372  1.00  0.00     0.029 A 
ATOM     58  N   UNL A   1      45.779  26.254  27.539  1.00  0.00    -0.354 N 
ATOM     59  N   UNL A   1      46.320  29.100  27.964  1.00  0.00    -0.248 NA
ATOM     60  C   UNL A   1      47.837  30.847  28.278  1.00  0.00     0.031 C 
ATOM     61  C   UNL A   1      47.478  24.826  27.620  1.00  0.00     0.029 A 
ATOM     62  C   UNL A   1      47.152  26.172  27.686  1.00  0.00     0.049 A 
ATOM     63  H   UNL A   1      45.258  27.088  27.570  1.00  0.00     0.167 HD
ATOM     64  C   UNL A   1      47.617  28.593  27.942  1.00  0.00     0.074 A 
ATOM     65  C   UNL A   1      48.510  29.720  28.094  1.00  0.00     0.031 C 
ATOM     66  C   UNL A   1      48.029  27.304  27.853  1.00  0.00     0.037 A 
BRANCH  53  67
ATOM     67  C   UNL A   1      43.400  23.302  26.936  1.00  0.00     0.058 A 
ATOM     68  C   UNL A   1      42.994  22.460  27.981  1.00  0.00     0.135 A 
ATOM     69  C   UNL A   1      43.454  22.762  25.639  1.00  0.00     0.135 A 
ATOM     70  F   UNL A   1      42.971  22.912  29.244  1.00  0.00    -0.206 F 
ATOM     71  C   UNL A   1      42.685  21.122  27.751  1.00  0.00     0.059 A 
ATOM     72  C   UNL A   1      43.124  21.439  25.382  1.00  0.00     0.059 A 
ATOM     73  F   UNL A   1      43.860  23.522  24.608  1.00  0.00    -0.206 F 
ATOM     74  C   UNL A   1      42.759  20.621  26.448  1.00  0.00     0.060 A 
BRANCH  74  75
ATOM     75  S   UNL A   1      42.383  18.878  26.164  1.00  0.00     0.124 S 
ATOM     76  O   UNL A   1      42.598  18.313  27.493  1.00  0.00    -0.237 OA
ATOM     77  O   UNL A   1      40.996  18.929  25.713  1.00  0.00    -0.237 OA
ATOM     78  O   UNL A   1      43.354  18.482  25.149  1.00  0.00    -0.744 OA
ENDBRANCH  74  75
ENDBRANCH  53  67
BRANCH  54  79
ATOM     79  C   UNL A   1      45.731  32.873  28.532  1.00  0.00     0.058 A 
ATOM     80  C   UNL A   1      45.738  33.714  27.400  1.00  0.00     0.135 A 
ATOM     81  C   UNL A   1      46.152  33.447  29.742  1.00  0.00     0.135 A 
ATOM     82  F   UNL A   1      45.388  33.226  26.200  1.00  0.00    -0.206 F 
ATOM     83  C   UNL A   1      46.144  35.050  27.467  1.00  0.00     0.059 A 
ATOM     84  C   UNL A   1      46.517  34.789  29.843  1.00  0.00     0.059 A 
ATOM     85  F   UNL A   1      46.209  32.703  30.857  1.00  0.00    -0.206 F 
ATOM     86  C   UNL A   1      46.523  35.582  28.699  1.00  0.00     0.060 A 
BRANCH  86  87
ATOM     87  S   UNL A   1      46.973  37.330  28.813  1.00  0.00     0.124 S 
ATOM     88  O   UNL A   1      45.680  37.981  28.640  1.00  0.00    -0.237 OA
ATOM     89  O   UNL A   1      47.559  37.417  30.148  1.00  0.00    -0.237 OA
ATOM     90  O   UNL A   1      47.919  37.499  27.714  1.00  0.00    -0.744 OA
ENDBRANCH  86  87
ENDBRANCH  54  79
BRANCH  66  91
ATOM     91  C   UNL A   1      49.505  27.030  27.947  1.00  0.00     0.058 A 
ATOM     92  C   UNL A   1      50.297  26.889  26.797  1.00  0.00     0.135 A 
ATOM     93  C   UNL A   1      50.146  26.988  29.195  1.00  0.00     0.135 A 
ATOM     94  F   UNL A   1      49.735  26.924  25.579  1.00  0.00    -0.206 F 
ATOM     95  C   UNL A   1      51.673  26.694  26.881  1.00  0.00     0.059 A 
ATOM     96  C   UNL A   1      51.523  26.818  29.301  1.00  0.00     0.059 A 
ATOM     97  F   UNL A   1      49.436  27.132  30.324  1.00  0.00    -0.206 F 
ATOM     98  C   UNL A   1      52.277  26.663  28.139  1.00  0.00     0.060 A 
BRANCH  98  99
ATOM     99  S   UNL A   1      54.066  26.441  28.235  1.00  0.00     0.124 S 
ATOM    100  O   UNL A   1      54.538  27.820  28.172  1.00  0.00    -0.237 OA
ATOM    101  O   UNL A   1      54.231  25.772  29.521  1.00  0.00    -0.237 OA
ATOM    102  O   UNL A   1      54.371  25.621  27.065  1.00  0.00    -0.744 OA
ENDBRANCH  98  99
ENDBRANCH  66  91
ENDBRANCH  40  41
ENDBRANCH  33  35
ENDBRANCH  32  33
ENDBRANCH  31  32
ENDBRANCH   1  31
TORSDOF 20
ENDMDL
MODEL 2
REMARK VINA RESULT:     -12.1      6.570     11.776
REMARK SMILES C[C@@H](C(=O)OCCOC(=O)c1ccc(-c2c3nc(c(-c4c(F)cc(S(=O)(=O)[O-])cc4F)c4ccc([nH]4)c(-c4c(F)cc(S(=O)(=O)[O-])cc4F)c4nc(c(-c5c(F)cc(S(=O)(=O)[O-])cc5F)c5ccc2[nH]5)C=C4)C=C3)cc1)c1ccc(C[C@H]2CCCC2=O)c(-c2ccc(OC(F)(F)F)cc2)c1
REMARK SMILES IDX 6 1 5 2 3 3 4 4 2 5 1 6 77 7 78 8 100 9 79 10 88 11 80 12
REMARK SMILES IDX 89 13 90 14 99 15 91 16 98 17 92 18 93 19 94 20 95 21 96 22
REMARK SMILES IDX 97 23 81 24 82 25 83 26 86 27 84 28 85 29 87 30 7 31 8 32
REMARK SMILES IDX 9 33 10 34 11 35 12 36 76 37 13 38 75 39 14 40 15 41 16 42
REMARK SMILES IDX 69 43 17 44 74 45 68 46 70 47 18 48 73 49 67 50 66 51 19 53
REMARK SMILES IDX 53 54 32 55 52 56 33 57 36 58 51 59 71 60 34 61 35 62 50 64
REMARK SMILES IDX 72 65 37 66 20 67 21 68 30 69 22 70 23 71 29 72 31 73 24 74
REMARK SMILES IDX 25 75 26 76 27 77 28 78 54 79 55 80 64 81 56 82 57 83 63 84
REMARK SMILES IDX 65 85 58 86 59 87 60 88 61 89 62 90 38 91 39 92 48 93 40 94
REMARK SMILES IDX 41 95 47 96 49 97 42 98 43 99 44 100 45 101 46 102
REMARK H PARENT 70 52 36 63
REMARK Flexibility Score: inf
ROOT
ATOM      1  C   UNL A   1      36.229  23.365  25.203  1.00  0.00     0.274 C 
ENDROOT
BRANCH   1   2
ATOM      2  O   UNL A   1      35.494  22.120  25.201  1.00  0.00    -0.462 OA
BRANCH   2   3
ATOM      3  C   UNL A   1      34.506  21.995  26.137  1.00  0.00     0.313 C 
ATOM      4  O   UNL A   1      34.689  22.109  27.346  1.00  0.00    -0.252 OA
BRANCH   3   5
ATOM      5  C   UNL A   1      33.111  21.717  25.524  1.00  0.00     0.126 C 
ATOM      6  C   UNL A   1      33.162  20.857  24.255  1.00  0.00     0.025 C 
BRANCH   5   7
ATOM      7  C   UNL A   1      32.409  23.045  25.296  1.00  0.00    -0.033 A 
ATOM      8  C   UNL A   1      31.317  23.037  24.446  1.00  0.00     0.005 A 
ATOM      9  C   UNL A   1      32.887  24.290  25.752  1.00  0.00     0.013 A 
ATOM     10  C   UNL A   1      30.901  24.217  23.868  1.00  0.00     0.004 A 
ATOM     11  C   UNL A   1      32.403  25.506  25.204  1.00  0.00    -0.015 A 
ATOM     12  C   UNL A   1      31.517  25.434  24.121  1.00  0.00    -0.039 A 
BRANCH  11  13
ATOM     13  C   UNL A   1      32.770  26.819  25.746  1.00  0.00    -0.018 A 
ATOM     14  C   UNL A   1      32.052  27.346  26.838  1.00  0.00     0.012 A 
ATOM     15  C   UNL A   1      33.727  27.628  25.132  1.00  0.00     0.012 A 
ATOM     16  C   UNL A   1      32.240  28.662  27.256  1.00  0.00     0.047 A 
ATOM     17  C   UNL A   1      33.923  28.946  25.557  1.00  0.00     0.047 A 
ATOM     18  C   UNL A   1      33.181  29.469  26.620  1.00  0.00     0.129 A 
BRANCH  18  19
ATOM     19  O   UNL A   1      33.260  30.741  27.109  1.00  0.00    -0.406 OA
BRANCH  19  20
ATOM     20  C   UNL A   1      34.400  31.053  27.887  1.00  0.00     0.573 C 
ATOM     21  F   UNL A   1      35.104  29.939  28.192  1.00  0.00    -0.132 F 
ATOM     22  F   UNL A   1      35.204  31.932  27.253  1.00  0.00    -0.132 F 
ATOM     23  F   UNL A   1      33.994  31.613  29.049  1.00  0.00    -0.132 F 
ENDBRANCH  19  20
ENDBRANCH  18  19
ENDBRANCH  11  13
BRANCH  12  24
ATOM     24  C   UNL A   1      31.209  26.561  23.155  1.00  0.00     0.047 C 
BRANCH  24  25
ATOM     25  C   UNL A   1      30.226  27.642  23.639  1.00  0.00     0.060 C 
ATOM     26  C   UNL A   1      30.374  29.040  23.018  1.00  0.00     0.012 C 
ATOM     27  C   UNL A   1      28.733  27.395  23.501  1.00  0.00     0.136 C 
ATOM     28  C   UNL A   1      29.037  29.393  22.368  1.00  0.00     0.009 C 
ATOM     29  C   UNL A   1      27.984  28.646  23.157  1.00  0.00     0.076 C 
ATOM     30  O   UNL A   1      28.154  26.344  23.741  1.00  0.00    -0.299 OA
ENDBRANCH  24  25
ENDBRANCH  12  24
ENDBRANCH   5   7
ENDBRANCH   3   5
ENDBRANCH   2   3
ENDBRANCH   1   2
BRANCH   1  31
ATOM     31  C   UNL A   1      37.630  23.181  25.804  1.00  0.00     0.275 C 
BRANCH  31  32
ATOM     32  O   UNL A   1      38.161  24.438  26.288  1.00  0.00    -0.458 OA
BRANCH  32  33
ATOM     33  C   UNL A   1      39.419  24.402  26.802  1.00  0.00     0.338 C 
ATOM     34  O   UNL A   1      40.304  23.625  26.501  1.00  0.00    -0.246 OA
BRANCH  33  35
ATOM     35  C   UNL A   1      39.650  25.589  27.660  1.00  0.00     0.060 A 
ATOM     36  C   UNL A   1      38.939  25.621  28.847  1.00  0.00     0.016 A 
ATOM     37  C   UNL A   1      40.472  26.675  27.337  1.00  0.00     0.016 A 
ATOM     38  C   UNL A   1      39.163  26.638  29.773  1.00  0.00     0.010 A 
ATOM     39  C   UNL A   1      40.659  27.732  28.267  1.00  0.00     0.010 A 
ATOM     40  C   UNL A   1      40.048  27.691  29.528  1.00  0.00    -0.014 A 
BRANCH  40  41
ATOM     41  C   UNL A   1      40.191  28.694  30.637  1.00  0.00     0.031 A 
ATOM     42  C   UNL A   1      39.114  29.741  30.796  1.00  0.00     0.074 A 
ATOM     43  C   UNL A   1      41.093  28.542  31.635  1.00  0.00     0.049 A 
ATOM     44  N   UNL A   1      38.987  30.666  31.712  1.00  0.00    -0.248 NA
ATOM     45  C   UNL A   1      38.025  29.734  29.803  1.00  0.00     0.031 C 
ATOM     46  C   UNL A   1      42.112  27.499  31.696  1.00  0.00     0.029 A 
ATOM     47  N   UNL A   1      41.250  29.211  32.835  1.00  0.00    -0.354 N 
ATOM     48  C   UNL A   1      37.861  31.395  31.355  1.00  0.00     0.074 A 
ATOM     49  C   UNL A   1      37.263  30.730  30.222  1.00  0.00     0.031 C 
ATOM     50  C   UNL A   1      42.708  27.527  32.903  1.00  0.00     0.029 A 
ATOM     51  C   UNL A   1      42.182  28.643  33.687  1.00  0.00     0.049 A 
ATOM     52  H   UNL A   1      40.742  30.022  33.066  1.00  0.00     0.167 HD
ATOM     53  C   UNL A   1      37.424  32.573  31.859  1.00  0.00     0.037 A 
ATOM     54  C   UNL A   1      42.570  28.988  34.940  1.00  0.00     0.037 A 
ATOM     55  C   UNL A   1      38.053  33.255  32.955  1.00  0.00     0.049 A 
ATOM     56  C   UNL A   1      42.051  30.293  35.508  1.00  0.00     0.074 A 
ATOM     57  C   UNL A   1      37.819  34.532  33.429  1.00  0.00     0.029 A 
ATOM     58  N   UNL A   1      39.045  32.706  33.752  1.00  0.00    -0.354 N 
ATOM     59  N   UNL A   1      41.116  31.086  35.041  1.00  0.00    -0.248 NA
ATOM     60  C   UNL A   1      42.705  30.801  36.728  1.00  0.00     0.031 C 
ATOM     61  C   UNL A   1      38.698  34.770  34.492  1.00  0.00     0.029 A 
ATOM     62  C   UNL A   1      39.435  33.618  34.716  1.00  0.00     0.049 A 
ATOM     63  H   UNL A   1      39.420  31.802  33.647  1.00  0.00     0.167 HD
ATOM     64  C   UNL A   1      41.113  32.205  35.869  1.00  0.00     0.074 A 
ATOM     65  C   UNL A   1      42.079  31.954  36.916  1.00  0.00     0.031 C 
ATOM     66  C   UNL A   1      40.411  33.359  35.745  1.00  0.00     0.037 A 
BRANCH  53  67
ATOM     67  C   UNL A   1      36.346  33.269  31.080  1.00  0.00     0.058 A 
ATOM     68  C   UNL A   1      36.566  33.850  29.824  1.00  0.00     0.135 A 
ATOM     69  C   UNL A   1      35.074  33.416  31.660  1.00  0.00     0.135 A 
ATOM     70  F   UNL A   1      37.777  33.779  29.249  1.00  0.00    -0.206 F 
ATOM     71  C   UNL A   1      35.569  34.580  29.181  1.00  0.00     0.059 A 
ATOM     72  C   UNL A   1      34.057  34.116  31.025  1.00  0.00     0.059 A 
ATOM     73  F   UNL A   1      34.820  32.898  32.873  1.00  0.00    -0.206 F 
ATOM     74  C   UNL A   1      34.320  34.710  29.793  1.00  0.00     0.060 A 
BRANCH  74  75
ATOM     75  S   UNL A   1      33.043  35.681  28.966  1.00  0.00     0.124 S 
ATOM     76  O   UNL A   1      33.832  36.757  28.374  1.00  0.00    -0.237 OA
ATOM     77  O   UNL A   1      32.480  34.717  28.026  1.00  0.00    -0.237 OA
ATOM     78  O   UNL A   1      32.157  36.078  30.056  1.00  0.00    -0.744 OA
ENDBRANCH  74  75
ENDBRANCH  53  67
BRANCH  54  79
ATOM     79  C   UNL A   1      43.561  28.178  35.731  1.00  0.00     0.058 A 
ATOM     80  C   UNL A   1      44.950  28.345  35.560  1.00  0.00     0.135 A 
ATOM     81  C   UNL A   1      43.155  27.176  36.626  1.00  0.00     0.135 A 
ATOM     82  F   UNL A   1      45.414  29.255  34.690  1.00  0.00    -0.206 F 
ATOM     83  C   UNL A   1      45.884  27.558  36.238  1.00  0.00     0.059 A 
ATOM     84  C   UNL A   1      44.068  26.409  37.350  1.00  0.00     0.059 A 
ATOM     85  F   UNL A   1      41.850  26.930  36.816  1.00  0.00    -0.206 F 
ATOM     86  C   UNL A   1      45.432  26.597  37.142  1.00  0.00     0.060 A 
BRANCH  86  87
ATOM     87  S   UNL A   1      46.631  25.627  38.086  1.00  0.00     0.124 S 
ATOM     88  O   UNL A   1      46.706  26.380  39.332  1.00  0.00    -0.237 OA
ATOM     89  O   UNL A   1      45.985  24.320  38.167  1.00  0.00    -0.237 OA
ATOM     90  O   UNL A   1      47.825  25.672  37.246  1.00  0.00    -0.744 OA
ENDBRANCH  86  87
ENDBRANCH  54  79
BRANCH  66  91
ATOM     91  C   UNL A   1      40.674  34.452  36.743  1.00  0.00     0.058 A 
ATOM     92  C   UNL A   1      39.949  34.539  37.942  1.00  0.00     0.135 A 
ATOM     93  C   UNL A   1      41.712  35.375  36.535  1.00  0.00     0.135 A 
ATOM     94  F   UNL A   1      38.949  33.680  38.192  1.00  0.00    -0.206 F 
ATOM     95  C   UNL A   1      40.231  35.514  38.893  1.00  0.00     0.059 A 
ATOM     96  C   UNL A   1      42.026  36.344  37.483  1.00  0.00     0.059 A 
ATOM     97  F   UNL A   1      42.444  35.326  35.412  1.00  0.00    -0.206 F 
ATOM     98  C   UNL A   1      41.273  36.412  38.655  1.00  0.00     0.060 A 
BRANCH  98  99
ATOM     99  S   UNL A   1      41.650  37.654  39.910  1.00  0.00     0.124 S 
ATOM    100  O   UNL A   1      41.874  36.823  41.089  1.00  0.00    -0.237 OA
ATOM    101  O   UNL A   1      42.834  38.306  39.360  1.00  0.00    -0.237 OA
ATOM    102  O   UNL A   1      40.446  38.479  39.945  1.00  0.00    -0.744 OA
ENDBRANCH  98  99
ENDBRANCH  66  91
ENDBRANCH  40  41
ENDBRANCH  33  35
ENDBRANCH  32  33
ENDBRANCH  31  32
ENDBRANCH   1  31
TORSDOF 20
ENDMDL
MODEL 3
REMARK VINA RESULT:     -11.9      1.993      8.442
REMARK SMILES C[C@@H](C(=O)OCCOC(=O)c1ccc(-c2c3nc(c(-c4c(F)cc(S(=O)(=O)[O-])cc4F)c4ccc([nH]4)c(-c4c(F)cc(S(=O)(=O)[O-])cc4F)c4nc(c(-c5c(F)cc(S(=O)(=O)[O-])cc5F)c5ccc2[nH]5)C=C4)C=C3)cc1)c1ccc(C[C@H]2CCCC2=O)c(-c2ccc(OC(F)(F)F)cc2)c1
REMARK SMILES IDX 6 1 5 2 3 3 4 4 2 5 1 6 77 7 78 8 100 9 79 10 88 11 80 12
REMARK SMILES IDX 89 13 90 14 99 15 91 16 98 17 92 18 93 19 94 20 95 21 96 22
REMARK SMILES IDX 97 23 81 24 82 25 83 26 86 27 84 28 85 29 87 30 7 31 8 32
REMARK SMILES IDX 9 33 10 34 11 35 12 36 76 37 13 38 75 39 14 40 15 41 16 42
REMARK SMILES IDX 69 43 17 44 74 45 68 46 70 47 18 48 73 49 67 50 66 51 19 53
REMARK SMILES IDX 53 54 32 55 52 56 33 57 36 58 51 59 71 60 34 61 35 62 50 64
REMARK SMILES IDX 72 65 37 66 20 67 21 68 30 69 22 70 23 71 29 72 31 73 24 74
REMARK SMILES IDX 25 75 26 76 27 77 28 78 54 79 55 80 64 81 56 82 57 83 63 84
REMARK SMILES IDX 65 85 58 86 59 87 60 88 61 89 62 90 38 91 39 92 48 93 40 94
REMARK SMILES IDX 41 95 47 96 49 97 42 98 43 99 44 100 45 101 46 102
REMARK H PARENT 70 52 36 63
REMARK Flexibility Score: inf
ROOT
ATOM      1  C   UNL A   1      33.376  29.618  26.043  1.00  0.00     0.274 C 
ENDROOT
BRANCH   1   2
ATOM      2  O   UNL A   1      32.084  29.033  26.325  1.00  0.00    -0.462 OA
BRANCH   2   3
ATOM      3  C   UNL A   1      31.655  28.063  25.462  1.00  0.00     0.313 C 
ATOM      4  O   UNL A   1      31.012  27.076  25.807  1.00  0.00    -0.252 OA
BRANCH   3   5
ATOM      5  C   UNL A   1      32.038  28.341  23.986  1.00  0.00     0.126 C 
ATOM      6  C   UNL A   1      30.858  28.813  23.128  1.00  0.00     0.025 C 
BRANCH   5   7
ATOM      7  C   UNL A   1      32.708  27.100  23.419  1.00  0.00    -0.033 A 
ATOM      8  C   UNL A   1      32.193  26.598  22.237  1.00  0.00     0.005 A 
ATOM      9  C   UNL A   1      33.690  26.345  24.091  1.00  0.00     0.013 A 
ATOM     10  C   UNL A   1      32.447  25.289  21.890  1.00  0.00     0.004 A 
ATOM     11  C   UNL A   1      33.999  25.021  23.686  1.00  0.00    -0.015 A 
ATOM     12  C   UNL A   1      33.226  24.444  22.669  1.00  0.00    -0.039 A 
BRANCH  11  13
ATOM     13  C   UNL A   1      35.109  24.255  24.266  1.00  0.00    -0.018 A 
ATOM     14  C   UNL A   1      35.919  23.462  23.429  1.00  0.00     0.012 A 
ATOM     15  C   UNL A   1      35.311  24.182  25.644  1.00  0.00     0.012 A 
ATOM     16  C   UNL A   1      36.854  22.576  23.961  1.00  0.00     0.047 A 
ATOM     17  C   UNL A   1      36.256  23.299  26.179  1.00  0.00     0.047 A 
ATOM     18  C   UNL A   1      37.031  22.492  25.341  1.00  0.00     0.129 A 
BRANCH  18  19
ATOM     19  O   UNL A   1      37.962  21.577  25.739  1.00  0.00    -0.406 OA
BRANCH  19  20
ATOM     20  C   UNL A   1      39.235  22.081  26.097  1.00  0.00     0.573 C 
ATOM     21  F   UNL A   1      39.364  22.172  27.440  1.00  0.00    -0.132 F 
ATOM     22  F   UNL A   1      40.226  21.311  25.602  1.00  0.00    -0.132 F 
ATOM     23  F   UNL A   1      39.371  23.326  25.586  1.00  0.00    -0.132 F 
ENDBRANCH  19  20
ENDBRANCH  18  19
ENDBRANCH  11  13
BRANCH  12  24
ATOM     24  C   UNL A   1      33.117  22.961  22.375  1.00  0.00     0.047 C 
BRANCH  24  25
ATOM     25  C   UNL A   1      32.318  22.111  23.379  1.00  0.00     0.060 C 
ATOM     26  C   UNL A   1      33.122  21.146  24.263  1.00  0.00     0.012 C 
ATOM     27  C   UNL A   1      31.437  22.811  24.400  1.00  0.00     0.136 C 
ATOM     28  C   UNL A   1      32.832  21.512  25.717  1.00  0.00     0.009 C 
ATOM     29  C   UNL A   1      31.442  22.109  25.724  1.00  0.00     0.076 C 
ATOM     30  O   UNL A   1      30.708  23.770  24.183  1.00  0.00    -0.299 OA
ENDBRANCH  24  25
ENDBRANCH  12  24
ENDBRANCH   5   7
ENDBRANCH   3   5
ENDBRANCH   2   3
ENDBRANCH   1   2
BRANCH   1  31
ATOM     31  C   UNL A   1      33.938  30.340  27.276  1.00  0.00     0.275 C 
BRANCH  31  32
ATOM     32  O   UNL A   1      35.005  29.577  27.889  1.00  0.00    -0.458 OA
BRANCH  32  33
ATOM     33  C   UNL A   1      35.823  30.257  28.735  1.00  0.00     0.338 C 
ATOM     34  O   UNL A   1      35.486  31.080  29.564  1.00  0.00    -0.246 OA
BRANCH  33  35
ATOM     35  C   UNL A   1      37.200  29.713  28.657  1.00  0.00     0.060 A 
ATOM     36  C   UNL A   1      37.785  29.737  27.403  1.00  0.00     0.016 A 
ATOM     37  C   UNL A   1      37.907  29.142  29.720  1.00  0.00     0.016 A 
ATOM     38  C   UNL A   1      39.113  29.347  27.240  1.00  0.00     0.010 A 
ATOM     39  C   UNL A   1      39.246  28.704  29.536  1.00  0.00     0.010 A 
ATOM     40  C   UNL A   1      39.885  28.861  28.299  1.00  0.00    -0.014 A 
BRANCH  40  41
ATOM     41  C   UNL A   1      41.304  28.504  27.960  1.00  0.00     0.031 A 
ATOM     42  C   UNL A   1      42.397  29.468  28.357  1.00  0.00     0.074 A 
ATOM     43  C   UNL A   1      41.658  27.263  27.552  1.00  0.00     0.049 A 
ATOM     44  N   UNL A   1      43.694  29.349  28.230  1.00  0.00    -0.248 NA
ATOM     45  C   UNL A   1      41.976  30.726  29.001  1.00  0.00     0.031 C 
ATOM     46  C   UNL A   1      40.728  26.177  27.257  1.00  0.00     0.029 A 
ATOM     47  N   UNL A   1      42.898  26.671  27.394  1.00  0.00    -0.354 N 
ATOM     48  C   UNL A   1      44.228  30.543  28.696  1.00  0.00     0.074 A 
ATOM     49  C   UNL A   1      43.135  31.319  29.232  1.00  0.00     0.031 C 
ATOM     50  C   UNL A   1      41.419  25.038  27.063  1.00  0.00     0.029 A 
ATOM     51  C   UNL A   1      42.853  25.312  27.134  1.00  0.00     0.049 A 
ATOM     52  H   UNL A   1      43.743  27.174  27.461  1.00  0.00     0.167 HD
ATOM     53  C   UNL A   1      45.498  30.997  28.590  1.00  0.00     0.037 A 
ATOM     54  C   UNL A   1      43.846  24.404  26.964  1.00  0.00     0.037 A 
ATOM     55  C   UNL A   1      46.571  30.238  28.009  1.00  0.00     0.049 A 
ATOM     56  C   UNL A   1      45.269  24.919  26.877  1.00  0.00     0.074 A 
ATOM     57  C   UNL A   1      47.846  30.656  27.678  1.00  0.00     0.029 A 
ATOM     58  N   UNL A   1      46.488  28.895  27.676  1.00  0.00    -0.354 N 
ATOM     59  N   UNL A   1      45.730  26.122  27.125  1.00  0.00    -0.248 NA
ATOM     60  C   UNL A   1      46.295  23.976  26.396  1.00  0.00     0.031 C 
ATOM     61  C   UNL A   1      48.525  29.573  27.108  1.00  0.00     0.029 A 
ATOM     62  C   UNL A   1      47.690  28.466  27.143  1.00  0.00     0.049 A 
ATOM     63  H   UNL A   1      45.692  28.330  27.799  1.00  0.00     0.167 HD
ATOM     64  C   UNL A   1      47.078  26.094  26.774  1.00  0.00     0.074 A 
ATOM     65  C   UNL A   1      47.380  24.736  26.377  1.00  0.00     0.031 C 
ATOM     66  C   UNL A   1      47.972  27.113  26.736  1.00  0.00     0.037 A 
BRANCH  53  67
ATOM     67  C   UNL A   1      45.716  32.443  28.923  1.00  0.00     0.058 A 
ATOM     68  C   UNL A   1      45.502  33.479  28.003  1.00  0.00     0.135 A 
ATOM     69  C   UNL A   1      46.230  32.781  30.188  1.00  0.00     0.135 A 
ATOM     70  F   UNL A   1      45.059  33.205  26.767  1.00  0.00    -0.206 F 
ATOM     71  C   UNL A   1      45.818  34.799  28.316  1.00  0.00     0.059 A 
ATOM     72  C   UNL A   1      46.526  34.093  30.531  1.00  0.00     0.059 A 
ATOM     73  F   UNL A   1      46.475  31.822  31.096  1.00  0.00    -0.206 F 
ATOM     74  C   UNL A   1      46.334  35.093  29.581  1.00  0.00     0.060 A 
BRANCH  74  75
ATOM     75  S   UNL A   1      46.766  36.803  29.968  1.00  0.00     0.124 S 
ATOM     76  O   UNL A   1      47.831  36.620  30.949  1.00  0.00    -0.237 OA
ATOM     77  O   UNL A   1      47.183  37.320  28.668  1.00  0.00    -0.237 OA
ATOM     78  O   UNL A   1      45.521  37.359  30.489  1.00  0.00    -0.744 OA
ENDBRANCH  74  75
ENDBRANCH  53  67
BRANCH  54  79
ATOM     79  C   UNL A   1      43.575  22.939  26.762  1.00  0.00     0.058 A 
ATOM     80  C   UNL A   1      43.732  22.328  25.502  1.00  0.00     0.135 A 
ATOM     81  C   UNL A   1      43.092  22.123  27.798  1.00  0.00     0.135 A 
ATOM     82  F   UNL A   1      44.151  23.054  24.453  1.00  0.00    -0.206 F 
ATOM     83  C   UNL A   1      43.425  20.983  25.281  1.00  0.00     0.059 A 
ATOM     84  C   UNL A   1      42.822  20.768  27.614  1.00  0.00     0.059 A 
ATOM     85  F   UNL A   1      42.879  22.639  29.018  1.00  0.00    -0.206 F 
ATOM     86  C   UNL A   1      42.978  20.206  26.350  1.00  0.00     0.060 A 
BRANCH  86  87
ATOM     87  S   UNL A   1      42.653  18.445  26.096  1.00  0.00     0.124 S 
ATOM     88  O   UNL A   1      41.239  18.453  25.740  1.00  0.00    -0.237 OA
ATOM     89  O   UNL A   1      43.581  18.107  25.020  1.00  0.00    -0.237 OA
ATOM     90  O   UNL A   1      42.976  17.860  27.394  1.00  0.00    -0.744 OA
ENDBRANCH  86  87
ENDBRANCH  54  79
BRANCH  66  91
ATOM     91  C   UNL A   1      49.355  26.816  26.224  1.00  0.00     0.058 A 
ATOM     92  C   UNL A   1      50.330  26.231  27.046  1.00  0.00     0.135 A 
ATOM     93  C   UNL A   1      49.682  27.044  24.878  1.00  0.00     0.135 A 
ATOM     94  F   UNL A   1      50.068  25.989  28.340  1.00  0.00    -0.206 F 
ATOM     95  C   UNL A   1      51.591  25.902  26.558  1.00  0.00     0.059 A 
ATOM     96  C   UNL A   1      50.928  26.701  24.363  1.00  0.00     0.059 A 
ATOM     97  F   UNL A   1      48.780  27.588  24.046  1.00  0.00    -0.206 F 
ATOM     98  C   UNL A   1      51.879  26.139  25.213  1.00  0.00     0.060 A 
BRANCH  98  99
ATOM     99  S   UNL A   1      53.508  25.678  24.583  1.00  0.00     0.124 S 
ATOM    100  O   UNL A   1      54.358  26.696  25.190  1.00  0.00    -0.237 OA
ATOM    101  O   UNL A   1      53.672  24.324  25.100  1.00  0.00    -0.237 OA
ATOM    102  O   UNL A   1      53.351  25.774  23.134  1.00  0.00    -0.744 OA
ENDBRANCH  98  99
ENDBRANCH  66  91
ENDBRANCH  40  41
ENDBRANCH  33  35
ENDBRANCH  32  33
ENDBRANCH  31  32
ENDBRANCH   1  31
TORSDOF 20
ENDMDL
