MODEL 1
REMARK VINA RESULT:     -10.5      0.000      0.000
REMARK SMILES O=C(OCCOC(=O)c1cc(SC[C@H]2CCOC2)ccn1)c1ccc(-c2c3nc(c(-c4c(F)cc(S(=O)(=O)[O-])cc4F)c4ccc([nH]4)c(-c4c(F)cc(S(=O)(=O)[O-])cc4F)c4nc(c(-c5c(F)cc(S(=O)(=O)[O-])cc5F)c5ccc2[nH]5)C=C4)C=C3)cc1
REMARK SMILES IDX 4 1 3 2 2 3 1 4 22 5 23 6 87 7 24 8 86 9 25 10 26 11 27 12
REMARK SMILES IDX 80 13 28 14 85 15 79 16 81 17 29 18 84 19 78 20 77 21 30 23
REMARK SMILES IDX 64 24 43 25 63 26 44 27 47 28 62 29 82 30 45 31 46 32 61 34
REMARK SMILES IDX 83 35 48 36 31 37 32 38 41 39 33 40 34 41 40 42 42 43 35 44
REMARK SMILES IDX 36 45 37 46 38 47 39 48 65 49 66 50 75 51 67 52 68 53 74 54
REMARK SMILES IDX 76 55 69 56 70 57 71 58 72 59 73 60 49 61 50 62 59 63 51 64
REMARK SMILES IDX 52 65 58 66 60 67 53 68 54 69 55 70 56 71 57 72 5 73 6 74
REMARK SMILES IDX 7 75 8 76 9 77 10 78 21 79 11 80 20 81 19 82 12 83 13 84
REMARK SMILES IDX 14 85 15 86 18 87 16 88 17 89
REMARK H PARENT 81 22 47 33
REMARK Flexibility Score: inf
ROOT
ATOM      1  C   UNL A   1      34.793  33.030  28.075  1.00  0.00     0.275 C 
ENDROOT
BRANCH   1   2
ATOM      2  O   UNL A   1      34.380  31.737  28.551  1.00  0.00    -0.458 OA
BRANCH   2   3
ATOM      3  C   UNL A   1      34.767  30.492  28.190  1.00  0.00     0.338 C 
ATOM      4  O   UNL A   1      33.910  29.750  27.707  1.00  0.00    -0.246 OA
BRANCH   3   5
ATOM      5  C   UNL A   1      36.147  29.917  28.380  1.00  0.00     0.060 A 
ATOM      6  C   UNL A   1      36.638  29.262  29.512  1.00  0.00     0.016 A 
ATOM      7  C   UNL A   1      37.047  30.101  27.306  1.00  0.00     0.016 A 
ATOM      8  C   UNL A   1      37.980  28.861  29.594  1.00  0.00     0.010 A 
ATOM      9  C   UNL A   1      38.386  29.693  27.375  1.00  0.00     0.010 A 
ATOM     10  C   UNL A   1      38.871  29.105  28.543  1.00  0.00    -0.014 A 
BRANCH  10  11
ATOM     11  C   UNL A   1      40.321  28.904  28.785  1.00  0.00     0.031 A 
ATOM     12  C   UNL A   1      40.964  27.672  28.230  1.00  0.00     0.074 A 
ATOM     13  C   UNL A   1      41.063  29.832  29.414  1.00  0.00     0.049 A 
ATOM     14  N   UNL A   1      42.231  27.388  28.114  1.00  0.00    -0.248 NA
ATOM     15  C   UNL A   1      40.057  26.603  27.785  1.00  0.00     0.031 C 
ATOM     16  C   UNL A   1      40.514  30.998  30.086  1.00  0.00     0.029 A 
ATOM     17  N   UNL A   1      42.424  29.990  29.538  1.00  0.00    -0.354 N 
ATOM     18  C   UNL A   1      42.278  26.075  27.666  1.00  0.00     0.074 A 
ATOM     19  C   UNL A   1      40.911  25.640  27.476  1.00  0.00     0.031 C 
ATOM     20  C   UNL A   1      41.516  31.827  30.421  1.00  0.00     0.029 A 
ATOM     21  C   UNL A   1      42.776  31.254  29.969  1.00  0.00     0.049 A 
ATOM     22  H   UNL A   1      43.076  29.279  29.340  1.00  0.00     0.167 HD
ATOM     23  C   UNL A   1      43.369  25.293  27.491  1.00  0.00     0.037 A 
ATOM     24  C   UNL A   1      43.961  31.899  29.898  1.00  0.00     0.037 A 
ATOM     25  C   UNL A   1      44.714  25.758  27.699  1.00  0.00     0.049 A 
ATOM     26  C   UNL A   1      45.153  31.104  29.433  1.00  0.00     0.074 A 
ATOM     27  C   UNL A   1      45.900  25.049  27.623  1.00  0.00     0.029 A 
ATOM     28  N   UNL A   1      45.049  27.065  28.023  1.00  0.00    -0.354 N 
ATOM     29  N   UNL A   1      45.192  29.870  28.989  1.00  0.00    -0.248 NA
ATOM     30  C   UNL A   1      46.462  31.767  29.498  1.00  0.00     0.031 C 
ATOM     31  C   UNL A   1      46.950  25.926  27.928  1.00  0.00     0.029 A 
ATOM     32  C   UNL A   1      46.421  27.188  28.150  1.00  0.00     0.049 A 
ATOM     33  H   UNL A   1      44.404  27.799  28.144  1.00  0.00     0.167 HD
ATOM     34  C   UNL A   1      46.534  29.594  28.765  1.00  0.00     0.074 A 
ATOM     35  C   UNL A   1      47.263  30.819  29.033  1.00  0.00     0.031 C 
ATOM     36  C   UNL A   1      47.118  28.418  28.426  1.00  0.00     0.037 A 
BRANCH  23  37
ATOM     37  C   UNL A   1      43.119  23.846  27.181  1.00  0.00     0.058 A 
ATOM     38  C   UNL A   1      43.200  23.330  25.879  1.00  0.00     0.135 A 
ATOM     39  C   UNL A   1      42.722  22.975  28.209  1.00  0.00     0.135 A 
ATOM     40  F   UNL A   1      43.540  24.129  24.854  1.00  0.00    -0.206 F 
ATOM     41  C   UNL A   1      42.858  22.010  25.600  1.00  0.00     0.059 A 
ATOM     42  C   UNL A   1      42.400  21.647  27.958  1.00  0.00     0.059 A 
ATOM     43  F   UNL A   1      42.614  23.422  29.470  1.00  0.00    -0.206 F 
ATOM     44  C   UNL A   1      42.449  21.179  26.646  1.00  0.00     0.060 A 
BRANCH  44  45
ATOM     45  S   UNL A   1      41.967  19.481  26.270  1.00  0.00     0.124 S 
ATOM     46  O   UNL A   1      42.722  19.230  25.046  1.00  0.00    -0.237 OA
ATOM     47  O   UNL A   1      42.418  18.757  27.453  1.00  0.00    -0.237 OA
ATOM     48  O   UNL A   1      40.519  19.568  26.107  1.00  0.00    -0.744 OA
ENDBRANCH  44  45
ENDBRANCH  23  37
BRANCH  24  49
ATOM     49  C   UNL A   1      44.070  33.376  30.118  1.00  0.00     0.058 A 
ATOM     50  C   UNL A   1      43.812  34.259  29.050  1.00  0.00     0.135 A 
ATOM     51  C   UNL A   1      44.398  33.954  31.352  1.00  0.00     0.135 A 
ATOM     52  F   UNL A   1      43.489  33.772  27.842  1.00  0.00    -0.206 F 
ATOM     53  C   UNL A   1      43.879  35.642  29.195  1.00  0.00     0.059 A 
ATOM     54  C   UNL A   1      44.441  35.337  31.531  1.00  0.00     0.059 A 
ATOM     55  F   UNL A   1      44.657  33.173  32.412  1.00  0.00    -0.206 F 
ATOM     56  C   UNL A   1      44.190  36.174  30.444  1.00  0.00     0.060 A 
BRANCH  56  57
ATOM     57  S   UNL A   1      44.207  37.970  30.646  1.00  0.00     0.124 S 
ATOM     58  O   UNL A   1      43.298  38.394  29.587  1.00  0.00    -0.237 OA
ATOM     59  O   UNL A   1      43.718  38.136  32.011  1.00  0.00    -0.237 OA
ATOM     60  O   UNL A   1      45.612  38.313  30.450  1.00  0.00    -0.744 OA
ENDBRANCH  56  57
ENDBRANCH  24  49
BRANCH  36  61
ATOM     61  C   UNL A   1      48.616  28.397  28.386  1.00  0.00     0.058 A 
ATOM     62  C   UNL A   1      49.367  28.243  29.563  1.00  0.00     0.135 A 
ATOM     63  C   UNL A   1      49.307  28.488  27.169  1.00  0.00     0.135 A 
ATOM     64  F   UNL A   1      48.750  28.151  30.752  1.00  0.00    -0.206 F 
ATOM     65  C   UNL A   1      50.755  28.212  29.539  1.00  0.00     0.059 A 
ATOM     66  C   UNL A   1      50.695  28.436  27.119  1.00  0.00     0.059 A 
ATOM     67  F   UNL A   1      48.631  28.625  26.017  1.00  0.00    -0.206 F 
ATOM     68  C   UNL A   1      51.410  28.311  28.310  1.00  0.00     0.060 A 
BRANCH  68  69
ATOM     69  S   UNL A   1      53.213  28.245  28.288  1.00  0.00     0.124 S 
ATOM     70  O   UNL A   1      53.534  29.343  27.382  1.00  0.00    -0.237 OA
ATOM     71  O   UNL A   1      53.553  28.461  29.691  1.00  0.00    -0.237 OA
ATOM     72  O   UNL A   1      53.496  26.906  27.781  1.00  0.00    -0.744 OA
ENDBRANCH  68  69
ENDBRANCH  36  61
ENDBRANCH  10  11
ENDBRANCH   3   5
ENDBRANCH   2   3
ENDBRANCH   1   2
BRANCH   1  73
ATOM     73  C   UNL A   1      33.667  34.064  28.145  1.00  0.00     0.275 C 
BRANCH  73  74
ATOM     74  O   UNL A   1      34.126  35.317  28.670  1.00  0.00    -0.457 OA
BRANCH  74  75
ATOM     75  C   UNL A   1      33.170  36.066  29.295  1.00  0.00     0.357 C 
ATOM     76  O   UNL A   1      32.173  36.540  28.785  1.00  0.00    -0.244 OA
BRANCH  75  77
ATOM     77  C   UNL A   1      33.508  36.137  30.740  1.00  0.00     0.149 A 
ATOM     78  C   UNL A   1      33.950  34.999  31.404  1.00  0.00     0.051 A 
ATOM     79  N   UNL A   1      33.333  37.345  31.329  1.00  0.00    -0.249 NA
ATOM     80  C   UNL A   1      34.221  35.096  32.763  1.00  0.00     0.011 A 
ATOM     81  C   UNL A   1      33.590  37.412  32.648  1.00  0.00     0.113 A 
ATOM     82  C   UNL A   1      34.038  36.334  33.393  1.00  0.00     0.035 A 
BRANCH  80  83
ATOM     83  S   UNL A   1      34.815  33.745  33.772  1.00  0.00    -0.126 SA
BRANCH  83  84
ATOM     84  C   UNL A   1      36.611  34.049  33.977  1.00  0.00     0.081 C 
BRANCH  84  85
ATOM     85  C   UNL A   1      37.515  33.554  32.837  1.00  0.00     0.027 C 
ATOM     86  C   UNL A   1      36.837  32.451  32.036  1.00  0.00     0.035 C 
ATOM     87  C   UNL A   1      37.814  34.602  31.761  1.00  0.00     0.164 C 
ATOM     88  C   UNL A   1      37.424  32.619  30.658  1.00  0.00     0.160 C 
ATOM     89  O   UNL A   1      37.491  34.030  30.484  1.00  0.00    -0.381 OA
ENDBRANCH  84  85
ENDBRANCH  83  84
ENDBRANCH  80  83
ENDBRANCH  75  77
ENDBRANCH  74  75
ENDBRANCH  73  74
ENDBRANCH   1  73
TORSDOF 17
ENDMDL
MODEL 2
REMARK VINA RESULT:     -10.4      5.149     12.600
REMARK SMILES O=C(OCCOC(=O)c1cc(SC[C@H]2CCOC2)ccn1)c1ccc(-c2c3nc(c(-c4c(F)cc(S(=O)(=O)[O-])cc4F)c4ccc([nH]4)c(-c4c(F)cc(S(=O)(=O)[O-])cc4F)c4nc(c(-c5c(F)cc(S(=O)(=O)[O-])cc5F)c5ccc2[nH]5)C=C4)C=C3)cc1
REMARK SMILES IDX 4 1 3 2 2 3 1 4 22 5 23 6 87 7 24 8 86 9 25 10 26 11 27 12
REMARK SMILES IDX 80 13 28 14 85 15 79 16 81 17 29 18 84 19 78 20 77 21 30 23
REMARK SMILES IDX 64 24 43 25 63 26 44 27 47 28 62 29 82 30 45 31 46 32 61 34
REMARK SMILES IDX 83 35 48 36 31 37 32 38 41 39 33 40 34 41 40 42 42 43 35 44
REMARK SMILES IDX 36 45 37 46 38 47 39 48 65 49 66 50 75 51 67 52 68 53 74 54
REMARK SMILES IDX 76 55 69 56 70 57 71 58 72 59 73 60 49 61 50 62 59 63 51 64
REMARK SMILES IDX 52 65 58 66 60 67 53 68 54 69 55 70 56 71 57 72 5 73 6 74
REMARK SMILES IDX 7 75 8 76 9 77 10 78 21 79 11 80 20 81 19 82 12 83 13 84
REMARK SMILES IDX 14 85 15 86 18 87 16 88 17 89
REMARK H PARENT 81 22 47 33
REMARK Flexibility Score: inf
ROOT
ATOM      1  C   UNL A   1      39.949  22.700  26.863  1.00  0.00     0.275 C 
ENDROOT
BRANCH   1   2
ATOM      2  O   UNL A   1      41.109  23.546  26.770  1.00  0.00    -0.458 OA
BRANCH   2   3
ATOM      3  C   UNL A   1      41.223  24.878  26.561  1.00  0.00     0.338 C 
ATOM      4  O   UNL A   1      41.715  25.244  25.492  1.00  0.00    -0.246 OA
BRANCH   3   5
ATOM      5  C   UNL A   1      40.849  25.953  27.549  1.00  0.00     0.060 A 
ATOM      6  C   UNL A   1      41.441  27.209  27.691  1.00  0.00     0.016 A 
ATOM      7  C   UNL A   1      39.811  25.628  28.451  1.00  0.00     0.016 A 
ATOM      8  C   UNL A   1      41.058  28.080  28.722  1.00  0.00     0.010 A 
ATOM      9  C   UNL A   1      39.414  26.497  29.477  1.00  0.00     0.010 A 
ATOM     10  C   UNL A   1      40.069  27.716  29.643  1.00  0.00    -0.014 A 
BRANCH  10  11
ATOM     11  C   UNL A   1      39.893  28.552  30.856  1.00  0.00     0.031 A 
ATOM     12  C   UNL A   1      40.989  28.558  31.874  1.00  0.00     0.074 A 
ATOM     13  C   UNL A   1      38.819  29.347  31.010  1.00  0.00     0.049 A 
ATOM     14  N   UNL A   1      41.168  29.363  32.885  1.00  0.00    -0.248 NA
ATOM     15  C   UNL A   1      41.994  27.490  31.760  1.00  0.00     0.031 C 
ATOM     16  C   UNL A   1      37.655  29.324  30.141  1.00  0.00     0.029 A 
ATOM     17  N   UNL A   1      38.551  30.366  31.894  1.00  0.00    -0.354 N 
ATOM     18  C   UNL A   1      42.253  28.849  33.581  1.00  0.00     0.074 A 
ATOM     19  C   UNL A   1      42.727  27.697  32.844  1.00  0.00     0.031 C 
ATOM     20  C   UNL A   1      36.867  30.372  30.431  1.00  0.00     0.029 A 
ATOM     21  C   UNL A   1      37.484  31.148  31.497  1.00  0.00     0.049 A 
ATOM     22  H   UNL A   1      39.066  30.522  32.720  1.00  0.00     0.167 HD
ATOM     23  C   UNL A   1      42.762  29.273  34.761  1.00  0.00     0.037 A 
ATOM     24  C   UNL A   1      37.125  32.392  31.883  1.00  0.00     0.037 A 
ATOM     25  C   UNL A   1      42.258  30.418  35.472  1.00  0.00     0.049 A 
ATOM     26  C   UNL A   1      37.878  33.001  33.037  1.00  0.00     0.074 A 
ATOM     27  C   UNL A   1      42.638  30.911  36.707  1.00  0.00     0.029 A 
ATOM     28  N   UNL A   1      41.257  31.255  34.997  1.00  0.00    -0.354 N 
ATOM     29  N   UNL A   1      38.918  32.524  33.680  1.00  0.00    -0.248 NA
ATOM     30  C   UNL A   1      37.389  34.289  33.546  1.00  0.00     0.031 C 
ATOM     31  C   UNL A   1      41.846  32.032  36.989  1.00  0.00     0.029 A 
ATOM     32  C   UNL A   1      41.006  32.262  35.911  1.00  0.00     0.049 A 
ATOM     33  H   UNL A   1      40.795  31.148  34.135  1.00  0.00     0.167 HD
ATOM     34  C   UNL A   1      39.178  33.432  34.698  1.00  0.00     0.074 A 
ATOM     35  C   UNL A   1      38.247  34.530  34.527  1.00  0.00     0.031 C 
ATOM     36  C   UNL A   1      40.067  33.337  35.718  1.00  0.00     0.037 A 
BRANCH  23  37
ATOM     37  C   UNL A   1      43.821  28.414  35.387  1.00  0.00     0.058 A 
ATOM     38  C   UNL A   1      43.523  27.413  36.323  1.00  0.00     0.135 A 
ATOM     39  C   UNL A   1      45.173  28.652  35.088  1.00  0.00     0.135 A 
ATOM     40  F   UNL A   1      42.249  27.171  36.672  1.00  0.00    -0.206 F 
ATOM     41  C   UNL A   1      44.530  26.703  36.971  1.00  0.00     0.059 A 
ATOM     42  C   UNL A   1      46.194  27.938  35.704  1.00  0.00     0.059 A 
ATOM     43  F   UNL A   1      45.513  29.608  34.209  1.00  0.00    -0.206 F 
ATOM     44  C   UNL A   1      45.864  26.982  36.661  1.00  0.00     0.060 A 
BRANCH  44  45
ATOM     45  S   UNL A   1      47.164  26.087  37.537  1.00  0.00     0.124 S 
ATOM     46  O   UNL A   1      46.514  25.806  38.813  1.00  0.00    -0.237 OA
ATOM     47  O   UNL A   1      47.389  24.934  36.673  1.00  0.00    -0.237 OA
ATOM     48  O   UNL A   1      48.261  27.049  37.589  1.00  0.00    -0.744 OA
ENDBRANCH  44  45
ENDBRANCH  23  37
BRANCH  24  49
ATOM     49  C   UNL A   1      36.133  33.203  31.109  1.00  0.00     0.058 A 
ATOM     50  C   UNL A   1      34.855  33.442  31.651  1.00  0.00     0.135 A 
ATOM     51  C   UNL A   1      36.407  33.774  29.858  1.00  0.00     0.135 A 
ATOM     52  F   UNL A   1      34.528  32.928  32.847  1.00  0.00    -0.206 F 
ATOM     53  C   UNL A   1      33.895  34.204  30.989  1.00  0.00     0.059 A 
ATOM     54  C   UNL A   1      35.474  34.567  29.189  1.00  0.00     0.059 A 
ATOM     55  F   UNL A   1      37.604  33.587  29.282  1.00  0.00    -0.206 F 
ATOM     56  C   UNL A   1      34.216  34.768  29.757  1.00  0.00     0.060 A 
BRANCH  56  57
ATOM     57  S   UNL A   1      32.994  35.814  28.934  1.00  0.00     0.124 S 
ATOM     58  O   UNL A   1      32.337  34.860  28.049  1.00  0.00    -0.237 OA
ATOM     59  O   UNL A   1      32.195  36.303  30.053  1.00  0.00    -0.237 OA
ATOM     60  O   UNL A   1      33.814  36.827  28.276  1.00  0.00    -0.744 OA
ENDBRANCH  56  57
ENDBRANCH  24  49
BRANCH  36  61
ATOM     61  C   UNL A   1      40.026  34.424  36.749  1.00  0.00     0.058 A 
ATOM     62  C   UNL A   1      39.154  34.343  37.848  1.00  0.00     0.135 A 
ATOM     63  C   UNL A   1      40.885  35.529  36.667  1.00  0.00     0.135 A 
ATOM     64  F   UNL A   1      38.314  33.303  37.970  1.00  0.00    -0.206 F 
ATOM     65  C   UNL A   1      39.114  35.337  38.816  1.00  0.00     0.059 A 
ATOM     66  C   UNL A   1      40.877  36.525  37.637  1.00  0.00     0.059 A 
ATOM     67  F   UNL A   1      41.743  35.645  35.641  1.00  0.00    -0.206 F 
ATOM     68  C   UNL A   1      39.979  36.427  38.700  1.00  0.00     0.060 A 
BRANCH  68  69
ATOM     69  S   UNL A   1      39.934  37.702  39.977  1.00  0.00     0.124 S 
ATOM     70  O   UNL A   1      38.713  38.421  39.628  1.00  0.00    -0.237 OA
ATOM     71  O   UNL A   1      39.877  36.915  41.205  1.00  0.00    -0.237 OA
ATOM     72  O   UNL A   1      41.179  38.434  39.766  1.00  0.00    -0.744 OA
ENDBRANCH  68  69
ENDBRANCH  36  61
ENDBRANCH  10  11
ENDBRANCH   3   5
ENDBRANCH   2   3
ENDBRANCH   1   2
BRANCH   1  73
ATOM     73  C   UNL A   1      40.223  21.279  26.366  1.00  0.00     0.275 C 
BRANCH  73  74
ATOM     74  O   UNL A   1      41.589  20.894  26.576  1.00  0.00    -0.457 OA
BRANCH  74  75
ATOM     75  C   UNL A   1      41.957  19.724  25.977  1.00  0.00     0.357 C 
ATOM     76  O   UNL A   1      41.235  18.777  25.731  1.00  0.00    -0.244 OA
BRANCH  75  77
ATOM     77  C   UNL A   1      43.389  19.830  25.593  1.00  0.00     0.149 A 
ATOM     78  C   UNL A   1      43.954  21.080  25.368  1.00  0.00     0.051 A 
ATOM     79  N   UNL A   1      44.055  18.656  25.466  1.00  0.00    -0.249 NA
ATOM     80  C   UNL A   1      45.285  21.136  24.975  1.00  0.00     0.011 A 
ATOM     81  C   UNL A   1      45.339  18.736  25.073  1.00  0.00     0.113 A 
ATOM     82  C   UNL A   1      45.989  19.934  24.829  1.00  0.00     0.035 A 
BRANCH  80  83
ATOM     83  S   UNL A   1      46.180  22.651  24.661  1.00  0.00    -0.126 SA
BRANCH  83  84
ATOM     84  C   UNL A   1      45.016  23.998  25.101  1.00  0.00     0.081 C 
BRANCH  84  85
ATOM     85  C   UNL A   1      44.962  24.388  26.586  1.00  0.00     0.027 C 
ATOM     86  C   UNL A   1      46.219  23.937  27.319  1.00  0.00     0.035 C 
ATOM     87  C   UNL A   1      44.956  25.897  26.848  1.00  0.00     0.164 C 
ATOM     88  C   UNL A   1      46.362  24.964  28.414  1.00  0.00     0.160 C 
ATOM     89  O   UNL A   1      46.006  26.188  27.783  1.00  0.00    -0.381 OA
ENDBRANCH  84  85
ENDBRANCH  83  84
ENDBRANCH  80  83
ENDBRANCH  75  77
ENDBRANCH  74  75
ENDBRANCH  73  74
ENDBRANCH   1  73
TORSDOF 17
ENDMDL
MODEL 3
REMARK VINA RESULT:     -10.3      5.560     12.192
REMARK SMILES O=C(OCCOC(=O)c1cc(SC[C@H]2CCOC2)ccn1)c1ccc(-c2c3nc(c(-c4c(F)cc(S(=O)(=O)[O-])cc4F)c4ccc([nH]4)c(-c4c(F)cc(S(=O)(=O)[O-])cc4F)c4nc(c(-c5c(F)cc(S(=O)(=O)[O-])cc5F)c5ccc2[nH]5)C=C4)C=C3)cc1
REMARK SMILES IDX 4 1 3 2 2 3 1 4 22 5 23 6 87 7 24 8 86 9 25 10 26 11 27 12
REMARK SMILES IDX 80 13 28 14 85 15 79 16 81 17 29 18 84 19 78 20 77 21 30 23
REMARK SMILES IDX 64 24 43 25 63 26 44 27 47 28 62 29 82 30 45 31 46 32 61 34
REMARK SMILES IDX 83 35 48 36 31 37 32 38 41 39 33 40 34 41 40 42 42 43 35 44
REMARK SMILES IDX 36 45 37 46 38 47 39 48 65 49 66 50 75 51 67 52 68 53 74 54
REMARK SMILES IDX 76 55 69 56 70 57 71 58 72 59 73 60 49 61 50 62 59 63 51 64
REMARK SMILES IDX 52 65 58 66 60 67 53 68 54 69 55 70 56 71 57 72 5 73 6 74
REMARK SMILES IDX 7 75 8 76 9 77 10 78 21 79 11 80 20 81 19 82 12 83 13 84
REMARK SMILES IDX 14 85 15 86 18 87 16 88 17 89
REMARK H PARENT 81 22 47 33
REMARK Flexibility Score: inf
ROOT
ATOM      1  C   UNL A   1      43.089  23.422  26.226  1.00  0.00     0.275 C 
ENDROOT
BRANCH   1   2
ATOM      2  O   UNL A   1      42.055  24.383  25.954  1.00  0.00    -0.458 OA
BRANCH   2   3
ATOM      3  C   UNL A   1      42.082  25.736  25.936  1.00  0.00     0.338 C 
ATOM      4  O   UNL A   1      42.648  26.279  24.986  1.00  0.00    -0.246 OA
BRANCH   3   5
ATOM      5  C   UNL A   1      41.525  26.636  27.009  1.00  0.00     0.060 A 
ATOM      6  C   UNL A   1      41.691  28.018  27.120  1.00  0.00     0.016 A 
ATOM      7  C   UNL A   1      40.791  25.995  28.032  1.00  0.00     0.016 A 
ATOM      8  C   UNL A   1      41.199  28.722  28.229  1.00  0.00     0.010 A 
ATOM      9  C   UNL A   1      40.285  26.693  29.138  1.00  0.00     0.010 A 
ATOM     10  C   UNL A   1      40.525  28.061  29.262  1.00  0.00    -0.014 A 
BRANCH  10  11
ATOM     11  C   UNL A   1      40.264  28.800  30.521  1.00  0.00     0.031 A 
ATOM     12  C   UNL A   1      41.328  28.801  31.573  1.00  0.00     0.074 A 
ATOM     13  C   UNL A   1      39.140  29.519  30.692  1.00  0.00     0.049 A 
ATOM     14  N   UNL A   1      41.429  29.544  32.640  1.00  0.00    -0.248 NA
ATOM     15  C   UNL A   1      42.398  27.803  31.422  1.00  0.00     0.031 C 
ATOM     16  C   UNL A   1      38.005  29.488  29.785  1.00  0.00     0.029 A 
ATOM     17  N   UNL A   1      38.786  30.459  31.632  1.00  0.00    -0.354 N 
ATOM     18  C   UNL A   1      42.522  29.048  33.336  1.00  0.00     0.074 A 
ATOM     19  C   UNL A   1      43.086  27.978  32.541  1.00  0.00     0.031 C 
ATOM     20  C   UNL A   1      37.147  30.467  30.118  1.00  0.00     0.029 A 
ATOM     21  C   UNL A   1      37.685  31.203  31.252  1.00  0.00     0.049 A 
ATOM     22  H   UNL A   1      39.266  30.588  32.482  1.00  0.00     0.167 HD
ATOM     23  C   UNL A   1      42.969  29.420  34.558  1.00  0.00     0.037 A 
ATOM     24  C   UNL A   1      37.241  32.395  31.707  1.00  0.00     0.037 A 
ATOM     25  C   UNL A   1      42.377  30.483  35.325  1.00  0.00     0.049 A 
ATOM     26  C   UNL A   1      37.923  32.967  32.923  1.00  0.00     0.074 A 
ATOM     27  C   UNL A   1      42.690  30.913  36.603  1.00  0.00     0.029 A 
ATOM     28  N   UNL A   1      41.342  31.291  34.874  1.00  0.00    -0.354 N 
ATOM     29  N   UNL A   1      38.970  32.509  33.567  1.00  0.00    -0.248 NA
ATOM     30  C   UNL A   1      37.342  34.186  33.500  1.00  0.00     0.031 C 
ATOM     31  C   UNL A   1      41.825  31.964  36.932  1.00  0.00     0.029 A 
ATOM     32  C   UNL A   1      41.004  32.217  35.844  1.00  0.00     0.049 A 
ATOM     33  H   UNL A   1      40.912  31.216  33.992  1.00  0.00     0.167 HD
ATOM     34  C   UNL A   1      39.145  33.358  34.651  1.00  0.00     0.074 A 
ATOM     35  C   UNL A   1      38.156  34.410  34.522  1.00  0.00     0.031 C 
ATOM     36  C   UNL A   1      40.008  33.246  35.691  1.00  0.00     0.037 A 
BRANCH  23  37
ATOM     37  C   UNL A   1      44.060  28.584  35.160  1.00  0.00     0.058 A 
ATOM     38  C   UNL A   1      45.417  28.800  34.880  1.00  0.00     0.135 A 
ATOM     39  C   UNL A   1      43.725  27.497  35.985  1.00  0.00     0.135 A 
ATOM     40  F   UNL A   1      45.789  29.803  34.068  1.00  0.00    -0.206 F 
ATOM     41  C   UNL A   1      46.403  27.944  35.363  1.00  0.00     0.059 A 
ATOM     42  C   UNL A   1      44.694  26.643  36.499  1.00  0.00     0.059 A 
ATOM     43  F   UNL A   1      42.440  27.237  36.272  1.00  0.00    -0.206 F 
ATOM     44  C   UNL A   1      46.029  26.862  36.164  1.00  0.00     0.060 A 
BRANCH  44  45
ATOM     45  S   UNL A   1      47.308  25.733  36.752  1.00  0.00     0.124 S 
ATOM     46  O   UNL A   1      48.301  26.667  37.275  1.00  0.00    -0.237 OA
ATOM     47  O   UNL A   1      46.595  24.942  37.749  1.00  0.00    -0.237 OA
ATOM     48  O   UNL A   1      47.701  25.009  35.547  1.00  0.00    -0.744 OA
ENDBRANCH  44  45
ENDBRANCH  23  37
BRANCH  24  49
ATOM     49  C   UNL A   1      36.226  33.198  30.956  1.00  0.00     0.058 A 
ATOM     50  C   UNL A   1      34.915  33.311  31.462  1.00  0.00     0.135 A 
ATOM     51  C   UNL A   1      36.505  33.880  29.764  1.00  0.00     0.135 A 
ATOM     52  F   UNL A   1      34.582  32.685  32.601  1.00  0.00    -0.206 F 
ATOM     53  C   UNL A   1      33.931  34.058  30.820  1.00  0.00     0.059 A 
ATOM     54  C   UNL A   1      35.546  34.661  29.118  1.00  0.00     0.059 A 
ATOM     55  F   UNL A   1      37.732  33.816  29.225  1.00  0.00    -0.206 F 
ATOM     56  C   UNL A   1      34.257  34.736  29.648  1.00  0.00     0.060 A 
BRANCH  56  57
ATOM     57  S   UNL A   1      32.997  35.761  28.856  1.00  0.00     0.124 S 
ATOM     58  O   UNL A   1      33.814  36.769  28.189  1.00  0.00    -0.237 OA
ATOM     59  O   UNL A   1      32.320  34.807  27.982  1.00  0.00    -0.237 OA
ATOM     60  O   UNL A   1      32.200  36.236  29.982  1.00  0.00    -0.744 OA
ENDBRANCH  56  57
ENDBRANCH  24  49
BRANCH  36  61
ATOM     61  C   UNL A   1      39.872  34.257  36.790  1.00  0.00     0.058 A 
ATOM     62  C   UNL A   1      39.046  34.008  37.899  1.00  0.00     0.135 A 
ATOM     63  C   UNL A   1      40.596  35.457  36.761  1.00  0.00     0.135 A 
ATOM     64  F   UNL A   1      38.334  32.873  37.972  1.00  0.00    -0.206 F 
ATOM     65  C   UNL A   1      38.919  34.931  38.929  1.00  0.00     0.059 A 
ATOM     66  C   UNL A   1      40.502  36.384  37.792  1.00  0.00     0.059 A 
ATOM     67  F   UNL A   1      41.406  35.733  35.727  1.00  0.00    -0.206 F 
ATOM     68  C   UNL A   1      39.650  36.119  38.865  1.00  0.00     0.060 A 
BRANCH  68  69
ATOM     69  S   UNL A   1      39.496  37.299  40.221  1.00  0.00     0.124 S 
ATOM     70  O   UNL A   1      38.812  36.497  41.229  1.00  0.00    -0.237 OA
ATOM     71  O   UNL A   1      40.888  37.629  40.511  1.00  0.00    -0.237 OA
ATOM     72  O   UNL A   1      38.711  38.382  39.638  1.00  0.00    -0.744 OA
ENDBRANCH  68  69
ENDBRANCH  36  61
ENDBRANCH  10  11
ENDBRANCH   3   5
ENDBRANCH   2   3
ENDBRANCH   1   2
BRANCH   1  73
ATOM     73  C   UNL A   1      42.533  22.013  26.441  1.00  0.00     0.275 C 
BRANCH  73  74
ATOM     74  O   UNL A   1      41.411  21.745  25.588  1.00  0.00    -0.457 OA
BRANCH  74  75
ATOM     75  C   UNL A   1      40.367  21.106  26.191  1.00  0.00     0.357 C 
ATOM     76  O   UNL A   1      40.405  20.030  26.757  1.00  0.00    -0.244 OA
BRANCH  75  77
ATOM     77  C   UNL A   1      39.175  21.991  26.114  1.00  0.00     0.149 A 
ATOM     78  C   UNL A   1      38.076  21.606  25.354  1.00  0.00     0.051 A 
ATOM     79  N   UNL A   1      39.260  23.158  26.797  1.00  0.00    -0.249 NA
ATOM     80  C   UNL A   1      36.996  22.477  25.277  1.00  0.00     0.011 A 
ATOM     81  C   UNL A   1      38.208  23.990  26.697  1.00  0.00     0.113 A 
ATOM     82  C   UNL A   1      37.068  23.693  25.969  1.00  0.00     0.035 A 
BRANCH  80  83
ATOM     83  S   UNL A   1      35.495  22.142  24.367  1.00  0.00    -0.126 SA
BRANCH  83  84
ATOM     84  C   UNL A   1      34.709  20.731  25.235  1.00  0.00     0.081 C 
BRANCH  84  85
ATOM     85  C   UNL A   1      33.915  19.752  24.355  1.00  0.00     0.027 C 
ATOM     86  C   UNL A   1      34.395  18.321  24.553  1.00  0.00     0.035 C 
ATOM     87  C   UNL A   1      32.427  19.649  24.702  1.00  0.00     0.164 C 
ATOM     88  C   UNL A   1      33.156  17.505  24.284  1.00  0.00     0.160 C 
ATOM     89  O   UNL A   1      32.112  18.260  24.886  1.00  0.00    -0.381 OA
ENDBRANCH  84  85
ENDBRANCH  83  84
ENDBRANCH  80  83
ENDBRANCH  75  77
ENDBRANCH  74  75
ENDBRANCH  73  74
ENDBRANCH   1  73
TORSDOF 17
ENDMDL
