MODEL 1
REMARK VINA RESULT:     -11.8      0.000      0.000
REMARK SMILES CCSc1ccc(-c2cc(Cl)cc3c2O[C@H](C(F)(F)F)C(C(=O)OCCOC(=O)c2ccc(-c4c5nc(c(-c6c(F)cc(S(=O)(=O)[O-])cc6F)c6ccc([nH]6)c(-c6c(F)cc(S(=O)(=O)[O-])cc6F)c6nc(c(-c7c(F)cc(S(=O)(=O)[O-])cc7F)c7ccc4[nH]7)C=C6)C=C5)cc2)=C3)cc1
REMARK SMILES IDX 25 1 24 2 22 3 23 4 21 5 8 6 9 7 14 8 10 9 13 10 15 11 11 12
REMARK SMILES IDX 12 13 96 14 16 15 7 16 4 17 5 18 98 19 6 20 97 21 3 22 2 23
REMARK SMILES IDX 1 24 17 25 18 26 19 27 20 28 26 29 27 30 28 31 29 32 30 33
REMARK SMILES IDX 31 34 95 35 32 36 94 37 33 38 34 39 35 40 88 41 36 42 93 43
REMARK SMILES IDX 87 44 89 45 37 46 92 47 86 48 85 49 38 51 72 52 51 53 71 54
REMARK SMILES IDX 52 55 55 56 70 57 90 58 53 59 54 60 69 62 91 63 56 64 39 65
REMARK SMILES IDX 40 66 49 67 41 68 42 69 48 70 50 71 43 72 44 73 45 74 46 75
REMARK SMILES IDX 47 76 73 77 74 78 83 79 75 80 76 81 82 82 84 83 77 84 78 85
REMARK SMILES IDX 79 86 80 87 81 88 57 89 58 90 67 91 59 92 60 93 66 94 68 95
REMARK SMILES IDX 61 96 62 97 63 98 64 99 65 100
REMARK H PARENT 89 50 55 61
REMARK Flexibility Score: inf
ROOT
ATOM      1  C   UNL A   1      32.223  29.061  24.407  1.00  0.00     0.275 C 
ENDROOT
BRANCH   1   2
ATOM      2  O   UNL A   1      33.392  28.259  24.111  1.00  0.00    -0.459 OA
BRANCH   2   3
ATOM      3  C   UNL A   1      33.427  27.115  24.843  1.00  0.00     0.338 C 
ATOM      4  O   UNL A   1      34.234  26.895  25.739  1.00  0.00    -0.246 OA
BRANCH   3   5
ATOM      5  C   UNL A   1      32.329  26.165  24.538  1.00  0.00     0.087 C 
ATOM      6  C   UNL A   1      33.085  22.174  24.366  1.00  0.00     0.026 A 
ATOM      7  C   UNL A   1      34.462  22.176  24.025  1.00  0.00     0.033 A 
ATOM      8  C   UNL A   1      32.484  23.429  24.272  1.00  0.00     0.135 A 
ATOM      9  C   UNL A   1      35.143  23.269  23.487  1.00  0.00     0.042 A 
ATOM     10  C   UNL A   1      33.102  24.428  23.471  1.00  0.00     0.019 A 
ATOM     11  O   UNL A   1      31.420  23.861  25.054  1.00  0.00    -0.475 OA
ATOM     12  Cl  UNL A   1      36.847  23.343  23.314  1.00  0.00    -0.084 Cl
ATOM     13  C   UNL A   1      34.429  24.365  23.092  1.00  0.00     0.032 A 
ATOM     14  C   UNL A   1      32.396  25.707  23.278  1.00  0.00     0.027 C 
ATOM     15  C   UNL A   1      31.636  25.272  25.553  1.00  0.00     0.316 C 
BRANCH   6  16
ATOM     16  C   UNL A   1      32.501  20.795  24.515  1.00  0.00    -0.015 A 
ATOM     17  C   UNL A   1      32.813  17.937  24.302  1.00  0.00     0.007 A 
ATOM     18  C   UNL A   1      32.847  18.568  25.543  1.00  0.00     0.015 A 
ATOM     19  C   UNL A   1      32.407  18.710  23.208  1.00  0.00     0.015 A 
ATOM     20  C   UNL A   1      32.652  19.978  25.651  1.00  0.00     0.010 A 
ATOM     21  C   UNL A   1      32.255  20.106  23.312  1.00  0.00     0.010 A 
BRANCH  17  22
ATOM     22  S   UNL A   1      33.199  16.221  23.965  1.00  0.00    -0.126 SA
BRANCH  22  23
ATOM     23  C   UNL A   1      34.366  15.492  25.314  1.00  0.00     0.071 C 
ATOM     24  C   UNL A   1      35.963  15.866  25.601  1.00  0.00     0.016 C 
ENDBRANCH  22  23
ENDBRANCH  17  22
ENDBRANCH   6  16
BRANCH  15  25
ATOM     25  C   UNL A   1      30.298  25.958  25.848  1.00  0.00     0.430 C 
ATOM     26  F   UNL A   1      29.737  26.473  24.727  1.00  0.00    -0.167 F 
ATOM     27  F   UNL A   1      29.401  25.125  26.415  1.00  0.00    -0.167 F 
ATOM     28  F   UNL A   1      30.468  26.997  26.710  1.00  0.00    -0.167 F 
ENDBRANCH  15  25
ENDBRANCH   3   5
ENDBRANCH   2   3
ENDBRANCH   1   2
BRANCH   1  29
ATOM     29  C   UNL A   1      32.289  29.757  25.769  1.00  0.00     0.275 C 
BRANCH  29  30
ATOM     30  O   UNL A   1      33.645  30.068  26.142  1.00  0.00    -0.458 OA
BRANCH  30  31
ATOM     31  C   UNL A   1      33.748  30.977  27.139  1.00  0.00     0.338 C 
ATOM     32  O   UNL A   1      32.842  31.707  27.534  1.00  0.00    -0.246 OA
BRANCH  31  33
ATOM     33  C   UNL A   1      35.063  30.901  27.823  1.00  0.00     0.060 A 
ATOM     34  C   UNL A   1      35.397  29.660  28.347  1.00  0.00     0.016 A 
ATOM     35  C   UNL A   1      35.970  31.963  27.973  1.00  0.00     0.016 A 
ATOM     36  C   UNL A   1      36.641  29.480  28.942  1.00  0.00     0.010 A 
ATOM     37  C   UNL A   1      37.245  31.756  28.568  1.00  0.00     0.010 A 
ATOM     38  C   UNL A   1      37.619  30.489  29.020  1.00  0.00    -0.014 A 
BRANCH  38  39
ATOM     39  C   UNL A   1      38.930  30.068  29.643  1.00  0.00     0.031 A 
ATOM     40  C   UNL A   1      39.186  30.693  31.060  1.00  0.00     0.074 A 
ATOM     41  C   UNL A   1      39.696  29.067  29.076  1.00  0.00     0.049 A 
ATOM     42  N   UNL A   1      40.227  30.574  31.829  1.00  0.00    -0.248 NA
ATOM     43  C   UNL A   1      38.224  31.619  31.681  1.00  0.00     0.031 C 
ATOM     44  C   UNL A   1      39.732  28.560  27.704  1.00  0.00     0.029 A 
ATOM     45  N   UNL A   1      40.590  28.178  29.636  1.00  0.00    -0.354 N 
ATOM     46  C   UNL A   1      40.110  31.284  33.001  1.00  0.00     0.074 A 
ATOM     47  C   UNL A   1      38.825  31.953  32.829  1.00  0.00     0.031 C 
ATOM     48  C   UNL A   1      40.578  27.501  27.585  1.00  0.00     0.029 A 
ATOM     49  C   UNL A   1      41.330  27.305  28.834  1.00  0.00     0.049 A 
ATOM     50  H   UNL A   1      40.707  28.158  30.614  1.00  0.00     0.167 HD
ATOM     51  C   UNL A   1      40.944  31.313  34.101  1.00  0.00     0.037 A 
ATOM     52  C   UNL A   1      42.491  26.550  29.041  1.00  0.00     0.037 A 
ATOM     53  C   UNL A   1      42.189  30.544  34.386  1.00  0.00     0.049 A 
ATOM     54  C   UNL A   1      43.564  26.611  30.274  1.00  0.00     0.074 A 
ATOM     55  C   UNL A   1      42.744  30.158  35.603  1.00  0.00     0.029 A 
ATOM     56  N   UNL A   1      43.240  30.208  33.513  1.00  0.00    -0.354 N 
ATOM     57  N   UNL A   1      43.422  27.049  31.500  1.00  0.00    -0.248 NA
ATOM     58  C   UNL A   1      44.978  26.214  30.092  1.00  0.00     0.031 C 
ATOM     59  C   UNL A   1      43.858  29.298  35.361  1.00  0.00     0.029 A 
ATOM     60  C   UNL A   1      43.993  29.083  33.988  1.00  0.00     0.049 A 
ATOM     61  H   UNL A   1      43.435  30.688  32.676  1.00  0.00     0.167 HD
ATOM     62  C   UNL A   1      44.640  27.316  32.119  1.00  0.00     0.074 A 
ATOM     63  C   UNL A   1      45.566  26.603  31.243  1.00  0.00     0.031 C 
ATOM     64  C   UNL A   1      44.923  28.152  33.203  1.00  0.00     0.037 A 
BRANCH  51  65
ATOM     65  C   UNL A   1      40.408  32.167  35.214  1.00  0.00     0.058 A 
ATOM     66  C   UNL A   1      40.859  33.482  35.436  1.00  0.00     0.135 A 
ATOM     67  C   UNL A   1      39.497  31.618  36.124  1.00  0.00     0.135 A 
ATOM     68  F   UNL A   1      41.745  34.044  34.599  1.00  0.00    -0.206 F 
ATOM     69  C   UNL A   1      40.482  34.193  36.571  1.00  0.00     0.059 A 
ATOM     70  C   UNL A   1      39.091  32.320  37.253  1.00  0.00     0.059 A 
ATOM     71  F   UNL A   1      39.040  30.369  35.948  1.00  0.00    -0.206 F 
ATOM     72  C   UNL A   1      39.614  33.592  37.484  1.00  0.00     0.060 A 
BRANCH  72  73
ATOM     73  S   UNL A   1      39.221  34.475  39.009  1.00  0.00     0.124 S 
ATOM     74  O   UNL A   1      40.436  34.258  39.789  1.00  0.00    -0.237 OA
ATOM     75  O   UNL A   1      39.007  35.837  38.533  1.00  0.00    -0.237 OA
ATOM     76  O   UNL A   1      38.031  33.788  39.501  1.00  0.00    -0.744 OA
ENDBRANCH  72  73
ENDBRANCH  51  65
BRANCH  52  77
ATOM     77  C   UNL A   1      42.926  25.658  27.912  1.00  0.00     0.058 A 
ATOM     78  C   UNL A   1      43.714  26.165  26.866  1.00  0.00     0.135 A 
ATOM     79  C   UNL A   1      42.593  24.296  27.864  1.00  0.00     0.135 A 
ATOM     80  F   UNL A   1      44.022  27.471  26.827  1.00  0.00    -0.206 F 
ATOM     81  C   UNL A   1      44.200  25.343  25.849  1.00  0.00     0.059 A 
ATOM     82  C   UNL A   1      43.101  23.447  26.884  1.00  0.00     0.059 A 
ATOM     83  F   UNL A   1      41.801  23.761  28.806  1.00  0.00    -0.206 F 
ATOM     84  C   UNL A   1      43.909  23.979  25.883  1.00  0.00     0.060 A 
BRANCH  84  85
ATOM     85  S   UNL A   1      44.649  22.889  24.645  1.00  0.00     0.124 S 
ATOM     86  O   UNL A   1      45.096  21.770  25.465  1.00  0.00    -0.237 OA
ATOM     87  O   UNL A   1      43.521  22.620  23.757  1.00  0.00    -0.237 OA
ATOM     88  O   UNL A   1      45.707  23.711  24.066  1.00  0.00    -0.744 OA
ENDBRANCH  84  85
ENDBRANCH  52  77
BRANCH  64  89
ATOM     89  C   UNL A   1      46.270  27.897  33.827  1.00  0.00     0.058 A 
ATOM     90  C   UNL A   1      46.538  26.828  34.690  1.00  0.00     0.135 A 
ATOM     91  C   UNL A   1      47.333  28.772  33.528  1.00  0.00     0.135 A 
ATOM     92  F   UNL A   1      45.557  25.982  35.042  1.00  0.00    -0.206 F 
ATOM     93  C   UNL A   1      47.810  26.634  35.230  1.00  0.00     0.059 A 
ATOM     94  C   UNL A   1      48.616  28.575  34.021  1.00  0.00     0.059 A 
ATOM     95  F   UNL A   1      47.132  29.835  32.731  1.00  0.00    -0.206 F 
ATOM     96  C   UNL A   1      48.845  27.507  34.882  1.00  0.00     0.060 A 
BRANCH  96  97
ATOM     97  S   UNL A   1      50.499  27.224  35.547  1.00  0.00     0.124 S 
ATOM     98  O   UNL A   1      50.579  25.768  35.530  1.00  0.00    -0.237 OA
ATOM     99  O   UNL A   1      51.346  27.917  34.580  1.00  0.00    -0.237 OA
ATOM    100  O   UNL A   1      50.445  27.835  36.872  1.00  0.00    -0.744 OA
ENDBRANCH  96  97
ENDBRANCH  64  89
ENDBRANCH  38  39
ENDBRANCH  31  33
ENDBRANCH  30  31
ENDBRANCH  29  30
ENDBRANCH   1  29
TORSDOF 18
ENDMDL
MODEL 2
REMARK VINA RESULT:     -11.7      5.669      8.898
REMARK SMILES CCSc1ccc(-c2cc(Cl)cc3c2O[C@H](C(F)(F)F)C(C(=O)OCCOC(=O)c2ccc(-c4c5nc(c(-c6c(F)cc(S(=O)(=O)[O-])cc6F)c6ccc([nH]6)c(-c6c(F)cc(S(=O)(=O)[O-])cc6F)c6nc(c(-c7c(F)cc(S(=O)(=O)[O-])cc7F)c7ccc4[nH]7)C=C6)C=C5)cc2)=C3)cc1
REMARK SMILES IDX 25 1 24 2 22 3 23 4 21 5 8 6 9 7 14 8 10 9 13 10 15 11 11 12
REMARK SMILES IDX 12 13 96 14 16 15 7 16 4 17 5 18 98 19 6 20 97 21 3 22 2 23
REMARK SMILES IDX 1 24 17 25 18 26 19 27 20 28 26 29 27 30 28 31 29 32 30 33
REMARK SMILES IDX 31 34 95 35 32 36 94 37 33 38 34 39 35 40 88 41 36 42 93 43
REMARK SMILES IDX 87 44 89 45 37 46 92 47 86 48 85 49 38 51 72 52 51 53 71 54
REMARK SMILES IDX 52 55 55 56 70 57 90 58 53 59 54 60 69 62 91 63 56 64 39 65
REMARK SMILES IDX 40 66 49 67 41 68 42 69 48 70 50 71 43 72 44 73 45 74 46 75
REMARK SMILES IDX 47 76 73 77 74 78 83 79 75 80 76 81 82 82 84 83 77 84 78 85
REMARK SMILES IDX 79 86 80 87 81 88 57 89 58 90 67 91 59 92 60 93 66 94 68 95
REMARK SMILES IDX 61 96 62 97 63 98 64 99 65 100
REMARK H PARENT 89 50 55 61
REMARK Flexibility Score: inf
ROOT
ATOM      1  C   UNL A   1      36.140  33.537  32.635  1.00  0.00     0.275 C 
ENDROOT
BRANCH   1   2
ATOM      2  O   UNL A   1      35.946  32.864  31.367  1.00  0.00    -0.459 OA
BRANCH   2   3
ATOM      3  C   UNL A   1      36.411  33.598  30.321  1.00  0.00     0.338 C 
ATOM      4  O   UNL A   1      37.489  34.181  30.315  1.00  0.00    -0.246 OA
BRANCH   3   5
ATOM      5  C   UNL A   1      35.540  33.564  29.121  1.00  0.00     0.087 C 
ATOM      6  C   UNL A   1      34.317  29.998  27.600  1.00  0.00     0.026 A 
ATOM      7  C   UNL A   1      35.363  29.146  28.040  1.00  0.00     0.033 A 
ATOM      8  C   UNL A   1      34.586  31.353  27.786  1.00  0.00     0.135 A 
ATOM      9  C   UNL A   1      36.616  29.586  28.470  1.00  0.00     0.042 A 
ATOM     10  C   UNL A   1      35.935  31.771  27.947  1.00  0.00     0.019 A 
ATOM     11  O   UNL A   1      33.625  32.328  28.023  1.00  0.00    -0.475 OA
ATOM     12  Cl  UNL A   1      37.775  28.577  29.230  1.00  0.00    -0.084 Cl
ATOM     13  C   UNL A   1      36.948  30.901  28.305  1.00  0.00     0.032 A 
ATOM     14  C   UNL A   1      36.219  33.215  28.017  1.00  0.00     0.027 C 
ATOM     15  C   UNL A   1      34.050  33.268  29.128  1.00  0.00     0.316 C 
BRANCH   6  16
ATOM     16  C   UNL A   1      33.254  29.289  26.805  1.00  0.00    -0.015 A 
ATOM     17  C   UNL A   1      31.860  28.923  24.308  1.00  0.00     0.007 A 
ATOM     18  C   UNL A   1      32.819  28.006  24.731  1.00  0.00     0.015 A 
ATOM     19  C   UNL A   1      31.454  29.890  25.236  1.00  0.00     0.015 A 
ATOM     20  C   UNL A   1      33.479  28.166  25.987  1.00  0.00     0.010 A 
ATOM     21  C   UNL A   1      32.135  30.069  26.455  1.00  0.00     0.010 A 
BRANCH  17  22
ATOM     22  S   UNL A   1      31.059  28.971  22.707  1.00  0.00    -0.126 SA
BRANCH  22  23
ATOM     23  C   UNL A   1      29.456  30.040  22.763  1.00  0.00     0.071 C 
ATOM     24  C   UNL A   1      27.874  29.521  22.734  1.00  0.00     0.016 C 
ENDBRANCH  22  23
ENDBRANCH  17  22
ENDBRANCH   6  16
BRANCH  15  25
ATOM     25  C   UNL A   1      33.366  34.632  28.980  1.00  0.00     0.430 C 
ATOM     26  F   UNL A   1      32.734  35.005  30.119  1.00  0.00    -0.167 F 
ATOM     27  F   UNL A   1      34.231  35.612  28.647  1.00  0.00    -0.167 F 
ATOM     28  F   UNL A   1      32.420  34.595  28.004  1.00  0.00    -0.167 F 
ENDBRANCH  15  25
ENDBRANCH   3   5
ENDBRANCH   2   3
ENDBRANCH   1   2
BRANCH   1  29
ATOM     29  C   UNL A   1      36.682  32.621  33.736  1.00  0.00     0.275 C 
BRANCH  29  30
ATOM     30  O   UNL A   1      36.864  31.272  33.263  1.00  0.00    -0.458 OA
BRANCH  30  31
ATOM     31  C   UNL A   1      37.999  30.682  33.706  1.00  0.00     0.338 C 
ATOM     32  O   UNL A   1      38.160  30.198  34.823  1.00  0.00    -0.246 OA
BRANCH  31  33
ATOM     33  C   UNL A   1      39.009  30.547  32.627  1.00  0.00     0.060 A 
ATOM     34  C   UNL A   1      40.077  29.706  32.906  1.00  0.00     0.016 A 
ATOM     35  C   UNL A   1      38.963  31.188  31.378  1.00  0.00     0.016 A 
ATOM     36  C   UNL A   1      41.034  29.465  31.924  1.00  0.00     0.010 A 
ATOM     37  C   UNL A   1      39.939  30.916  30.380  1.00  0.00     0.010 A 
ATOM     38  C   UNL A   1      40.969  30.005  30.627  1.00  0.00    -0.014 A 
BRANCH  38  39
ATOM     39  C   UNL A   1      42.069  29.563  29.690  1.00  0.00     0.031 A 
ATOM     40  C   UNL A   1      43.194  30.639  29.483  1.00  0.00     0.074 A 
ATOM     41  C   UNL A   1      42.144  28.256  29.249  1.00  0.00     0.049 A 
ATOM     42  N   UNL A   1      44.238  30.591  28.711  1.00  0.00    -0.248 NA
ATOM     43  C   UNL A   1      43.133  31.956  30.140  1.00  0.00     0.031 C 
ATOM     44  C   UNL A   1      41.109  27.225  29.154  1.00  0.00     0.029 A 
ATOM     45  N   UNL A   1      43.220  27.489  28.852  1.00  0.00    -0.354 N 
ATOM     46  C   UNL A   1      45.000  31.734  28.771  1.00  0.00     0.074 A 
ATOM     47  C   UNL A   1      44.223  32.576  29.674  1.00  0.00     0.031 C 
ATOM     48  C   UNL A   1      41.625  26.036  28.741  1.00  0.00     0.029 A 
ATOM     49  C   UNL A   1      43.034  26.199  28.347  1.00  0.00     0.049 A 
ATOM     50  H   UNL A   1      44.131  27.855  28.927  1.00  0.00     0.167 HD
ATOM     51  C   UNL A   1      46.224  32.009  28.194  1.00  0.00     0.037 A 
ATOM     52  C   UNL A   1      43.833  25.330  27.594  1.00  0.00     0.037 A 
ATOM     53  C   UNL A   1      47.123  31.139  27.384  1.00  0.00     0.049 A 
ATOM     54  C   UNL A   1      45.238  25.627  26.810  1.00  0.00     0.074 A 
ATOM     55  C   UNL A   1      48.506  31.175  27.232  1.00  0.00     0.029 A 
ATOM     56  N   UNL A   1      46.786  30.204  26.387  1.00  0.00    -0.354 N 
ATOM     57  N   UNL A   1      46.133  26.563  27.001  1.00  0.00    -0.248 NA
ATOM     58  C   UNL A   1      45.647  24.838  25.627  1.00  0.00     0.031 C 
ATOM     59  C   UNL A   1      48.928  30.037  26.480  1.00  0.00     0.029 A 
ATOM     60  C   UNL A   1      47.824  29.234  26.188  1.00  0.00     0.049 A 
ATOM     61  H   UNL A   1      45.940  30.216  25.886  1.00  0.00     0.167 HD
ATOM     62  C   UNL A   1      46.967  26.741  25.901  1.00  0.00     0.074 A 
ATOM     63  C   UNL A   1      46.717  25.510  25.155  1.00  0.00     0.031 C 
ATOM     64  C   UNL A   1      47.732  27.852  25.534  1.00  0.00     0.037 A 
BRANCH  51  65
ATOM     65  C   UNL A   1      46.756  33.361  28.576  1.00  0.00     0.058 A 
ATOM     66  C   UNL A   1      47.390  33.597  29.810  1.00  0.00     0.135 A 
ATOM     67  C   UNL A   1      46.538  34.450  27.725  1.00  0.00     0.135 A 
ATOM     68  F   UNL A   1      47.605  32.586  30.666  1.00  0.00    -0.206 F 
ATOM     69  C   UNL A   1      47.718  34.886  30.219  1.00  0.00     0.059 A 
ATOM     70  C   UNL A   1      46.878  35.743  28.105  1.00  0.00     0.059 A 
ATOM     71  F   UNL A   1      45.940  34.268  26.538  1.00  0.00    -0.206 F 
ATOM     72  C   UNL A   1      47.436  35.955  29.365  1.00  0.00     0.060 A 
BRANCH  72  73
ATOM     73  S   UNL A   1      47.759  37.632  29.949  1.00  0.00     0.124 S 
ATOM     74  O   UNL A   1      49.156  37.807  29.566  1.00  0.00    -0.237 OA
ATOM     75  O   UNL A   1      46.789  38.416  29.192  1.00  0.00    -0.237 OA
ATOM     76  O   UNL A   1      47.511  37.545  31.385  1.00  0.00    -0.744 OA
ENDBRANCH  72  73
ENDBRANCH  51  65
BRANCH  52  77
ATOM     77  C   UNL A   1      43.269  23.965  27.316  1.00  0.00     0.058 A 
ATOM     78  C   UNL A   1      42.626  23.693  26.097  1.00  0.00     0.135 A 
ATOM     79  C   UNL A   1      43.378  22.909  28.234  1.00  0.00     0.135 A 
ATOM     80  F   UNL A   1      42.443  24.674  25.200  1.00  0.00    -0.206 F 
ATOM     81  C   UNL A   1      42.166  22.416  25.779  1.00  0.00     0.059 A 
ATOM     82  C   UNL A   1      42.966  21.617  27.923  1.00  0.00     0.059 A 
ATOM     83  F   UNL A   1      43.936  23.116  29.437  1.00  0.00    -0.206 F 
ATOM     84  C   UNL A   1      42.365  21.378  26.690  1.00  0.00     0.060 A 
BRANCH  84  85
ATOM     85  S   UNL A   1      41.894  19.695  26.226  1.00  0.00     0.124 S 
ATOM     86  O   UNL A   1      40.449  19.821  26.081  1.00  0.00    -0.237 OA
ATOM     87  O   UNL A   1      42.645  19.494  24.990  1.00  0.00    -0.237 OA
ATOM     88  O   UNL A   1      42.348  18.897  27.360  1.00  0.00    -0.744 OA
ENDBRANCH  84  85
ENDBRANCH  52  77
BRANCH  64  89
ATOM     89  C   UNL A   1      48.787  27.545  24.505  1.00  0.00     0.058 A 
ATOM     90  C   UNL A   1      48.607  27.724  23.128  1.00  0.00     0.135 A 
ATOM     91  C   UNL A   1      50.036  27.056  24.938  1.00  0.00     0.135 A 
ATOM     92  F   UNL A   1      47.427  28.152  22.651  1.00  0.00    -0.206 F 
ATOM     93  C   UNL A   1      49.625  27.434  22.219  1.00  0.00     0.059 A 
ATOM     94  C   UNL A   1      51.077  26.799  24.055  1.00  0.00     0.059 A 
ATOM     95  F   UNL A   1      50.261  26.832  26.243  1.00  0.00    -0.206 F 
ATOM     96  C   UNL A   1      50.860  26.980  22.694  1.00  0.00     0.060 A 
BRANCH  96  97
ATOM     97  S   UNL A   1      52.190  26.651  21.518  1.00  0.00     0.124 S 
ATOM     98  O   UNL A   1      53.160  25.954  22.357  1.00  0.00    -0.237 OA
ATOM     99  O   UNL A   1      51.520  25.834  20.511  1.00  0.00    -0.237 OA
ATOM    100  O   UNL A   1      52.588  27.982  21.070  1.00  0.00    -0.744 OA
ENDBRANCH  96  97
ENDBRANCH  64  89
ENDBRANCH  38  39
ENDBRANCH  31  33
ENDBRANCH  30  31
ENDBRANCH  29  30
ENDBRANCH   1  29
TORSDOF 18
ENDMDL
MODEL 3
REMARK VINA RESULT:     -11.7      3.862      9.546
REMARK SMILES CCSc1ccc(-c2cc(Cl)cc3c2O[C@H](C(F)(F)F)C(C(=O)OCCOC(=O)c2ccc(-c4c5nc(c(-c6c(F)cc(S(=O)(=O)[O-])cc6F)c6ccc([nH]6)c(-c6c(F)cc(S(=O)(=O)[O-])cc6F)c6nc(c(-c7c(F)cc(S(=O)(=O)[O-])cc7F)c7ccc4[nH]7)C=C6)C=C5)cc2)=C3)cc1
REMARK SMILES IDX 25 1 24 2 22 3 23 4 21 5 8 6 9 7 14 8 10 9 13 10 15 11 11 12
REMARK SMILES IDX 12 13 96 14 16 15 7 16 4 17 5 18 98 19 6 20 97 21 3 22 2 23
REMARK SMILES IDX 1 24 17 25 18 26 19 27 20 28 26 29 27 30 28 31 29 32 30 33
REMARK SMILES IDX 31 34 95 35 32 36 94 37 33 38 34 39 35 40 88 41 36 42 93 43
REMARK SMILES IDX 87 44 89 45 37 46 92 47 86 48 85 49 38 51 72 52 51 53 71 54
REMARK SMILES IDX 52 55 55 56 70 57 90 58 53 59 54 60 69 62 91 63 56 64 39 65
REMARK SMILES IDX 40 66 49 67 41 68 42 69 48 70 50 71 43 72 44 73 45 74 46 75
REMARK SMILES IDX 47 76 73 77 74 78 83 79 75 80 76 81 82 82 84 83 77 84 78 85
REMARK SMILES IDX 79 86 80 87 81 88 57 89 58 90 67 91 59 92 60 93 66 94 68 95
REMARK SMILES IDX 61 96 62 97 63 98 64 99 65 100
REMARK H PARENT 89 50 55 61
REMARK Flexibility Score: inf
ROOT
ATOM      1  C   UNL A   1      44.712  23.910  26.344  1.00  0.00     0.275 C 
ENDROOT
BRANCH   1   2
ATOM      2  O   UNL A   1      43.607  22.992  26.156  1.00  0.00    -0.459 OA
BRANCH   2   3
ATOM      3  C   UNL A   1      43.120  22.528  27.338  1.00  0.00     0.338 C 
ATOM      4  O   UNL A   1      43.446  22.965  28.436  1.00  0.00    -0.246 OA
BRANCH   3   5
ATOM      5  C   UNL A   1      42.066  21.494  27.196  1.00  0.00     0.087 C 
ATOM      6  C   UNL A   1      38.455  22.479  25.609  1.00  0.00     0.026 A 
ATOM      7  C   UNL A   1      38.394  23.862  25.920  1.00  0.00     0.033 A 
ATOM      8  C   UNL A   1      39.503  21.811  26.242  1.00  0.00     0.135 A 
ATOM      9  C   UNL A   1      39.183  24.494  26.882  1.00  0.00     0.042 A 
ATOM     10  C   UNL A   1      40.090  22.392  27.399  1.00  0.00     0.019 A 
ATOM     11  O   UNL A   1      40.165  20.705  25.725  1.00  0.00    -0.475 OA
ATOM     12  Cl  UNL A   1      39.280  26.196  27.073  1.00  0.00    -0.084 Cl
ATOM     13  C   UNL A   1      39.950  23.730  27.715  1.00  0.00     0.032 A 
ATOM     14  C   UNL A   1      41.110  21.620  28.130  1.00  0.00     0.027 C 
ATOM     15  C   UNL A   1      41.663  20.828  25.892  1.00  0.00     0.316 C 
BRANCH   6  16
ATOM     16  C   UNL A   1      37.245  21.971  24.872  1.00  0.00    -0.015 A 
ATOM     17  C   UNL A   1      34.389  21.997  24.486  1.00  0.00     0.007 A 
ATOM     18  C   UNL A   1      35.235  22.658  23.599  1.00  0.00     0.015 A 
ATOM     19  C   UNL A   1      34.990  21.153  25.427  1.00  0.00     0.015 A 
ATOM     20  C   UNL A   1      36.651  22.610  23.768  1.00  0.00     0.010 A 
ATOM     21  C   UNL A   1      36.385  21.140  25.616  1.00  0.00     0.010 A 
BRANCH  17  22
ATOM     22  S   UNL A   1      32.600  22.085  24.524  1.00  0.00    -0.126 SA
BRANCH  22  23
ATOM     23  C   UNL A   1      31.971  22.730  26.227  1.00  0.00     0.071 C 
ATOM     24  C   UNL A   1      32.742  22.655  27.702  1.00  0.00     0.016 C 
ENDBRANCH  22  23
ENDBRANCH  17  22
ENDBRANCH   6  16
BRANCH  15  25
ATOM     25  C   UNL A   1      42.325  19.445  25.924  1.00  0.00     0.430 C 
ATOM     26  F   UNL A   1      41.425  18.451  25.731  1.00  0.00    -0.167 F 
ATOM     27  F   UNL A   1      43.294  19.313  24.995  1.00  0.00    -0.167 F 
ATOM     28  F   UNL A   1      42.906  19.215  27.132  1.00  0.00    -0.167 F 
ENDBRANCH  15  25
ENDBRANCH   3   5
ENDBRANCH   2   3
ENDBRANCH   1   2
BRANCH   1  29
ATOM     29  C   UNL A   1      44.591  25.189  25.511  1.00  0.00     0.275 C 
BRANCH  29  30
ATOM     30  O   UNL A   1      43.215  25.515  25.234  1.00  0.00    -0.458 OA
BRANCH  30  31
ATOM     31  C   UNL A   1      42.940  26.839  25.295  1.00  0.00     0.338 C 
ATOM     32  O   UNL A   1      42.760  27.574  24.329  1.00  0.00    -0.246 OA
BRANCH  31  33
ATOM     33  C   UNL A   1      42.731  27.296  26.692  1.00  0.00     0.060 A 
ATOM     34  C   UNL A   1      42.922  28.652  26.915  1.00  0.00     0.016 A 
ATOM     35  C   UNL A   1      42.363  26.479  27.774  1.00  0.00     0.016 A 
ATOM     36  C   UNL A   1      42.679  29.179  28.180  1.00  0.00     0.010 A 
ATOM     37  C   UNL A   1      42.101  27.037  29.055  1.00  0.00     0.010 A 
ATOM     38  C   UNL A   1      42.209  28.414  29.264  1.00  0.00    -0.014 A 
BRANCH  38  39
ATOM     39  C   UNL A   1      41.941  29.191  30.532  1.00  0.00     0.031 A 
ATOM     40  C   UNL A   1      40.674  30.116  30.451  1.00  0.00     0.074 A 
ATOM     41  C   UNL A   1      42.643  28.921  31.691  1.00  0.00     0.049 A 
ATOM     42  N   UNL A   1      40.208  30.940  31.340  1.00  0.00    -0.248 NA
ATOM     43  C   UNL A   1      39.864  30.210  29.225  1.00  0.00     0.031 C 
ATOM     44  C   UNL A   1      43.949  28.290  31.885  1.00  0.00     0.029 A 
ATOM     45  N   UNL A   1      42.300  29.074  33.019  1.00  0.00    -0.354 N 
ATOM     46  C   UNL A   1      39.082  31.606  30.914  1.00  0.00     0.074 A 
ATOM     47  C   UNL A   1      38.936  31.119  29.546  1.00  0.00     0.031 C 
ATOM     48  C   UNL A   1      44.239  28.139  33.206  1.00  0.00     0.029 A 
ATOM     49  C   UNL A   1      43.229  28.819  34.032  1.00  0.00     0.049 A 
ATOM     50  H   UNL A   1      41.390  29.366  33.255  1.00  0.00     0.167 HD
ATOM     51  C   UNL A   1      38.248  32.461  31.606  1.00  0.00     0.037 A 
ATOM     52  C   UNL A   1      43.304  29.168  35.386  1.00  0.00     0.037 A 
ATOM     53  C   UNL A   1      38.270  32.878  33.037  1.00  0.00     0.049 A 
ATOM     54  C   UNL A   1      42.407  30.243  36.233  1.00  0.00     0.074 A 
ATOM     55  C   UNL A   1      37.229  33.283  33.867  1.00  0.00     0.029 A 
ATOM     56  N   UNL A   1      39.376  33.187  33.851  1.00  0.00    -0.354 N 
ATOM     57  N   UNL A   1      41.210  30.720  35.997  1.00  0.00    -0.248 NA
ATOM     58  C   UNL A   1      42.942  30.924  37.432  1.00  0.00     0.031 C 
ATOM     59  C   UNL A   1      37.719  33.427  35.201  1.00  0.00     0.029 A 
ATOM     60  C   UNL A   1      39.066  33.063  35.246  1.00  0.00     0.049 A 
ATOM     61  H   UNL A   1      40.256  33.457  33.504  1.00  0.00     0.167 HD
ATOM     62  C   UNL A   1      40.953  31.895  36.697  1.00  0.00     0.074 A 
ATOM     63  C   UNL A   1      42.010  31.861  37.706  1.00  0.00     0.031 C 
ATOM     64  C   UNL A   1      40.025  32.906  36.430  1.00  0.00     0.037 A 
BRANCH  51  65
ATOM     65  C   UNL A   1      37.074  32.916  30.787  1.00  0.00     0.058 A 
ATOM     66  C   UNL A   1      37.162  33.990  29.882  1.00  0.00     0.135 A 
ATOM     67  C   UNL A   1      35.823  32.323  30.989  1.00  0.00     0.135 A 
ATOM     68  F   UNL A   1      38.338  34.602  29.668  1.00  0.00    -0.206 F 
ATOM     69  C   UNL A   1      36.029  34.510  29.265  1.00  0.00     0.059 A 
ATOM     70  C   UNL A   1      34.682  32.812  30.366  1.00  0.00     0.059 A 
ATOM     71  F   UNL A   1      35.696  31.295  31.842  1.00  0.00    -0.206 F 
ATOM     72  C   UNL A   1      34.789  33.926  29.532  1.00  0.00     0.060 A 
BRANCH  72  73
ATOM     73  S   UNL A   1      33.311  34.676  28.819  1.00  0.00     0.124 S 
ATOM     74  O   UNL A   1      32.523  34.954  30.016  1.00  0.00    -0.237 OA
ATOM     75  O   UNL A   1      33.855  35.841  28.131  1.00  0.00    -0.237 OA
ATOM     76  O   UNL A   1      32.782  33.626  27.953  1.00  0.00    -0.744 OA
ENDBRANCH  72  73
ENDBRANCH  51  65
BRANCH  52  77
ATOM     77  C   UNL A   1      44.464  28.613  36.163  1.00  0.00     0.058 A 
ATOM     78  C   UNL A   1      45.707  29.267  36.156  1.00  0.00     0.135 A 
ATOM     79  C   UNL A   1      44.356  27.449  36.939  1.00  0.00     0.135 A 
ATOM     80  F   UNL A   1      45.890  30.355  35.391  1.00  0.00    -0.206 F 
ATOM     81  C   UNL A   1      46.776  28.820  36.931  1.00  0.00     0.059 A 
ATOM     82  C   UNL A   1      45.394  27.008  37.755  1.00  0.00     0.059 A 
ATOM     83  F   UNL A   1      43.211  26.749  36.950  1.00  0.00    -0.206 F 
ATOM     84  C   UNL A   1      46.600  27.703  37.749  1.00  0.00     0.060 A 
BRANCH  84  85
ATOM     85  S   UNL A   1      47.937  27.202  38.857  1.00  0.00     0.124 S 
ATOM     86  O   UNL A   1      48.467  26.030  38.171  1.00  0.00    -0.237 OA
ATOM     87  O   UNL A   1      48.796  28.383  38.859  1.00  0.00    -0.237 OA
ATOM     88  O   UNL A   1      47.246  26.940  40.116  1.00  0.00    -0.744 OA
ENDBRANCH  84  85
ENDBRANCH  52  77
BRANCH  64  89
ATOM     89  C   UNL A   1      39.773  33.820  37.601  1.00  0.00     0.058 A 
ATOM     90  C   UNL A   1      38.939  33.494  38.676  1.00  0.00     0.135 A 
ATOM     91  C   UNL A   1      40.413  35.075  37.632  1.00  0.00     0.135 A 
ATOM     92  F   UNL A   1      38.273  32.328  38.686  1.00  0.00    -0.206 F 
ATOM     93  C   UNL A   1      38.751  34.375  39.741  1.00  0.00     0.059 A 
ATOM     94  C   UNL A   1      40.273  35.951  38.700  1.00  0.00     0.059 A 
ATOM     95  F   UNL A   1      41.201  35.460  36.614  1.00  0.00    -0.206 F 
ATOM     96  C   UNL A   1      39.430  35.598  39.748  1.00  0.00     0.060 A 
BRANCH  96  97
ATOM     97  S   UNL A   1      39.220  36.716  41.151  1.00  0.00     0.124 S 
ATOM     98  O   UNL A   1      40.605  36.999  41.512  1.00  0.00    -0.237 OA
ATOM     99  O   UNL A   1      38.480  37.825  40.557  1.00  0.00    -0.237 OA
ATOM    100  O   UNL A   1      38.470  35.917  42.115  1.00  0.00    -0.744 OA
ENDBRANCH  96  97
ENDBRANCH  64  89
ENDBRANCH  38  39
ENDBRANCH  31  33
ENDBRANCH  30  31
ENDBRANCH  29  30
ENDBRANCH   1  29
TORSDOF 18
ENDMDL
