MODEL 1
REMARK VINA RESULT:     -11.6      0.000      0.000
REMARK SMILES NS(=O)(=O)c1ccc(N2N=C(C(=O)OCCOC(=O)c3ccc(-c4c5nc(c(-c6c(F)cc(S(=O)(=O)[O-])cc6F)c6ccc([nH]6)c(-c6c(F)cc(S(=O)(=O)[O-])cc6F)c6nc(c(-c7c(F)cc(S(=O)(=O)[O-])cc7F)c7ccc4[nH]7)C=C6)C=C5)cc3)C[C@H]2c2cccs2)cc1
REMARK SMILES IDX 15 1 14 2 12 3 13 4 11 5 9 6 10 7 87 8 86 9 8 10 5 11 6 12
REMARK SMILES IDX 94 13 7 14 93 15 2 16 3 17 4 18 1 19 88 22 89 23 92 24 90 25
REMARK SMILES IDX 91 26 16 27 17 28 18 29 19 30 20 31 21 32 85 33 22 34 84 35
REMARK SMILES IDX 23 36 24 37 25 38 78 39 26 40 83 41 77 42 79 43 27 44 82 45
REMARK SMILES IDX 76 46 75 47 28 49 62 50 41 51 61 52 42 53 45 54 60 55 80 56
REMARK SMILES IDX 43 57 44 58 59 60 81 61 46 62 29 63 30 64 39 65 31 66 32 67
REMARK SMILES IDX 38 68 40 69 33 70 34 71 35 72 36 73 37 74 63 75 64 76 73 77
REMARK SMILES IDX 65 78 66 79 72 80 74 81 67 82 68 83 69 84 70 85 71 86 47 87
REMARK SMILES IDX 48 88 57 89 49 90 50 91 56 92 58 93 51 94 52 95 53 96 54 97
REMARK SMILES IDX 55 98
REMARK H PARENT 1 20 1 21 79 48 45 59
REMARK Flexibility Score: inf
ROOT
ATOM      1  C   UNL A   1      32.188  27.641  26.123  1.00  0.00     0.275 C 
ENDROOT
BRANCH   1   2
ATOM      2  O   UNL A   1      33.048  26.489  26.207  1.00  0.00    -0.458 OA
BRANCH   2   3
ATOM      3  C   UNL A   1      32.422  25.299  26.304  1.00  0.00     0.354 C 
ATOM      4  O   UNL A   1      31.363  25.058  26.851  1.00  0.00    -0.245 OA
BRANCH   3   5
ATOM      5  C   UNL A   1      33.190  24.254  25.534  1.00  0.00     0.148 C 
ATOM      6  N   UNL A   1      33.824  22.372  24.827  1.00  0.00    -0.256 N 
ATOM      7  N   UNL A   1      33.016  22.981  25.730  1.00  0.00    -0.169 NA
ATOM      8  C   UNL A   1      34.860  23.269  24.308  1.00  0.00     0.154 C 
ATOM      9  C   UNL A   1      34.138  24.624  24.434  1.00  0.00     0.099 C 
BRANCH   6  10
ATOM     10  C   UNL A   1      33.803  20.997  24.686  1.00  0.00     0.060 A 
ATOM     11  C   UNL A   1      33.740  18.207  24.353  1.00  0.00     0.082 A 
ATOM     12  C   UNL A   1      32.596  18.961  24.088  1.00  0.00     0.024 A 
ATOM     13  C   UNL A   1      34.901  18.826  24.819  1.00  0.00     0.024 A 
ATOM     14  C   UNL A   1      32.636  20.351  24.247  1.00  0.00     0.029 A 
ATOM     15  C   UNL A   1      34.921  20.212  24.993  1.00  0.00     0.029 A 
BRANCH  11  16
ATOM     16  S   UNL A   1      33.691  16.457  24.107  1.00  0.00     0.238 S 
ATOM     17  O   UNL A   1      34.026  16.199  22.722  1.00  0.00    -0.207 OA
ATOM     18  O   UNL A   1      32.514  15.925  24.739  1.00  0.00    -0.207 OA
BRANCH  16  19
ATOM     19  N   UNL A   1      34.990  15.878  25.005  1.00  0.00    -0.225 NA
ATOM     20  H   UNL A   1      35.848  15.972  24.462  1.00  0.00     0.137 HD
ATOM     21  H   UNL A   1      34.836  14.894  25.229  1.00  0.00     0.137 HD
ENDBRANCH  16  19
ENDBRANCH  11  16
ENDBRANCH   6  10
BRANCH   8  22
ATOM     22  C   UNL A   1      36.183  23.179  25.061  1.00  0.00     0.030 A 
ATOM     23  C   UNL A   1      36.621  24.036  26.059  1.00  0.00     0.017 A 
ATOM     24  S   UNL A   1      37.403  22.034  24.670  1.00  0.00    -0.147 S 
ATOM     25  C   UNL A   1      37.964  23.777  26.458  1.00  0.00     0.012 A 
ATOM     26  C   UNL A   1      38.503  22.707  25.785  1.00  0.00     0.065 A 
ENDBRANCH   8  22
ENDBRANCH   3   5
ENDBRANCH   2   3
ENDBRANCH   1   2
BRANCH   1  27
ATOM     27  C   UNL A   1      32.507  28.627  27.250  1.00  0.00     0.275 C 
BRANCH  27  28
ATOM     28  O   UNL A   1      33.913  28.637  27.567  1.00  0.00    -0.458 OA
BRANCH  28  29
ATOM     29  C   UNL A   1      34.417  29.858  27.869  1.00  0.00     0.338 C 
ATOM     30  O   UNL A   1      33.799  30.909  27.937  1.00  0.00    -0.246 OA
BRANCH  29  31
ATOM     31  C   UNL A   1      35.831  29.738  28.258  1.00  0.00     0.060 A 
ATOM     32  C   UNL A   1      36.780  29.941  27.260  1.00  0.00     0.016 A 
ATOM     33  C   UNL A   1      36.230  29.333  29.530  1.00  0.00     0.016 A 
ATOM     34  C   UNL A   1      38.129  29.721  27.503  1.00  0.00     0.010 A 
ATOM     35  C   UNL A   1      37.594  29.129  29.785  1.00  0.00     0.010 A 
ATOM     36  C   UNL A   1      38.552  29.306  28.768  1.00  0.00    -0.014 A 
BRANCH  36  37
ATOM     37  C   UNL A   1      39.992  29.018  28.985  1.00  0.00     0.031 A 
ATOM     38  C   UNL A   1      40.888  30.067  29.577  1.00  0.00     0.074 A 
ATOM     39  C   UNL A   1      40.479  27.794  28.702  1.00  0.00     0.049 A 
ATOM     40  N   UNL A   1      42.181  30.034  29.777  1.00  0.00    -0.248 NA
ATOM     41  C   UNL A   1      40.248  31.325  29.989  1.00  0.00     0.031 C 
ATOM     42  C   UNL A   1      39.693  26.676  28.176  1.00  0.00     0.029 A 
ATOM     43  N   UNL A   1      41.746  27.284  28.823  1.00  0.00    -0.354 N 
ATOM     44  C   UNL A   1      42.515  31.273  30.310  1.00  0.00     0.074 A 
ATOM     45  C   UNL A   1      41.291  32.042  30.387  1.00  0.00     0.031 C 
ATOM     46  C   UNL A   1      40.494  25.609  28.030  1.00  0.00     0.029 A 
ATOM     47  C   UNL A   1      41.856  25.981  28.399  1.00  0.00     0.049 A 
ATOM     48  H   UNL A   1      42.504  27.801  29.179  1.00  0.00     0.167 HD
ATOM     49  C   UNL A   1      43.732  31.726  30.698  1.00  0.00     0.037 A 
ATOM     50  C   UNL A   1      42.937  25.185  28.292  1.00  0.00     0.037 A 
ATOM     51  C   UNL A   1      44.939  30.940  30.648  1.00  0.00     0.049 A 
ATOM     52  C   UNL A   1      44.282  25.715  28.700  1.00  0.00     0.074 A 
ATOM     53  C   UNL A   1      46.219  31.300  31.033  1.00  0.00     0.029 A 
ATOM     54  N   UNL A   1      45.014  29.632  30.190  1.00  0.00    -0.354 N 
ATOM     55  N   UNL A   1      44.589  26.897  29.178  1.00  0.00    -0.248 NA
ATOM     56  C   UNL A   1      45.429  24.811  28.548  1.00  0.00     0.031 C 
ATOM     57  C   UNL A   1      47.075  30.225  30.768  1.00  0.00     0.029 A 
ATOM     58  C   UNL A   1      46.322  29.178  30.259  1.00  0.00     0.049 A 
ATOM     59  H   UNL A   1      44.250  29.104  29.864  1.00  0.00     0.167 HD
ATOM     60  C   UNL A   1      45.962  26.877  29.393  1.00  0.00     0.074 A 
ATOM     61  C   UNL A   1      46.424  25.559  29.007  1.00  0.00     0.031 C 
ATOM     62  C   UNL A   1      46.766  27.863  29.864  1.00  0.00     0.037 A 
BRANCH  49  63
ATOM     63  C   UNL A   1      43.819  33.154  31.163  1.00  0.00     0.058 A 
ATOM     64  C   UNL A   1      43.890  34.230  30.265  1.00  0.00     0.135 A 
ATOM     65  C   UNL A   1      43.839  33.448  32.536  1.00  0.00     0.135 A 
ATOM     66  F   UNL A   1      43.892  34.007  28.941  1.00  0.00    -0.206 F 
ATOM     67  C   UNL A   1      44.022  35.542  30.711  1.00  0.00     0.059 A 
ATOM     68  C   UNL A   1      43.945  34.754  33.005  1.00  0.00     0.059 A 
ATOM     69  F   UNL A   1      43.773  32.458  33.441  1.00  0.00    -0.206 F 
ATOM     70  C   UNL A   1      44.059  35.794  32.083  1.00  0.00     0.060 A 
BRANCH  70  71
ATOM     71  S   UNL A   1      44.270  37.495  32.652  1.00  0.00     0.124 S 
ATOM     72  O   UNL A   1      43.088  37.669  33.491  1.00  0.00    -0.237 OA
ATOM     73  O   UNL A   1      45.545  37.436  33.358  1.00  0.00    -0.237 OA
ATOM     74  O   UNL A   1      44.278  38.267  31.413  1.00  0.00    -0.744 OA
ENDBRANCH  70  71
ENDBRANCH  49  63
BRANCH  50  75
ATOM     75  C   UNL A   1      42.777  23.809  27.751  1.00  0.00     0.058 A 
ATOM     76  C   UNL A   1      42.574  22.713  28.601  1.00  0.00     0.135 A 
ATOM     77  C   UNL A   1      42.763  23.576  26.366  1.00  0.00     0.135 A 
ATOM     78  F   UNL A   1      42.589  22.884  29.931  1.00  0.00    -0.206 F 
ATOM     79  C   UNL A   1      42.355  21.435  28.098  1.00  0.00     0.059 A 
ATOM     80  C   UNL A   1      42.522  22.312  25.840  1.00  0.00     0.059 A 
ATOM     81  F   UNL A   1      42.943  24.596  25.512  1.00  0.00    -0.206 F 
ATOM     82  C   UNL A   1      42.321  21.246  26.714  1.00  0.00     0.060 A 
BRANCH  82  83
ATOM     83  S   UNL A   1      41.946  19.601  26.070  1.00  0.00     0.124 S 
ATOM     84  O   UNL A   1      42.820  19.536  24.904  1.00  0.00    -0.237 OA
ATOM     85  O   UNL A   1      42.313  18.738  27.190  1.00  0.00    -0.237 OA
ATOM     86  O   UNL A   1      40.515  19.670  25.786  1.00  0.00    -0.744 OA
ENDBRANCH  82  83
ENDBRANCH  50  75
BRANCH  62  87
ATOM     87  C   UNL A   1      48.229  27.548  30.001  1.00  0.00     0.058 A 
ATOM     88  C   UNL A   1      49.141  27.835  28.974  1.00  0.00     0.135 A 
ATOM     89  C   UNL A   1      48.731  26.995  31.190  1.00  0.00     0.135 A 
ATOM     90  F   UNL A   1      48.711  28.358  27.814  1.00  0.00    -0.206 F 
ATOM     91  C   UNL A   1      50.499  27.567  29.113  1.00  0.00     0.059 A 
ATOM     92  C   UNL A   1      50.088  26.739  31.360  1.00  0.00     0.059 A 
ATOM     93  F   UNL A   1      47.900  26.708  32.205  1.00  0.00    -0.206 F 
ATOM     94  C   UNL A   1      50.962  27.019  30.311  1.00  0.00     0.060 A 
BRANCH  94  95
ATOM     95  S   UNL A   1      52.731  26.702  30.492  1.00  0.00     0.124 S 
ATOM     96  O   UNL A   1      52.736  25.584  31.429  1.00  0.00    -0.237 OA
ATOM     97  O   UNL A   1      53.136  26.385  29.125  1.00  0.00    -0.237 OA
ATOM     98  O   UNL A   1      53.249  27.963  31.014  1.00  0.00    -0.744 OA
ENDBRANCH  94  95
ENDBRANCH  62  87
ENDBRANCH  36  37
ENDBRANCH  29  31
ENDBRANCH  28  29
ENDBRANCH  27  28
ENDBRANCH   1  27
TORSDOF 18
ENDMDL
MODEL 2
REMARK VINA RESULT:     -11.2      0.475      8.233
REMARK SMILES NS(=O)(=O)c1ccc(N2N=C(C(=O)OCCOC(=O)c3ccc(-c4c5nc(c(-c6c(F)cc(S(=O)(=O)[O-])cc6F)c6ccc([nH]6)c(-c6c(F)cc(S(=O)(=O)[O-])cc6F)c6nc(c(-c7c(F)cc(S(=O)(=O)[O-])cc7F)c7ccc4[nH]7)C=C6)C=C5)cc3)C[C@H]2c2cccs2)cc1
REMARK SMILES IDX 15 1 14 2 12 3 13 4 11 5 9 6 10 7 87 8 86 9 8 10 5 11 6 12
REMARK SMILES IDX 94 13 7 14 93 15 2 16 3 17 4 18 1 19 88 22 89 23 92 24 90 25
REMARK SMILES IDX 91 26 16 27 17 28 18 29 19 30 20 31 21 32 85 33 22 34 84 35
REMARK SMILES IDX 23 36 24 37 25 38 78 39 26 40 83 41 77 42 79 43 27 44 82 45
REMARK SMILES IDX 76 46 75 47 28 49 62 50 41 51 61 52 42 53 45 54 60 55 80 56
REMARK SMILES IDX 43 57 44 58 59 60 81 61 46 62 29 63 30 64 39 65 31 66 32 67
REMARK SMILES IDX 38 68 40 69 33 70 34 71 35 72 36 73 37 74 63 75 64 76 73 77
REMARK SMILES IDX 65 78 66 79 72 80 74 81 67 82 68 83 69 84 70 85 71 86 47 87
REMARK SMILES IDX 48 88 57 89 49 90 50 91 56 92 58 93 51 94 52 95 53 96 54 97
REMARK SMILES IDX 55 98
REMARK H PARENT 1 20 1 21 79 48 45 59
REMARK Flexibility Score: inf
ROOT
ATOM      1  C   UNL A   1      32.170  27.475  26.415  1.00  0.00     0.275 C 
ENDROOT
BRANCH   1   2
ATOM      2  O   UNL A   1      32.593  26.098  26.435  1.00  0.00    -0.458 OA
BRANCH   2   3
ATOM      3  C   UNL A   1      31.818  25.239  25.743  1.00  0.00     0.354 C 
ATOM      4  O   UNL A   1      30.611  25.278  25.597  1.00  0.00    -0.245 OA
BRANCH   3   5
ATOM      5  C   UNL A   1      32.682  24.211  25.058  1.00  0.00     0.148 C 
ATOM      6  N   UNL A   1      33.460  22.342  24.469  1.00  0.00    -0.256 N 
ATOM      7  N   UNL A   1      32.575  22.940  25.305  1.00  0.00    -0.169 NA
ATOM      8  C   UNL A   1      34.465  23.278  23.955  1.00  0.00     0.154 C 
ATOM      9  C   UNL A   1      33.658  24.590  23.986  1.00  0.00     0.099 C 
BRANCH   6  10
ATOM     10  C   UNL A   1      33.527  20.963  24.391  1.00  0.00     0.060 A 
ATOM     11  C   UNL A   1      33.656  18.164  24.184  1.00  0.00     0.082 A 
ATOM     12  C   UNL A   1      32.575  18.850  23.628  1.00  0.00     0.024 A 
ATOM     13  C   UNL A   1      34.652  18.856  24.874  1.00  0.00     0.024 A 
ATOM     14  C   UNL A   1      32.521  20.244  23.727  1.00  0.00     0.029 A 
ATOM     15  C   UNL A   1      34.575  20.247  24.983  1.00  0.00     0.029 A 
BRANCH  11  16
ATOM     16  S   UNL A   1      33.736  16.406  24.016  1.00  0.00     0.238 S 
ATOM     17  O   UNL A   1      34.144  16.113  22.657  1.00  0.00    -0.207 OA
ATOM     18  O   UNL A   1      32.573  15.820  24.626  1.00  0.00    -0.207 OA
BRANCH  16  19
ATOM     19  N   UNL A   1      35.033  15.957  24.987  1.00  0.00    -0.225 NA
ATOM     20  H   UNL A   1      35.720  15.452  24.426  1.00  0.00     0.137 HD
ATOM     21  H   UNL A   1      34.701  15.353  25.741  1.00  0.00     0.137 HD
ENDBRANCH  16  19
ENDBRANCH  11  16
ENDBRANCH   6  10
BRANCH   8  22
ATOM     22  C   UNL A   1      35.753  23.303  24.771  1.00  0.00     0.030 A 
ATOM     23  C   UNL A   1      36.039  24.148  25.831  1.00  0.00     0.017 A 
ATOM     24  S   UNL A   1      37.119  22.332  24.386  1.00  0.00    -0.147 S 
ATOM     25  C   UNL A   1      37.384  24.028  26.286  1.00  0.00     0.012 A 
ATOM     26  C   UNL A   1      38.078  23.068  25.589  1.00  0.00     0.065 A 
ENDBRANCH   8  22
ENDBRANCH   3   5
ENDBRANCH   2   3
ENDBRANCH   1   2
BRANCH   1  27
ATOM     27  C   UNL A   1      33.383  28.404  26.312  1.00  0.00     0.275 C 
BRANCH  27  28
ATOM     28  O   UNL A   1      34.057  28.542  27.578  1.00  0.00    -0.458 OA
BRANCH  28  29
ATOM     29  C   UNL A   1      34.549  29.780  27.826  1.00  0.00     0.338 C 
ATOM     30  O   UNL A   1      33.921  30.827  27.847  1.00  0.00    -0.246 OA
BRANCH  29  31
ATOM     31  C   UNL A   1      35.963  29.692  28.220  1.00  0.00     0.060 A 
ATOM     32  C   UNL A   1      36.911  29.908  27.224  1.00  0.00     0.016 A 
ATOM     33  C   UNL A   1      36.367  29.302  29.495  1.00  0.00     0.016 A 
ATOM     34  C   UNL A   1      38.264  29.717  27.471  1.00  0.00     0.010 A 
ATOM     35  C   UNL A   1      37.734  29.127  29.755  1.00  0.00     0.010 A 
ATOM     36  C   UNL A   1      38.691  29.318  28.740  1.00  0.00    -0.014 A 
BRANCH  36  37
ATOM     37  C   UNL A   1      40.136  29.061  28.964  1.00  0.00     0.031 A 
ATOM     38  C   UNL A   1      40.732  27.738  28.578  1.00  0.00     0.074 A 
ATOM     39  C   UNL A   1      40.920  30.036  29.462  1.00  0.00     0.049 A 
ATOM     40  N   UNL A   1      41.951  27.296  28.758  1.00  0.00    -0.248 NA
ATOM     41  C   UNL A   1      39.838  26.781  27.910  1.00  0.00     0.031 C 
ATOM     42  C   UNL A   1      40.465  31.381  29.822  1.00  0.00     0.029 A 
ATOM     43  N   UNL A   1      42.262  30.050  29.745  1.00  0.00    -0.354 N 
ATOM     44  C   UNL A   1      41.964  26.000  28.254  1.00  0.00     0.074 A 
ATOM     45  C   UNL A   1      40.625  25.722  27.776  1.00  0.00     0.031 C 
ATOM     46  C   UNL A   1      41.513  32.092  30.268  1.00  0.00     0.029 A 
ATOM     47  C   UNL A   1      42.698  31.241  30.276  1.00  0.00     0.049 A 
ATOM     48  H   UNL A   1      42.855  29.282  29.584  1.00  0.00     0.167 HD
ATOM     49  C   UNL A   1      42.996  25.125  28.197  1.00  0.00     0.037 A 
ATOM     50  C   UNL A   1      43.909  31.598  30.744  1.00  0.00     0.037 A 
ATOM     51  C   UNL A   1      44.332  25.425  28.646  1.00  0.00     0.049 A 
ATOM     52  C   UNL A   1      45.035  30.603  30.700  1.00  0.00     0.074 A 
ATOM     53  C   UNL A   1      45.454  24.613  28.618  1.00  0.00     0.029 A 
ATOM     54  N   UNL A   1      44.730  26.634  29.201  1.00  0.00    -0.354 N 
ATOM     55  N   UNL A   1      45.027  29.373  30.245  1.00  0.00    -0.248 NA
ATOM     56  C   UNL A   1      46.329  31.039  31.238  1.00  0.00     0.031 C 
ATOM     57  C   UNL A   1      46.519  25.318  29.193  1.00  0.00     0.029 A 
ATOM     58  C   UNL A   1      46.072  26.583  29.541  1.00  0.00     0.049 A 
ATOM     59  H   UNL A   1      44.144  27.414  29.333  1.00  0.00     0.167 HD
ATOM     60  C   UNL A   1      46.316  28.889  30.433  1.00  0.00     0.074 A 
ATOM     61  C   UNL A   1      47.082  29.966  31.029  1.00  0.00     0.031 C 
ATOM     62  C   UNL A   1      46.818  27.663  30.141  1.00  0.00     0.037 A 
BRANCH  49  63
ATOM     63  C   UNL A   1      42.703  23.746  27.675  1.00  0.00     0.058 A 
ATOM     64  C   UNL A   1      42.357  22.682  28.522  1.00  0.00     0.135 A 
ATOM     65  C   UNL A   1      42.778  23.484  26.297  1.00  0.00     0.135 A 
ATOM     66  F   UNL A   1      42.287  22.871  29.850  1.00  0.00    -0.206 F 
ATOM     67  C   UNL A   1      42.138  21.399  28.028  1.00  0.00     0.059 A 
ATOM     68  C   UNL A   1      42.539  22.215  25.778  1.00  0.00     0.059 A 
ATOM     69  F   UNL A   1      43.103  24.464  25.439  1.00  0.00    -0.206 F 
ATOM     70  C   UNL A   1      42.241  21.173  26.655  1.00  0.00     0.060 A 
BRANCH  70  71
ATOM     71  S   UNL A   1      41.995  19.498  26.027  1.00  0.00     0.124 S 
ATOM     72  O   UNL A   1      40.550  19.474  25.826  1.00  0.00    -0.237 OA
ATOM     73  O   UNL A   1      42.804  19.492  24.813  1.00  0.00    -0.237 OA
ATOM     74  O   UNL A   1      42.491  18.654  27.110  1.00  0.00    -0.744 OA
ENDBRANCH  70  71
ENDBRANCH  49  63
BRANCH  50  75
ATOM     75  C   UNL A   1      44.097  32.957  31.316  1.00  0.00     0.058 A 
ATOM     76  C   UNL A   1      44.378  34.058  30.494  1.00  0.00     0.135 A 
ATOM     77  C   UNL A   1      43.938  33.190  32.692  1.00  0.00     0.135 A 
ATOM     78  F   UNL A   1      44.550  33.884  29.176  1.00  0.00    -0.206 F 
ATOM     79  C   UNL A   1      44.486  35.343  31.015  1.00  0.00     0.059 A 
ATOM     80  C   UNL A   1      44.018  34.469  33.231  1.00  0.00     0.059 A 
ATOM     81  F   UNL A   1      43.657  32.169  33.517  1.00  0.00    -0.206 F 
ATOM     82  C   UNL A   1      44.295  35.540  32.385  1.00  0.00     0.060 A 
BRANCH  82  83
ATOM     83  S   UNL A   1      44.348  37.223  33.037  1.00  0.00     0.124 S 
ATOM     84  O   UNL A   1      44.392  38.012  31.812  1.00  0.00    -0.237 OA
ATOM     85  O   UNL A   1      43.105  37.299  33.800  1.00  0.00    -0.237 OA
ATOM     86  O   UNL A   1      45.568  37.234  33.840  1.00  0.00    -0.744 OA
ENDBRANCH  82  83
ENDBRANCH  50  75
BRANCH  62  87
ATOM     87  C   UNL A   1      48.269  27.425  30.450  1.00  0.00     0.058 A 
ATOM     88  C   UNL A   1      48.679  26.892  31.682  1.00  0.00     0.135 A 
ATOM     89  C   UNL A   1      49.257  27.689  29.487  1.00  0.00     0.135 A 
ATOM     90  F   UNL A   1      47.775  26.629  32.639  1.00  0.00    -0.206 F 
ATOM     91  C   UNL A   1      50.021  26.647  31.956  1.00  0.00     0.059 A 
ATOM     92  C   UNL A   1      50.602  27.431  29.732  1.00  0.00     0.059 A 
ATOM     93  F   UNL A   1      48.915  28.193  28.291  1.00  0.00    -0.206 F 
ATOM     94  C   UNL A   1      50.975  26.921  30.974  1.00  0.00     0.060 A 
BRANCH  94  95
ATOM     95  S   UNL A   1      52.711  26.572  31.330  1.00  0.00     0.124 S 
ATOM     96  O   UNL A   1      53.029  27.615  32.299  1.00  0.00    -0.237 OA
ATOM     97  O   UNL A   1      52.657  25.211  31.857  1.00  0.00    -0.237 OA
ATOM     98  O   UNL A   1      53.357  26.706  30.028  1.00  0.00    -0.744 OA
ENDBRANCH  94  95
ENDBRANCH  62  87
ENDBRANCH  36  37
ENDBRANCH  29  31
ENDBRANCH  28  29
ENDBRANCH  27  28
ENDBRANCH   1  27
TORSDOF 18
ENDMDL
MODEL 3
REMARK VINA RESULT:     -11.1      2.941      9.043
REMARK SMILES NS(=O)(=O)c1ccc(N2N=C(C(=O)OCCOC(=O)c3ccc(-c4c5nc(c(-c6c(F)cc(S(=O)(=O)[O-])cc6F)c6ccc([nH]6)c(-c6c(F)cc(S(=O)(=O)[O-])cc6F)c6nc(c(-c7c(F)cc(S(=O)(=O)[O-])cc7F)c7ccc4[nH]7)C=C6)C=C5)cc3)C[C@H]2c2cccs2)cc1
REMARK SMILES IDX 15 1 14 2 12 3 13 4 11 5 9 6 10 7 87 8 86 9 8 10 5 11 6 12
REMARK SMILES IDX 94 13 7 14 93 15 2 16 3 17 4 18 1 19 88 22 89 23 92 24 90 25
REMARK SMILES IDX 91 26 16 27 17 28 18 29 19 30 20 31 21 32 85 33 22 34 84 35
REMARK SMILES IDX 23 36 24 37 25 38 78 39 26 40 83 41 77 42 79 43 27 44 82 45
REMARK SMILES IDX 76 46 75 47 28 49 62 50 41 51 61 52 42 53 45 54 60 55 80 56
REMARK SMILES IDX 43 57 44 58 59 60 81 61 46 62 29 63 30 64 39 65 31 66 32 67
REMARK SMILES IDX 38 68 40 69 33 70 34 71 35 72 36 73 37 74 63 75 64 76 73 77
REMARK SMILES IDX 65 78 66 79 72 80 74 81 67 82 68 83 69 84 70 85 71 86 47 87
REMARK SMILES IDX 48 88 57 89 49 90 50 91 56 92 58 93 51 94 52 95 53 96 54 97
REMARK SMILES IDX 55 98
REMARK H PARENT 1 20 1 21 79 48 45 59
REMARK Flexibility Score: inf
ROOT
ATOM      1  C   UNL A   1      34.542  31.606  28.038  1.00  0.00     0.275 C 
ENDROOT
BRANCH   1   2
ATOM      2  O   UNL A   1      33.822  30.367  27.895  1.00  0.00    -0.458 OA
BRANCH   2   3
ATOM      3  C   UNL A   1      34.427  29.423  27.145  1.00  0.00     0.354 C 
ATOM      4  O   UNL A   1      35.596  29.371  26.817  1.00  0.00    -0.245 OA
BRANCH   3   5
ATOM      5  C   UNL A   1      33.444  28.329  26.813  1.00  0.00     0.148 C 
ATOM      6  N   UNL A   1      32.680  26.460  26.207  1.00  0.00    -0.256 N 
ATOM      7  N   UNL A   1      33.818  27.192  26.309  1.00  0.00    -0.169 NA
ATOM      8  C   UNL A   1      31.473  27.290  26.262  1.00  0.00     0.154 C 
ATOM      9  C   UNL A   1      31.984  28.458  27.127  1.00  0.00     0.099 C 
BRANCH   6  10
ATOM     10  C   UNL A   1      32.732  25.139  25.803  1.00  0.00     0.060 A 
ATOM     11  C   UNL A   1      32.887  22.457  24.977  1.00  0.00     0.082 A 
ATOM     12  C   UNL A   1      33.498  23.453  24.213  1.00  0.00     0.024 A 
ATOM     13  C   UNL A   1      32.168  22.790  26.126  1.00  0.00     0.024 A 
ATOM     14  C   UNL A   1      33.425  24.785  24.634  1.00  0.00     0.029 A 
ATOM     15  C   UNL A   1      32.086  24.127  26.524  1.00  0.00     0.029 A 
BRANCH  11  16
ATOM     16  S   UNL A   1      33.023  20.773  24.459  1.00  0.00     0.238 S 
ATOM     17  O   UNL A   1      34.404  20.371  24.627  1.00  0.00    -0.207 OA
ATOM     18  O   UNL A   1      32.303  20.599  23.226  1.00  0.00    -0.207 OA
BRANCH  16  19
ATOM     19  N   UNL A   1      32.155  19.914  25.616  1.00  0.00    -0.225 NA
ATOM     20  H   UNL A   1      31.157  19.984  25.414  1.00  0.00     0.137 HD
ATOM     21  H   UNL A   1      32.343  20.303  26.540  1.00  0.00     0.137 HD
ENDBRANCH  16  19
ENDBRANCH  11  16
ENDBRANCH   6  10
BRANCH   8  22
ATOM     22  C   UNL A   1      30.945  27.697  24.891  1.00  0.00     0.030 A 
ATOM     23  C   UNL A   1      31.081  28.940  24.292  1.00  0.00     0.017 A 
ATOM     24  S   UNL A   1      29.968  26.665  23.924  1.00  0.00    -0.147 S 
ATOM     25  C   UNL A   1      30.346  29.051  23.077  1.00  0.00     0.012 A 
ATOM     26  C   UNL A   1      29.702  27.879  22.757  1.00  0.00     0.065 A 
ENDBRANCH   8  22
ENDBRANCH   3   5
ENDBRANCH   2   3
ENDBRANCH   1   2
BRANCH   1  27
ATOM     27  C   UNL A   1      34.779  31.916  29.519  1.00  0.00     0.275 C 
BRANCH  27  28
ATOM     28  O   UNL A   1      36.181  31.877  29.853  1.00  0.00    -0.458 OA
BRANCH  28  29
ATOM     29  C   UNL A   1      36.570  30.775  30.539  1.00  0.00     0.338 C 
ATOM     30  O   UNL A   1      35.944  30.200  31.415  1.00  0.00    -0.246 OA
BRANCH  29  31
ATOM     31  C   UNL A   1      37.827  30.252  29.983  1.00  0.00     0.060 A 
ATOM     32  C   UNL A   1      38.814  29.881  30.892  1.00  0.00     0.016 A 
ATOM     33  C   UNL A   1      38.091  30.223  28.615  1.00  0.00     0.016 A 
ATOM     34  C   UNL A   1      40.077  29.500  30.460  1.00  0.00     0.010 A 
ATOM     35  C   UNL A   1      39.359  29.820  28.173  1.00  0.00     0.010 A 
ATOM     36  C   UNL A   1      40.366  29.471  29.093  1.00  0.00    -0.014 A 
BRANCH  36  37
ATOM     37  C   UNL A   1      41.742  29.121  28.658  1.00  0.00     0.031 A 
ATOM     38  C   UNL A   1      42.054  27.725  28.200  1.00  0.00     0.074 A 
ATOM     39  C   UNL A   1      42.695  30.072  28.623  1.00  0.00     0.049 A 
ATOM     40  N   UNL A   1      43.203  27.207  27.850  1.00  0.00    -0.248 NA
ATOM     41  C   UNL A   1      40.925  26.786  28.133  1.00  0.00     0.031 C 
ATOM     42  C   UNL A   1      42.497  31.476  28.991  1.00  0.00     0.029 A 
ATOM     43  N   UNL A   1      44.014  30.006  28.255  1.00  0.00    -0.354 N 
ATOM     44  C   UNL A   1      42.944  25.874  27.553  1.00  0.00     0.074 A 
ATOM     45  C   UNL A   1      41.530  25.661  27.778  1.00  0.00     0.031 C 
ATOM     46  C   UNL A   1      43.651  32.140  28.820  1.00  0.00     0.029 A 
ATOM     47  C   UNL A   1      44.681  31.202  28.383  1.00  0.00     0.049 A 
ATOM     48  H   UNL A   1      44.443  29.182  27.930  1.00  0.00     0.167 HD
ATOM     49  C   UNL A   1      43.807  24.918  27.131  1.00  0.00     0.037 A 
ATOM     50  C   UNL A   1      45.980  31.503  28.198  1.00  0.00     0.037 A 
ATOM     51  C   UNL A   1      45.207  25.151  26.879  1.00  0.00     0.049 A 
ATOM     52  C   UNL A   1      46.928  30.423  27.760  1.00  0.00     0.074 A 
ATOM     53  C   UNL A   1      46.164  24.254  26.435  1.00  0.00     0.029 A 
ATOM     54  N   UNL A   1      45.850  26.371  27.044  1.00  0.00    -0.354 N 
ATOM     55  N   UNL A   1      46.675  29.161  27.506  1.00  0.00    -0.248 NA
ATOM     56  C   UNL A   1      48.336  30.802  27.589  1.00  0.00     0.031 C 
ATOM     57  C   UNL A   1      47.393  24.921  26.370  1.00  0.00     0.029 A 
ATOM     58  C   UNL A   1      47.195  26.245  26.733  1.00  0.00     0.049 A 
ATOM     59  H   UNL A   1      45.415  27.203  27.337  1.00  0.00     0.167 HD
ATOM     60  C   UNL A   1      47.890  28.596  27.137  1.00  0.00     0.074 A 
ATOM     61  C   UNL A   1      48.874  29.658  27.184  1.00  0.00     0.031 C 
ATOM     62  C   UNL A   1      48.164  27.313  26.793  1.00  0.00     0.037 A 
BRANCH  49  63
ATOM     63  C   UNL A   1      43.266  23.525  26.967  1.00  0.00     0.058 A 
ATOM     64  C   UNL A   1      43.120  22.646  28.052  1.00  0.00     0.135 A 
ATOM     65  C   UNL A   1      42.894  23.060  25.696  1.00  0.00     0.135 A 
ATOM     66  F   UNL A   1      43.477  23.032  29.287  1.00  0.00    -0.206 F 
ATOM     67  C   UNL A   1      42.666  21.342  27.875  1.00  0.00     0.059 A 
ATOM     68  C   UNL A   1      42.413  21.768  25.499  1.00  0.00     0.059 A 
ATOM     69  F   UNL A   1      43.010  23.857  24.622  1.00  0.00    -0.206 F 
ATOM     70  C   UNL A   1      42.324  20.909  26.593  1.00  0.00     0.060 A 
BRANCH  70  71
ATOM     71  S   UNL A   1      41.773  19.204  26.369  1.00  0.00     0.124 S 
ATOM     72  O   UNL A   1      40.405  19.400  25.901  1.00  0.00    -0.237 OA
ATOM     73  O   UNL A   1      42.715  18.694  25.377  1.00  0.00    -0.237 OA
ATOM     74  O   UNL A   1      41.902  18.627  27.703  1.00  0.00    -0.744 OA
ENDBRANCH  70  71
ENDBRANCH  49  63
BRANCH  50  75
ATOM     75  C   UNL A   1      46.450  32.890  28.456  1.00  0.00     0.058 A 
ATOM     76  C   UNL A   1      46.940  33.268  29.713  1.00  0.00     0.135 A 
ATOM     77  C   UNL A   1      46.474  33.846  27.427  1.00  0.00     0.135 A 
ATOM     78  F   UNL A   1      46.928  32.393  30.730  1.00  0.00    -0.206 F 
ATOM     79  C   UNL A   1      47.446  34.544  29.941  1.00  0.00     0.059 A 
ATOM     80  C   UNL A   1      46.997  35.119  27.625  1.00  0.00     0.059 A 
ATOM     81  F   UNL A   1      46.025  33.527  26.203  1.00  0.00    -0.206 F 
ATOM     82  C   UNL A   1      47.479  35.461  28.887  1.00  0.00     0.060 A 
BRANCH  82  83
ATOM     83  S   UNL A   1      48.219  37.084  29.168  1.00  0.00     0.124 S 
ATOM     84  O   UNL A   1      47.078  37.846  29.661  1.00  0.00    -0.237 OA
ATOM     85  O   UNL A   1      49.258  36.784  30.150  1.00  0.00    -0.237 OA
ATOM     86  O   UNL A   1      48.709  37.463  27.845  1.00  0.00    -0.744 OA
ENDBRANCH  82  83
ENDBRANCH  50  75
BRANCH  62  87
ATOM     87  C   UNL A   1      49.585  26.989  26.428  1.00  0.00     0.058 A 
ATOM     88  C   UNL A   1      50.514  26.569  27.392  1.00  0.00     0.135 A 
ATOM     89  C   UNL A   1      50.011  27.056  25.091  1.00  0.00     0.135 A 
ATOM     90  F   UNL A   1      50.159  26.496  28.685  1.00  0.00    -0.206 F 
ATOM     91  C   UNL A   1      51.822  26.245  27.048  1.00  0.00     0.059 A 
ATOM     92  C   UNL A   1      51.308  26.715  24.720  1.00  0.00     0.059 A 
ATOM     93  F   UNL A   1      49.159  27.445  24.129  1.00  0.00    -0.206 F 
ATOM     94  C   UNL A   1      52.209  26.321  25.708  1.00  0.00     0.060 A 
BRANCH  94  95
ATOM     95  S   UNL A   1      53.902  25.869  25.268  1.00  0.00     0.124 S 
ATOM     96  O   UNL A   1      54.606  27.131  25.471  1.00  0.00    -0.237 OA
ATOM     97  O   UNL A   1      54.205  24.812  26.228  1.00  0.00    -0.237 OA
ATOM     98  O   UNL A   1      53.785  25.431  23.880  1.00  0.00    -0.744 OA
ENDBRANCH  94  95
ENDBRANCH  62  87
ENDBRANCH  36  37
ENDBRANCH  29  31
ENDBRANCH  28  29
ENDBRANCH  27  28
ENDBRANCH   1  27
TORSDOF 18
ENDMDL
