MODEL 1
REMARK VINA RESULT:     -10.9      0.000      0.000
REMARK SMILES N#Cc1ccc2c(c1)C=C(C(=O)OCCOC(=O)c1ccc(-c3c4nc(c(-c5c(F)cc(S(=O)(=O)[O-])cc5F)c5ccc([nH]5)c(-c5c(F)cc(S(=O)(=O)[O-])cc5F)c5nc(c(-c6c(F)cc(S(=O)(=O)[O-])cc6F)c6ccc3[nH]6)C=C5)C=C4)cc1)[C@@H](C(F)(F)F)O2
REMARK SMILES IDX 15 1 14 2 13 3 11 4 12 5 10 6 3 7 4 8 8 9 5 10 7 11 6 12
REMARK SMILES IDX 9 13 90 14 85 15 2 16 1 17 86 18 87 19 88 20 89 21 16 22
REMARK SMILES IDX 17 23 18 24 19 25 20 26 84 27 21 28 83 29 22 30 23 31 24 32
REMARK SMILES IDX 77 33 25 34 82 35 76 36 78 37 26 38 81 39 75 40 74 41 27 43
REMARK SMILES IDX 61 44 40 45 60 46 41 47 44 48 59 49 79 50 42 51 43 52 58 54
REMARK SMILES IDX 80 55 45 56 28 57 29 58 38 59 30 60 31 61 37 62 39 63 32 64
REMARK SMILES IDX 33 65 34 66 35 67 36 68 62 69 63 70 72 71 64 72 65 73 71 74
REMARK SMILES IDX 73 75 66 76 67 77 68 78 69 79 70 80 46 81 47 82 56 83 48 84
REMARK SMILES IDX 49 85 55 86 57 87 50 88 51 89 52 90 53 91 54 92
REMARK H PARENT 78 42 44 53
REMARK Flexibility Score: inf
ROOT
ATOM      1  C   UNL A   1      32.780  28.553  27.287  1.00  0.00     0.275 C 
ENDROOT
BRANCH   1   2
ATOM      2  C   UNL A   1      32.127  28.845  25.933  1.00  0.00     0.275 C 
BRANCH   2   3
ATOM      3  O   UNL A   1      32.621  27.962  24.899  1.00  0.00    -0.459 OA
BRANCH   3   4
ATOM      4  C   UNL A   1      31.939  26.802  24.746  1.00  0.00     0.338 C 
ATOM      5  O   UNL A   1      30.739  26.644  24.897  1.00  0.00    -0.246 OA
BRANCH   4   6
ATOM      6  C   UNL A   1      32.844  25.702  24.346  1.00  0.00     0.087 C 
ATOM      7  C   UNL A   1      36.942  23.276  25.097  1.00  0.00     0.053 A 
ATOM      8  C   UNL A   1      36.817  22.685  23.835  1.00  0.00     0.023 A 
ATOM      9  C   UNL A   1      35.944  24.139  25.548  1.00  0.00     0.031 A 
ATOM     10  C   UNL A   1      35.698  22.952  23.036  1.00  0.00     0.048 A 
ATOM     11  C   UNL A   1      34.840  24.422  24.730  1.00  0.00     0.019 A 
ATOM     12  C   UNL A   1      34.709  23.827  23.480  1.00  0.00     0.128 A 
ATOM     13  C   UNL A   1      33.851  25.382  25.164  1.00  0.00     0.027 C 
ATOM     14  O   UNL A   1      33.646  24.046  22.649  1.00  0.00    -0.475 OA
ATOM     15  C   UNL A   1      32.696  25.106  22.977  1.00  0.00     0.316 C 
BRANCH   7  16
ATOM     16  C   UNL A   1      38.094  23.018  25.909  1.00  0.00     0.099 C 
ATOM     17  N   UNL A   1      39.040  22.820  26.553  1.00  0.00    -0.192 NA
ENDBRANCH   7  16
BRANCH  15  18
ATOM     18  C   UNL A   1      32.778  26.197  21.898  1.00  0.00     0.430 C 
ATOM     19  F   UNL A   1      33.808  27.046  22.132  1.00  0.00    -0.167 F 
ATOM     20  F   UNL A   1      32.990  25.672  20.666  1.00  0.00    -0.167 F 
ATOM     21  F   UNL A   1      31.650  26.939  21.833  1.00  0.00    -0.167 F 
ENDBRANCH  15  18
ENDBRANCH   4   6
ENDBRANCH   3   4
ENDBRANCH   2   3
ENDBRANCH   1   2
BRANCH   1  22
ATOM     22  O   UNL A   1      34.198  28.786  27.245  1.00  0.00    -0.458 OA
BRANCH  22  23
ATOM     23  C   UNL A   1      34.592  29.958  27.787  1.00  0.00     0.338 C 
ATOM     24  O   UNL A   1      33.903  30.937  28.019  1.00  0.00    -0.246 OA
BRANCH  23  25
ATOM     25  C   UNL A   1      35.987  29.853  28.226  1.00  0.00     0.060 A 
ATOM     26  C   UNL A   1      36.338  29.358  29.472  1.00  0.00     0.016 A 
ATOM     27  C   UNL A   1      36.968  30.104  27.279  1.00  0.00     0.016 A 
ATOM     28  C   UNL A   1      37.693  29.136  29.748  1.00  0.00     0.010 A 
ATOM     29  C   UNL A   1      38.274  29.685  27.478  1.00  0.00     0.010 A 
ATOM     30  C   UNL A   1      38.675  29.256  28.740  1.00  0.00    -0.014 A 
BRANCH  30  31
ATOM     31  C   UNL A   1      40.115  28.974  29.000  1.00  0.00     0.031 A 
ATOM     32  C   UNL A   1      40.720  27.631  28.647  1.00  0.00     0.074 A 
ATOM     33  C   UNL A   1      40.879  29.927  29.573  1.00  0.00     0.049 A 
ATOM     34  N   UNL A   1      41.964  27.235  28.756  1.00  0.00    -0.248 NA
ATOM     35  C   UNL A   1      39.816  26.578  28.147  1.00  0.00     0.031 C 
ATOM     36  C   UNL A   1      40.394  31.222  30.056  1.00  0.00     0.029 A 
ATOM     37  N   UNL A   1      42.228  29.969  29.821  1.00  0.00    -0.354 N 
ATOM     38  C   UNL A   1      41.979  25.904  28.348  1.00  0.00     0.074 A 
ATOM     39  C   UNL A   1      40.613  25.523  28.090  1.00  0.00     0.031 C 
ATOM     40  C   UNL A   1      41.438  31.967  30.448  1.00  0.00     0.029 A 
ATOM     41  C   UNL A   1      42.660  31.183  30.304  1.00  0.00     0.049 A 
ATOM     42  H   UNL A   1      42.829  29.205  29.670  1.00  0.00     0.167 HD
ATOM     43  C   UNL A   1      43.038  25.085  28.146  1.00  0.00     0.037 A 
ATOM     44  C   UNL A   1      43.902  31.624  30.585  1.00  0.00     0.037 A 
ATOM     45  C   UNL A   1      44.401  25.484  28.362  1.00  0.00     0.049 A 
ATOM     46  C   UNL A   1      45.067  30.703  30.348  1.00  0.00     0.074 A 
ATOM     47  C   UNL A   1      45.556  24.760  28.130  1.00  0.00     0.029 A 
ATOM     48  N   UNL A   1      44.793  26.718  28.862  1.00  0.00    -0.354 N 
ATOM     49  N   UNL A   1      45.065  29.479  29.872  1.00  0.00    -0.248 NA
ATOM     50  C   UNL A   1      46.399  31.218  30.683  1.00  0.00     0.031 C 
ATOM     51  C   UNL A   1      46.643  25.534  28.543  1.00  0.00     0.029 A 
ATOM     52  C   UNL A   1      46.171  26.766  28.972  1.00  0.00     0.049 A 
ATOM     53  H   UNL A   1      44.181  27.451  29.102  1.00  0.00     0.167 HD
ATOM     54  C   UNL A   1      46.397  29.084  29.836  1.00  0.00     0.074 A 
ATOM     55  C   UNL A   1      47.176  30.209  30.314  1.00  0.00     0.031 C 
ATOM     56  C   UNL A   1      46.927  27.897  29.450  1.00  0.00     0.037 A 
BRANCH  43  57
ATOM     57  C   UNL A   1      42.769  23.693  27.629  1.00  0.00     0.058 A 
ATOM     58  C   UNL A   1      42.732  23.411  26.253  1.00  0.00     0.135 A 
ATOM     59  C   UNL A   1      42.597  22.617  28.517  1.00  0.00     0.135 A 
ATOM     60  F   UNL A   1      42.875  24.399  25.356  1.00  0.00    -0.206 F 
ATOM     61  C   UNL A   1      42.503  22.125  25.775  1.00  0.00     0.059 A 
ATOM     62  C   UNL A   1      42.403  21.314  28.061  1.00  0.00     0.059 A 
ATOM     63  F   UNL A   1      42.622  22.823  29.843  1.00  0.00    -0.206 F 
ATOM     64  C   UNL A   1      42.346  21.081  26.688  1.00  0.00     0.060 A 
BRANCH  64  65
ATOM     65  S   UNL A   1      42.071  19.417  26.045  1.00  0.00     0.124 S 
ATOM     66  O   UNL A   1      42.536  18.592  27.157  1.00  0.00    -0.237 OA
ATOM     67  O   UNL A   1      40.630  19.410  25.813  1.00  0.00    -0.237 OA
ATOM     68  O   UNL A   1      42.898  19.373  24.844  1.00  0.00    -0.744 OA
ENDBRANCH  64  65
ENDBRANCH  43  57
BRANCH  44  69
ATOM     69  C   UNL A   1      44.098  33.019  31.067  1.00  0.00     0.058 A 
ATOM     70  C   UNL A   1      44.162  33.306  32.438  1.00  0.00     0.135 A 
ATOM     71  C   UNL A   1      44.282  34.083  30.170  1.00  0.00     0.135 A 
ATOM     72  F   UNL A   1      43.991  32.326  33.339  1.00  0.00    -0.206 F 
ATOM     73  C   UNL A   1      44.396  34.596  32.904  1.00  0.00     0.059 A 
ATOM     74  C   UNL A   1      44.547  35.376  30.610  1.00  0.00     0.059 A 
ATOM     75  F   UNL A   1      44.250  33.860  28.847  1.00  0.00    -0.206 F 
ATOM     76  C   UNL A   1      44.598  35.623  31.981  1.00  0.00     0.060 A 
BRANCH  76  77
ATOM     77  S   UNL A   1      44.966  37.280  32.600  1.00  0.00     0.124 S 
ATOM     78  O   UNL A   1      45.505  37.928  31.410  1.00  0.00    -0.237 OA
ATOM     79  O   UNL A   1      43.651  37.737  33.037  1.00  0.00    -0.237 OA
ATOM     80  O   UNL A   1      45.926  37.034  33.673  1.00  0.00    -0.744 OA
ENDBRANCH  76  77
ENDBRANCH  44  69
BRANCH  56  81
ATOM     81  C   UNL A   1      48.422  27.746  29.516  1.00  0.00     0.058 A 
ATOM     82  C   UNL A   1      49.244  28.110  28.440  1.00  0.00     0.135 A 
ATOM     83  C   UNL A   1      49.042  27.313  30.700  1.00  0.00     0.135 A 
ATOM     84  F   UNL A   1      48.702  28.527  27.284  1.00  0.00    -0.206 F 
ATOM     85  C   UNL A   1      50.629  28.029  28.526  1.00  0.00     0.059 A 
ATOM     86  C   UNL A   1      50.427  27.259  30.820  1.00  0.00     0.059 A 
ATOM     87  F   UNL A   1      48.301  26.966  31.766  1.00  0.00    -0.206 F 
ATOM     88  C   UNL A   1      51.211  27.610  29.724  1.00  0.00     0.060 A 
BRANCH  88  89
ATOM     89  S   UNL A   1      53.011  27.551  29.829  1.00  0.00     0.124 S 
ATOM     90  O   UNL A   1      53.320  26.422  28.957  1.00  0.00    -0.237 OA
ATOM     91  O   UNL A   1      53.393  28.866  29.323  1.00  0.00    -0.237 OA
ATOM     92  O   UNL A   1      53.263  27.333  31.249  1.00  0.00    -0.744 OA
ENDBRANCH  88  89
ENDBRANCH  56  81
ENDBRANCH  30  31
ENDBRANCH  23  25
ENDBRANCH  22  23
ENDBRANCH   1  22
TORSDOF 16
ENDMDL
MODEL 2
REMARK VINA RESULT:     -10.9      5.621     10.150
REMARK SMILES N#Cc1ccc2c(c1)C=C(C(=O)OCCOC(=O)c1ccc(-c3c4nc(c(-c5c(F)cc(S(=O)(=O)[O-])cc5F)c5ccc([nH]5)c(-c5c(F)cc(S(=O)(=O)[O-])cc5F)c5nc(c(-c6c(F)cc(S(=O)(=O)[O-])cc6F)c6ccc3[nH]6)C=C5)C=C4)cc1)[C@@H](C(F)(F)F)O2
REMARK SMILES IDX 15 1 14 2 13 3 11 4 12 5 10 6 3 7 4 8 8 9 5 10 7 11 6 12
REMARK SMILES IDX 9 13 90 14 85 15 2 16 1 17 86 18 87 19 88 20 89 21 16 22
REMARK SMILES IDX 17 23 18 24 19 25 20 26 84 27 21 28 83 29 22 30 23 31 24 32
REMARK SMILES IDX 77 33 25 34 82 35 76 36 78 37 26 38 81 39 75 40 74 41 27 43
REMARK SMILES IDX 61 44 40 45 60 46 41 47 44 48 59 49 79 50 42 51 43 52 58 54
REMARK SMILES IDX 80 55 45 56 28 57 29 58 38 59 30 60 31 61 37 62 39 63 32 64
REMARK SMILES IDX 33 65 34 66 35 67 36 68 62 69 63 70 72 71 64 72 65 73 71 74
REMARK SMILES IDX 73 75 66 76 67 77 68 78 69 79 70 80 46 81 47 82 56 83 48 84
REMARK SMILES IDX 49 85 55 86 57 87 50 88 51 89 52 90 53 91 54 92
REMARK H PARENT 78 42 44 53
REMARK Flexibility Score: inf
ROOT
ATOM      1  C   UNL A   1      39.689  22.954  26.501  1.00  0.00     0.275 C 
ENDROOT
BRANCH   1   2
ATOM      2  C   UNL A   1      38.492  22.265  25.841  1.00  0.00     0.275 C 
BRANCH   2   3
ATOM      3  O   UNL A   1      37.443  23.208  25.518  1.00  0.00    -0.459 OA
BRANCH   3   4
ATOM      4  C   UNL A   1      36.672  22.882  24.454  1.00  0.00     0.338 C 
ATOM      5  O   UNL A   1      37.040  22.306  23.444  1.00  0.00    -0.246 OA
BRANCH   4   6
ATOM      6  C   UNL A   1      35.270  23.307  24.663  1.00  0.00     0.087 C 
ATOM      7  C   UNL A   1      32.189  26.611  26.347  1.00  0.00     0.053 A 
ATOM      8  C   UNL A   1      31.149  25.680  26.256  1.00  0.00     0.023 A 
ATOM      9  C   UNL A   1      33.466  26.252  25.918  1.00  0.00     0.031 A 
ATOM     10  C   UNL A   1      31.387  24.401  25.735  1.00  0.00     0.048 A 
ATOM     11  C   UNL A   1      33.702  24.960  25.424  1.00  0.00     0.019 A 
ATOM     12  C   UNL A   1      32.667  24.036  25.323  1.00  0.00     0.128 A 
ATOM     13  C   UNL A   1      35.043  24.563  25.062  1.00  0.00     0.027 C 
ATOM     14  O   UNL A   1      32.831  22.773  24.829  1.00  0.00    -0.475 OA
ATOM     15  C   UNL A   1      34.183  22.278  24.581  1.00  0.00     0.316 C 
BRANCH   7  16
ATOM     16  C   UNL A   1      31.951  27.914  26.895  1.00  0.00     0.099 C 
ATOM     17  N   UNL A   1      31.778  28.975  27.333  1.00  0.00    -0.192 NA
ENDBRANCH   7  16
BRANCH  15  18
ATOM     18  C   UNL A   1      34.466  21.110  25.539  1.00  0.00     0.430 C 
ATOM     19  F   UNL A   1      35.253  20.174  24.955  1.00  0.00    -0.167 F 
ATOM     20  F   UNL A   1      35.122  21.518  26.652  1.00  0.00    -0.167 F 
ATOM     21  F   UNL A   1      33.333  20.491  25.940  1.00  0.00    -0.167 F 
ENDBRANCH  15  18
ENDBRANCH   4   6
ENDBRANCH   3   4
ENDBRANCH   2   3
ENDBRANCH   1   2
BRANCH   1  22
ATOM     22  O   UNL A   1      39.537  24.384  26.497  1.00  0.00    -0.458 OA
BRANCH  22  23
ATOM     23  C   UNL A   1      40.698  25.074  26.533  1.00  0.00     0.338 C 
ATOM     24  O   UNL A   1      41.549  25.138  25.662  1.00  0.00    -0.246 OA
BRANCH  23  25
ATOM     25  C   UNL A   1      40.742  25.900  27.742  1.00  0.00     0.060 A 
ATOM     26  C   UNL A   1      41.635  26.950  27.892  1.00  0.00     0.016 A 
ATOM     27  C   UNL A   1      39.734  25.710  28.676  1.00  0.00     0.016 A 
ATOM     28  C   UNL A   1      41.500  27.791  29.004  1.00  0.00     0.010 A 
ATOM     29  C   UNL A   1      39.475  26.661  29.649  1.00  0.00     0.010 A 
ATOM     30  C   UNL A   1      40.393  27.684  29.873  1.00  0.00    -0.014 A 
BRANCH  30  31
ATOM     31  C   UNL A   1      40.205  28.602  31.032  1.00  0.00     0.031 A 
ATOM     32  C   UNL A   1      41.089  28.496  32.259  1.00  0.00     0.074 A 
ATOM     33  C   UNL A   1      39.224  29.527  30.989  1.00  0.00     0.049 A 
ATOM     34  N   UNL A   1      41.099  29.245  33.333  1.00  0.00    -0.248 NA
ATOM     35  C   UNL A   1      42.059  27.386  32.315  1.00  0.00     0.031 C 
ATOM     36  C   UNL A   1      38.240  29.664  29.912  1.00  0.00     0.029 A 
ATOM     37  N   UNL A   1      38.907  30.544  31.853  1.00  0.00    -0.354 N 
ATOM     38  C   UNL A   1      42.060  28.693  34.176  1.00  0.00     0.074 A 
ATOM     39  C   UNL A   1      42.537  27.488  33.544  1.00  0.00     0.031 C 
ATOM     40  C   UNL A   1      37.497  30.759  30.129  1.00  0.00     0.029 A 
ATOM     41  C   UNL A   1      37.908  31.368  31.389  1.00  0.00     0.049 A 
ATOM     42  H   UNL A   1      39.351  30.672  32.722  1.00  0.00     0.167 HD
ATOM     43  C   UNL A   1      42.548  29.172  35.344  1.00  0.00     0.037 A 
ATOM     44  C   UNL A   1      37.390  32.497  31.910  1.00  0.00     0.037 A 
ATOM     45  C   UNL A   1      42.099  30.396  35.947  1.00  0.00     0.049 A 
ATOM     46  C   UNL A   1      37.948  33.019  33.205  1.00  0.00     0.074 A 
ATOM     47  C   UNL A   1      42.565  31.011  37.095  1.00  0.00     0.029 A 
ATOM     48  N   UNL A   1      41.077  31.193  35.450  1.00  0.00    -0.354 N 
ATOM     49  N   UNL A   1      38.922  32.530  33.938  1.00  0.00    -0.248 NA
ATOM     50  C   UNL A   1      37.343  34.242  33.745  1.00  0.00     0.031 C 
ATOM     51  C   UNL A   1      41.788  32.149  37.324  1.00  0.00     0.029 A 
ATOM     52  C   UNL A   1      40.879  32.280  36.283  1.00  0.00     0.049 A 
ATOM     53  H   UNL A   1      40.568  31.013  34.627  1.00  0.00     0.167 HD
ATOM     54  C   UNL A   1      39.055  33.396  35.017  1.00  0.00     0.074 A 
ATOM     55  C   UNL A   1      38.080  34.451  34.826  1.00  0.00     0.031 C 
ATOM     56  C   UNL A   1      39.902  33.320  36.073  1.00  0.00     0.037 A 
BRANCH  43  57
ATOM     57  C   UNL A   1      43.648  28.396  36.025  1.00  0.00     0.058 A 
ATOM     58  C   UNL A   1      45.003  28.720  35.839  1.00  0.00     0.135 A 
ATOM     59  C   UNL A   1      43.347  27.349  36.912  1.00  0.00     0.135 A 
ATOM     60  F   UNL A   1      45.354  29.701  34.993  1.00  0.00    -0.206 F 
ATOM     61  C   UNL A   1      46.018  28.018  36.481  1.00  0.00     0.059 A 
ATOM     62  C   UNL A   1      44.345  26.655  37.594  1.00  0.00     0.059 A 
ATOM     63  F   UNL A   1      42.071  26.993  37.130  1.00  0.00    -0.206 F 
ATOM     64  C   UNL A   1      45.678  26.990  37.362  1.00  0.00     0.060 A 
BRANCH  64  65
ATOM     65  S   UNL A   1      47.011  26.106  38.199  1.00  0.00     0.124 S 
ATOM     66  O   UNL A   1      46.748  24.728  37.795  1.00  0.00    -0.237 OA
ATOM     67  O   UNL A   1      48.201  26.719  37.617  1.00  0.00    -0.237 OA
ATOM     68  O   UNL A   1      46.783  26.399  39.610  1.00  0.00    -0.744 OA
ENDBRANCH  64  65
ENDBRANCH  43  57
BRANCH  44  69
ATOM     69  C   UNL A   1      36.323  33.228  31.172  1.00  0.00     0.058 A 
ATOM     70  C   UNL A   1      35.010  33.279  31.664  1.00  0.00     0.135 A 
ATOM     71  C   UNL A   1      36.603  33.937  29.993  1.00  0.00     0.135 A 
ATOM     72  F   UNL A   1      34.687  32.617  32.787  1.00  0.00    -0.206 F 
ATOM     73  C   UNL A   1      34.013  34.000  31.014  1.00  0.00     0.059 A 
ATOM     74  C   UNL A   1      35.632  34.690  29.341  1.00  0.00     0.059 A 
ATOM     75  F   UNL A   1      37.847  33.938  29.490  1.00  0.00    -0.206 F 
ATOM     76  C   UNL A   1      34.337  34.711  29.857  1.00  0.00     0.060 A 
BRANCH  76  77
ATOM     77  S   UNL A   1      33.049  35.696  29.061  1.00  0.00     0.124 S 
ATOM     78  O   UNL A   1      32.280  36.162  30.210  1.00  0.00    -0.237 OA
ATOM     79  O   UNL A   1      33.834  36.710  28.363  1.00  0.00    -0.237 OA
ATOM     80  O   UNL A   1      32.373  34.732  28.199  1.00  0.00    -0.744 OA
ENDBRANCH  76  77
ENDBRANCH  44  69
BRANCH  56  81
ATOM     81  C   UNL A   1      39.827  34.410  37.107  1.00  0.00     0.058 A 
ATOM     82  C   UNL A   1      40.469  35.643  36.921  1.00  0.00     0.135 A 
ATOM     83  C   UNL A   1      39.034  34.249  38.255  1.00  0.00     0.135 A 
ATOM     84  F   UNL A   1      41.242  35.848  35.842  1.00  0.00    -0.206 F 
ATOM     85  C   UNL A   1      40.346  36.672  37.847  1.00  0.00     0.059 A 
ATOM     86  C   UNL A   1      38.868  35.277  39.178  1.00  0.00     0.059 A 
ATOM     87  F   UNL A   1      38.386  33.093  38.475  1.00  0.00    -0.206 F 
ATOM     88  C   UNL A   1      39.535  36.481  38.968  1.00  0.00     0.060 A 
BRANCH  88  89
ATOM     89  S   UNL A   1      39.356  37.842  40.139  1.00  0.00     0.124 S 
ATOM     90  O   UNL A   1      40.658  38.494  40.035  1.00  0.00    -0.237 OA
ATOM     91  O   UNL A   1      38.229  38.584  39.579  1.00  0.00    -0.237 OA
ATOM     92  O   UNL A   1      39.091  37.171  41.407  1.00  0.00    -0.744 OA
ENDBRANCH  88  89
ENDBRANCH  56  81
ENDBRANCH  30  31
ENDBRANCH  23  25
ENDBRANCH  22  23
ENDBRANCH   1  22
TORSDOF 16
ENDMDL
MODEL 3
REMARK VINA RESULT:     -10.7      3.761      9.377
REMARK SMILES N#Cc1ccc2c(c1)C=C(C(=O)OCCOC(=O)c1ccc(-c3c4nc(c(-c5c(F)cc(S(=O)(=O)[O-])cc5F)c5ccc([nH]5)c(-c5c(F)cc(S(=O)(=O)[O-])cc5F)c5nc(c(-c6c(F)cc(S(=O)(=O)[O-])cc6F)c6ccc3[nH]6)C=C5)C=C4)cc1)[C@@H](C(F)(F)F)O2
REMARK SMILES IDX 15 1 14 2 13 3 11 4 12 5 10 6 3 7 4 8 8 9 5 10 7 11 6 12
REMARK SMILES IDX 9 13 90 14 85 15 2 16 1 17 86 18 87 19 88 20 89 21 16 22
REMARK SMILES IDX 17 23 18 24 19 25 20 26 84 27 21 28 83 29 22 30 23 31 24 32
REMARK SMILES IDX 77 33 25 34 82 35 76 36 78 37 26 38 81 39 75 40 74 41 27 43
REMARK SMILES IDX 61 44 40 45 60 46 41 47 44 48 59 49 79 50 42 51 43 52 58 54
REMARK SMILES IDX 80 55 45 56 28 57 29 58 38 59 30 60 31 61 37 62 39 63 32 64
REMARK SMILES IDX 33 65 34 66 35 67 36 68 62 69 63 70 72 71 64 72 65 73 71 74
REMARK SMILES IDX 73 75 66 76 67 77 68 78 69 79 70 80 46 81 47 82 56 83 48 84
REMARK SMILES IDX 49 85 55 86 57 87 50 88 51 89 52 90 53 91 54 92
REMARK H PARENT 78 42 44 53
REMARK Flexibility Score: inf
ROOT
ATOM      1  C   UNL A   1      37.097  23.198  24.285  1.00  0.00     0.275 C 
ENDROOT
BRANCH   1   2
ATOM      2  C   UNL A   1      35.915  22.255  24.528  1.00  0.00     0.275 C 
BRANCH   2   3
ATOM      3  O   UNL A   1      34.848  22.910  25.254  1.00  0.00    -0.459 OA
BRANCH   3   4
ATOM      4  C   UNL A   1      33.740  23.198  24.530  1.00  0.00     0.338 C 
ATOM      5  O   UNL A   1      33.319  22.570  23.573  1.00  0.00    -0.246 OA
BRANCH   4   6
ATOM      6  C   UNL A   1      33.059  24.400  25.058  1.00  0.00     0.087 C 
ATOM      7  C   UNL A   1      33.406  28.840  26.905  1.00  0.00     0.053 A 
ATOM      8  C   UNL A   1      32.068  28.771  27.307  1.00  0.00     0.023 A 
ATOM      9  C   UNL A   1      33.961  27.775  26.197  1.00  0.00     0.031 A 
ATOM     10  C   UNL A   1      31.291  27.647  26.997  1.00  0.00     0.048 A 
ATOM     11  C   UNL A   1      33.185  26.641  25.914  1.00  0.00     0.019 A 
ATOM     12  C   UNL A   1      31.851  26.576  26.303  1.00  0.00     0.128 A 
ATOM     13  C   UNL A   1      33.786  25.504  25.256  1.00  0.00     0.027 C 
ATOM     14  O   UNL A   1      31.039  25.509  26.036  1.00  0.00    -0.475 OA
ATOM     15  C   UNL A   1      31.630  24.285  25.501  1.00  0.00     0.316 C 
BRANCH   7  16
ATOM     16  C   UNL A   1      34.207  29.981  27.237  1.00  0.00     0.099 C 
ATOM     17  N   UNL A   1      34.846  30.907  27.525  1.00  0.00    -0.192 NA
ENDBRANCH   7  16
BRANCH  15  18
ATOM     18  C   UNL A   1      31.471  23.163  26.539  1.00  0.00     0.430 C 
ATOM     19  F   UNL A   1      31.459  21.944  25.948  1.00  0.00    -0.167 F 
ATOM     20  F   UNL A   1      32.497  23.147  27.425  1.00  0.00    -0.167 F 
ATOM     21  F   UNL A   1      30.326  23.280  27.247  1.00  0.00    -0.167 F 
ENDBRANCH  15  18
ENDBRANCH   4   6
ENDBRANCH   3   4
ENDBRANCH   2   3
ENDBRANCH   1   2
BRANCH   1  22
ATOM     22  O   UNL A   1      37.486  23.870  25.494  1.00  0.00    -0.458 OA
BRANCH  22  23
ATOM     23  C   UNL A   1      38.578  23.353  26.099  1.00  0.00     0.338 C 
ATOM     24  O   UNL A   1      39.046  22.236  25.955  1.00  0.00    -0.246 OA
BRANCH  23  25
ATOM     25  C   UNL A   1      39.254  24.399  26.872  1.00  0.00     0.060 A 
ATOM     26  C   UNL A   1      39.980  25.416  26.271  1.00  0.00     0.016 A 
ATOM     27  C   UNL A   1      38.998  24.443  28.235  1.00  0.00     0.016 A 
ATOM     28  C   UNL A   1      40.452  26.464  27.070  1.00  0.00     0.010 A 
ATOM     29  C   UNL A   1      39.281  25.578  28.976  1.00  0.00     0.010 A 
ATOM     30  C   UNL A   1      40.073  26.582  28.425  1.00  0.00    -0.014 A 
BRANCH  30  31
ATOM     31  C   UNL A   1      40.525  27.717  29.277  1.00  0.00     0.031 A 
ATOM     32  C   UNL A   1      39.653  28.942  29.466  1.00  0.00     0.074 A 
ATOM     33  C   UNL A   1      41.733  27.654  29.873  1.00  0.00     0.049 A 
ATOM     34  N   UNL A   1      39.866  29.997  30.213  1.00  0.00    -0.248 NA
ATOM     35  C   UNL A   1      38.401  29.022  28.689  1.00  0.00     0.031 C 
ATOM     36  C   UNL A   1      42.711  26.579  29.689  1.00  0.00     0.029 A 
ATOM     37  N   UNL A   1      42.337  28.493  30.775  1.00  0.00    -0.354 N 
ATOM     38  C   UNL A   1      38.788  30.850  29.987  1.00  0.00     0.074 A 
ATOM     39  C   UNL A   1      37.977  30.246  28.959  1.00  0.00     0.031 C 
ATOM     40  C   UNL A   1      43.742  26.771  30.524  1.00  0.00     0.029 A 
ATOM     41  C   UNL A   1      43.532  28.013  31.259  1.00  0.00     0.049 A 
ATOM     42  H   UNL A   1      41.952  29.357  31.050  1.00  0.00     0.167 HD
ATOM     43  C   UNL A   1      38.466  32.003  30.618  1.00  0.00     0.037 A 
ATOM     44  C   UNL A   1      44.359  28.507  32.200  1.00  0.00     0.037 A 
ATOM     45  C   UNL A   1      39.255  32.576  31.673  1.00  0.00     0.049 A 
ATOM     46  C   UNL A   1      43.982  29.786  32.896  1.00  0.00     0.074 A 
ATOM     47  C   UNL A   1      38.993  33.706  32.427  1.00  0.00     0.029 A 
ATOM     48  N   UNL A   1      40.463  32.063  32.123  1.00  0.00    -0.354 N 
ATOM     49  N   UNL A   1      42.911  30.527  32.732  1.00  0.00    -0.248 NA
ATOM     50  C   UNL A   1      44.920  30.296  33.902  1.00  0.00     0.031 C 
ATOM     51  C   UNL A   1      40.070  33.909  33.293  1.00  0.00     0.029 A 
ATOM     52  C   UNL A   1      40.973  32.869  33.126  1.00  0.00     0.049 A 
ATOM     53  H   UNL A   1      40.894  31.247  31.781  1.00  0.00     0.167 HD
ATOM     54  C   UNL A   1      43.039  31.583  33.626  1.00  0.00     0.074 A 
ATOM     55  C   UNL A   1      44.280  31.369  34.345  1.00  0.00     0.031 C 
ATOM     56  C   UNL A   1      42.211  32.637  33.830  1.00  0.00     0.037 A 
BRANCH  43  57
ATOM     57  C   UNL A   1      37.189  32.698  30.216  1.00  0.00     0.058 A 
ATOM     58  C   UNL A   1      37.150  33.606  29.143  1.00  0.00     0.135 A 
ATOM     59  C   UNL A   1      35.980  32.419  30.874  1.00  0.00     0.135 A 
ATOM     60  F   UNL A   1      38.276  33.925  28.485  1.00  0.00    -0.206 F 
ATOM     61  C   UNL A   1      35.970  34.234  28.758  1.00  0.00     0.059 A 
ATOM     62  C   UNL A   1      34.779  33.008  30.483  1.00  0.00     0.059 A 
ATOM     63  F   UNL A   1      35.953  31.561  31.906  1.00  0.00    -0.206 F 
ATOM     64  C   UNL A   1      34.787  33.923  29.431  1.00  0.00     0.060 A 
BRANCH  64  65
ATOM     65  S   UNL A   1      33.264  34.734  28.901  1.00  0.00     0.124 S 
ATOM     66  O   UNL A   1      33.783  35.936  28.254  1.00  0.00    -0.237 OA
ATOM     67  O   UNL A   1      32.678  33.740  28.009  1.00  0.00    -0.237 OA
ATOM     68  O   UNL A   1      32.542  34.958  30.149  1.00  0.00    -0.744 OA
ENDBRANCH  64  65
ENDBRANCH  43  57
BRANCH  44  69
ATOM     69  C   UNL A   1      45.591  27.755  32.568  1.00  0.00     0.058 A 
ATOM     70  C   UNL A   1      45.535  26.666  33.451  1.00  0.00     0.135 A 
ATOM     71  C   UNL A   1      46.837  28.071  32.004  1.00  0.00     0.135 A 
ATOM     72  F   UNL A   1      44.368  26.323  34.020  1.00  0.00    -0.206 F 
ATOM     73  C   UNL A   1      46.667  25.921  33.766  1.00  0.00     0.059 A 
ATOM     74  C   UNL A   1      47.978  27.324  32.279  1.00  0.00     0.059 A 
ATOM     75  F   UNL A   1      46.943  29.091  31.138  1.00  0.00    -0.206 F 
ATOM     76  C   UNL A   1      47.883  26.252  33.165  1.00  0.00     0.060 A 
BRANCH  76  77
ATOM     77  S   UNL A   1      49.330  25.236  33.532  1.00  0.00     0.124 S 
ATOM     78  O   UNL A   1      49.544  24.555  32.260  1.00  0.00    -0.237 OA
ATOM     79  O   UNL A   1      50.323  26.244  33.893  1.00  0.00    -0.237 OA
ATOM     80  O   UNL A   1      48.878  24.389  34.632  1.00  0.00    -0.744 OA
ENDBRANCH  76  77
ENDBRANCH  44  69
BRANCH  56  81
ATOM     81  C   UNL A   1      42.605  33.642  34.876  1.00  0.00     0.058 A 
ATOM     82  C   UNL A   1      43.370  34.773  34.555  1.00  0.00     0.135 A 
ATOM     83  C   UNL A   1      42.141  33.516  36.196  1.00  0.00     0.135 A 
ATOM     84  F   UNL A   1      43.841  34.941  33.309  1.00  0.00    -0.206 F 
ATOM     85  C   UNL A   1      43.679  35.734  35.511  1.00  0.00     0.059 A 
ATOM     86  C   UNL A   1      42.409  34.482  37.160  1.00  0.00     0.059 A 
ATOM     87  F   UNL A   1      41.393  32.458  36.553  1.00  0.00    -0.206 F 
ATOM     88  C   UNL A   1      43.186  35.583  36.809  1.00  0.00     0.060 A 
BRANCH  88  89
ATOM     89  S   UNL A   1      43.565  36.861  38.024  1.00  0.00     0.124 S 
ATOM     90  O   UNL A   1      43.883  37.999  37.167  1.00  0.00    -0.237 OA
ATOM     91  O   UNL A   1      42.313  36.960  38.769  1.00  0.00    -0.237 OA
ATOM     92  O   UNL A   1      44.690  36.304  38.768  1.00  0.00    -0.744 OA
ENDBRANCH  88  89
ENDBRANCH  56  81
ENDBRANCH  30  31
ENDBRANCH  23  25
ENDBRANCH  22  23
ENDBRANCH   1  22
TORSDOF 16
ENDMDL
