MODEL 1
REMARK VINA RESULT:     -10.6      0.000      0.000
REMARK SMILES Cc1ccc(S(=O)(=O)n2cc(C(=O)C(=O)NCC(=O)NCC(=O)OCCOC(=O)c3ccc(-c4c5nc(c(-c6c(F)cc(S(=O)(=O)[O-])cc6F)c6ccc([nH]6)c(-c6c(F)cc(S(=O)(=O)[O-])cc6F)c6nc(c(-c7c(F)cc(S(=O)(=O)[O-])cc7F)c7ccc4[nH]7)C=C6)C=C5)cc3)c3ccccc32)cc1
REMARK SMILES IDX 22 1 23 2 21 3 20 4 18 5 19 6 17 8 16 9 14 10 15 11 12 13
REMARK SMILES IDX 13 14 11 15 9 16 10 17 101 18 96 19 100 20 97 21 99 22 98 23
REMARK SMILES IDX 6 24 7 25 8 26 5 27 1 28 2 29 3 30 103 31 4 32 102 33 24 34
REMARK SMILES IDX 25 35 26 36 27 37 28 38 29 39 30 40 31 41 95 42 32 43 94 44
REMARK SMILES IDX 33 45 34 46 35 47 88 48 36 49 93 50 87 51 89 52 37 53 92 54
REMARK SMILES IDX 86 55 85 56 38 58 72 59 51 60 71 61 52 62 55 63 70 64 90 65
REMARK SMILES IDX 53 66 54 67 69 69 91 70 56 71 39 72 40 73 49 74 41 75 42 76
REMARK SMILES IDX 48 77 50 78 43 79 44 80 45 81 46 82 47 83 73 84 74 85 83 86
REMARK SMILES IDX 75 87 76 88 82 89 84 90 77 91 78 92 79 93 80 94 81 95 57 96
REMARK SMILES IDX 58 97 67 98 59 99 60 100 66 101 68 102 61 103 62 104 63 105
REMARK SMILES IDX 64 106 65 107
REMARK H PARENT 20 7 16 12 89 57 55 68
REMARK Flexibility Score: inf
ROOT
ATOM      1  C   UNL A   1      45.119  26.637  25.000  1.00  0.00     0.325 C 
ATOM      2  O   UNL A   1      45.889  25.628  25.008  1.00  0.00    -0.250 OA
ENDROOT
BRANCH   1   3
ATOM      3  C   UNL A   1      43.017  26.850  25.497  1.00  0.00     0.238 C 
BRANCH   3   4
ATOM      4  N   UNL A   1      42.020  26.209  26.646  1.00  0.00    -0.344 N 
ATOM      5  C   UNL A   1      41.122  26.680  27.538  1.00  0.00     0.239 C 
ATOM      6  O   UNL A   1      40.467  25.831  28.158  1.00  0.00    -0.273 OA
ATOM      7  H   UNL A   1      42.101  25.228  26.694  1.00  0.00     0.164 HD
BRANCH   5   8
ATOM      8  C   UNL A   1      40.772  28.146  27.704  1.00  0.00     0.216 C 
BRANCH   8   9
ATOM      9  N   UNL A   1      41.136  28.781  28.949  1.00  0.00    -0.340 N 
ATOM     10  C   UNL A   1      40.341  29.114  30.025  1.00  0.00     0.292 C 
ATOM     11  O   UNL A   1      40.895  29.251  31.109  1.00  0.00    -0.265 OA
ATOM     12  H   UNL A   1      42.089  29.007  29.043  1.00  0.00     0.164 HD
BRANCH  10  13
ATOM     13  C   UNL A   1      38.796  29.225  29.918  1.00  0.00     0.252 C 
ATOM     14  O   UNL A   1      38.176  28.181  30.108  1.00  0.00    -0.283 OA
BRANCH  13  15
ATOM     15  C   UNL A   1      38.050  30.508  29.791  1.00  0.00     0.054 A 
ATOM     16  N   UNL A   1      36.545  32.076  29.288  1.00  0.00    -0.240 N 
ATOM     17  C   UNL A   1      36.696  30.788  29.741  1.00  0.00     0.117 A 
ATOM     18  C   UNL A   1      37.673  32.790  29.554  1.00  0.00     0.065 A 
ATOM     19  C   UNL A   1      38.640  31.828  29.869  1.00  0.00     0.012 A 
ATOM     20  C   UNL A   1      37.922  34.166  29.546  1.00  0.00     0.028 A 
ATOM     21  C   UNL A   1      39.926  32.283  30.205  1.00  0.00     0.011 A 
ATOM     22  C   UNL A   1      39.193  34.582  29.926  1.00  0.00     0.002 A 
ATOM     23  C   UNL A   1      40.178  33.657  30.257  1.00  0.00     0.001 A 
BRANCH  16  24
ATOM     24  S   UNL A   1      35.115  32.713  28.649  1.00  0.00     0.268 S 
ATOM     25  O   UNL A   1      34.237  31.571  28.502  1.00  0.00    -0.201 OA
ATOM     26  O   UNL A   1      35.547  33.570  27.566  1.00  0.00    -0.201 OA
BRANCH  24  27
ATOM     27  C   UNL A   1      34.401  33.793  29.861  1.00  0.00     0.088 A 
ATOM     28  C   UNL A   1      32.897  36.831  32.509  1.00  0.00     0.044 C 
ATOM     29  C   UNL A   1      33.377  35.713  31.628  1.00  0.00    -0.051 A 
ATOM     30  C   UNL A   1      33.052  35.748  30.272  1.00  0.00     0.005 A 
ATOM     31  C   UNL A   1      34.182  34.672  32.101  1.00  0.00     0.005 A 
ATOM     32  C   UNL A   1      33.559  34.800  29.389  1.00  0.00     0.022 A 
ATOM     33  C   UNL A   1      34.700  33.710  31.221  1.00  0.00     0.022 A 
ENDBRANCH  24  27
ENDBRANCH  16  24
ENDBRANCH  13  15
ENDBRANCH  10  13
ENDBRANCH   8   9
ENDBRANCH   5   8
ENDBRANCH   3   4
ENDBRANCH   1   3
BRANCH   1  34
ATOM     34  O   UNL A   1      45.962  27.739  24.603  1.00  0.00    -0.461 OA
BRANCH  34  35
ATOM     35  C   UNL A   1      46.399  28.617  25.649  1.00  0.00     0.274 C 
BRANCH  35  36
ATOM     36  C   UNL A   1      47.774  28.136  26.127  1.00  0.00     0.275 C 
BRANCH  36  37
ATOM     37  O   UNL A   1      48.142  28.544  27.473  1.00  0.00    -0.458 OA
BRANCH  37  38
ATOM     38  C   UNL A   1      47.205  28.672  28.449  1.00  0.00     0.338 C 
ATOM     39  O   UNL A   1      46.847  29.716  28.963  1.00  0.00    -0.246 OA
BRANCH  38  40
ATOM     40  C   UNL A   1      46.726  27.369  28.932  1.00  0.00     0.060 A 
ATOM     41  C   UNL A   1      45.019  26.894  28.597  1.00  0.00     0.016 A 
ATOM     42  C   UNL A   1      47.606  26.657  30.336  1.00  0.00     0.016 A 
ATOM     43  C   UNL A   1      44.112  25.879  29.819  1.00  0.00     0.010 A 
ATOM     44  C   UNL A   1      46.704  25.665  31.541  1.00  0.00     0.010 A 
ATOM     45  C   UNL A   1      44.936  25.366  31.333  1.00  0.00    -0.014 A 
BRANCH  45  46
ATOM     46  C   UNL A   1      44.290  25.401  32.681  1.00  0.00     0.031 A 
ATOM     47  C   UNL A   1      43.645  26.661  33.104  1.00  0.00     0.074 A 
ATOM     48  C   UNL A   1      44.154  24.317  33.468  1.00  0.00     0.049 A 
ATOM     49  N   UNL A   1      42.509  26.879  33.677  1.00  0.00    -0.248 NA
ATOM     50  C   UNL A   1      44.398  27.866  32.846  1.00  0.00     0.031 C 
ATOM     51  C   UNL A   1      43.226  24.154  34.581  1.00  0.00     0.029 A 
ATOM     52  N   UNL A   1      44.912  23.159  33.500  1.00  0.00    -0.354 N 
ATOM     53  C   UNL A   1      42.484  28.237  33.953  1.00  0.00     0.074 A 
ATOM     54  C   UNL A   1      43.616  28.830  33.286  1.00  0.00     0.031 C 
ATOM     55  C   UNL A   1      43.573  23.073  35.294  1.00  0.00     0.029 A 
ATOM     56  C   UNL A   1      44.835  22.591  34.775  1.00  0.00     0.049 A 
ATOM     57  H   UNL A   1      45.424  22.793  32.744  1.00  0.00     0.167 HD
ATOM     58  C   UNL A   1      42.168  28.782  35.152  1.00  0.00     0.037 A 
ATOM     59  C   UNL A   1      45.963  22.451  35.534  1.00  0.00     0.037 A 
ATOM     60  C   UNL A   1      42.316  27.837  36.251  1.00  0.00     0.049 A 
ATOM     61  C   UNL A   1      46.007  23.411  36.723  1.00  0.00     0.074 A 
ATOM     62  C   UNL A   1      41.537  26.781  36.684  1.00  0.00     0.029 A 
ATOM     63  N   UNL A   1      43.564  27.646  36.857  1.00  0.00    -0.354 N 
ATOM     64  N   UNL A   1      45.118  24.344  36.968  1.00  0.00    -0.248 NA
ATOM     65  C   UNL A   1      47.075  23.412  37.715  1.00  0.00     0.031 C 
ATOM     66  C   UNL A   1      42.315  25.966  37.558  1.00  0.00     0.029 A 
ATOM     67  C   UNL A   1      43.564  26.539  37.714  1.00  0.00     0.049 A 
ATOM     68  H   UNL A   1      44.347  28.222  36.699  1.00  0.00     0.167 HD
ATOM     69  C   UNL A   1      45.477  25.085  38.072  1.00  0.00     0.074 A 
ATOM     70  C   UNL A   1      46.723  24.454  38.492  1.00  0.00     0.031 C 
ATOM     71  C   UNL A   1      44.754  26.175  38.516  1.00  0.00     0.037 A 
BRANCH  58  72
ATOM     72  C   UNL A   1      41.538  30.168  35.107  1.00  0.00     0.058 A 
ATOM     73  C   UNL A   1      42.132  31.225  35.809  1.00  0.00     0.135 A 
ATOM     74  C   UNL A   1      40.261  30.476  34.539  1.00  0.00     0.135 A 
ATOM     75  F   UNL A   1      43.340  31.075  36.371  1.00  0.00    -0.206 F 
ATOM     76  C   UNL A   1      41.475  32.445  36.024  1.00  0.00     0.059 A 
ATOM     77  C   UNL A   1      39.612  31.698  34.703  1.00  0.00     0.059 A 
ATOM     78  F   UNL A   1      39.534  29.585  33.849  1.00  0.00    -0.206 F 
ATOM     79  C   UNL A   1      40.202  32.658  35.499  1.00  0.00     0.060 A 
BRANCH  79  80
ATOM     80  S   UNL A   1      39.275  34.135  35.955  1.00  0.00     0.124 S 
ATOM     81  O   UNL A   1      38.124  33.560  36.644  1.00  0.00    -0.237 OA
ATOM     82  O   UNL A   1      40.226  34.855  36.794  1.00  0.00    -0.237 OA
ATOM     83  O   UNL A   1      38.975  34.766  34.672  1.00  0.00    -0.744 OA
ENDBRANCH  79  80
ENDBRANCH  58  72
BRANCH  59  84
ATOM     84  C   UNL A   1      47.081  21.864  34.729  1.00  0.00     0.058 A 
ATOM     85  C   UNL A   1      48.180  22.720  34.482  1.00  0.00     0.135 A 
ATOM     86  C   UNL A   1      47.332  20.485  34.676  1.00  0.00     0.135 A 
ATOM     87  F   UNL A   1      48.001  24.051  34.477  1.00  0.00    -0.206 F 
ATOM     88  C   UNL A   1      49.488  22.247  34.401  1.00  0.00     0.059 A 
ATOM     89  C   UNL A   1      48.639  19.986  34.542  1.00  0.00     0.059 A 
ATOM     90  F   UNL A   1      46.350  19.608  34.923  1.00  0.00    -0.206 F 
ATOM     91  C   UNL A   1      49.713  20.878  34.488  1.00  0.00     0.060 A 
BRANCH  91  92
ATOM     92  S   UNL A   1      51.423  20.308  34.688  1.00  0.00     0.124 S 
ATOM     93  O   UNL A   1      51.997  20.578  33.376  1.00  0.00    -0.237 OA
ATOM     94  O   UNL A   1      51.910  21.156  35.773  1.00  0.00    -0.237 OA
ATOM     95  O   UNL A   1      51.268  18.897  35.034  1.00  0.00    -0.744 OA
ENDBRANCH  91  92
ENDBRANCH  59  84
BRANCH  71  96
ATOM     96  C   UNL A   1      45.126  27.030  39.742  1.00  0.00     0.058 A 
ATOM     97  C   UNL A   1      45.925  28.190  39.703  1.00  0.00     0.135 A 
ATOM     98  C   UNL A   1      44.659  26.704  41.042  1.00  0.00     0.135 A 
ATOM     99  F   UNL A   1      46.648  28.503  38.619  1.00  0.00    -0.206 F 
ATOM    100  C   UNL A   1      46.038  29.078  40.783  1.00  0.00     0.059 A 
ATOM    101  C   UNL A   1      44.816  27.538  42.155  1.00  0.00     0.059 A 
ATOM    102  F   UNL A   1      43.991  25.571  41.288  1.00  0.00    -0.206 F 
ATOM    103  C   UNL A   1      45.447  28.760  42.000  1.00  0.00     0.060 A 
BRANCH 103 104
ATOM    104  S   UNL A   1      45.373  30.012  43.303  1.00  0.00     0.124 S 
ATOM    105  O   UNL A   1      46.763  30.444  43.398  1.00  0.00    -0.237 OA
ATOM    106  O   UNL A   1      44.447  30.984  42.729  1.00  0.00    -0.237 OA
ATOM    107  O   UNL A   1      44.855  29.279  44.453  1.00  0.00    -0.744 OA
ENDBRANCH 103 104
ENDBRANCH  71  96
ENDBRANCH  45  46
ENDBRANCH  38  40
ENDBRANCH  37  38
ENDBRANCH  36  37
ENDBRANCH  35  36
ENDBRANCH  34  35
ENDBRANCH   1  34
TORSDOF 21
ENDMDL
MODEL 2
REMARK VINA RESULT:     -10.5      4.367      5.458
REMARK SMILES Cc1ccc(S(=O)(=O)n2cc(C(=O)C(=O)NCC(=O)NCC(=O)OCCOC(=O)c3ccc(-c4c5nc(c(-c6c(F)cc(S(=O)(=O)[O-])cc6F)c6ccc([nH]6)c(-c6c(F)cc(S(=O)(=O)[O-])cc6F)c6nc(c(-c7c(F)cc(S(=O)(=O)[O-])cc7F)c7ccc4[nH]7)C=C6)C=C5)cc3)c3ccccc32)cc1
REMARK SMILES IDX 22 1 23 2 21 3 20 4 18 5 19 6 17 8 16 9 14 10 15 11 12 13
REMARK SMILES IDX 13 14 11 15 9 16 10 17 101 18 96 19 100 20 97 21 99 22 98 23
REMARK SMILES IDX 6 24 7 25 8 26 5 27 1 28 2 29 3 30 103 31 4 32 102 33 24 34
REMARK SMILES IDX 25 35 26 36 27 37 28 38 29 39 30 40 31 41 95 42 32 43 94 44
REMARK SMILES IDX 33 45 34 46 35 47 88 48 36 49 93 50 87 51 89 52 37 53 92 54
REMARK SMILES IDX 86 55 85 56 38 58 72 59 51 60 71 61 52 62 55 63 70 64 90 65
REMARK SMILES IDX 53 66 54 67 69 69 91 70 56 71 39 72 40 73 49 74 41 75 42 76
REMARK SMILES IDX 48 77 50 78 43 79 44 80 45 81 46 82 47 83 73 84 74 85 83 86
REMARK SMILES IDX 75 87 76 88 82 89 84 90 77 91 78 92 79 93 80 94 81 95 57 96
REMARK SMILES IDX 58 97 67 98 59 99 60 100 66 101 68 102 61 103 62 104 63 105
REMARK SMILES IDX 64 106 65 107
REMARK H PARENT 20 7 16 12 89 57 55 68
REMARK Flexibility Score: inf
ROOT
ATOM      1  C   UNL A   1      43.144  21.782  25.532  1.00  0.00     0.325 C 
ATOM      2  O   UNL A   1      43.774  20.839  24.962  1.00  0.00    -0.250 OA
ENDROOT
BRANCH   1   3
ATOM      3  C   UNL A   1      41.098  21.925  26.244  1.00  0.00     0.238 C 
BRANCH   3   4
ATOM      4  N   UNL A   1      40.046  23.166  26.525  1.00  0.00    -0.344 N 
ATOM      5  C   UNL A   1      38.722  23.383  26.367  1.00  0.00     0.239 C 
ATOM      6  O   UNL A   1      38.281  24.442  26.834  1.00  0.00    -0.273 OA
ATOM      7  H   UNL A   1      40.502  23.951  26.907  1.00  0.00     0.164 HD
BRANCH   5   8
ATOM      8  C   UNL A   1      37.750  22.363  25.806  1.00  0.00     0.216 C 
BRANCH   8   9
ATOM      9  N   UNL A   1      37.566  22.337  24.374  1.00  0.00    -0.340 N 
ATOM     10  C   UNL A   1      36.426  22.574  23.635  1.00  0.00     0.292 C 
ATOM     11  O   UNL A   1      36.577  22.907  22.466  1.00  0.00    -0.265 OA
ATOM     12  H   UNL A   1      38.371  22.119  23.850  1.00  0.00     0.164 HD
BRANCH  10  13
ATOM     13  C   UNL A   1      35.005  22.522  24.256  1.00  0.00     0.252 C 
ATOM     14  O   UNL A   1      34.829  21.649  25.102  1.00  0.00    -0.283 OA
BRANCH  13  15
ATOM     15  C   UNL A   1      33.948  23.547  24.030  1.00  0.00     0.054 A 
ATOM     16  N   UNL A   1      32.818  25.361  23.390  1.00  0.00    -0.240 N 
ATOM     17  C   UNL A   1      33.694  24.393  22.965  1.00  0.00     0.117 A 
ATOM     18  C   UNL A   1      32.103  24.897  24.451  1.00  0.00     0.065 A 
ATOM     19  C   UNL A   1      32.794  23.756  24.879  1.00  0.00     0.012 A 
ATOM     20  C   UNL A   1      30.934  25.368  25.059  1.00  0.00     0.028 A 
ATOM     21  C   UNL A   1      32.268  23.049  25.972  1.00  0.00     0.011 A 
ATOM     22  C   UNL A   1      30.420  24.618  26.110  1.00  0.00     0.002 A 
ATOM     23  C   UNL A   1      31.072  23.473  26.556  1.00  0.00     0.001 A 
BRANCH  16  24
ATOM     24  S   UNL A   1      32.558  26.839  22.610  1.00  0.00     0.268 S 
ATOM     25  O   UNL A   1      31.308  26.665  21.900  1.00  0.00    -0.201 OA
ATOM     26  O   UNL A   1      33.827  27.152  21.988  1.00  0.00    -0.201 OA
BRANCH  24  27
ATOM     27  C   UNL A   1      32.309  28.082  23.849  1.00  0.00     0.088 A 
ATOM     28  C   UNL A   1      31.604  31.449  26.432  1.00  0.00     0.044 C 
ATOM     29  C   UNL A   1      31.854  30.224  25.598  1.00  0.00    -0.051 A 
ATOM     30  C   UNL A   1      30.869  29.818  24.699  1.00  0.00     0.005 A 
ATOM     31  C   UNL A   1      33.056  29.511  25.648  1.00  0.00     0.005 A 
ATOM     32  C   UNL A   1      31.088  28.757  23.827  1.00  0.00     0.022 A 
ATOM     33  C   UNL A   1      33.290  28.440  24.773  1.00  0.00     0.022 A 
ENDBRANCH  24  27
ENDBRANCH  16  24
ENDBRANCH  13  15
ENDBRANCH  10  13
ENDBRANCH   8   9
ENDBRANCH   5   8
ENDBRANCH   3   4
ENDBRANCH   1   3
BRANCH   1  34
ATOM     34  O   UNL A   1      44.116  22.837  25.677  1.00  0.00    -0.461 OA
BRANCH  34  35
ATOM     35  C   UNL A   1      44.058  23.896  24.712  1.00  0.00     0.274 C 
BRANCH  35  36
ATOM     36  C   UNL A   1      43.150  24.997  25.272  1.00  0.00     0.275 C 
BRANCH  36  37
ATOM     37  O   UNL A   1      43.827  26.038  26.027  1.00  0.00    -0.458 OA
BRANCH  37  38
ATOM     38  C   UNL A   1      43.510  26.283  27.327  1.00  0.00     0.338 C 
ATOM     39  O   UNL A   1      42.865  27.230  27.738  1.00  0.00    -0.246 OA
BRANCH  38  40
ATOM     40  C   UNL A   1      44.142  25.321  28.242  1.00  0.00     0.060 A 
ATOM     41  C   UNL A   1      43.174  23.919  28.829  1.00  0.00     0.016 A 
ATOM     42  C   UNL A   1      45.538  25.929  29.209  1.00  0.00     0.016 A 
ATOM     43  C   UNL A   1      43.461  23.272  30.517  1.00  0.00     0.010 A 
ATOM     44  C   UNL A   1      45.810  25.293  30.874  1.00  0.00     0.010 A 
ATOM     45  C   UNL A   1      44.706  24.040  31.561  1.00  0.00    -0.014 A 
BRANCH  45  46
ATOM     46  C   UNL A   1      44.503  24.337  33.013  1.00  0.00     0.031 A 
ATOM     47  C   UNL A   1      43.779  25.575  33.369  1.00  0.00     0.074 A 
ATOM     48  C   UNL A   1      44.827  23.480  33.999  1.00  0.00     0.049 A 
ATOM     49  N   UNL A   1      42.849  25.792  34.236  1.00  0.00    -0.248 NA
ATOM     50  C   UNL A   1      44.166  26.758  32.635  1.00  0.00     0.031 C 
ATOM     51  C   UNL A   1      44.328  23.492  35.369  1.00  0.00     0.029 A 
ATOM     52  N   UNL A   1      45.772  22.469  34.003  1.00  0.00    -0.354 N 
ATOM     53  C   UNL A   1      42.640  27.162  34.228  1.00  0.00     0.074 A 
ATOM     54  C   UNL A   1      43.378  27.699  33.112  1.00  0.00     0.031 C 
ATOM     55  C   UNL A   1      45.080  22.678  36.123  1.00  0.00     0.029 A 
ATOM     56  C   UNL A   1      46.197  22.237  35.315  1.00  0.00     0.049 A 
ATOM     57  H   UNL A   1      46.095  21.988  33.208  1.00  0.00     0.167 HD
ATOM     58  C   UNL A   1      42.598  27.950  35.328  1.00  0.00     0.037 A 
ATOM     59  C   UNL A   1      47.505  22.432  35.658  1.00  0.00     0.037 A 
ATOM     60  C   UNL A   1      43.254  27.340  36.477  1.00  0.00     0.049 A 
ATOM     61  C   UNL A   1      47.715  23.660  36.545  1.00  0.00     0.074 A 
ATOM     62  C   UNL A   1      42.866  26.341  37.351  1.00  0.00     0.029 A 
ATOM     63  N   UNL A   1      44.638  27.462  36.649  1.00  0.00    -0.354 N 
ATOM     64  N   UNL A   1      46.774  24.510  36.885  1.00  0.00    -0.248 NA
ATOM     65  C   UNL A   1      49.009  24.042  37.095  1.00  0.00     0.031 C 
ATOM     66  C   UNL A   1      44.016  25.875  38.053  1.00  0.00     0.029 A 
ATOM     67  C   UNL A   1      45.116  26.616  37.659  1.00  0.00     0.049 A 
ATOM     68  H   UNL A   1      45.208  28.069  36.125  1.00  0.00     0.167 HD
ATOM     69  C   UNL A   1      47.295  25.543  37.631  1.00  0.00     0.074 A 
ATOM     70  C   UNL A   1      48.709  25.196  37.720  1.00  0.00     0.031 C 
ATOM     71  C   UNL A   1      46.539  26.615  38.065  1.00  0.00     0.037 A 
BRANCH  58  72
ATOM     72  C   UNL A   1      41.723  29.192  35.224  1.00  0.00     0.058 A 
ATOM     73  C   UNL A   1      41.899  30.245  36.132  1.00  0.00     0.135 A 
ATOM     74  C   UNL A   1      40.585  29.330  34.368  1.00  0.00     0.135 A 
ATOM     75  F   UNL A   1      42.940  30.249  36.976  1.00  0.00    -0.206 F 
ATOM     76  C   UNL A   1      40.971  31.289  36.258  1.00  0.00     0.059 A 
ATOM     77  C   UNL A   1      39.676  30.382  34.447  1.00  0.00     0.059 A 
ATOM     78  F   UNL A   1      40.246  28.414  33.449  1.00  0.00    -0.206 F 
ATOM     79  C   UNL A   1      39.845  31.328  35.437  1.00  0.00     0.060 A 
BRANCH  79  80
ATOM     80  S   UNL A   1      38.549  32.543  35.745  1.00  0.00     0.124 S 
ATOM     81  O   UNL A   1      37.759  31.877  36.776  1.00  0.00    -0.237 OA
ATOM     82  O   UNL A   1      39.310  33.710  36.178  1.00  0.00    -0.237 OA
ATOM     83  O   UNL A   1      37.887  32.679  34.450  1.00  0.00    -0.744 OA
ENDBRANCH  79  80
ENDBRANCH  58  72
BRANCH  59  84
ATOM     84  C   UNL A   1      48.422  21.801  34.657  1.00  0.00     0.058 A 
ATOM     85  C   UNL A   1      49.307  22.680  33.988  1.00  0.00     0.135 A 
ATOM     86  C   UNL A   1      48.806  20.454  34.726  1.00  0.00     0.135 A 
ATOM     87  F   UNL A   1      48.981  23.976  33.851  1.00  0.00    -0.206 F 
ATOM     88  C   UNL A   1      50.589  22.294  33.603  1.00  0.00     0.059 A 
ATOM     89  C   UNL A   1      50.076  20.034  34.295  1.00  0.00     0.059 A 
ATOM     90  F   UNL A   1      48.035  19.562  35.363  1.00  0.00    -0.206 F 
ATOM     91  C   UNL A   1      50.985  20.978  33.811  1.00  0.00     0.060 A 
BRANCH  91  92
ATOM     92  S   UNL A   1      52.738  20.573  33.591  1.00  0.00     0.124 S 
ATOM     93  O   UNL A   1      52.770  19.148  33.896  1.00  0.00    -0.237 OA
ATOM     94  O   UNL A   1      52.966  20.921  32.192  1.00  0.00    -0.237 OA
ATOM     95  O   UNL A   1      53.407  21.441  34.557  1.00  0.00    -0.744 OA
ENDBRANCH  91  92
ENDBRANCH  59  84
BRANCH  71  96
ATOM     96  C   UNL A   1      47.085  27.791  38.896  1.00  0.00     0.058 A 
ATOM     97  C   UNL A   1      47.924  28.808  38.398  1.00  0.00     0.135 A 
ATOM     98  C   UNL A   1      46.758  27.945  40.269  1.00  0.00     0.135 A 
ATOM     99  F   UNL A   1      48.530  28.693  37.208  1.00  0.00    -0.206 F 
ATOM    100  C   UNL A   1      48.199  29.989  39.105  1.00  0.00     0.059 A 
ATOM    101  C   UNL A   1      47.079  29.082  41.020  1.00  0.00     0.059 A 
ATOM    102  F   UNL A   1      46.075  27.011  40.940  1.00  0.00    -0.206 F 
ATOM    103  C   UNL A   1      47.739  30.132  40.409  1.00  0.00     0.060 A 
BRANCH 103 104
ATOM    104  S   UNL A   1      47.870  31.742  41.221  1.00  0.00     0.124 S 
ATOM    105  O   UNL A   1      46.765  31.702  42.172  1.00  0.00    -0.237 OA
ATOM    106  O   UNL A   1      49.207  31.674  41.802  1.00  0.00    -0.237 OA
ATOM    107  O   UNL A   1      47.729  32.692  40.122  1.00  0.00    -0.744 OA
ENDBRANCH 103 104
ENDBRANCH  71  96
ENDBRANCH  45  46
ENDBRANCH  38  40
ENDBRANCH  37  38
ENDBRANCH  36  37
ENDBRANCH  35  36
ENDBRANCH  34  35
ENDBRANCH   1  34
TORSDOF 21
ENDMDL
MODEL 3
REMARK VINA RESULT:     -10.5      6.453     14.869
REMARK SMILES Cc1ccc(S(=O)(=O)n2cc(C(=O)C(=O)NCC(=O)NCC(=O)OCCOC(=O)c3ccc(-c4c5nc(c(-c6c(F)cc(S(=O)(=O)[O-])cc6F)c6ccc([nH]6)c(-c6c(F)cc(S(=O)(=O)[O-])cc6F)c6nc(c(-c7c(F)cc(S(=O)(=O)[O-])cc7F)c7ccc4[nH]7)C=C6)C=C5)cc3)c3ccccc32)cc1
REMARK SMILES IDX 22 1 23 2 21 3 20 4 18 5 19 6 17 8 16 9 14 10 15 11 12 13
REMARK SMILES IDX 13 14 11 15 9 16 10 17 101 18 96 19 100 20 97 21 99 22 98 23
REMARK SMILES IDX 6 24 7 25 8 26 5 27 1 28 2 29 3 30 103 31 4 32 102 33 24 34
REMARK SMILES IDX 25 35 26 36 27 37 28 38 29 39 30 40 31 41 95 42 32 43 94 44
REMARK SMILES IDX 33 45 34 46 35 47 88 48 36 49 93 50 87 51 89 52 37 53 92 54
REMARK SMILES IDX 86 55 85 56 38 58 72 59 51 60 71 61 52 62 55 63 70 64 90 65
REMARK SMILES IDX 53 66 54 67 69 69 91 70 56 71 39 72 40 73 49 74 41 75 42 76
REMARK SMILES IDX 48 77 50 78 43 79 44 80 45 81 46 82 47 83 73 84 74 85 83 86
REMARK SMILES IDX 75 87 76 88 82 89 84 90 77 91 78 92 79 93 80 94 81 95 57 96
REMARK SMILES IDX 58 97 67 98 59 99 60 100 66 101 68 102 61 103 62 104 63 105
REMARK SMILES IDX 64 106 65 107
REMARK H PARENT 20 7 16 12 89 57 55 68
REMARK Flexibility Score: inf
ROOT
ATOM      1  C   UNL A   1      49.707  19.953  37.028  1.00  0.00     0.325 C 
ATOM      2  O   UNL A   1      50.958  19.846  37.210  1.00  0.00    -0.250 OA
ENDROOT
BRANCH   1   3
ATOM      3  C   UNL A   1      48.018  19.509  38.318  1.00  0.00     0.238 C 
BRANCH   3   4
ATOM      4  N   UNL A   1      47.737  19.601  39.942  1.00  0.00    -0.344 N 
ATOM      5  C   UNL A   1      47.393  18.743  40.927  1.00  0.00     0.239 C 
ATOM      6  O   UNL A   1      47.405  19.198  42.080  1.00  0.00    -0.273 OA
ATOM      7  H   UNL A   1      47.849  20.519  40.281  1.00  0.00     0.164 HD
BRANCH   5   8
ATOM      8  C   UNL A   1      47.153  17.259  40.723  1.00  0.00     0.216 C 
BRANCH   8   9
ATOM      9  N   UNL A   1      46.144  16.875  39.765  1.00  0.00    -0.340 N 
ATOM     10  C   UNL A   1      44.771  16.954  39.862  1.00  0.00     0.292 C 
ATOM     11  O   UNL A   1      44.136  16.971  38.815  1.00  0.00    -0.265 OA
ATOM     12  H   UNL A   1      46.486  16.503  38.920  1.00  0.00     0.164 HD
BRANCH  10  13
ATOM     13  C   UNL A   1      44.040  17.110  41.222  1.00  0.00     0.252 C 
ATOM     14  O   UNL A   1      43.689  18.253  41.506  1.00  0.00    -0.283 OA
BRANCH  13  15
ATOM     15  C   UNL A   1      43.592  15.974  42.074  1.00  0.00     0.054 A 
ATOM     16  N   UNL A   1      43.432  14.409  43.656  1.00  0.00    -0.240 N 
ATOM     17  C   UNL A   1      43.708  15.735  43.432  1.00  0.00     0.117 A 
ATOM     18  C   UNL A   1      42.651  13.927  42.652  1.00  0.00     0.065 A 
ATOM     19  C   UNL A   1      42.736  14.891  41.638  1.00  0.00     0.012 A 
ATOM     20  C   UNL A   1      41.892  12.757  42.546  1.00  0.00     0.028 A 
ATOM     21  C   UNL A   1      42.006  14.662  40.460  1.00  0.00     0.011 A 
ATOM     22  C   UNL A   1      41.149  12.586  41.383  1.00  0.00     0.002 A 
ATOM     23  C   UNL A   1      41.199  13.526  40.359  1.00  0.00     0.001 A 
BRANCH  16  24
ATOM     24  S   UNL A   1      43.863  13.555  45.051  1.00  0.00     0.268 S 
ATOM     25  O   UNL A   1      43.939  12.172  44.627  1.00  0.00    -0.201 OA
ATOM     26  O   UNL A   1      42.977  14.059  46.078  1.00  0.00    -0.201 OA
BRANCH  24  27
ATOM     27  C   UNL A   1      45.493  14.064  45.528  1.00  0.00     0.088 A 
ATOM     28  C   UNL A   1      49.203  15.541  47.128  1.00  0.00     0.044 C 
ATOM     29  C   UNL A   1      47.952  14.984  46.511  1.00  0.00    -0.051 A 
ATOM     30  C   UNL A   1      47.144  14.149  47.282  1.00  0.00     0.005 A 
ATOM     31  C   UNL A   1      47.538  15.313  45.216  1.00  0.00     0.005 A 
ATOM     32  C   UNL A   1      45.922  13.691  46.802  1.00  0.00     0.022 A 
ATOM     33  C   UNL A   1      46.306  14.859  44.721  1.00  0.00     0.022 A 
ENDBRANCH  24  27
ENDBRANCH  16  24
ENDBRANCH  13  15
ENDBRANCH  10  13
ENDBRANCH   8   9
ENDBRANCH   5   8
ENDBRANCH   3   4
ENDBRANCH   1   3
BRANCH   1  34
ATOM     34  O   UNL A   1      49.576  20.508  35.703  1.00  0.00    -0.461 OA
BRANCH  34  35
ATOM     35  C   UNL A   1      49.000  21.818  35.614  1.00  0.00     0.274 C 
BRANCH  35  36
ATOM     36  C   UNL A   1      47.481  21.659  35.481  1.00  0.00     0.275 C 
BRANCH  36  37
ATOM     37  O   UNL A   1      46.687  22.541  36.321  1.00  0.00    -0.458 OA
BRANCH  37  38
ATOM     38  C   UNL A   1      45.875  23.487  35.778  1.00  0.00     0.338 C 
ATOM     39  O   UNL A   1      44.974  24.070  36.352  1.00  0.00    -0.246 OA
BRANCH  38  40
ATOM     40  C   UNL A   1      46.120  23.666  34.339  1.00  0.00     0.060 A 
ATOM     41  C   UNL A   1      47.485  24.720  33.816  1.00  0.00     0.016 A 
ATOM     42  C   UNL A   1      44.712  23.395  33.244  1.00  0.00     0.016 A 
ATOM     43  C   UNL A   1      47.326  25.701  32.279  1.00  0.00     0.010 A 
ATOM     44  C   UNL A   1      44.558  24.370  31.736  1.00  0.00     0.010 A 
ATOM     45  C   UNL A   1      45.814  25.595  31.312  1.00  0.00    -0.014 A 
BRANCH  45  46
ATOM     46  C   UNL A   1      45.132  26.781  30.709  1.00  0.00     0.031 A 
ATOM     47  C   UNL A   1      44.810  27.918  31.597  1.00  0.00     0.074 A 
ATOM     48  C   UNL A   1      44.914  26.920  29.387  1.00  0.00     0.049 A 
ATOM     49  N   UNL A   1      44.951  29.189  31.428  1.00  0.00    -0.248 NA
ATOM     50  C   UNL A   1      44.234  27.568  32.875  1.00  0.00     0.031 C 
ATOM     51  C   UNL A   1      44.631  28.159  28.672  1.00  0.00     0.029 A 
ATOM     52  N   UNL A   1      44.791  25.944  28.414  1.00  0.00    -0.354 N 
ATOM     53  C   UNL A   1      44.362  29.781  32.534  1.00  0.00     0.074 A 
ATOM     54  C   UNL A   1      44.063  28.729  33.473  1.00  0.00     0.031 C 
ATOM     55  C   UNL A   1      44.194  27.870  27.438  1.00  0.00     0.029 A 
ATOM     56  C   UNL A   1      44.015  26.436  27.360  1.00  0.00     0.049 A 
ATOM     57  H   UNL A   1      45.188  25.045  28.456  1.00  0.00     0.167 HD
ATOM     58  C   UNL A   1      43.461  30.791  32.489  1.00  0.00     0.037 A 
ATOM     59  C   UNL A   1      42.830  25.836  27.042  1.00  0.00     0.037 A 
ATOM     60  C   UNL A   1      42.801  30.893  31.195  1.00  0.00     0.049 A 
ATOM     61  C   UNL A   1      41.612  26.681  27.415  1.00  0.00     0.074 A 
ATOM     62  C   UNL A   1      43.213  31.396  29.975  1.00  0.00     0.029 A 
ATOM     63  N   UNL A   1      41.680  30.105  30.908  1.00  0.00    -0.354 N 
ATOM     64  N   UNL A   1      41.660  27.825  28.055  1.00  0.00    -0.248 NA
ATOM     65  C   UNL A   1      40.240  26.288  27.120  1.00  0.00     0.031 C 
ATOM     66  C   UNL A   1      42.332  30.918  28.961  1.00  0.00     0.029 A 
ATOM     67  C   UNL A   1      41.337  30.159  29.551  1.00  0.00     0.049 A 
ATOM     68  H   UNL A   1      41.191  29.577  31.579  1.00  0.00     0.167 HD
ATOM     69  C   UNL A   1      40.392  28.302  28.301  1.00  0.00     0.074 A 
ATOM     70  C   UNL A   1      39.541  27.284  27.695  1.00  0.00     0.031 C 
ATOM     71  C   UNL A   1      40.147  29.457  29.019  1.00  0.00     0.037 A 
BRANCH  58  72
ATOM     72  C   UNL A   1      43.455  31.731  33.688  1.00  0.00     0.058 A 
ATOM     73  C   UNL A   1      44.540  32.591  33.903  1.00  0.00     0.135 A 
ATOM     74  C   UNL A   1      42.497  31.706  34.751  1.00  0.00     0.135 A 
ATOM     75  F   UNL A   1      45.497  32.724  32.974  1.00  0.00    -0.206 F 
ATOM     76  C   UNL A   1      44.719  33.284  35.108  1.00  0.00     0.059 A 
ATOM     77  C   UNL A   1      42.635  32.422  35.938  1.00  0.00     0.059 A 
ATOM     78  F   UNL A   1      41.404  30.930  34.731  1.00  0.00    -0.206 F 
ATOM     79  C   UNL A   1      43.781  33.164  36.132  1.00  0.00     0.060 A 
BRANCH  79  80
ATOM     80  S   UNL A   1      44.121  33.879  37.753  1.00  0.00     0.124 S 
ATOM     81  O   UNL A   1      44.039  32.704  38.616  1.00  0.00    -0.237 OA
ATOM     82  O   UNL A   1      45.452  34.447  37.572  1.00  0.00    -0.237 OA
ATOM     83  O   UNL A   1      43.048  34.854  37.932  1.00  0.00    -0.744 OA
ENDBRANCH  79  80
ENDBRANCH  58  72
BRANCH  59  84
ATOM     84  C   UNL A   1      42.983  24.347  26.972  1.00  0.00     0.058 A 
ATOM     85  C   UNL A   1      42.504  23.624  28.090  1.00  0.00     0.135 A 
ATOM     86  C   UNL A   1      43.063  23.651  25.758  1.00  0.00     0.135 A 
ATOM     87  F   UNL A   1      42.440  24.219  29.292  1.00  0.00    -0.206 F 
ATOM     88  C   UNL A   1      41.935  22.357  27.968  1.00  0.00     0.059 A 
ATOM     89  C   UNL A   1      42.543  22.352  25.626  1.00  0.00     0.059 A 
ATOM     90  F   UNL A   1      43.485  24.271  24.647  1.00  0.00    -0.206 F 
ATOM     91  C   UNL A   1      41.911  21.751  26.717  1.00  0.00     0.060 A 
BRANCH  91  92
ATOM     92  S   UNL A   1      40.905  20.255  26.518  1.00  0.00     0.124 S 
ATOM     93  O   UNL A   1      41.735  19.436  25.644  1.00  0.00    -0.237 OA
ATOM     94  O   UNL A   1      40.778  19.778  27.892  1.00  0.00    -0.237 OA
ATOM     95  O   UNL A   1      39.668  20.759  25.925  1.00  0.00    -0.744 OA
ENDBRANCH  91  92
ENDBRANCH  59  84
BRANCH  71  96
ATOM     96  C   UNL A   1      38.745  30.020  29.319  1.00  0.00     0.058 A 
ATOM     97  C   UNL A   1      38.235  30.266  30.609  1.00  0.00     0.135 A 
ATOM     98  C   UNL A   1      37.841  30.353  28.276  1.00  0.00     0.135 A 
ATOM     99  F   UNL A   1      38.841  29.786  31.704  1.00  0.00    -0.206 F 
ATOM    100  C   UNL A   1      37.064  31.005  30.841  1.00  0.00     0.059 A 
ATOM    101  C   UNL A   1      36.633  31.029  28.483  1.00  0.00     0.059 A 
ATOM    102  F   UNL A   1      38.108  30.072  26.996  1.00  0.00    -0.206 F 
ATOM    103  C   UNL A   1      36.285  31.415  29.765  1.00  0.00     0.060 A 
BRANCH 103 104
ATOM    104  S   UNL A   1      34.929  32.577  30.047  1.00  0.00     0.124 S 
ATOM    105  O   UNL A   1      35.597  33.868  29.935  1.00  0.00    -0.237 OA
ATOM    106  O   UNL A   1      34.018  32.240  28.957  1.00  0.00    -0.237 OA
ATOM    107  O   UNL A   1      34.447  32.224  31.378  1.00  0.00    -0.744 OA
ENDBRANCH 103 104
ENDBRANCH  71  96
ENDBRANCH  45  46
ENDBRANCH  38  40
ENDBRANCH  37  38
ENDBRANCH  36  37
ENDBRANCH  35  36
ENDBRANCH  34  35
ENDBRANCH   1  34
TORSDOF 21
ENDMDL
