MODEL 1
REMARK VINA RESULT:      -9.4      0.000      0.000
REMARK SMILES CCc1ccc(C(=O)[C@@H](Br)CC(=O)OCCOC(=O)c2ccc(-c3c4nc(c(-c5c(F)cc(S(=O)(=O)[O-])cc5F)c5ccc([nH]5)c(-c5c(F)cc(S(=O)(=O)[O-])cc5F)c5nc(c(-c6c(F)cc(S(=O)(=O)[O-])cc6F)c6ccc3[nH]6)C=C5)C=C4)cc2)cc1
REMARK SMILES IDX 15 1 14 2 12 3 13 4 11 5 9 6 10 7 7 8 8 9 6 10 3 11 4 12
REMARK SMILES IDX 87 13 5 14 86 15 2 16 1 17 16 18 17 19 18 20 19 21 20 22
REMARK SMILES IDX 21 23 85 24 22 25 84 26 23 27 24 28 25 29 78 30 26 31 83 32
REMARK SMILES IDX 77 33 79 34 27 35 82 36 76 37 75 38 28 40 62 41 41 42 61 43
REMARK SMILES IDX 42 44 45 45 60 46 80 47 43 48 44 49 59 51 81 52 46 53 29 54
REMARK SMILES IDX 30 55 39 56 31 57 32 58 38 59 40 60 33 61 34 62 35 63 36 64
REMARK SMILES IDX 37 65 63 66 64 67 73 68 65 69 66 70 72 71 74 72 67 73 68 74
REMARK SMILES IDX 69 75 70 76 71 77 47 78 48 79 57 80 49 81 50 82 56 83 58 84
REMARK SMILES IDX 51 85 52 86 53 87 54 88 55 89
REMARK H PARENT 79 39 45 50
REMARK Flexibility Score: inf
ROOT
ATOM      1  C   UNL A   1      33.179  33.736  27.812  1.00  0.00     0.274 C 
ENDROOT
BRANCH   1   2
ATOM      2  O   UNL A   1      32.736  34.175  29.111  1.00  0.00    -0.462 OA
BRANCH   2   3
ATOM      3  C   UNL A   1      32.883  35.497  29.373  1.00  0.00     0.307 C 
ATOM      4  O   UNL A   1      32.265  36.395  28.814  1.00  0.00    -0.252 OA
BRANCH   3   5
ATOM      5  C   UNL A   1      33.962  35.778  30.387  1.00  0.00     0.146 C 
BRANCH   5   6
ATOM      6  C   UNL A   1      33.933  34.840  31.583  1.00  0.00     0.140 C 
ATOM      7  Br  UNL A   1      34.255  35.835  33.244  1.00  0.00    -0.080 Br
BRANCH   6   8
ATOM      8  C   UNL A   1      34.920  33.681  31.581  1.00  0.00     0.177 C 
ATOM      9  O   UNL A   1      34.571  32.545  31.915  1.00  0.00    -0.293 OA
BRANCH   8  10
ATOM     10  C   UNL A   1      36.338  33.859  31.156  1.00  0.00     0.019 A 
ATOM     11  C   UNL A   1      38.975  34.182  30.196  1.00  0.00    -0.048 A 
ATOM     12  C   UNL A   1      37.988  33.604  29.389  1.00  0.00     0.004 A 
ATOM     13  C   UNL A   1      38.623  34.589  31.492  1.00  0.00     0.004 A 
ATOM     14  C   UNL A   1      36.684  33.439  29.867  1.00  0.00     0.012 A 
ATOM     15  C   UNL A   1      37.323  34.413  31.976  1.00  0.00     0.012 A 
BRANCH  11  16
ATOM     16  C   UNL A   1      40.389  34.431  29.728  1.00  0.00     0.032 C 
ATOM     17  C   UNL A   1      41.498  33.891  30.622  1.00  0.00     0.009 C 
ENDBRANCH  11  16
ENDBRANCH   8  10
ENDBRANCH   6   8
ENDBRANCH   5   6
ENDBRANCH   3   5
ENDBRANCH   2   3
ENDBRANCH   1   2
BRANCH   1  18
ATOM     18  C   UNL A   1      34.258  32.654  27.914  1.00  0.00     0.275 C 
BRANCH  18  19
ATOM     19  O   UNL A   1      33.686  31.338  28.016  1.00  0.00    -0.458 OA
BRANCH  19  20
ATOM     20  C   UNL A   1      34.416  30.351  27.444  1.00  0.00     0.338 C 
ATOM     21  O   UNL A   1      34.174  29.764  26.404  1.00  0.00    -0.246 OA
BRANCH  20  22
ATOM     22  C   UNL A   1      35.667  30.155  28.190  1.00  0.00     0.060 A 
ATOM     23  C   UNL A   1      36.871  30.370  27.517  1.00  0.00     0.016 A 
ATOM     24  C   UNL A   1      35.658  29.662  29.493  1.00  0.00     0.016 A 
ATOM     25  C   UNL A   1      38.080  30.089  28.143  1.00  0.00     0.010 A 
ATOM     26  C   UNL A   1      36.874  29.384  30.126  1.00  0.00     0.010 A 
ATOM     27  C   UNL A   1      38.091  29.585  29.450  1.00  0.00    -0.014 A 
BRANCH  27  28
ATOM     28  C   UNL A   1      39.381  29.225  30.085  1.00  0.00     0.031 A 
ATOM     29  C   UNL A   1      39.846  29.969  31.303  1.00  0.00     0.074 A 
ATOM     30  C   UNL A   1      40.116  28.216  29.580  1.00  0.00     0.049 A 
ATOM     31  N   UNL A   1      40.983  29.877  31.942  1.00  0.00    -0.248 NA
ATOM     32  C   UNL A   1      38.907  30.945  31.880  1.00  0.00     0.031 C 
ATOM     33  C   UNL A   1      39.740  27.391  28.431  1.00  0.00     0.029 A 
ATOM     34  N   UNL A   1      41.333  27.716  29.968  1.00  0.00    -0.354 N 
ATOM     35  C   UNL A   1      40.912  30.801  32.977  1.00  0.00     0.074 A 
ATOM     36  C   UNL A   1      39.619  31.447  32.879  1.00  0.00     0.031 C 
ATOM     37  C   UNL A   1      40.707  26.486  28.207  1.00  0.00     0.029 A 
ATOM     38  C   UNL A   1      41.789  26.699  29.164  1.00  0.00     0.049 A 
ATOM     39  H   UNL A   1      41.831  28.053  30.747  1.00  0.00     0.167 HD
ATOM     40  C   UNL A   1      41.842  31.086  33.919  1.00  0.00     0.037 A 
ATOM     41  C   UNL A   1      42.961  26.035  29.180  1.00  0.00     0.037 A 
ATOM     42  C   UNL A   1      43.115  30.423  34.022  1.00  0.00     0.049 A 
ATOM     43  C   UNL A   1      43.992  26.391  30.215  1.00  0.00     0.074 A 
ATOM     44  C   UNL A   1      44.129  30.639  34.939  1.00  0.00     0.029 A 
ATOM     45  N   UNL A   1      43.548  29.407  33.181  1.00  0.00    -0.354 N 
ATOM     46  N   UNL A   1      43.924  27.291  31.167  1.00  0.00    -0.248 NA
ATOM     47  C   UNL A   1      45.260  25.651  30.173  1.00  0.00     0.031 C 
ATOM     48  C   UNL A   1      45.186  29.771  34.637  1.00  0.00     0.029 A 
ATOM     49  C   UNL A   1      44.816  28.992  33.552  1.00  0.00     0.049 A 
ATOM     50  H   UNL A   1      43.029  29.036  32.432  1.00  0.00     0.167 HD
ATOM     51  C   UNL A   1      45.135  27.218  31.845  1.00  0.00     0.074 A 
ATOM     52  C   UNL A   1      45.911  26.176  31.204  1.00  0.00     0.031 C 
ATOM     53  C   UNL A   1      45.567  27.949  32.902  1.00  0.00     0.037 A 
BRANCH  40  54
ATOM     54  C   UNL A   1      41.527  32.184  34.893  1.00  0.00     0.058 A 
ATOM     55  C   UNL A   1      41.954  33.504  34.683  1.00  0.00     0.135 A 
ATOM     56  C   UNL A   1      40.764  31.915  36.042  1.00  0.00     0.135 A 
ATOM     57  F   UNL A   1      42.701  33.810  33.611  1.00  0.00    -0.206 F 
ATOM     58  C   UNL A   1      41.655  34.517  35.590  1.00  0.00     0.059 A 
ATOM     59  C   UNL A   1      40.437  32.917  36.951  1.00  0.00     0.059 A 
ATOM     60  F   UNL A   1      40.334  30.669  36.291  1.00  0.00    -0.206 F 
ATOM     61  C   UNL A   1      40.899  34.212  36.724  1.00  0.00     0.060 A 
BRANCH  61  62
ATOM     62  S   UNL A   1      40.515  35.533  37.894  1.00  0.00     0.124 S 
ATOM     63  O   UNL A   1      39.348  34.984  38.577  1.00  0.00    -0.237 OA
ATOM     64  O   UNL A   1      41.735  35.615  38.690  1.00  0.00    -0.237 OA
ATOM     65  O   UNL A   1      40.255  36.683  37.033  1.00  0.00    -0.744 OA
ENDBRANCH  61  62
ENDBRANCH  40  54
BRANCH  41  66
ATOM     66  C   UNL A   1      43.229  24.987  28.162  1.00  0.00     0.058 A 
ATOM     67  C   UNL A   1      43.776  25.313  26.913  1.00  0.00     0.135 A 
ATOM     68  C   UNL A   1      42.964  23.634  28.428  1.00  0.00     0.135 A 
ATOM     69  F   UNL A   1      44.039  26.594  26.610  1.00  0.00    -0.206 F 
ATOM     70  C   UNL A   1      44.045  24.337  25.959  1.00  0.00     0.059 A 
ATOM     71  C   UNL A   1      43.244  22.639  27.500  1.00  0.00     0.059 A 
ATOM     72  F   UNL A   1      42.451  23.271  29.614  1.00  0.00    -0.206 F 
ATOM     73  C   UNL A   1      43.778  23.000  26.263  1.00  0.00     0.060 A 
BRANCH  73  74
ATOM     74  S   UNL A   1      44.185  21.729  25.046  1.00  0.00     0.124 S 
ATOM     75  O   UNL A   1      45.543  21.373  25.438  1.00  0.00    -0.237 OA
ATOM     76  O   UNL A   1      43.161  20.718  25.298  1.00  0.00    -0.237 OA
ATOM     77  O   UNL A   1      44.056  22.433  23.774  1.00  0.00    -0.744 OA
ENDBRANCH  73  74
ENDBRANCH  41  66
BRANCH  53  78
ATOM     78  C   UNL A   1      46.929  27.629  33.445  1.00  0.00     0.058 A 
ATOM     79  C   UNL A   1      47.112  26.645  34.430  1.00  0.00     0.135 A 
ATOM     80  C   UNL A   1      48.066  28.280  32.943  1.00  0.00     0.135 A 
ATOM     81  F   UNL A   1      46.054  26.000  34.945  1.00  0.00    -0.206 F 
ATOM     82  C   UNL A   1      48.379  26.328  34.909  1.00  0.00     0.059 A 
ATOM     83  C   UNL A   1      49.344  27.965  33.396  1.00  0.00     0.059 A 
ATOM     84  F   UNL A   1      47.942  29.223  31.996  1.00  0.00    -0.206 F 
ATOM     85  C   UNL A   1      49.489  26.995  34.387  1.00  0.00     0.060 A 
BRANCH  85  86
ATOM     86  S   UNL A   1      51.132  26.555  34.990  1.00  0.00     0.124 S 
ATOM     87  O   UNL A   1      51.233  25.160  34.576  1.00  0.00    -0.237 OA
ATOM     88  O   UNL A   1      51.994  27.491  34.276  1.00  0.00    -0.237 OA
ATOM     89  O   UNL A   1      51.034  26.778  36.429  1.00  0.00    -0.744 OA
ENDBRANCH  85  86
ENDBRANCH  53  78
ENDBRANCH  27  28
ENDBRANCH  20  22
ENDBRANCH  19  20
ENDBRANCH  18  19
ENDBRANCH   1  18
TORSDOF 18
ENDMDL
MODEL 2
REMARK VINA RESULT:      -9.1      5.230     11.672
REMARK SMILES CCc1ccc(C(=O)[C@@H](Br)CC(=O)OCCOC(=O)c2ccc(-c3c4nc(c(-c5c(F)cc(S(=O)(=O)[O-])cc5F)c5ccc([nH]5)c(-c5c(F)cc(S(=O)(=O)[O-])cc5F)c5nc(c(-c6c(F)cc(S(=O)(=O)[O-])cc6F)c6ccc3[nH]6)C=C5)C=C4)cc2)cc1
REMARK SMILES IDX 15 1 14 2 12 3 13 4 11 5 9 6 10 7 7 8 8 9 6 10 3 11 4 12
REMARK SMILES IDX 87 13 5 14 86 15 2 16 1 17 16 18 17 19 18 20 19 21 20 22
REMARK SMILES IDX 21 23 85 24 22 25 84 26 23 27 24 28 25 29 78 30 26 31 83 32
REMARK SMILES IDX 77 33 79 34 27 35 82 36 76 37 75 38 28 40 62 41 41 42 61 43
REMARK SMILES IDX 42 44 45 45 60 46 80 47 43 48 44 49 59 51 81 52 46 53 29 54
REMARK SMILES IDX 30 55 39 56 31 57 32 58 38 59 40 60 33 61 34 62 35 63 36 64
REMARK SMILES IDX 37 65 63 66 64 67 73 68 65 69 66 70 72 71 74 72 67 73 68 74
REMARK SMILES IDX 69 75 70 76 71 77 47 78 48 79 57 80 49 81 50 82 56 83 58 84
REMARK SMILES IDX 51 85 52 86 53 87 54 88 55 89
REMARK H PARENT 79 39 45 50
REMARK Flexibility Score: inf
ROOT
ATOM      1  C   UNL A   1      38.236  21.874  25.591  1.00  0.00     0.274 C 
ENDROOT
BRANCH   1   2
ATOM      2  O   UNL A   1      37.364  22.955  25.207  1.00  0.00    -0.462 OA
BRANCH   2   3
ATOM      3  C   UNL A   1      36.646  22.765  24.073  1.00  0.00     0.307 C 
ATOM      4  O   UNL A   1      36.941  23.216  22.973  1.00  0.00    -0.252 OA
BRANCH   3   5
ATOM      5  C   UNL A   1      35.373  21.992  24.305  1.00  0.00     0.146 C 
BRANCH   5   6
ATOM      6  C   UNL A   1      34.133  22.685  23.763  1.00  0.00     0.140 C 
ATOM      7  Br  UNL A   1      33.893  24.433  24.624  1.00  0.00    -0.080 Br
BRANCH   6   8
ATOM      8  C   UNL A   1      32.806  21.951  23.909  1.00  0.00     0.177 C 
ATOM      9  O   UNL A   1      31.734  22.530  23.720  1.00  0.00    -0.293 OA
BRANCH   8  10
ATOM     10  C   UNL A   1      32.746  20.503  24.262  1.00  0.00     0.019 A 
ATOM     11  C   UNL A   1      32.607  17.805  25.084  1.00  0.00    -0.048 A 
ATOM     12  C   UNL A   1      32.850  18.822  26.014  1.00  0.00     0.004 A 
ATOM     13  C   UNL A   1      32.442  18.159  23.736  1.00  0.00     0.004 A 
ATOM     14  C   UNL A   1      32.925  20.157  25.606  1.00  0.00     0.012 A 
ATOM     15  C   UNL A   1      32.529  19.491  23.324  1.00  0.00     0.012 A 
BRANCH  11  16
ATOM     16  C   UNL A   1      32.469  16.349  25.462  1.00  0.00     0.032 C 
ATOM     17  C   UNL A   1      33.677  15.465  25.183  1.00  0.00     0.009 C 
ENDBRANCH  11  16
ENDBRANCH   8  10
ENDBRANCH   6   8
ENDBRANCH   5   6
ENDBRANCH   3   5
ENDBRANCH   2   3
ENDBRANCH   1   2
BRANCH   1  18
ATOM     18  C   UNL A   1      39.486  22.380  26.315  1.00  0.00     0.275 C 
BRANCH  18  19
ATOM     19  O   UNL A   1      39.397  23.784  26.616  1.00  0.00    -0.458 OA
BRANCH  19  20
ATOM     20  C   UNL A   1      40.586  24.403  26.812  1.00  0.00     0.338 C 
ATOM     21  O   UNL A   1      41.636  24.178  26.236  1.00  0.00    -0.246 OA
BRANCH  20  22
ATOM     22  C   UNL A   1      40.421  25.524  27.746  1.00  0.00     0.060 A 
ATOM     23  C   UNL A   1      41.432  26.486  27.800  1.00  0.00     0.016 A 
ATOM     24  C   UNL A   1      39.347  25.570  28.633  1.00  0.00     0.016 A 
ATOM     25  C   UNL A   1      41.378  27.503  28.748  1.00  0.00     0.010 A 
ATOM     26  C   UNL A   1      39.289  26.596  29.582  1.00  0.00     0.010 A 
ATOM     27  C   UNL A   1      40.311  27.561  29.652  1.00  0.00    -0.014 A 
BRANCH  27  28
ATOM     28  C   UNL A   1      40.295  28.608  30.700  1.00  0.00     0.031 A 
ATOM     29  C   UNL A   1      41.251  28.523  31.855  1.00  0.00     0.074 A 
ATOM     30  C   UNL A   1      39.441  29.644  30.598  1.00  0.00     0.049 A 
ATOM     31  N   UNL A   1      41.326  29.276  32.922  1.00  0.00    -0.248 NA
ATOM     32  C   UNL A   1      42.254  27.448  31.804  1.00  0.00     0.031 C 
ATOM     33  C   UNL A   1      38.502  29.857  29.495  1.00  0.00     0.029 A 
ATOM     34  N   UNL A   1      39.223  30.709  31.434  1.00  0.00    -0.354 N 
ATOM     35  C   UNL A   1      42.363  28.752  33.683  1.00  0.00     0.074 A 
ATOM     36  C   UNL A   1      42.886  27.613  32.957  1.00  0.00     0.031 C 
ATOM     37  C   UNL A   1      37.809  30.985  29.722  1.00  0.00     0.029 A 
ATOM     38  C   UNL A   1      38.220  31.545  31.006  1.00  0.00     0.049 A 
ATOM     39  H   UNL A   1      39.735  30.859  32.261  1.00  0.00     0.167 HD
ATOM     40  C   UNL A   1      42.832  29.181  34.879  1.00  0.00     0.037 A 
ATOM     41  C   UNL A   1      37.673  32.624  31.599  1.00  0.00     0.037 A 
ATOM     42  C   UNL A   1      42.320  30.328  35.581  1.00  0.00     0.049 A 
ATOM     43  C   UNL A   1      38.187  33.062  32.943  1.00  0.00     0.074 A 
ATOM     44  C   UNL A   1      42.724  30.844  36.801  1.00  0.00     0.029 A 
ATOM     45  N   UNL A   1      41.293  31.142  35.124  1.00  0.00    -0.354 N 
ATOM     46  N   UNL A   1      39.146  32.536  33.667  1.00  0.00    -0.248 NA
ATOM     47  C   UNL A   1      37.541  34.231  33.554  1.00  0.00     0.031 C 
ATOM     48  C   UNL A   1      41.924  31.957  37.092  1.00  0.00     0.029 A 
ATOM     49  C   UNL A   1      41.045  32.151  36.039  1.00  0.00     0.049 A 
ATOM     50  H   UNL A   1      40.813  31.021  34.273  1.00  0.00     0.167 HD
ATOM     51  C   UNL A   1      39.226  33.317  34.814  1.00  0.00     0.074 A 
ATOM     52  C   UNL A   1      38.229  34.360  34.681  1.00  0.00     0.031 C 
ATOM     53  C   UNL A   1      40.050  33.182  35.882  1.00  0.00     0.037 A 
BRANCH  40  54
ATOM     54  C   UNL A   1      43.934  28.385  35.517  1.00  0.00     0.058 A 
ATOM     55  C   UNL A   1      43.667  27.336  36.410  1.00  0.00     0.135 A 
ATOM     56  C   UNL A   1      45.276  28.660  35.208  1.00  0.00     0.135 A 
ATOM     57  F   UNL A   1      42.402  27.046  36.752  1.00  0.00    -0.206 F 
ATOM     58  C   UNL A   1      44.695  26.602  36.995  1.00  0.00     0.059 A 
ATOM     59  C   UNL A   1      46.318  27.925  35.765  1.00  0.00     0.059 A 
ATOM     60  F   UNL A   1      45.584  29.654  34.361  1.00  0.00    -0.206 F 
ATOM     61  C   UNL A   1      46.018  26.907  36.669  1.00  0.00     0.060 A 
BRANCH  61  62
ATOM     62  S   UNL A   1      47.344  25.947  37.431  1.00  0.00     0.124 S 
ATOM     63  O   UNL A   1      48.030  25.418  36.256  1.00  0.00    -0.237 OA
ATOM     64  O   UNL A   1      48.073  26.960  38.188  1.00  0.00    -0.237 OA
ATOM     65  O   UNL A   1      46.630  24.962  38.237  1.00  0.00    -0.744 OA
ENDBRANCH  61  62
ENDBRANCH  40  54
BRANCH  41  66
ATOM     66  C   UNL A   1      36.556  33.344  30.936  1.00  0.00     0.058 A 
ATOM     67  C   UNL A   1      36.779  34.141  29.803  1.00  0.00     0.135 A 
ATOM     68  C   UNL A   1      35.239  33.233  31.410  1.00  0.00     0.135 A 
ATOM     69  F   UNL A   1      38.022  34.284  29.319  1.00  0.00    -0.206 F 
ATOM     70  C   UNL A   1      35.737  34.808  29.166  1.00  0.00     0.059 A 
ATOM     71  C   UNL A   1      34.179  33.872  30.778  1.00  0.00     0.059 A 
ATOM     72  F   UNL A   1      34.974  32.473  32.484  1.00  0.00    -0.206 F 
ATOM     73  C   UNL A   1      34.438  34.665  29.661  1.00  0.00     0.060 A 
BRANCH  73  74
ATOM     74  S   UNL A   1      33.080  35.483  28.796  1.00  0.00     0.124 S 
ATOM     75  O   UNL A   1      32.471  34.365  28.085  1.00  0.00    -0.237 OA
ATOM     76  O   UNL A   1      32.300  36.041  29.897  1.00  0.00    -0.237 OA
ATOM     77  O   UNL A   1      33.762  36.468  27.962  1.00  0.00    -0.744 OA
ENDBRANCH  73  74
ENDBRANCH  41  66
BRANCH  53  78
ATOM     78  C   UNL A   1      39.924  34.200  36.978  1.00  0.00     0.058 A 
ATOM     79  C   UNL A   1      40.614  35.422  36.925  1.00  0.00     0.135 A 
ATOM     80  C   UNL A   1      39.069  33.971  38.067  1.00  0.00     0.135 A 
ATOM     81  F   UNL A   1      41.447  35.683  35.907  1.00  0.00    -0.206 F 
ATOM     82  C   UNL A   1      40.471  36.377  37.926  1.00  0.00     0.059 A 
ATOM     83  C   UNL A   1      38.898  34.921  39.069  1.00  0.00     0.059 A 
ATOM     84  F   UNL A   1      38.383  32.821  38.158  1.00  0.00    -0.206 F 
ATOM     85  C   UNL A   1      39.611  36.116  38.996  1.00  0.00     0.060 A 
BRANCH  85  86
ATOM     86  S   UNL A   1      39.406  37.375  40.273  1.00  0.00     0.124 S 
ATOM     87  O   UNL A   1      38.554  38.345  39.595  1.00  0.00    -0.237 OA
ATOM     88  O   UNL A   1      38.775  36.627  41.356  1.00  0.00    -0.237 OA
ATOM     89  O   UNL A   1      40.772  37.814  40.538  1.00  0.00    -0.744 OA
ENDBRANCH  85  86
ENDBRANCH  53  78
ENDBRANCH  27  28
ENDBRANCH  20  22
ENDBRANCH  19  20
ENDBRANCH  18  19
ENDBRANCH   1  18
TORSDOF 18
ENDMDL
MODEL 3
REMARK VINA RESULT:      -9.0      2.562      3.771
REMARK SMILES CCc1ccc(C(=O)[C@@H](Br)CC(=O)OCCOC(=O)c2ccc(-c3c4nc(c(-c5c(F)cc(S(=O)(=O)[O-])cc5F)c5ccc([nH]5)c(-c5c(F)cc(S(=O)(=O)[O-])cc5F)c5nc(c(-c6c(F)cc(S(=O)(=O)[O-])cc6F)c6ccc3[nH]6)C=C5)C=C4)cc2)cc1
REMARK SMILES IDX 15 1 14 2 12 3 13 4 11 5 9 6 10 7 7 8 8 9 6 10 3 11 4 12
REMARK SMILES IDX 87 13 5 14 86 15 2 16 1 17 16 18 17 19 18 20 19 21 20 22
REMARK SMILES IDX 21 23 85 24 22 25 84 26 23 27 24 28 25 29 78 30 26 31 83 32
REMARK SMILES IDX 77 33 79 34 27 35 82 36 76 37 75 38 28 40 62 41 41 42 61 43
REMARK SMILES IDX 42 44 45 45 60 46 80 47 43 48 44 49 59 51 81 52 46 53 29 54
REMARK SMILES IDX 30 55 39 56 31 57 32 58 38 59 40 60 33 61 34 62 35 63 36 64
REMARK SMILES IDX 37 65 63 66 64 67 73 68 65 69 66 70 72 71 74 72 67 73 68 74
REMARK SMILES IDX 69 75 70 76 71 77 47 78 48 79 57 80 49 81 50 82 56 83 58 84
REMARK SMILES IDX 51 85 52 86 53 87 54 88 55 89
REMARK H PARENT 79 39 45 50
REMARK Flexibility Score: inf
ROOT
ATOM      1  C   UNL A   1      34.074  33.637  29.650  1.00  0.00     0.274 C 
ENDROOT
BRANCH   1   2
ATOM      2  O   UNL A   1      34.397  32.955  30.877  1.00  0.00    -0.462 OA
BRANCH   2   3
ATOM      3  C   UNL A   1      34.778  33.743  31.912  1.00  0.00     0.307 C 
ATOM      4  O   UNL A   1      34.802  34.967  31.889  1.00  0.00    -0.252 OA
BRANCH   3   5
ATOM      5  C   UNL A   1      35.260  32.955  33.104  1.00  0.00     0.146 C 
BRANCH   5   6
ATOM      6  C   UNL A   1      36.697  32.475  32.975  1.00  0.00     0.140 C 
ATOM      7  Br  UNL A   1      37.580  33.352  31.457  1.00  0.00    -0.080 Br
BRANCH   6   8
ATOM      8  C   UNL A   1      36.917  30.980  32.792  1.00  0.00     0.177 C 
ATOM      9  O   UNL A   1      35.986  30.233  32.477  1.00  0.00    -0.293 OA
BRANCH   8  10
ATOM     10  C   UNL A   1      38.262  30.358  32.961  1.00  0.00     0.019 A 
ATOM     11  C   UNL A   1      40.767  29.071  33.171  1.00  0.00    -0.048 A 
ATOM     12  C   UNL A   1      39.668  28.408  32.611  1.00  0.00     0.004 A 
ATOM     13  C   UNL A   1      40.589  30.385  33.630  1.00  0.00     0.004 A 
ATOM     14  C   UNL A   1      38.427  29.043  32.513  1.00  0.00     0.012 A 
ATOM     15  C   UNL A   1      39.346  31.018  33.545  1.00  0.00     0.012 A 
BRANCH  11  16
ATOM     16  C   UNL A   1      42.146  28.461  33.266  1.00  0.00     0.032 C 
ATOM     17  C   UNL A   1      42.989  28.889  34.459  1.00  0.00     0.009 C 
ENDBRANCH  11  16
ENDBRANCH   8  10
ENDBRANCH   6   8
ENDBRANCH   5   6
ENDBRANCH   3   5
ENDBRANCH   2   3
ENDBRANCH   1   2
BRANCH   1  18
ATOM     18  C   UNL A   1      34.363  32.769  28.422  1.00  0.00     0.275 C 
BRANCH  18  19
ATOM     19  O   UNL A   1      34.172  31.370  28.699  1.00  0.00    -0.458 OA
BRANCH  19  20
ATOM     20  C   UNL A   1      34.524  30.534  27.694  1.00  0.00     0.338 C 
ATOM     21  O   UNL A   1      33.895  30.302  26.676  1.00  0.00    -0.246 OA
BRANCH  20  22
ATOM     22  C   UNL A   1      35.880  30.019  27.919  1.00  0.00     0.060 A 
ATOM     23  C   UNL A   1      36.198  29.546  29.194  1.00  0.00     0.016 A 
ATOM     24  C   UNL A   1      36.856  30.103  26.928  1.00  0.00     0.016 A 
ATOM     25  C   UNL A   1      37.499  29.154  29.489  1.00  0.00     0.010 A 
ATOM     26  C   UNL A   1      38.164  29.704  27.223  1.00  0.00     0.010 A 
ATOM     27  C   UNL A   1      38.495  29.239  28.509  1.00  0.00    -0.014 A 
BRANCH  27  28
ATOM     28  C   UNL A   1      39.892  28.883  28.851  1.00  0.00     0.031 A 
ATOM     29  C   UNL A   1      40.779  29.895  29.517  1.00  0.00     0.074 A 
ATOM     30  C   UNL A   1      40.351  27.645  28.585  1.00  0.00     0.049 A 
ATOM     31  N   UNL A   1      42.052  29.816  29.802  1.00  0.00    -0.248 NA
ATOM     32  C   UNL A   1      40.149  31.164  29.915  1.00  0.00     0.031 C 
ATOM     33  C   UNL A   1      39.565  26.565  27.986  1.00  0.00     0.029 A 
ATOM     34  N   UNL A   1      41.589  27.089  28.782  1.00  0.00    -0.354 N 
ATOM     35  C   UNL A   1      42.386  31.031  30.386  1.00  0.00     0.074 A 
ATOM     36  C   UNL A   1      41.180  31.833  30.411  1.00  0.00     0.031 C 
ATOM     37  C   UNL A   1      40.340  25.475  27.865  1.00  0.00     0.029 A 
ATOM     38  C   UNL A   1      41.686  25.795  28.332  1.00  0.00     0.049 A 
ATOM     39  H   UNL A   1      42.336  27.571  29.204  1.00  0.00     0.167 HD
ATOM     40  C   UNL A   1      43.589  31.440  30.854  1.00  0.00     0.037 A 
ATOM     41  C   UNL A   1      42.750  24.970  28.274  1.00  0.00     0.037 A 
ATOM     42  C   UNL A   1      44.777  30.627  30.845  1.00  0.00     0.049 A 
ATOM     43  C   UNL A   1      44.084  25.457  28.769  1.00  0.00     0.074 A 
ATOM     44  C   UNL A   1      46.046  30.949  31.294  1.00  0.00     0.029 A 
ATOM     45  N   UNL A   1      44.840  29.326  30.368  1.00  0.00    -0.354 N 
ATOM     46  N   UNL A   1      44.392  26.623  29.287  1.00  0.00    -0.248 NA
ATOM     47  C   UNL A   1      45.214  24.525  28.663  1.00  0.00     0.031 C 
ATOM     48  C   UNL A   1      46.884  29.850  31.065  1.00  0.00     0.029 A 
ATOM     49  C   UNL A   1      46.127  28.833  30.504  1.00  0.00     0.049 A 
ATOM     50  H   UNL A   1      44.082  28.826  29.990  1.00  0.00     0.167 HD
ATOM     51  C   UNL A   1      45.749  26.559  29.580  1.00  0.00     0.074 A 
ATOM     52  C   UNL A   1      46.200  25.237  29.195  1.00  0.00     0.031 C 
ATOM     53  C   UNL A   1      46.551  27.511  30.118  1.00  0.00     0.037 A 
BRANCH  40  54
ATOM     54  C   UNL A   1      43.686  32.841  31.385  1.00  0.00     0.058 A 
ATOM     55  C   UNL A   1      43.907  33.939  30.539  1.00  0.00     0.135 A 
ATOM     56  C   UNL A   1      43.529  33.091  32.758  1.00  0.00     0.135 A 
ATOM     57  F   UNL A   1      44.082  33.752  29.222  1.00  0.00    -0.206 F 
ATOM     58  C   UNL A   1      43.992  35.235  31.039  1.00  0.00     0.059 A 
ATOM     59  C   UNL A   1      43.590  34.381  33.277  1.00  0.00     0.059 A 
ATOM     60  F   UNL A   1      43.318  32.075  33.609  1.00  0.00    -0.206 F 
ATOM     61  C   UNL A   1      43.837  35.445  32.412  1.00  0.00     0.060 A 
BRANCH  61  62
ATOM     62  S   UNL A   1      43.948  37.130  33.051  1.00  0.00     0.124 S 
ATOM     63  O   UNL A   1      42.829  37.158  33.987  1.00  0.00    -0.237 OA
ATOM     64  O   UNL A   1      45.277  37.154  33.651  1.00  0.00    -0.237 OA
ATOM     65  O   UNL A   1      43.789  37.956  31.858  1.00  0.00    -0.744 OA
ENDBRANCH  61  62
ENDBRANCH  40  54
BRANCH  41  66
ATOM     66  C   UNL A   1      42.599  23.609  27.698  1.00  0.00     0.058 A 
ATOM     67  C   UNL A   1      42.681  23.394  26.315  1.00  0.00     0.135 A 
ATOM     68  C   UNL A   1      42.391  22.493  28.523  1.00  0.00     0.135 A 
ATOM     69  F   UNL A   1      42.871  24.432  25.485  1.00  0.00    -0.206 F 
ATOM     70  C   UNL A   1      42.556  22.121  25.767  1.00  0.00     0.059 A 
ATOM     71  C   UNL A   1      42.285  21.209  28.002  1.00  0.00     0.059 A 
ATOM     72  F   UNL A   1      42.316  22.646  29.855  1.00  0.00    -0.206 F 
ATOM     73  C   UNL A   1      42.360  21.033  26.621  1.00  0.00     0.060 A 
BRANCH  73  74
ATOM     74  S   UNL A   1      42.259  19.374  25.912  1.00  0.00     0.124 S 
ATOM     75  O   UNL A   1      40.844  19.286  25.576  1.00  0.00    -0.237 OA
ATOM     76  O   UNL A   1      43.181  19.462  24.783  1.00  0.00    -0.237 OA
ATOM     77  O   UNL A   1      42.706  18.518  27.007  1.00  0.00    -0.744 OA
ENDBRANCH  73  74
ENDBRANCH  41  66
BRANCH  53  78
ATOM     78  C   UNL A   1      47.990  27.147  30.344  1.00  0.00     0.058 A 
ATOM     79  C   UNL A   1      48.976  27.430  29.385  1.00  0.00     0.135 A 
ATOM     80  C   UNL A   1      48.392  26.553  31.549  1.00  0.00     0.135 A 
ATOM     81  F   UNL A   1      48.638  27.991  28.214  1.00  0.00    -0.206 F 
ATOM     82  C   UNL A   1      50.313  27.121  29.610  1.00  0.00     0.059 A 
ATOM     83  C   UNL A   1      49.727  26.252  31.802  1.00  0.00     0.059 A 
ATOM     84  F   UNL A   1      47.487  26.270  32.499  1.00  0.00    -0.206 F 
ATOM     85  C   UNL A   1      50.679  26.530  30.822  1.00  0.00     0.060 A 
BRANCH  85  86
ATOM     86  S   UNL A   1      52.421  26.162  31.119  1.00  0.00     0.124 S 
ATOM     87  O   UNL A   1      52.971  26.237  29.770  1.00  0.00    -0.237 OA
ATOM     88  O   UNL A   1      52.821  27.233  32.026  1.00  0.00    -0.237 OA
ATOM     89  O   UNL A   1      52.388  24.829  31.712  1.00  0.00    -0.744 OA
ENDBRANCH  85  86
ENDBRANCH  53  78
ENDBRANCH  27  28
ENDBRANCH  20  22
ENDBRANCH  19  20
ENDBRANCH  18  19
ENDBRANCH   1  18
TORSDOF 18
ENDMDL
