MODEL 1
REMARK VINA RESULT:     -11.2      0.000      0.000
REMARK SMILES [NH3+]C1CC[NH+](CC(=O)Nc2cc(Cl)ccc2C(=O)OCCOC(=O)c2ccc(-c3c4nc(c(-c5c(F)cc(S(=O)(=O)[O-])cc5F)c5ccc([nH]5)c(-c5c(F)cc(S(=O)(=O)[O-])cc5F)c5nc(c(-c6c(F)cc(S(=O)(=O)[O-])cc6F)c6ccc3[nH]6)C=C5)C=C4)cc2)CC1
REMARK SMILES IDX 20 1 19 2 17 3 18 4 16 5 10 6 11 7 12 8 15 9 13 10 14 11
REMARK SMILES IDX 9 12 7 13 8 14 6 16 5 17 2 18 3 19 92 20 4 21 91 22 1 24
REMARK SMILES IDX 21 28 22 29 23 30 24 31 25 32 26 33 90 34 27 35 89 36 28 37
REMARK SMILES IDX 29 38 30 39 83 40 31 41 88 42 82 43 84 44 32 45 87 46 81 47
REMARK SMILES IDX 80 48 33 50 67 51 46 52 66 53 47 54 50 55 65 56 85 57 48 58
REMARK SMILES IDX 49 59 64 61 86 62 51 63 34 64 35 65 44 66 36 67 37 68 43 69
REMARK SMILES IDX 45 70 38 71 39 72 40 73 41 74 42 75 68 76 69 77 78 78 70 79
REMARK SMILES IDX 71 80 77 81 79 82 72 83 73 84 74 85 75 86 76 87 52 88 53 89
REMARK SMILES IDX 62 90 54 91 55 92 61 93 63 94 56 95 57 96 58 97 59 98 60 99
REMARK H PARENT 9 15 5 23 1 25 1 26 1 27 84 49 50 60
REMARK Flexibility Score: inf
ROOT
ATOM      1  C   UNL A   1      32.007  30.187  27.044  1.00  0.00     0.275 C 
ENDROOT
BRANCH   1   2
ATOM      2  O   UNL A   1      31.949  29.334  25.881  1.00  0.00    -0.458 OA
BRANCH   2   3
ATOM      3  C   UNL A   1      31.714  28.013  26.095  1.00  0.00     0.340 C 
ATOM      4  O   UNL A   1      31.303  27.518  27.120  1.00  0.00    -0.246 OA
BRANCH   3   5
ATOM      5  C   UNL A   1      31.885  27.247  24.818  1.00  0.00     0.083 A 
ATOM      6  C   UNL A   1      31.578  25.872  24.659  1.00  0.00     0.057 A 
ATOM      7  C   UNL A   1      31.901  25.280  23.435  1.00  0.00     0.047 A 
ATOM      8  C   UNL A   1      32.420  26.034  22.372  1.00  0.00     0.043 A 
ATOM      9  C   UNL A   1      32.392  27.997  23.735  1.00  0.00     0.019 A 
ATOM     10  Cl  UNL A   1      32.710  25.277  20.855  1.00  0.00    -0.084 Cl
ATOM     11  C   UNL A   1      32.664  27.391  22.513  1.00  0.00     0.021 A 
BRANCH   6  12
ATOM     12  N   UNL A   1      30.895  25.211  25.707  1.00  0.00    -0.320 N 
ATOM     13  C   UNL A   1      31.133  24.202  26.591  1.00  0.00     0.279 C 
ATOM     14  O   UNL A   1      30.147  23.834  27.251  1.00  0.00    -0.268 OA
ATOM     15  H   UNL A   1      29.994  25.586  25.833  1.00  0.00     0.170 HD
BRANCH  13  16
ATOM     16  C   UNL A   1      32.473  23.518  26.811  1.00  0.00     0.363 C 
BRANCH  16  17
ATOM     17  N   UNL A   1      32.564  22.091  26.469  1.00  0.00    -0.327 N 
ATOM     18  C   UNL A   1      34.778  20.891  24.877  1.00  0.00     0.192 C 
ATOM     19  C   UNL A   1      33.585  21.582  24.199  1.00  0.00     0.126 C 
ATOM     20  C   UNL A   1      34.943  21.390  26.309  1.00  0.00     0.126 C 
ATOM     21  C   UNL A   1      32.332  21.709  25.077  1.00  0.00     0.268 C 
ATOM     22  C   UNL A   1      33.628  21.310  27.078  1.00  0.00     0.268 C 
ATOM     23  H   UNL A   1      31.718  21.808  26.965  1.00  0.00     0.348 HD
BRANCH  18  24
ATOM     24  N   UNL A   1      34.649  19.429  24.878  1.00  0.00    -0.355 N 
ATOM     25  H   UNL A   1      35.510  19.012  25.232  1.00  0.00     0.344 HD
ATOM     26  H   UNL A   1      34.478  19.102  23.927  1.00  0.00     0.344 HD
ATOM     27  H   UNL A   1      33.869  19.158  25.476  1.00  0.00     0.344 HD
ENDBRANCH  18  24
ENDBRANCH  16  17
ENDBRANCH  13  16
ENDBRANCH   6  12
ENDBRANCH   3   5
ENDBRANCH   2   3
ENDBRANCH   1   2
BRANCH   1  28
ATOM     28  C   UNL A   1      33.397  30.815  27.139  1.00  0.00     0.275 C 
BRANCH  28  29
ATOM     29  O   UNL A   1      34.188  30.064  28.079  1.00  0.00    -0.458 OA
BRANCH  29  30
ATOM     30  C   UNL A   1      35.041  30.787  28.843  1.00  0.00     0.338 C 
ATOM     31  O   UNL A   1      34.774  31.731  29.566  1.00  0.00    -0.246 OA
BRANCH  30  32
ATOM     32  C   UNL A   1      36.381  30.181  28.779  1.00  0.00     0.060 A 
ATOM     33  C   UNL A   1      36.968  29.773  29.970  1.00  0.00     0.016 A 
ATOM     34  C   UNL A   1      37.120  30.162  27.601  1.00  0.00     0.016 A 
ATOM     35  C   UNL A   1      38.324  29.472  30.021  1.00  0.00     0.010 A 
ATOM     36  C   UNL A   1      38.449  29.709  27.631  1.00  0.00     0.010 A 
ATOM     37  C   UNL A   1      39.085  29.392  28.849  1.00  0.00    -0.014 A 
BRANCH  37  38
ATOM     38  C   UNL A   1      40.530  29.007  28.908  1.00  0.00     0.031 A 
ATOM     39  C   UNL A   1      41.571  30.020  29.322  1.00  0.00     0.074 A 
ATOM     40  C   UNL A   1      40.927  27.749  28.609  1.00  0.00     0.049 A 
ATOM     41  N   UNL A   1      42.873  29.970  29.198  1.00  0.00    -0.248 NA
ATOM     42  C   UNL A   1      41.081  31.262  29.943  1.00  0.00     0.031 C 
ATOM     43  C   UNL A   1      40.043  26.635  28.252  1.00  0.00     0.029 A 
ATOM     44  N   UNL A   1      42.183  27.187  28.563  1.00  0.00    -0.354 N 
ATOM     45  C   UNL A   1      43.349  31.198  29.648  1.00  0.00     0.074 A 
ATOM     46  C   UNL A   1      42.196  31.970  30.056  1.00  0.00     0.031 C 
ATOM     47  C   UNL A   1      40.769  25.522  28.085  1.00  0.00     0.029 A 
ATOM     48  C   UNL A   1      42.182  25.865  28.180  1.00  0.00     0.049 A 
ATOM     49  H   UNL A   1      43.003  27.683  28.785  1.00  0.00     0.167 HD
ATOM     50  C   UNL A   1      44.630  31.638  29.708  1.00  0.00     0.037 A 
ATOM     51  C   UNL A   1      43.191  25.030  27.863  1.00  0.00     0.037 A 
ATOM     52  C   UNL A   1      45.774  30.832  29.367  1.00  0.00     0.049 A 
ATOM     53  C   UNL A   1      44.600  25.553  27.887  1.00  0.00     0.074 A 
ATOM     54  C   UNL A   1      47.114  31.179  29.406  1.00  0.00     0.029 A 
ATOM     55  N   UNL A   1      45.717  29.511  28.944  1.00  0.00    -0.354 N 
ATOM     56  N   UNL A   1      45.028  26.743  28.230  1.00  0.00    -0.248 NA
ATOM     57  C   UNL A   1      45.657  24.631  27.452  1.00  0.00     0.031 C 
ATOM     58  C   UNL A   1      47.864  30.083  28.964  1.00  0.00     0.029 A 
ATOM     59  C   UNL A   1      46.996  29.035  28.702  1.00  0.00     0.049 A 
ATOM     60  H   UNL A   1      44.891  28.989  28.833  1.00  0.00     0.167 HD
ATOM     61  C   UNL A   1      46.407  26.712  28.060  1.00  0.00     0.074 A 
ATOM     62  C   UNL A   1      46.742  25.378  27.606  1.00  0.00     0.031 C 
ATOM     63  C   UNL A   1      47.313  27.701  28.256  1.00  0.00     0.037 A 
BRANCH  50  64
ATOM     64  C   UNL A   1      44.865  33.070  30.112  1.00  0.00     0.058 A 
ATOM     65  C   UNL A   1      44.871  34.124  29.185  1.00  0.00     0.135 A 
ATOM     66  C   UNL A   1      45.053  33.394  31.467  1.00  0.00     0.135 A 
ATOM     67  F   UNL A   1      44.712  33.873  27.875  1.00  0.00    -0.206 F 
ATOM     68  C   UNL A   1      45.084  35.442  29.582  1.00  0.00     0.059 A 
ATOM     69  C   UNL A   1      45.238  34.708  31.890  1.00  0.00     0.059 A 
ATOM     70  F   UNL A   1      45.056  32.428  32.398  1.00  0.00    -0.206 F 
ATOM     71  C   UNL A   1      45.267  35.723  30.938  1.00  0.00     0.060 A 
BRANCH  71  72
ATOM     72  S   UNL A   1      45.544  37.437  31.437  1.00  0.00     0.124 S 
ATOM     73  O   UNL A   1      46.213  37.262  32.722  1.00  0.00    -0.237 OA
ATOM     74  O   UNL A   1      46.376  37.948  30.352  1.00  0.00    -0.237 OA
ATOM     75  O   UNL A   1      44.196  37.994  31.503  1.00  0.00    -0.744 OA
ENDBRANCH  71  72
ENDBRANCH  50  64
BRANCH  51  76
ATOM     76  C   UNL A   1      42.897  23.639  27.417  1.00  0.00     0.058 A 
ATOM     77  C   UNL A   1      42.800  23.318  26.055  1.00  0.00     0.135 A 
ATOM     78  C   UNL A   1      42.727  22.597  28.345  1.00  0.00     0.135 A 
ATOM     79  F   UNL A   1      42.937  24.278  25.128  1.00  0.00    -0.206 F 
ATOM     80  C   UNL A   1      42.544  22.018  25.629  1.00  0.00     0.059 A 
ATOM     81  C   UNL A   1      42.507  21.284  27.942  1.00  0.00     0.059 A 
ATOM     82  F   UNL A   1      42.818  22.846  29.661  1.00  0.00    -0.206 F 
ATOM     83  C   UNL A   1      42.407  21.005  26.581  1.00  0.00     0.060 A 
BRANCH  83  84
ATOM     84  S   UNL A   1      42.138  19.311  26.018  1.00  0.00     0.124 S 
ATOM     85  O   UNL A   1      42.689  18.543  27.128  1.00  0.00    -0.237 OA
ATOM     86  O   UNL A   1      40.688  19.265  25.865  1.00  0.00    -0.237 OA
ATOM     87  O   UNL A   1      42.894  19.250  24.770  1.00  0.00    -0.744 OA
ENDBRANCH  83  84
ENDBRANCH  51  76
BRANCH  63  88
ATOM     88  C   UNL A   1      48.758  27.368  28.014  1.00  0.00     0.058 A 
ATOM     89  C   UNL A   1      49.398  27.692  26.809  1.00  0.00     0.135 A 
ATOM     90  C   UNL A   1      49.523  26.758  29.023  1.00  0.00     0.135 A 
ATOM     91  F   UNL A   1      48.708  28.264  25.810  1.00  0.00    -0.206 F 
ATOM     92  C   UNL A   1      50.743  27.408  26.603  1.00  0.00     0.059 A 
ATOM     93  C   UNL A   1      50.876  26.491  28.849  1.00  0.00     0.059 A 
ATOM     94  F   UNL A   1      48.958  26.434  30.197  1.00  0.00    -0.206 F 
ATOM     95  C   UNL A   1      51.475  26.810  27.632  1.00  0.00     0.060 A 
BRANCH  95  96
ATOM     96  S   UNL A   1      53.231  26.484  27.367  1.00  0.00     0.124 S 
ATOM     97  O   UNL A   1      53.766  26.644  28.715  1.00  0.00    -0.237 OA
ATOM     98  O   UNL A   1      53.220  25.120  26.847  1.00  0.00    -0.237 OA
ATOM     99  O   UNL A   1      53.626  27.511  26.408  1.00  0.00    -0.744 OA
ENDBRANCH  95  96
ENDBRANCH  63  88
ENDBRANCH  37  38
ENDBRANCH  30  32
ENDBRANCH  29  30
ENDBRANCH  28  29
ENDBRANCH   1  28
TORSDOF 18
ENDMDL
MODEL 2
REMARK VINA RESULT:     -11.1      1.632      2.607
REMARK SMILES [NH3+]C1CC[NH+](CC(=O)Nc2cc(Cl)ccc2C(=O)OCCOC(=O)c2ccc(-c3c4nc(c(-c5c(F)cc(S(=O)(=O)[O-])cc5F)c5ccc([nH]5)c(-c5c(F)cc(S(=O)(=O)[O-])cc5F)c5nc(c(-c6c(F)cc(S(=O)(=O)[O-])cc6F)c6ccc3[nH]6)C=C5)C=C4)cc2)CC1
REMARK SMILES IDX 20 1 19 2 17 3 18 4 16 5 10 6 11 7 12 8 15 9 13 10 14 11
REMARK SMILES IDX 9 12 7 13 8 14 6 16 5 17 2 18 3 19 92 20 4 21 91 22 1 24
REMARK SMILES IDX 21 28 22 29 23 30 24 31 25 32 26 33 90 34 27 35 89 36 28 37
REMARK SMILES IDX 29 38 30 39 83 40 31 41 88 42 82 43 84 44 32 45 87 46 81 47
REMARK SMILES IDX 80 48 33 50 67 51 46 52 66 53 47 54 50 55 65 56 85 57 48 58
REMARK SMILES IDX 49 59 64 61 86 62 51 63 34 64 35 65 44 66 36 67 37 68 43 69
REMARK SMILES IDX 45 70 38 71 39 72 40 73 41 74 42 75 68 76 69 77 78 78 70 79
REMARK SMILES IDX 71 80 77 81 79 82 72 83 73 84 74 85 75 86 76 87 52 88 53 89
REMARK SMILES IDX 62 90 54 91 55 92 61 93 63 94 56 95 57 96 58 97 59 98 60 99
REMARK H PARENT 9 15 5 23 1 25 1 26 1 27 84 49 50 60
REMARK Flexibility Score: inf
ROOT
ATOM      1  C   UNL A   1      33.788  28.519  25.453  1.00  0.00     0.275 C 
ENDROOT
BRANCH   1   2
ATOM      2  O   UNL A   1      33.002  28.302  24.262  1.00  0.00    -0.458 OA
BRANCH   2   3
ATOM      3  C   UNL A   1      31.658  28.179  24.423  1.00  0.00     0.340 C 
ATOM      4  O   UNL A   1      30.824  29.004  24.121  1.00  0.00    -0.246 OA
BRANCH   3   5
ATOM      5  C   UNL A   1      31.320  26.797  24.892  1.00  0.00     0.083 A 
ATOM      6  C   UNL A   1      31.460  25.624  24.107  1.00  0.00     0.057 A 
ATOM      7  C   UNL A   1      30.994  24.426  24.654  1.00  0.00     0.047 A 
ATOM      8  C   UNL A   1      30.495  24.365  25.963  1.00  0.00     0.043 A 
ATOM      9  C   UNL A   1      30.831  26.718  26.214  1.00  0.00     0.019 A 
ATOM     10  Cl  UNL A   1      30.024  22.848  26.624  1.00  0.00    -0.084 Cl
ATOM     11  C   UNL A   1      30.414  25.503  26.749  1.00  0.00     0.021 A 
BRANCH   6  12
ATOM     12  N   UNL A   1      32.131  25.725  22.866  1.00  0.00    -0.320 N 
ATOM     13  C   UNL A   1      32.953  24.960  22.095  1.00  0.00     0.279 C 
ATOM     14  O   UNL A   1      33.452  25.540  21.116  1.00  0.00    -0.268 OA
ATOM     15  H   UNL A   1      31.954  26.594  22.438  1.00  0.00     0.170 HD
BRANCH  13  16
ATOM     16  C   UNL A   1      33.292  23.499  22.346  1.00  0.00     0.363 C 
BRANCH  16  17
ATOM     17  N   UNL A   1      34.460  23.216  23.193  1.00  0.00    -0.327 N 
ATOM     18  C   UNL A   1      34.442  23.359  26.169  1.00  0.00     0.192 C 
ATOM     19  C   UNL A   1      34.633  24.616  25.307  1.00  0.00     0.126 C 
ATOM     20  C   UNL A   1      33.738  22.265  25.373  1.00  0.00     0.126 C 
ATOM     21  C   UNL A   1      35.100  24.344  23.870  1.00  0.00     0.268 C 
ATOM     22  C   UNL A   1      34.424  22.028  24.031  1.00  0.00     0.268 C 
ATOM     23  H   UNL A   1      35.091  22.975  22.429  1.00  0.00     0.348 HD
BRANCH  18  24
ATOM     24  N   UNL A   1      35.712  22.844  26.695  1.00  0.00    -0.355 N 
ATOM     25  H   UNL A   1      36.461  23.500  26.475  1.00  0.00     0.344 HD
ATOM     26  H   UNL A   1      35.915  21.940  26.268  1.00  0.00     0.344 HD
ATOM     27  H   UNL A   1      35.641  22.734  27.706  1.00  0.00     0.344 HD
ENDBRANCH  18  24
ENDBRANCH  16  17
ENDBRANCH  13  16
ENDBRANCH   6  12
ENDBRANCH   3   5
ENDBRANCH   2   3
ENDBRANCH   1   2
BRANCH   1  28
ATOM     28  C   UNL A   1      33.245  29.736  26.200  1.00  0.00     0.275 C 
BRANCH  28  29
ATOM     29  O   UNL A   1      33.586  29.621  27.594  1.00  0.00    -0.458 OA
BRANCH  29  30
ATOM     30  C   UNL A   1      34.413  30.577  28.081  1.00  0.00     0.338 C 
ATOM     31  O   UNL A   1      34.111  31.688  28.480  1.00  0.00    -0.246 OA
BRANCH  30  32
ATOM     32  C   UNL A   1      35.776  30.032  28.184  1.00  0.00     0.060 A 
ATOM     33  C   UNL A   1      36.196  29.561  29.421  1.00  0.00     0.016 A 
ATOM     34  C   UNL A   1      36.685  30.131  27.136  1.00  0.00     0.016 A 
ATOM     35  C   UNL A   1      37.543  29.311  29.660  1.00  0.00     0.010 A 
ATOM     36  C   UNL A   1      38.016  29.731  27.340  1.00  0.00     0.010 A 
ATOM     37  C   UNL A   1      38.475  29.350  28.617  1.00  0.00    -0.014 A 
BRANCH  37  38
ATOM     38  C   UNL A   1      39.912  29.020  28.872  1.00  0.00     0.031 A 
ATOM     39  C   UNL A   1      40.842  30.063  29.446  1.00  0.00     0.074 A 
ATOM     40  C   UNL A   1      40.400  27.786  28.611  1.00  0.00     0.049 A 
ATOM     41  N   UNL A   1      42.150  30.066  29.506  1.00  0.00    -0.248 NA
ATOM     42  C   UNL A   1      40.219  31.270  30.013  1.00  0.00     0.031 C 
ATOM     43  C   UNL A   1      39.621  26.647  28.114  1.00  0.00     0.029 A 
ATOM     44  N   UNL A   1      41.672  27.274  28.733  1.00  0.00    -0.354 N 
ATOM     45  C   UNL A   1      42.506  31.301  30.040  1.00  0.00     0.074 A 
ATOM     46  C   UNL A   1      41.277  32.018  30.294  1.00  0.00     0.031 C 
ATOM     47  C   UNL A   1      40.410  25.566  28.032  1.00  0.00     0.029 A 
ATOM     48  C   UNL A   1      41.779  25.961  28.331  1.00  0.00     0.049 A 
ATOM     49  H   UNL A   1      42.432  27.796  29.076  1.00  0.00     0.167 HD
ATOM     50  C   UNL A   1      43.747  31.789  30.287  1.00  0.00     0.037 A 
ATOM     51  C   UNL A   1      42.857  25.174  28.145  1.00  0.00     0.037 A 
ATOM     52  C   UNL A   1      44.960  31.036  30.097  1.00  0.00     0.049 A 
ATOM     53  C   UNL A   1      44.225  25.750  28.376  1.00  0.00     0.074 A 
ATOM     54  C   UNL A   1      46.266  31.434  30.329  1.00  0.00     0.029 A 
ATOM     55  N   UNL A   1      45.018  29.724  29.648  1.00  0.00    -0.354 N 
ATOM     56  N   UNL A   1      44.552  26.948  28.796  1.00  0.00    -0.248 NA
ATOM     57  C   UNL A   1      45.371  24.881  28.078  1.00  0.00     0.031 C 
ATOM     58  C   UNL A   1      47.115  30.378  29.980  1.00  0.00     0.029 A 
ATOM     59  C   UNL A   1      46.337  29.303  29.579  1.00  0.00     0.049 A 
ATOM     60  H   UNL A   1      44.238  29.173  29.412  1.00  0.00     0.167 HD
ATOM     61  C   UNL A   1      45.941  26.974  28.822  1.00  0.00     0.074 A 
ATOM     62  C   UNL A   1      46.391  25.665  28.396  1.00  0.00     0.031 C 
ATOM     63  C   UNL A   1      46.768  27.993  29.160  1.00  0.00     0.037 A 
BRANCH  50  64
ATOM     64  C   UNL A   1      43.864  33.220  30.744  1.00  0.00     0.058 A 
ATOM     65  C   UNL A   1      43.804  33.586  32.097  1.00  0.00     0.135 A 
ATOM     66  C   UNL A   1      44.078  34.241  29.802  1.00  0.00     0.135 A 
ATOM     67  F   UNL A   1      43.587  32.656  33.041  1.00  0.00    -0.206 F 
ATOM     68  C   UNL A   1      43.921  34.915  32.498  1.00  0.00     0.059 A 
ATOM     69  C   UNL A   1      44.227  35.572  30.182  1.00  0.00     0.059 A 
ATOM     70  F   UNL A   1      44.144  33.950  28.493  1.00  0.00    -0.206 F 
ATOM     71  C   UNL A   1      44.132  35.901  31.532  1.00  0.00     0.060 A 
BRANCH  71  72
ATOM     72  S   UNL A   1      44.281  37.619  32.067  1.00  0.00     0.124 S 
ATOM     73  O   UNL A   1      43.818  38.335  30.882  1.00  0.00    -0.237 OA
ATOM     74  O   UNL A   1      43.392  37.665  33.224  1.00  0.00    -0.237 OA
ATOM     75  O   UNL A   1      45.703  37.761  32.368  1.00  0.00    -0.744 OA
ENDBRANCH  71  72
ENDBRANCH  50  64
BRANCH  51  76
ATOM     76  C   UNL A   1      42.686  23.783  27.638  1.00  0.00     0.058 A 
ATOM     77  C   UNL A   1      42.663  22.688  28.513  1.00  0.00     0.135 A 
ATOM     78  C   UNL A   1      42.522  23.524  26.266  1.00  0.00     0.135 A 
ATOM     79  F   UNL A   1      42.833  22.878  29.830  1.00  0.00    -0.206 F 
ATOM     80  C   UNL A   1      42.486  21.387  28.049  1.00  0.00     0.059 A 
ATOM     81  C   UNL A   1      42.307  22.237  25.783  1.00  0.00     0.059 A 
ATOM     82  F   UNL A   1      42.527  24.536  25.384  1.00  0.00    -0.206 F 
ATOM     83  C   UNL A   1      42.300  21.173  26.682  1.00  0.00     0.060 A 
BRANCH  83  84
ATOM     84  S   UNL A   1      42.007  19.490  26.095  1.00  0.00     0.124 S 
ATOM     85  O   UNL A   1      42.404  18.703  27.256  1.00  0.00    -0.237 OA
ATOM     86  O   UNL A   1      40.579  19.515  25.797  1.00  0.00    -0.237 OA
ATOM     87  O   UNL A   1      42.881  19.385  24.931  1.00  0.00    -0.744 OA
ENDBRANCH  83  84
ENDBRANCH  51  76
BRANCH  63  88
ATOM     88  C   UNL A   1      48.245  27.722  29.119  1.00  0.00     0.058 A 
ATOM     89  C   UNL A   1      48.910  27.093  30.181  1.00  0.00     0.135 A 
ATOM     90  C   UNL A   1      48.995  28.055  27.978  1.00  0.00     0.135 A 
ATOM     91  F   UNL A   1      48.241  26.765  31.299  1.00  0.00    -0.206 F 
ATOM     92  C   UNL A   1      50.272  26.818  30.124  1.00  0.00     0.059 A 
ATOM     93  C   UNL A   1      50.352  27.764  27.888  1.00  0.00     0.059 A 
ATOM     94  F   UNL A   1      48.404  28.653  26.932  1.00  0.00    -0.206 F 
ATOM     95  C   UNL A   1      50.984  27.155  28.971  1.00  0.00     0.060 A 
BRANCH  95  96
ATOM     96  S   UNL A   1      52.743  26.756  28.893  1.00  0.00     0.124 S 
ATOM     97  O   UNL A   1      52.968  26.162  30.207  1.00  0.00    -0.237 OA
ATOM     98  O   UNL A   1      52.804  25.836  27.762  1.00  0.00    -0.237 OA
ATOM     99  O   UNL A   1      53.376  28.053  28.674  1.00  0.00    -0.744 OA
ENDBRANCH  95  96
ENDBRANCH  63  88
ENDBRANCH  37  38
ENDBRANCH  30  32
ENDBRANCH  29  30
ENDBRANCH  28  29
ENDBRANCH   1  28
TORSDOF 18
ENDMDL
MODEL 3
REMARK VINA RESULT:     -11.1      5.766     11.966
REMARK SMILES [NH3+]C1CC[NH+](CC(=O)Nc2cc(Cl)ccc2C(=O)OCCOC(=O)c2ccc(-c3c4nc(c(-c5c(F)cc(S(=O)(=O)[O-])cc5F)c5ccc([nH]5)c(-c5c(F)cc(S(=O)(=O)[O-])cc5F)c5nc(c(-c6c(F)cc(S(=O)(=O)[O-])cc6F)c6ccc3[nH]6)C=C5)C=C4)cc2)CC1
REMARK SMILES IDX 20 1 19 2 17 3 18 4 16 5 10 6 11 7 12 8 15 9 13 10 14 11
REMARK SMILES IDX 9 12 7 13 8 14 6 16 5 17 2 18 3 19 92 20 4 21 91 22 1 24
REMARK SMILES IDX 21 28 22 29 23 30 24 31 25 32 26 33 90 34 27 35 89 36 28 37
REMARK SMILES IDX 29 38 30 39 83 40 31 41 88 42 82 43 84 44 32 45 87 46 81 47
REMARK SMILES IDX 80 48 33 50 67 51 46 52 66 53 47 54 50 55 65 56 85 57 48 58
REMARK SMILES IDX 49 59 64 61 86 62 51 63 34 64 35 65 44 66 36 67 37 68 43 69
REMARK SMILES IDX 45 70 38 71 39 72 40 73 41 74 42 75 68 76 69 77 78 78 70 79
REMARK SMILES IDX 71 80 77 81 79 82 72 83 73 84 74 85 75 86 76 87 52 88 53 89
REMARK SMILES IDX 62 90 54 91 55 92 61 93 63 94 56 95 57 96 58 97 59 98 60 99
REMARK H PARENT 9 15 5 23 1 25 1 26 1 27 84 49 50 60
REMARK Flexibility Score: inf
ROOT
ATOM      1  C   UNL A   1      40.374  20.623  25.853  1.00  0.00     0.275 C 
ENDROOT
BRANCH   1   2
ATOM      2  O   UNL A   1      41.374  21.173  26.737  1.00  0.00    -0.458 OA
BRANCH   2   3
ATOM      3  C   UNL A   1      42.388  21.871  26.164  1.00  0.00     0.340 C 
ATOM      4  O   UNL A   1      42.580  22.007  24.975  1.00  0.00    -0.246 OA
BRANCH   3   5
ATOM      5  C   UNL A   1      43.171  22.598  27.214  1.00  0.00     0.083 A 
ATOM      6  C   UNL A   1      44.516  23.024  27.065  1.00  0.00     0.057 A 
ATOM      7  C   UNL A   1      45.137  23.589  28.182  1.00  0.00     0.047 A 
ATOM      8  C   UNL A   1      44.434  23.816  29.374  1.00  0.00     0.043 A 
ATOM      9  C   UNL A   1      42.472  22.847  28.415  1.00  0.00     0.019 A 
ATOM     10  Cl  UNL A   1      45.219  24.603  30.687  1.00  0.00    -0.084 Cl
ATOM     11  C   UNL A   1      43.103  23.452  29.496  1.00  0.00     0.021 A 
BRANCH   6  12
ATOM     12  N   UNL A   1      45.112  22.927  25.786  1.00  0.00    -0.320 N 
ATOM     13  C   UNL A   1      45.773  23.738  24.914  1.00  0.00     0.279 C 
ATOM     14  O   UNL A   1      45.981  23.248  23.791  1.00  0.00    -0.268 OA
ATOM     15  H   UNL A   1      45.024  22.016  25.424  1.00  0.00     0.170 HD
BRANCH  13  16
ATOM     16  C   UNL A   1      46.250  25.151  25.210  1.00  0.00     0.363 C 
BRANCH  16  17
ATOM     17  N   UNL A   1      45.308  26.248  24.945  1.00  0.00    -0.327 N 
ATOM     18  C   UNL A   1      44.526  28.302  26.957  1.00  0.00     0.192 C 
ATOM     19  C   UNL A   1      43.850  26.924  26.914  1.00  0.00     0.126 C 
ATOM     20  C   UNL A   1      45.902  28.244  26.302  1.00  0.00     0.126 C 
ATOM     21  C   UNL A   1      43.990  26.181  25.578  1.00  0.00     0.268 C 
ATOM     22  C   UNL A   1      45.830  27.605  24.919  1.00  0.00     0.268 C 
ATOM     23  H   UNL A   1      45.143  26.014  23.966  1.00  0.00     0.348 HD
BRANCH  18  24
ATOM     24  N   UNL A   1      43.717  29.342  26.311  1.00  0.00    -0.355 N 
ATOM     25  H   UNL A   1      43.419  30.023  27.008  1.00  0.00     0.344 HD
ATOM     26  H   UNL A   1      42.898  28.915  25.879  1.00  0.00     0.344 HD
ATOM     27  H   UNL A   1      44.274  29.809  25.595  1.00  0.00     0.344 HD
ENDBRANCH  18  24
ENDBRANCH  16  17
ENDBRANCH  13  16
ENDBRANCH   6  12
ENDBRANCH   3   5
ENDBRANCH   2   3
ENDBRANCH   1   2
BRANCH   1  28
ATOM     28  C   UNL A   1      39.140  21.525  25.867  1.00  0.00     0.275 C 
BRANCH  28  29
ATOM     29  O   UNL A   1      39.380  22.633  26.755  1.00  0.00    -0.458 OA
BRANCH  29  30
ATOM     30  C   UNL A   1      38.918  23.836  26.337  1.00  0.00     0.338 C 
ATOM     31  O   UNL A   1      38.107  24.055  25.455  1.00  0.00    -0.246 OA
BRANCH  30  32
ATOM     32  C   UNL A   1      39.459  24.892  27.208  1.00  0.00     0.060 A 
ATOM     33  C   UNL A   1      39.132  24.853  28.557  1.00  0.00     0.016 A 
ATOM     34  C   UNL A   1      40.134  25.993  26.691  1.00  0.00     0.016 A 
ATOM     35  C   UNL A   1      39.356  25.958  29.370  1.00  0.00     0.010 A 
ATOM     36  C   UNL A   1      40.496  27.043  27.551  1.00  0.00     0.010 A 
ATOM     37  C   UNL A   1      40.079  27.060  28.897  1.00  0.00    -0.014 A 
BRANCH  37  38
ATOM     38  C   UNL A   1      40.368  28.219  29.799  1.00  0.00     0.031 A 
ATOM     39  C   UNL A   1      41.604  28.217  30.667  1.00  0.00     0.074 A 
ATOM     40  C   UNL A   1      39.544  29.290  29.841  1.00  0.00     0.049 A 
ATOM     41  N   UNL A   1      41.905  28.985  31.684  1.00  0.00    -0.248 NA
ATOM     42  C   UNL A   1      42.629  27.205  30.363  1.00  0.00     0.031 C 
ATOM     43  C   UNL A   1      38.344  29.478  29.020  1.00  0.00     0.029 A 
ATOM     44  N   UNL A   1      39.591  30.435  30.604  1.00  0.00    -0.354 N 
ATOM     45  C   UNL A   1      43.109  28.501  32.187  1.00  0.00     0.074 A 
ATOM     46  C   UNL A   1      43.487  27.377  31.360  1.00  0.00     0.031 C 
ATOM     47  C   UNL A   1      37.808  30.680  29.277  1.00  0.00     0.029 A 
ATOM     48  C   UNL A   1      38.537  31.292  30.379  1.00  0.00     0.049 A 
ATOM     49  H   UNL A   1      40.311  30.624  31.248  1.00  0.00     0.167 HD
ATOM     50  C   UNL A   1      43.825  28.952  33.246  1.00  0.00     0.037 A 
ATOM     51  C   UNL A   1      38.143  32.406  31.027  1.00  0.00     0.037 A 
ATOM     52  C   UNL A   1      43.474  30.118  34.017  1.00  0.00     0.049 A 
ATOM     53  C   UNL A   1      38.922  32.860  32.229  1.00  0.00     0.074 A 
ATOM     54  C   UNL A   1      44.139  30.666  35.101  1.00  0.00     0.029 A 
ATOM     55  N   UNL A   1      42.373  30.927  33.775  1.00  0.00    -0.354 N 
ATOM     56  N   UNL A   1      40.008  32.342  32.748  1.00  0.00    -0.248 NA
ATOM     57  C   UNL A   1      38.405  34.030  32.952  1.00  0.00     0.031 C 
ATOM     58  C   UNL A   1      43.417  31.781  35.541  1.00  0.00     0.029 A 
ATOM     59  C   UNL A   1      42.330  31.959  34.699  1.00  0.00     0.049 A 
ATOM     60  H   UNL A   1      41.718  30.789  33.054  1.00  0.00     0.167 HD
ATOM     61  C   UNL A   1      40.311  33.127  33.854  1.00  0.00     0.074 A 
ATOM     62  C   UNL A   1      39.306  34.168  33.915  1.00  0.00     0.031 C 
ATOM     63  C   UNL A   1      41.326  32.993  34.742  1.00  0.00     0.037 A 
BRANCH  50  64
ATOM     64  C   UNL A   1      45.035  28.160  33.669  1.00  0.00     0.058 A 
ATOM     65  C   UNL A   1      44.958  27.095  34.580  1.00  0.00     0.135 A 
ATOM     66  C   UNL A   1      46.293  28.454  33.117  1.00  0.00     0.135 A 
ATOM     67  F   UNL A   1      43.785  26.777  35.151  1.00  0.00    -0.206 F 
ATOM     68  C   UNL A   1      46.089  26.371  34.951  1.00  0.00     0.059 A 
ATOM     69  C   UNL A   1      47.431  27.726  33.450  1.00  0.00     0.059 A 
ATOM     70  F   UNL A   1      46.427  29.462  32.239  1.00  0.00    -0.206 F 
ATOM     71  C   UNL A   1      47.322  26.695  34.380  1.00  0.00     0.060 A 
BRANCH  71  72
ATOM     72  S   UNL A   1      48.779  25.749  34.872  1.00  0.00     0.124 S 
ATOM     73  O   UNL A   1      48.204  24.428  35.106  1.00  0.00    -0.237 OA
ATOM     74  O   UNL A   1      49.640  25.868  33.700  1.00  0.00    -0.237 OA
ATOM     75  O   UNL A   1      49.251  26.446  36.065  1.00  0.00    -0.744 OA
ENDBRANCH  71  72
ENDBRANCH  50  64
BRANCH  51  76
ATOM     76  C   UNL A   1      36.906  33.120  30.600  1.00  0.00     0.058 A 
ATOM     77  C   UNL A   1      36.908  33.978  29.491  1.00  0.00     0.135 A 
ATOM     78  C   UNL A   1      35.691  32.941  31.282  1.00  0.00     0.135 A 
ATOM     79  F   UNL A   1      38.046  34.197  28.815  1.00  0.00    -0.206 F 
ATOM     80  C   UNL A   1      35.753  34.634  29.075  1.00  0.00     0.059 A 
ATOM     81  C   UNL A   1      34.516  33.557  30.863  1.00  0.00     0.059 A 
ATOM     82  F   UNL A   1      35.629  32.124  32.346  1.00  0.00    -0.206 F 
ATOM     83  C   UNL A   1      34.559  34.410  29.763  1.00  0.00     0.060 A 
BRANCH  83  84
ATOM     84  S   UNL A   1      33.052  35.215  29.178  1.00  0.00     0.124 S 
ATOM     85  O   UNL A   1      33.578  36.462  28.636  1.00  0.00    -0.237 OA
ATOM     86  O   UNL A   1      32.552  34.254  28.200  1.00  0.00    -0.237 OA
ATOM     87  O   UNL A   1      32.248  35.340  30.390  1.00  0.00    -0.744 OA
ENDBRANCH  83  84
ENDBRANCH  51  76
BRANCH  63  88
ATOM     88  C   UNL A   1      41.421  34.017  35.837  1.00  0.00     0.058 A 
ATOM     89  C   UNL A   1      42.143  35.209  35.671  1.00  0.00     0.135 A 
ATOM     90  C   UNL A   1      40.741  33.823  37.050  1.00  0.00     0.135 A 
ATOM     91  F   UNL A   1      42.820  35.437  34.535  1.00  0.00    -0.206 F 
ATOM     92  C   UNL A   1      42.202  36.166  36.678  1.00  0.00     0.059 A 
ATOM     93  C   UNL A   1      40.763  34.779  38.059  1.00  0.00     0.059 A 
ATOM     94  F   UNL A   1      40.031  32.702  37.255  1.00  0.00    -0.206 F 
ATOM     95  C   UNL A   1      41.506  35.943  37.868  1.00  0.00     0.060 A 
BRANCH  95  96
ATOM     96  S   UNL A   1      41.558  37.213  39.150  1.00  0.00     0.124 S 
ATOM     97  O   UNL A   1      42.683  38.031  38.708  1.00  0.00    -0.237 OA
ATOM     98  O   UNL A   1      40.240  37.829  39.033  1.00  0.00    -0.237 OA
ATOM     99  O   UNL A   1      41.780  36.450  40.375  1.00  0.00    -0.744 OA
ENDBRANCH  95  96
ENDBRANCH  63  88
ENDBRANCH  37  38
ENDBRANCH  30  32
ENDBRANCH  29  30
ENDBRANCH  28  29
ENDBRANCH   1  28
TORSDOF 18
ENDMDL
