MODEL 1
REMARK VINA RESULT:     -12.2      0.000      0.000
REMARK SMILES Nc1ccc(-c2cc(Cl)cc3c2O[C@H](C(F)(F)F)C(C(=O)OCCOC(=O)c2ccc(-c4c5nc(c(-c6c(F)cc(S(=O)(=O)[O-])cc6F)c6ccc([nH]6)c(-c6c(F)cc(S(=O)(=O)[O-])cc6F)c6nc(c(-c7c(F)cc(S(=O)(=O)[O-])cc7F)c7ccc4[nH]7)C=C6)C=C5)cc2)=C3)cc1
REMARK SMILES IDX 24 1 23 2 22 3 20 4 21 5 19 6 6 7 7 8 12 9 8 10 11 11 13 12
REMARK SMILES IDX 9 13 10 14 94 15 14 16 5 17 2 18 3 19 96 20 4 21 95 22 1 23
REMARK SMILES IDX 15 26 16 27 17 28 18 29 25 30 26 31 27 32 28 33 29 34 93 35
REMARK SMILES IDX 30 36 92 37 31 38 32 39 33 40 86 41 34 42 91 43 85 44 87 45
REMARK SMILES IDX 35 46 90 47 84 48 83 49 36 51 70 52 49 53 69 54 50 55 53 56
REMARK SMILES IDX 68 57 88 58 51 59 52 60 67 62 89 63 54 64 37 65 38 66 47 67
REMARK SMILES IDX 39 68 40 69 46 70 48 71 41 72 42 73 43 74 44 75 45 76 71 77
REMARK SMILES IDX 72 78 81 79 73 80 74 81 80 82 82 83 75 84 76 85 77 86 78 87
REMARK SMILES IDX 79 88 55 89 56 90 65 91 57 92 58 93 64 94 66 95 59 96 60 97
REMARK SMILES IDX 61 98 62 99 63 100
REMARK H PARENT 1 24 1 25 87 50 53 61
REMARK Flexibility Score: inf
ROOT
ATOM      1  C   UNL A   1      32.521  28.514  27.377  1.00  0.00     0.275 C 
ENDROOT
BRANCH   1   2
ATOM      2  C   UNL A   1      32.066  28.301  25.932  1.00  0.00     0.275 C 
BRANCH   2   3
ATOM      3  O   UNL A   1      32.064  26.900  25.581  1.00  0.00    -0.459 OA
BRANCH   3   4
ATOM      4  C   UNL A   1      32.907  26.541  24.586  1.00  0.00     0.338 C 
ATOM      5  O   UNL A   1      33.178  27.195  23.590  1.00  0.00    -0.246 OA
BRANCH   4   6
ATOM      6  C   UNL A   1      33.508  25.223  24.865  1.00  0.00     0.087 C 
ATOM      7  C   UNL A   1      35.336  21.464  25.234  1.00  0.00     0.026 A 
ATOM      8  C   UNL A   1      36.697  21.415  25.588  1.00  0.00     0.033 A 
ATOM      9  C   UNL A   1      34.700  22.721  25.170  1.00  0.00     0.135 A 
ATOM     10  C   UNL A   1      37.402  22.582  25.870  1.00  0.00     0.042 A 
ATOM     11  C   UNL A   1      35.426  23.885  25.416  1.00  0.00     0.019 A 
ATOM     12  O   UNL A   1      33.355  22.741  24.899  1.00  0.00    -0.475 OA
ATOM     13  Cl  UNL A   1      39.064  22.494  26.305  1.00  0.00    -0.084 Cl
ATOM     14  C   UNL A   1      36.775  23.818  25.783  1.00  0.00     0.032 A 
ATOM     15  C   UNL A   1      34.787  25.174  25.249  1.00  0.00     0.027 C 
ATOM     16  C   UNL A   1      32.701  23.994  24.572  1.00  0.00     0.316 C 
BRANCH   7  17
ATOM     17  C   UNL A   1      34.617  20.224  24.913  1.00  0.00    -0.014 A 
ATOM     18  C   UNL A   1      33.251  17.846  24.224  1.00  0.00     0.031 A 
ATOM     19  C   UNL A   1      34.644  17.866  24.305  1.00  0.00     0.026 A 
ATOM     20  C   UNL A   1      32.549  19.027  24.466  1.00  0.00     0.026 A 
ATOM     21  C   UNL A   1      35.318  19.035  24.662  1.00  0.00     0.011 A 
ATOM     22  C   UNL A   1      33.220  20.202  24.819  1.00  0.00     0.011 A 
BRANCH  18  23
ATOM     23  N   UNL A   1      32.591  16.711  23.784  1.00  0.00    -0.399 N 
ATOM     24  H   UNL A   1      31.642  16.577  24.004  1.00  0.00     0.156 HD
ATOM     25  H   UNL A   1      33.073  16.038  23.250  1.00  0.00     0.156 HD
ENDBRANCH  18  23
ENDBRANCH   7  17
BRANCH  16  26
ATOM     26  C   UNL A   1      32.266  23.952  23.099  1.00  0.00     0.430 C 
ATOM     27  F   UNL A   1      31.174  24.728  22.882  1.00  0.00    -0.167 F 
ATOM     28  F   UNL A   1      33.235  24.418  22.276  1.00  0.00    -0.167 F 
ATOM     29  F   UNL A   1      31.956  22.700  22.693  1.00  0.00    -0.167 F 
ENDBRANCH  16  26
ENDBRANCH   4   6
ENDBRANCH   3   4
ENDBRANCH   2   3
ENDBRANCH   1   2
BRANCH   1  30
ATOM     30  O   UNL A   1      33.954  28.628  27.445  1.00  0.00    -0.458 OA
BRANCH  30  31
ATOM     31  C   UNL A   1      34.420  29.853  27.774  1.00  0.00     0.338 C 
ATOM     32  O   UNL A   1      33.787  30.891  27.856  1.00  0.00    -0.246 OA
BRANCH  31  33
ATOM     33  C   UNL A   1      35.833  29.745  28.161  1.00  0.00     0.060 A 
ATOM     34  C   UNL A   1      36.223  29.253  29.399  1.00  0.00     0.016 A 
ATOM     35  C   UNL A   1      36.787  30.012  27.189  1.00  0.00     0.016 A 
ATOM     36  C   UNL A   1      37.588  29.058  29.649  1.00  0.00     0.010 A 
ATOM     37  C   UNL A   1      38.115  29.652  27.377  1.00  0.00     0.010 A 
ATOM     38  C   UNL A   1      38.551  29.219  28.629  1.00  0.00    -0.014 A 
BRANCH  38  39
ATOM     39  C   UNL A   1      40.002  28.971  28.868  1.00  0.00     0.031 A 
ATOM     40  C   UNL A   1      40.632  27.638  28.514  1.00  0.00     0.074 A 
ATOM     41  C   UNL A   1      40.760  29.934  29.433  1.00  0.00     0.049 A 
ATOM     42  N   UNL A   1      41.880  27.257  28.634  1.00  0.00    -0.248 NA
ATOM     43  C   UNL A   1      39.746  26.579  28.002  1.00  0.00     0.031 C 
ATOM     44  C   UNL A   1      40.262  31.222  29.924  1.00  0.00     0.029 A 
ATOM     45  N   UNL A   1      42.111  29.996  29.669  1.00  0.00    -0.354 N 
ATOM     46  C   UNL A   1      41.915  25.925  28.234  1.00  0.00     0.074 A 
ATOM     47  C   UNL A   1      40.554  25.531  27.957  1.00  0.00     0.031 C 
ATOM     48  C   UNL A   1      41.299  31.979  30.314  1.00  0.00     0.029 A 
ATOM     49  C   UNL A   1      42.532  31.216  30.147  1.00  0.00     0.049 A 
ATOM     50  H   UNL A   1      42.720  29.240  29.510  1.00  0.00     0.167 HD
ATOM     51  C   UNL A   1      42.985  25.112  28.054  1.00  0.00     0.037 A 
ATOM     52  C   UNL A   1      43.771  31.679  30.402  1.00  0.00     0.037 A 
ATOM     53  C   UNL A   1      44.345  25.527  28.263  1.00  0.00     0.049 A 
ATOM     54  C   UNL A   1      44.950  30.780  30.149  1.00  0.00     0.074 A 
ATOM     55  C   UNL A   1      45.507  24.812  28.037  1.00  0.00     0.029 A 
ATOM     56  N   UNL A   1      44.726  26.775  28.732  1.00  0.00    -0.354 N 
ATOM     57  N   UNL A   1      44.965  29.549  29.696  1.00  0.00    -0.248 NA
ATOM     58  C   UNL A   1      46.281  31.332  30.436  1.00  0.00     0.031 C 
ATOM     59  C   UNL A   1      46.592  25.616  28.402  1.00  0.00     0.029 A 
ATOM     60  C   UNL A   1      46.106  26.848  28.814  1.00  0.00     0.049 A 
ATOM     61  H   UNL A   1      44.107  27.502  28.973  1.00  0.00     0.167 HD
ATOM     62  C   UNL A   1      46.304  29.183  29.631  1.00  0.00     0.074 A 
ATOM     63  C   UNL A   1      47.072  30.332  30.069  1.00  0.00     0.031 C 
ATOM     64  C   UNL A   1      46.850  28.002  29.250  1.00  0.00     0.037 A 
BRANCH  51  65
ATOM     65  C   UNL A   1      42.732  23.710  27.559  1.00  0.00     0.058 A 
ATOM     66  C   UNL A   1      42.780  23.398  26.191  1.00  0.00     0.135 A 
ATOM     67  C   UNL A   1      42.490  22.659  28.458  1.00  0.00     0.135 A 
ATOM     68  F   UNL A   1      42.994  24.363  25.282  1.00  0.00    -0.206 F 
ATOM     69  C   UNL A   1      42.568  22.103  25.729  1.00  0.00     0.059 A 
ATOM     70  C   UNL A   1      42.306  21.349  28.022  1.00  0.00     0.059 A 
ATOM     71  F   UNL A   1      42.435  22.897  29.779  1.00  0.00    -0.206 F 
ATOM     72  C   UNL A   1      42.336  21.083  26.652  1.00  0.00     0.060 A 
BRANCH  72  73
ATOM     73  S   UNL A   1      42.088  19.406  26.033  1.00  0.00     0.124 S 
ATOM     74  O   UNL A   1      40.647  19.390  25.802  1.00  0.00    -0.237 OA
ATOM     75  O   UNL A   1      42.922  19.392  24.834  1.00  0.00    -0.237 OA
ATOM     76  O   UNL A   1      42.557  18.564  27.128  1.00  0.00    -0.744 OA
ENDBRANCH  72  73
ENDBRANCH  51  65
BRANCH  52  77
ATOM     77  C   UNL A   1      43.957  33.083  30.860  1.00  0.00     0.058 A 
ATOM     78  C   UNL A   1      44.103  34.125  29.933  1.00  0.00     0.135 A 
ATOM     79  C   UNL A   1      43.946  33.419  32.222  1.00  0.00     0.135 A 
ATOM     80  F   UNL A   1      44.124  33.857  28.618  1.00  0.00    -0.206 F 
ATOM     81  C   UNL A   1      44.237  35.450  30.337  1.00  0.00     0.059 A 
ATOM     82  C   UNL A   1      44.053  34.739  32.652  1.00  0.00     0.059 A 
ATOM     83  F   UNL A   1      43.790  32.461  33.149  1.00  0.00    -0.206 F 
ATOM     84  C   UNL A   1      44.203  35.747  31.701  1.00  0.00     0.060 A 
BRANCH  84  85
ATOM     85  S   UNL A   1      44.309  37.478  32.209  1.00  0.00     0.124 S 
ATOM     86  O   UNL A   1      43.862  38.167  31.004  1.00  0.00    -0.237 OA
ATOM     87  O   UNL A   1      43.394  37.519  33.345  1.00  0.00    -0.237 OA
ATOM     88  O   UNL A   1      45.720  37.644  32.543  1.00  0.00    -0.744 OA
ENDBRANCH  84  85
ENDBRANCH  52  77
BRANCH  64  89
ATOM     89  C   UNL A   1      48.347  27.887  29.279  1.00  0.00     0.058 A 
ATOM     90  C   UNL A   1      49.020  27.373  30.398  1.00  0.00     0.135 A 
ATOM     91  C   UNL A   1      49.109  28.220  28.147  1.00  0.00     0.135 A 
ATOM     92  F   UNL A   1      48.336  27.045  31.506  1.00  0.00    -0.206 F 
ATOM     93  C   UNL A   1      50.400  27.206  30.400  1.00  0.00     0.059 A 
ATOM     94  C   UNL A   1      50.488  28.035  28.118  1.00  0.00     0.059 A 
ATOM     95  F   UNL A   1      48.512  28.704  27.047  1.00  0.00    -0.206 F 
ATOM     96  C   UNL A   1      51.125  27.535  29.252  1.00  0.00     0.060 A 
BRANCH  96  97
ATOM     97  S   UNL A   1      52.909  27.270  29.258  1.00  0.00     0.124 S 
ATOM     98  O   UNL A   1      53.056  26.225  28.251  1.00  0.00    -0.237 OA
ATOM     99  O   UNL A   1      53.419  28.586  28.887  1.00  0.00    -0.237 OA
ATOM    100  O   UNL A   1      53.188  26.861  30.632  1.00  0.00    -0.744 OA
ENDBRANCH  96  97
ENDBRANCH  64  89
ENDBRANCH  38  39
ENDBRANCH  31  33
ENDBRANCH  30  31
ENDBRANCH   1  30
TORSDOF 17
ENDMDL
MODEL 2
REMARK VINA RESULT:     -11.8      3.929      9.669
REMARK SMILES Nc1ccc(-c2cc(Cl)cc3c2O[C@H](C(F)(F)F)C(C(=O)OCCOC(=O)c2ccc(-c4c5nc(c(-c6c(F)cc(S(=O)(=O)[O-])cc6F)c6ccc([nH]6)c(-c6c(F)cc(S(=O)(=O)[O-])cc6F)c6nc(c(-c7c(F)cc(S(=O)(=O)[O-])cc7F)c7ccc4[nH]7)C=C6)C=C5)cc2)=C3)cc1
REMARK SMILES IDX 24 1 23 2 22 3 20 4 21 5 19 6 6 7 7 8 12 9 8 10 11 11 13 12
REMARK SMILES IDX 9 13 10 14 94 15 14 16 5 17 2 18 3 19 96 20 4 21 95 22 1 23
REMARK SMILES IDX 15 26 16 27 17 28 18 29 25 30 26 31 27 32 28 33 29 34 93 35
REMARK SMILES IDX 30 36 92 37 31 38 32 39 33 40 86 41 34 42 91 43 85 44 87 45
REMARK SMILES IDX 35 46 90 47 84 48 83 49 36 51 70 52 49 53 69 54 50 55 53 56
REMARK SMILES IDX 68 57 88 58 51 59 52 60 67 62 89 63 54 64 37 65 38 66 47 67
REMARK SMILES IDX 39 68 40 69 46 70 48 71 41 72 42 73 43 74 44 75 45 76 71 77
REMARK SMILES IDX 72 78 81 79 73 80 74 81 80 82 82 83 75 84 76 85 77 86 78 87
REMARK SMILES IDX 79 88 55 89 56 90 65 91 57 92 58 93 64 94 66 95 59 96 60 97
REMARK SMILES IDX 61 98 62 99 63 100
REMARK H PARENT 1 24 1 25 87 50 53 61
REMARK Flexibility Score: inf
ROOT
ATOM      1  C   UNL A   1      36.815  23.214  24.173  1.00  0.00     0.275 C 
ENDROOT
BRANCH   1   2
ATOM      2  C   UNL A   1      35.599  22.350  24.514  1.00  0.00     0.275 C 
BRANCH   2   3
ATOM      3  O   UNL A   1      34.375  23.115  24.450  1.00  0.00    -0.459 OA
BRANCH   3   4
ATOM      4  C   UNL A   1      33.979  23.690  25.609  1.00  0.00     0.338 C 
ATOM      5  O   UNL A   1      33.983  23.173  26.716  1.00  0.00    -0.246 OA
BRANCH   4   6
ATOM      6  C   UNL A   1      33.547  25.081  25.377  1.00  0.00     0.087 C 
ATOM      7  C   UNL A   1      32.033  28.981  25.051  1.00  0.00     0.026 A 
ATOM      8  C   UNL A   1      32.651  30.002  25.795  1.00  0.00     0.033 A 
ATOM      9  C   UNL A   1      32.576  27.680  25.107  1.00  0.00     0.135 A 
ATOM     10  C   UNL A   1      33.775  29.736  26.572  1.00  0.00     0.042 A 
ATOM     11  C   UNL A   1      33.678  27.418  25.919  1.00  0.00     0.019 A 
ATOM     12  O   UNL A   1      32.005  26.717  24.314  1.00  0.00    -0.475 OA
ATOM     13  Cl  UNL A   1      34.515  31.003  27.470  1.00  0.00    -0.084 Cl
ATOM     14  C   UNL A   1      34.291  28.449  26.641  1.00  0.00     0.032 A 
ATOM     15  C   UNL A   1      34.164  26.060  26.046  1.00  0.00     0.027 C 
ATOM     16  C   UNL A   1      32.347  25.321  24.512  1.00  0.00     0.316 C 
BRANCH   7  17
ATOM     17  C   UNL A   1      30.830  29.275  24.260  1.00  0.00    -0.014 A 
ATOM     18  C   UNL A   1      28.558  29.851  22.679  1.00  0.00     0.031 A 
ATOM     19  C   UNL A   1      29.175  28.602  22.606  1.00  0.00     0.026 A 
ATOM     20  C   UNL A   1      29.098  30.817  23.530  1.00  0.00     0.026 A 
ATOM     21  C   UNL A   1      30.286  28.311  23.399  1.00  0.00     0.011 A 
ATOM     22  C   UNL A   1      30.214  30.531  24.322  1.00  0.00     0.011 A 
BRANCH  18  23
ATOM     23  N   UNL A   1      27.512  30.167  21.829  1.00  0.00    -0.399 N 
ATOM     24  H   UNL A   1      26.729  30.656  22.171  1.00  0.00     0.156 HD
ATOM     25  H   UNL A   1      27.551  29.902  20.881  1.00  0.00     0.156 HD
ENDBRANCH  18  23
ENDBRANCH   7  17
BRANCH  16  26
ATOM     26  C   UNL A   1      31.113  24.584  25.054  1.00  0.00     0.430 C 
ATOM     27  F   UNL A   1      31.139  24.502  26.407  1.00  0.00    -0.167 F 
ATOM     28  F   UNL A   1      29.964  25.225  24.731  1.00  0.00    -0.167 F 
ATOM     29  F   UNL A   1      31.021  23.321  24.577  1.00  0.00    -0.167 F 
ENDBRANCH  16  26
ENDBRANCH   4   6
ENDBRANCH   3   4
ENDBRANCH   2   3
ENDBRANCH   1   2
BRANCH   1  30
ATOM     30  O   UNL A   1      37.290  23.902  25.344  1.00  0.00    -0.458 OA
BRANCH  30  31
ATOM     31  C   UNL A   1      38.402  23.379  25.909  1.00  0.00     0.338 C 
ATOM     32  O   UNL A   1      38.877  22.272  25.726  1.00  0.00    -0.246 OA
BRANCH  31  33
ATOM     33  C   UNL A   1      39.065  24.411  26.716  1.00  0.00     0.060 A 
ATOM     34  C   UNL A   1      39.873  25.387  26.147  1.00  0.00     0.016 A 
ATOM     35  C   UNL A   1      38.742  24.478  28.065  1.00  0.00     0.016 A 
ATOM     36  C   UNL A   1      40.367  26.414  26.962  1.00  0.00     0.010 A 
ATOM     37  C   UNL A   1      39.085  25.588  28.825  1.00  0.00     0.010 A 
ATOM     38  C   UNL A   1      39.951  26.551  28.305  1.00  0.00    -0.014 A 
BRANCH  38  39
ATOM     39  C   UNL A   1      40.433  27.665  29.171  1.00  0.00     0.031 A 
ATOM     40  C   UNL A   1      39.579  28.897  29.402  1.00  0.00     0.074 A 
ATOM     41  C   UNL A   1      41.657  27.591  29.735  1.00  0.00     0.049 A 
ATOM     42  N   UNL A   1      39.832  29.949  30.140  1.00  0.00    -0.248 NA
ATOM     43  C   UNL A   1      38.298  28.984  28.680  1.00  0.00     0.031 C 
ATOM     44  C   UNL A   1      42.627  26.516  29.509  1.00  0.00     0.029 A 
ATOM     45  N   UNL A   1      42.288  28.417  30.631  1.00  0.00    -0.354 N 
ATOM     46  C   UNL A   1      38.759  30.816  29.952  1.00  0.00     0.074 A 
ATOM     47  C   UNL A   1      37.899  30.215  28.961  1.00  0.00     0.031 C 
ATOM     48  C   UNL A   1      43.686  26.698  30.313  1.00  0.00     0.029 A 
ATOM     49  C   UNL A   1      43.494  27.927  31.078  1.00  0.00     0.049 A 
ATOM     50  H   UNL A   1      41.913  29.278  30.926  1.00  0.00     0.167 HD
ATOM     51  C   UNL A   1      38.478  31.982  30.584  1.00  0.00     0.037 A 
ATOM     52  C   UNL A   1      44.341  28.399  32.013  1.00  0.00     0.037 A 
ATOM     53  C   UNL A   1      39.301  32.544  31.621  1.00  0.00     0.049 A 
ATOM     54  C   UNL A   1      43.989  29.666  32.741  1.00  0.00     0.074 A 
ATOM     55  C   UNL A   1      39.071  33.676  32.382  1.00  0.00     0.029 A 
ATOM     56  N   UNL A   1      40.504  32.007  32.052  1.00  0.00    -0.354 N 
ATOM     57  N   UNL A   1      42.931  30.429  32.602  1.00  0.00    -0.248 NA
ATOM     58  C   UNL A   1      44.941  30.138  33.756  1.00  0.00     0.031 C 
ATOM     59  C   UNL A   1      40.154  33.843  33.252  1.00  0.00     0.029 A 
ATOM     60  C   UNL A   1      41.036  32.790  33.062  1.00  0.00     0.049 A 
ATOM     61  H   UNL A   1      40.919  31.189  31.693  1.00  0.00     0.167 HD
ATOM     62  C   UNL A   1      43.082  31.462  33.520  1.00  0.00     0.074 A 
ATOM     63  C   UNL A   1      44.324  31.214  34.225  1.00  0.00     0.031 C 
ATOM     64  C   UNL A   1      42.271  32.523  33.753  1.00  0.00     0.037 A 
BRANCH  51  65
ATOM     65  C   UNL A   1      37.205  32.698  30.213  1.00  0.00     0.058 A 
ATOM     66  C   UNL A   1      37.158  33.598  29.135  1.00  0.00     0.135 A 
ATOM     67  C   UNL A   1      36.007  32.447  30.903  1.00  0.00     0.135 A 
ATOM     68  F   UNL A   1      38.274  33.888  28.447  1.00  0.00    -0.206 F 
ATOM     69  C   UNL A   1      35.981  34.245  28.775  1.00  0.00     0.059 A 
ATOM     70  C   UNL A   1      34.810  33.060  30.539  1.00  0.00     0.059 A 
ATOM     71  F   UNL A   1      35.989  31.594  31.940  1.00  0.00    -0.206 F 
ATOM     72  C   UNL A   1      34.810  33.967  29.480  1.00  0.00     0.060 A 
BRANCH  72  73
ATOM     73  S   UNL A   1      33.290  34.800  28.978  1.00  0.00     0.124 S 
ATOM     74  O   UNL A   1      33.808  36.049  28.428  1.00  0.00    -0.237 OA
ATOM     75  O   UNL A   1      32.729  33.865  28.007  1.00  0.00    -0.237 OA
ATOM     76  O   UNL A   1      32.542  34.928  30.225  1.00  0.00    -0.744 OA
ENDBRANCH  72  73
ENDBRANCH  51  65
BRANCH  52  77
ATOM     77  C   UNL A   1      45.567  27.628  32.357  1.00  0.00     0.058 A 
ATOM     78  C   UNL A   1      45.523  26.599  33.309  1.00  0.00     0.135 A 
ATOM     79  C   UNL A   1      46.791  27.868  31.713  1.00  0.00     0.135 A 
ATOM     80  F   UNL A   1      44.379  26.332  33.956  1.00  0.00    -0.206 F 
ATOM     81  C   UNL A   1      46.648  25.839  33.617  1.00  0.00     0.059 A 
ATOM     82  C   UNL A   1      47.924  27.105  31.984  1.00  0.00     0.059 A 
ATOM     83  F   UNL A   1      46.881  28.828  30.780  1.00  0.00    -0.206 F 
ATOM     84  C   UNL A   1      47.843  26.096  32.942  1.00  0.00     0.060 A 
BRANCH  84  85
ATOM     85  S   UNL A   1      49.276  25.056  33.302  1.00  0.00     0.124 S 
ATOM     86  O   UNL A   1      50.060  25.926  34.171  1.00  0.00    -0.237 OA
ATOM     87  O   UNL A   1      48.660  23.899  33.943  1.00  0.00    -0.237 OA
ATOM     88  O   UNL A   1      49.847  24.803  31.983  1.00  0.00    -0.744 OA
ENDBRANCH  84  85
ENDBRANCH  52  77
BRANCH  64  89
ATOM     89  C   UNL A   1      42.690  33.495  34.818  1.00  0.00     0.058 A 
ATOM     90  C   UNL A   1      43.494  34.606  34.520  1.00  0.00     0.135 A 
ATOM     91  C   UNL A   1      42.216  33.359  36.134  1.00  0.00     0.135 A 
ATOM     92  F   UNL A   1      43.976  34.777  33.279  1.00  0.00    -0.206 F 
ATOM     93  C   UNL A   1      43.828  35.541  35.493  1.00  0.00     0.059 A 
ATOM     94  C   UNL A   1      42.515  34.298  37.116  1.00  0.00     0.059 A 
ATOM     95  F   UNL A   1      41.433  32.321  36.467  1.00  0.00    -0.206 F 
ATOM     96  C   UNL A   1      43.328  35.381  36.788  1.00  0.00     0.060 A 
BRANCH  96  97
ATOM     97  S   UNL A   1      43.735  36.628  38.026  1.00  0.00     0.124 S 
ATOM     98  O   UNL A   1      44.484  37.597  37.233  1.00  0.00    -0.237 OA
ATOM     99  O   UNL A   1      42.416  37.061  38.476  1.00  0.00    -0.237 OA
ATOM    100  O   UNL A   1      44.515  35.887  39.012  1.00  0.00    -0.744 OA
ENDBRANCH  96  97
ENDBRANCH  64  89
ENDBRANCH  38  39
ENDBRANCH  31  33
ENDBRANCH  30  31
ENDBRANCH   1  30
TORSDOF 17
ENDMDL
MODEL 3
REMARK VINA RESULT:     -11.7      1.128      8.108
REMARK SMILES Nc1ccc(-c2cc(Cl)cc3c2O[C@H](C(F)(F)F)C(C(=O)OCCOC(=O)c2ccc(-c4c5nc(c(-c6c(F)cc(S(=O)(=O)[O-])cc6F)c6ccc([nH]6)c(-c6c(F)cc(S(=O)(=O)[O-])cc6F)c6nc(c(-c7c(F)cc(S(=O)(=O)[O-])cc7F)c7ccc4[nH]7)C=C6)C=C5)cc2)=C3)cc1
REMARK SMILES IDX 24 1 23 2 22 3 20 4 21 5 19 6 6 7 7 8 12 9 8 10 11 11 13 12
REMARK SMILES IDX 9 13 10 14 94 15 14 16 5 17 2 18 3 19 96 20 4 21 95 22 1 23
REMARK SMILES IDX 15 26 16 27 17 28 18 29 25 30 26 31 27 32 28 33 29 34 93 35
REMARK SMILES IDX 30 36 92 37 31 38 32 39 33 40 86 41 34 42 91 43 85 44 87 45
REMARK SMILES IDX 35 46 90 47 84 48 83 49 36 51 70 52 49 53 69 54 50 55 53 56
REMARK SMILES IDX 68 57 88 58 51 59 52 60 67 62 89 63 54 64 37 65 38 66 47 67
REMARK SMILES IDX 39 68 40 69 46 70 48 71 41 72 42 73 43 74 44 75 45 76 71 77
REMARK SMILES IDX 72 78 81 79 73 80 74 81 80 82 82 83 75 84 76 85 77 86 78 87
REMARK SMILES IDX 79 88 55 89 56 90 65 91 57 92 58 93 64 94 66 95 59 96 60 97
REMARK SMILES IDX 61 98 62 99 63 100
REMARK H PARENT 1 24 1 25 87 50 53 61
REMARK Flexibility Score: inf
ROOT
ATOM      1  C   UNL A   1      32.714  28.831  26.744  1.00  0.00     0.275 C 
ENDROOT
BRANCH   1   2
ATOM      2  C   UNL A   1      32.300  27.362  26.850  1.00  0.00     0.275 C 
BRANCH   2   3
ATOM      3  O   UNL A   1      31.939  26.823  25.559  1.00  0.00    -0.459 OA
BRANCH   3   4
ATOM      4  C   UNL A   1      32.965  26.602  24.705  1.00  0.00     0.338 C 
ATOM      5  O   UNL A   1      33.385  27.374  23.857  1.00  0.00    -0.246 OA
BRANCH   4   6
ATOM      6  C   UNL A   1      33.562  25.274  24.944  1.00  0.00     0.087 C 
ATOM      7  C   UNL A   1      35.377  21.500  25.199  1.00  0.00     0.026 A 
ATOM      8  C   UNL A   1      36.739  21.435  25.547  1.00  0.00     0.033 A 
ATOM      9  C   UNL A   1      34.745  22.760  25.174  1.00  0.00     0.135 A 
ATOM     10  C   UNL A   1      37.449  22.591  25.861  1.00  0.00     0.042 A 
ATOM     11  C   UNL A   1      35.477  23.914  25.450  1.00  0.00     0.019 A 
ATOM     12  O   UNL A   1      33.399  22.793  24.907  1.00  0.00    -0.475 OA
ATOM     13  Cl  UNL A   1      39.112  22.484  26.287  1.00  0.00    -0.084 Cl
ATOM     14  C   UNL A   1      36.826  23.831  25.812  1.00  0.00     0.032 A 
ATOM     15  C   UNL A   1      34.842  25.210  25.323  1.00  0.00     0.027 C 
ATOM     16  C   UNL A   1      32.750  24.058  24.618  1.00  0.00     0.316 C 
BRANCH   7  17
ATOM     17  C   UNL A   1      34.652  20.272  24.844  1.00  0.00    -0.014 A 
ATOM     18  C   UNL A   1      33.283  17.915  24.092  1.00  0.00     0.031 A 
ATOM     19  C   UNL A   1      34.660  17.895  24.315  1.00  0.00     0.026 A 
ATOM     20  C   UNL A   1      32.600  19.125  24.225  1.00  0.00     0.026 A 
ATOM     21  C   UNL A   1      35.334  19.054  24.704  1.00  0.00     0.011 A 
ATOM     22  C   UNL A   1      33.272  20.290  24.609  1.00  0.00     0.011 A 
BRANCH  18  23
ATOM     23  N   UNL A   1      32.633  16.787  23.622  1.00  0.00    -0.399 N 
ATOM     24  H   UNL A   1      32.543  16.638  22.654  1.00  0.00     0.156 HD
ATOM     25  H   UNL A   1      32.261  16.133  24.258  1.00  0.00     0.156 HD
ENDBRANCH  18  23
ENDBRANCH   7  17
BRANCH  16  26
ATOM     26  C   UNL A   1      32.310  24.060  23.146  1.00  0.00     0.430 C 
ATOM     27  F   UNL A   1      32.005  22.810  22.718  1.00  0.00    -0.167 F 
ATOM     28  F   UNL A   1      31.199  24.811  22.956  1.00  0.00    -0.167 F 
ATOM     29  F   UNL A   1      33.271  24.542  22.326  1.00  0.00    -0.167 F 
ENDBRANCH  16  26
ENDBRANCH   4   6
ENDBRANCH   3   4
ENDBRANCH   2   3
ENDBRANCH   1   2
BRANCH   1  30
ATOM     30  O   UNL A   1      34.132  28.973  26.942  1.00  0.00    -0.458 OA
BRANCH  30  31
ATOM     31  C   UNL A   1      34.507  30.032  27.695  1.00  0.00     0.338 C 
ATOM     32  O   UNL A   1      33.807  30.949  28.087  1.00  0.00    -0.246 OA
BRANCH  31  33
ATOM     33  C   UNL A   1      35.907  29.863  28.104  1.00  0.00     0.060 A 
ATOM     34  C   UNL A   1      36.256  29.323  29.334  1.00  0.00     0.016 A 
ATOM     35  C   UNL A   1      36.889  30.123  27.157  1.00  0.00     0.016 A 
ATOM     36  C   UNL A   1      37.608  29.072  29.603  1.00  0.00     0.010 A 
ATOM     37  C   UNL A   1      38.200  29.710  27.358  1.00  0.00     0.010 A 
ATOM     38  C   UNL A   1      38.596  29.227  28.606  1.00  0.00    -0.014 A 
BRANCH  38  39
ATOM     39  C   UNL A   1      40.033  28.921  28.864  1.00  0.00     0.031 A 
ATOM     40  C   UNL A   1      40.923  29.912  29.588  1.00  0.00     0.074 A 
ATOM     41  C   UNL A   1      40.557  27.758  28.423  1.00  0.00     0.049 A 
ATOM     42  N   UNL A   1      42.187  29.802  29.914  1.00  0.00    -0.248 NA
ATOM     43  C   UNL A   1      40.337  31.214  29.953  1.00  0.00     0.031 C 
ATOM     44  C   UNL A   1      39.844  26.761  27.618  1.00  0.00     0.029 A 
ATOM     45  N   UNL A   1      41.798  27.201  28.608  1.00  0.00    -0.354 N 
ATOM     46  C   UNL A   1      42.539  31.015  30.498  1.00  0.00     0.074 A 
ATOM     47  C   UNL A   1      41.390  31.882  30.398  1.00  0.00     0.031 C 
ATOM     48  C   UNL A   1      40.624  25.681  27.458  1.00  0.00     0.029 A 
ATOM     49  C   UNL A   1      41.909  25.923  28.107  1.00  0.00     0.049 A 
ATOM     50  H   UNL A   1      42.538  27.671  29.056  1.00  0.00     0.167 HD
ATOM     51  C   UNL A   1      43.695  31.365  31.116  1.00  0.00     0.037 A 
ATOM     52  C   UNL A   1      42.921  25.037  28.179  1.00  0.00     0.037 A 
ATOM     53  C   UNL A   1      44.813  30.476  31.276  1.00  0.00     0.049 A 
ATOM     54  C   UNL A   1      44.176  25.423  28.913  1.00  0.00     0.074 A 
ATOM     55  C   UNL A   1      45.999  30.700  31.952  1.00  0.00     0.029 A 
ATOM     56  N   UNL A   1      44.877  29.187  30.767  1.00  0.00    -0.354 N 
ATOM     57  N   UNL A   1      44.459  26.549  29.525  1.00  0.00    -0.248 NA
ATOM     58  C   UNL A   1      45.249  24.421  28.970  1.00  0.00     0.031 C 
ATOM     59  C   UNL A   1      46.796  29.557  31.822  1.00  0.00     0.029 A 
ATOM     60  C   UNL A   1      46.087  28.606  31.104  1.00  0.00     0.049 A 
ATOM     61  H   UNL A   1      44.166  28.751  30.244  1.00  0.00     0.167 HD
ATOM     62  C   UNL A   1      45.735  26.386  30.051  1.00  0.00     0.074 A 
ATOM     63  C   UNL A   1      46.160  25.044  29.705  1.00  0.00     0.031 C 
ATOM     64  C   UNL A   1      46.489  27.268  30.752  1.00  0.00     0.037 A 
BRANCH  51  65
ATOM     65  C   UNL A   1      43.787  32.747  31.711  1.00  0.00     0.058 A 
ATOM     66  C   UNL A   1      44.335  33.820  30.989  1.00  0.00     0.135 A 
ATOM     67  C   UNL A   1      43.277  33.017  32.992  1.00  0.00     0.135 A 
ATOM     68  F   UNL A   1      44.850  33.620  29.765  1.00  0.00    -0.206 F 
ATOM     69  C   UNL A   1      44.403  35.101  31.525  1.00  0.00     0.059 A 
ATOM     70  C   UNL A   1      43.306  34.299  33.536  1.00  0.00     0.059 A 
ATOM     71  F   UNL A   1      42.739  32.031  33.727  1.00  0.00    -0.206 F 
ATOM     72  C   UNL A   1      43.883  35.333  32.798  1.00  0.00     0.060 A 
BRANCH  72  73
ATOM     73  S   UNL A   1      43.960  37.009  33.464  1.00  0.00     0.124 S 
ATOM     74  O   UNL A   1      43.666  37.808  32.278  1.00  0.00    -0.237 OA
ATOM     75  O   UNL A   1      42.917  36.986  34.485  1.00  0.00    -0.237 OA
ATOM     76  O   UNL A   1      45.325  37.115  33.968  1.00  0.00    -0.744 OA
ENDBRANCH  72  73
ENDBRANCH  51  65
BRANCH  52  77
ATOM     77  C   UNL A   1      42.756  23.677  27.599  1.00  0.00     0.058 A 
ATOM     78  C   UNL A   1      43.006  23.443  26.238  1.00  0.00     0.135 A 
ATOM     79  C   UNL A   1      42.393  22.578  28.393  1.00  0.00     0.135 A 
ATOM     80  F   UNL A   1      43.352  24.460  25.435  1.00  0.00    -0.206 F 
ATOM     81  C   UNL A   1      42.897  22.171  25.684  1.00  0.00     0.059 A 
ATOM     82  C   UNL A   1      42.302  21.292  27.868  1.00  0.00     0.059 A 
ATOM     83  F   UNL A   1      42.162  22.746  29.705  1.00  0.00    -0.206 F 
ATOM     84  C   UNL A   1      42.551  21.100  26.510  1.00  0.00     0.060 A 
BRANCH  84  85
ATOM     85  S   UNL A   1      42.480  19.444  25.790  1.00  0.00     0.124 S 
ATOM     86  O   UNL A   1      41.078  19.353  25.399  1.00  0.00    -0.237 OA
ATOM     87  O   UNL A   1      43.443  19.546  24.698  1.00  0.00    -0.237 OA
ATOM     88  O   UNL A   1      42.885  18.580  26.894  1.00  0.00    -0.744 OA
ENDBRANCH  84  85
ENDBRANCH  52  77
BRANCH  64  89
ATOM     89  C   UNL A   1      47.848  26.816  31.202  1.00  0.00     0.058 A 
ATOM     90  C   UNL A   1      48.014  26.033  32.355  1.00  0.00     0.135 A 
ATOM     91  C   UNL A   1      48.986  27.099  30.429  1.00  0.00     0.135 A 
ATOM     92  F   UNL A   1      46.958  25.739  33.130  1.00  0.00    -0.206 F 
ATOM     93  C   UNL A   1      49.265  25.560  32.736  1.00  0.00     0.059 A 
ATOM     94  C   UNL A   1      50.242  26.613  30.776  1.00  0.00     0.059 A 
ATOM     95  F   UNL A   1      48.878  27.833  29.310  1.00  0.00    -0.206 F 
ATOM     96  C   UNL A   1      50.372  25.850  31.936  1.00  0.00     0.060 A 
BRANCH  96  97
ATOM     97  S   UNL A   1      51.979  25.191  32.422  1.00  0.00     0.124 S 
ATOM     98  O   UNL A   1      51.699  23.761  32.503  1.00  0.00    -0.237 OA
ATOM     99  O   UNL A   1      52.834  25.608  31.315  1.00  0.00    -0.237 OA
ATOM    100  O   UNL A   1      52.247  25.851  33.696  1.00  0.00    -0.744 OA
ENDBRANCH  96  97
ENDBRANCH  64  89
ENDBRANCH  38  39
ENDBRANCH  31  33
ENDBRANCH  30  31
ENDBRANCH   1  30
TORSDOF 17
ENDMDL
