MODEL 1
REMARK VINA RESULT:     -12.4      0.000      0.000
REMARK SMILES Cc1ccc(NC(=O)[C@H]2CC=CC[C@H]2C(=O)OCCOC(=O)c2ccc(-c3c4nc(c(-c5c(F)cc(S(=O)(=O)[O-])cc5F)c5ccc([nH]5)c(-c5c(F)cc(S(=O)(=O)[O-])cc5F)c5nc(c(-c6c(F)cc(S(=O)(=O)[O-])cc6F)c6ccc3[nH]6)C=C5)C=C4)cc2)cc1F
REMARK SMILES IDX 19 1 18 2 17 3 15 4 16 5 14 6 9 7 10 8 11 9 13 10 12 11 7 12
REMARK SMILES IDX 6 13 8 15 5 16 1 17 2 18 3 19 90 20 4 21 89 22 91 23 20 24
REMARK SMILES IDX 21 25 22 26 23 27 24 28 88 29 25 30 87 31 26 32 27 33 28 34
REMARK SMILES IDX 81 35 29 36 86 37 80 38 82 39 30 40 85 41 79 42 78 43 31 45
REMARK SMILES IDX 65 46 44 47 64 48 45 49 48 50 63 51 83 52 46 53 47 54 62 56
REMARK SMILES IDX 84 57 49 58 32 59 33 60 42 61 34 62 35 63 41 64 43 65 36 66
REMARK SMILES IDX 37 67 38 68 39 69 40 70 66 71 67 72 76 73 68 74 69 75 75 76
REMARK SMILES IDX 77 77 70 78 71 79 72 80 73 81 74 82 50 83 51 84 60 85 52 86
REMARK SMILES IDX 53 87 59 88 61 89 54 90 55 91 56 92 57 93 58 94
REMARK H PARENT 6 14 82 44 48 55
REMARK Flexibility Score: inf
ROOT
ATOM      1  C   UNL A   1      32.509  28.344  26.145  1.00  0.00     0.275 C 
ENDROOT
BRANCH   1   2
ATOM      2  C   UNL A   1      33.031  27.477  25.013  1.00  0.00     0.274 C 
BRANCH   2   3
ATOM      3  O   UNL A   1      32.059  26.443  24.844  1.00  0.00    -0.462 OA
BRANCH   3   4
ATOM      4  C   UNL A   1      32.478  25.316  24.237  1.00  0.00     0.310 C 
ATOM      5  O   UNL A   1      31.899  24.790  23.294  1.00  0.00    -0.252 OA
BRANCH   4   6
ATOM      6  C   UNL A   1      33.800  24.873  24.827  1.00  0.00     0.116 C 
ATOM      7  C   UNL A   1      33.734  24.133  26.200  1.00  0.00     0.097 C 
ATOM      8  C   UNL A   1      34.915  23.129  26.402  1.00  0.00     0.041 C 
ATOM      9  C   UNL A   1      35.986  23.055  25.349  1.00  0.00    -0.030 C 
ATOM     10  C   UNL A   1      34.547  24.151  23.689  1.00  0.00     0.043 C 
ATOM     11  C   UNL A   1      35.824  23.517  24.107  1.00  0.00    -0.030 C 
BRANCH   7  12
ATOM     12  C   UNL A   1      32.387  23.513  26.599  1.00  0.00     0.228 C 
ATOM     13  N   UNL A   1      31.913  22.265  26.287  1.00  0.00    -0.326 N 
ATOM     14  H   UNL A   1      31.114  22.070  26.830  1.00  0.00     0.169 HD
ATOM     15  O   UNL A   1      31.650  24.148  27.374  1.00  0.00    -0.274 OA
BRANCH  13  16
ATOM     16  C   UNL A   1      32.192  21.161  25.440  1.00  0.00     0.044 A 
ATOM     17  C   UNL A   1      32.753  17.994  22.491  1.00  0.00     0.047 C 
ATOM     18  C   UNL A   1      32.668  19.127  23.472  1.00  0.00    -0.015 A 
ATOM     19  C   UNL A   1      32.250  20.395  23.089  1.00  0.00     0.008 A 
ATOM     20  C   UNL A   1      32.954  18.941  24.823  1.00  0.00     0.128 A 
ATOM     21  C   UNL A   1      32.061  21.402  24.057  1.00  0.00     0.026 A 
ATOM     22  C   UNL A   1      32.696  19.924  25.799  1.00  0.00     0.065 A 
ATOM     23  F   UNL A   1      33.561  17.809  25.185  1.00  0.00    -0.207 F 
ENDBRANCH  13  16
ENDBRANCH   7  12
ENDBRANCH   4   6
ENDBRANCH   3   4
ENDBRANCH   2   3
ENDBRANCH   1   2
BRANCH   1  24
ATOM     24  O   UNL A   1      33.513  28.483  27.170  1.00  0.00    -0.458 OA
BRANCH  24  25
ATOM     25  C   UNL A   1      33.955  29.753  27.383  1.00  0.00     0.338 C 
ATOM     26  O   UNL A   1      33.223  30.725  27.272  1.00  0.00    -0.246 OA
BRANCH  25  27
ATOM     27  C   UNL A   1      35.340  29.811  27.925  1.00  0.00     0.060 A 
ATOM     28  C   UNL A   1      36.398  30.104  27.058  1.00  0.00     0.016 A 
ATOM     29  C   UNL A   1      35.605  29.543  29.272  1.00  0.00     0.016 A 
ATOM     30  C   UNL A   1      37.715  30.027  27.517  1.00  0.00     0.010 A 
ATOM     31  C   UNL A   1      36.914  29.379  29.696  1.00  0.00     0.010 A 
ATOM     32  C   UNL A   1      37.973  29.552  28.800  1.00  0.00    -0.014 A 
BRANCH  32  33
ATOM     33  C   UNL A   1      39.312  29.278  29.324  1.00  0.00     0.031 A 
ATOM     34  C   UNL A   1      39.968  27.986  29.052  1.00  0.00     0.074 A 
ATOM     35  C   UNL A   1      40.041  30.264  29.896  1.00  0.00     0.049 A 
ATOM     36  N   UNL A   1      41.106  27.628  29.550  1.00  0.00    -0.248 NA
ATOM     37  C   UNL A   1      39.335  26.936  28.255  1.00  0.00     0.031 C 
ATOM     38  C   UNL A   1      41.486  30.437  29.804  1.00  0.00     0.029 A 
ATOM     39  N   UNL A   1      39.631  31.216  30.831  1.00  0.00    -0.354 N 
ATOM     40  C   UNL A   1      41.496  26.500  28.876  1.00  0.00     0.074 A 
ATOM     41  C   UNL A   1      40.296  26.006  28.252  1.00  0.00     0.031 C 
ATOM     42  C   UNL A   1      41.878  31.325  30.726  1.00  0.00     0.029 A 
ATOM     43  C   UNL A   1      40.742  31.600  31.598  1.00  0.00     0.049 A 
ATOM     44  H   UNL A   1      38.715  31.560  30.937  1.00  0.00     0.167 HD
ATOM     45  C   UNL A   1      42.824  26.225  28.762  1.00  0.00     0.037 A 
ATOM     46  C   UNL A   1      40.824  31.726  32.955  1.00  0.00     0.037 A 
ATOM     47  C   UNL A   1      43.618  27.016  29.707  1.00  0.00     0.049 A 
ATOM     48  C   UNL A   1      41.935  30.875  33.535  1.00  0.00     0.074 A 
ATOM     49  C   UNL A   1      44.481  28.087  29.562  1.00  0.00     0.029 A 
ATOM     50  N   UNL A   1      43.377  26.890  31.076  1.00  0.00    -0.354 N 
ATOM     51  N   UNL A   1      42.646  30.034  32.838  1.00  0.00    -0.248 NA
ATOM     52  C   UNL A   1      42.249  30.812  34.962  1.00  0.00     0.031 C 
ATOM     53  C   UNL A   1      44.684  28.660  30.849  1.00  0.00     0.029 A 
ATOM     54  C   UNL A   1      43.992  27.907  31.785  1.00  0.00     0.049 A 
ATOM     55  H   UNL A   1      42.841  26.172  31.483  1.00  0.00     0.167 HD
ATOM     56  C   UNL A   1      43.294  29.185  33.686  1.00  0.00     0.074 A 
ATOM     57  C   UNL A   1      43.099  29.773  34.998  1.00  0.00     0.031 C 
ATOM     58  C   UNL A   1      43.832  28.014  33.236  1.00  0.00     0.037 A 
BRANCH  45  59
ATOM     59  C   UNL A   1      43.425  25.386  27.646  1.00  0.00     0.058 A 
ATOM     60  C   UNL A   1      43.713  24.019  27.854  1.00  0.00     0.135 A 
ATOM     61  C   UNL A   1      43.858  25.886  26.394  1.00  0.00     0.135 A 
ATOM     62  F   UNL A   1      43.411  23.420  29.017  1.00  0.00    -0.206 F 
ATOM     63  C   UNL A   1      44.350  23.219  26.896  1.00  0.00     0.059 A 
ATOM     64  C   UNL A   1      44.438  25.093  25.403  1.00  0.00     0.059 A 
ATOM     65  F   UNL A   1      43.822  27.186  26.086  1.00  0.00    -0.206 F 
ATOM     66  C   UNL A   1      44.698  23.762  25.666  1.00  0.00     0.060 A 
BRANCH  66  67
ATOM     67  S   UNL A   1      45.514  22.740  24.425  1.00  0.00     0.124 S 
ATOM     68  O   UNL A   1      46.056  21.656  25.236  1.00  0.00    -0.237 OA
ATOM     69  O   UNL A   1      44.412  22.384  23.537  1.00  0.00    -0.237 OA
ATOM     70  O   UNL A   1      46.509  23.639  23.843  1.00  0.00    -0.744 OA
ENDBRANCH  66  67
ENDBRANCH  45  59
BRANCH  46  71
ATOM     71  C   UNL A   1      39.542  31.958  33.663  1.00  0.00     0.058 A 
ATOM     72  C   UNL A   1      39.166  33.274  33.973  1.00  0.00     0.135 A 
ATOM     73  C   UNL A   1      38.538  30.985  33.630  1.00  0.00     0.135 A 
ATOM     74  F   UNL A   1      40.099  34.220  34.170  1.00  0.00    -0.206 F 
ATOM     75  C   UNL A   1      37.834  33.663  33.904  1.00  0.00     0.059 A 
ATOM     76  C   UNL A   1      37.200  31.351  33.626  1.00  0.00     0.059 A 
ATOM     77  F   UNL A   1      38.829  29.704  33.370  1.00  0.00    -0.206 F 
ATOM     78  C   UNL A   1      36.913  32.711  33.479  1.00  0.00     0.060 A 
BRANCH  78  79
ATOM     79  S   UNL A   1      36.208  32.972  31.763  1.00  0.00     0.124 S 
ATOM     80  O   UNL A   1      35.200  31.936  31.596  1.00  0.00    -0.237 OA
ATOM     81  O   UNL A   1      35.646  34.295  31.970  1.00  0.00    -0.237 OA
ATOM     82  O   UNL A   1      37.383  32.870  30.918  1.00  0.00    -0.744 OA
ENDBRANCH  78  79
ENDBRANCH  46  71
BRANCH  58  83
ATOM     83  C   UNL A   1      44.273  26.891  34.141  1.00  0.00     0.058 A 
ATOM     84  C   UNL A   1      43.390  26.044  34.837  1.00  0.00     0.135 A 
ATOM     85  C   UNL A   1      45.642  26.560  34.246  1.00  0.00     0.135 A 
ATOM     86  F   UNL A   1      42.060  26.162  34.711  1.00  0.00    -0.206 F 
ATOM     87  C   UNL A   1      43.834  25.015  35.665  1.00  0.00     0.059 A 
ATOM     88  C   UNL A   1      46.105  25.499  35.019  1.00  0.00     0.059 A 
ATOM     89  F   UNL A   1      46.578  27.265  33.592  1.00  0.00    -0.206 F 
ATOM     90  C   UNL A   1      45.196  24.756  35.760  1.00  0.00     0.060 A 
BRANCH  90  91
ATOM     91  S   UNL A   1      45.775  23.426  36.828  1.00  0.00     0.124 S 
ATOM     92  O   UNL A   1      45.191  23.809  38.110  1.00  0.00    -0.237 OA
ATOM     93  O   UNL A   1      45.201  22.235  36.208  1.00  0.00    -0.237 OA
ATOM     94  O   UNL A   1      47.228  23.532  36.738  1.00  0.00    -0.744 OA
ENDBRANCH  90  91
ENDBRANCH  58  83
ENDBRANCH  32  33
ENDBRANCH  25  27
ENDBRANCH  24  25
ENDBRANCH   1  24
TORSDOF 16
ENDMDL
MODEL 2
REMARK VINA RESULT:     -12.3      2.150      3.583
REMARK SMILES Cc1ccc(NC(=O)[C@H]2CC=CC[C@H]2C(=O)OCCOC(=O)c2ccc(-c3c4nc(c(-c5c(F)cc(S(=O)(=O)[O-])cc5F)c5ccc([nH]5)c(-c5c(F)cc(S(=O)(=O)[O-])cc5F)c5nc(c(-c6c(F)cc(S(=O)(=O)[O-])cc6F)c6ccc3[nH]6)C=C5)C=C4)cc2)cc1F
REMARK SMILES IDX 19 1 18 2 17 3 15 4 16 5 14 6 9 7 10 8 11 9 13 10 12 11 7 12
REMARK SMILES IDX 6 13 8 15 5 16 1 17 2 18 3 19 90 20 4 21 89 22 91 23 20 24
REMARK SMILES IDX 21 25 22 26 23 27 24 28 88 29 25 30 87 31 26 32 27 33 28 34
REMARK SMILES IDX 81 35 29 36 86 37 80 38 82 39 30 40 85 41 79 42 78 43 31 45
REMARK SMILES IDX 65 46 44 47 64 48 45 49 48 50 63 51 83 52 46 53 47 54 62 56
REMARK SMILES IDX 84 57 49 58 32 59 33 60 42 61 34 62 35 63 41 64 43 65 36 66
REMARK SMILES IDX 37 67 38 68 39 69 40 70 66 71 67 72 76 73 68 74 69 75 75 76
REMARK SMILES IDX 77 77 70 78 71 79 72 80 73 81 74 82 50 83 51 84 60 85 52 86
REMARK SMILES IDX 53 87 59 88 61 89 54 90 55 91 56 92 57 93 58 94
REMARK H PARENT 6 14 82 44 48 55
REMARK Flexibility Score: inf
ROOT
ATOM      1  C   UNL A   1      32.600  29.670  27.257  1.00  0.00     0.275 C 
ENDROOT
BRANCH   1   2
ATOM      2  C   UNL A   1      32.690  28.159  27.143  1.00  0.00     0.274 C 
BRANCH   2   3
ATOM      3  O   UNL A   1      32.266  27.850  25.813  1.00  0.00    -0.462 OA
BRANCH   3   4
ATOM      4  C   UNL A   1      33.203  27.348  24.985  1.00  0.00     0.310 C 
ATOM      5  O   UNL A   1      34.086  28.017  24.462  1.00  0.00    -0.252 OA
BRANCH   4   6
ATOM      6  C   UNL A   1      33.051  25.845  24.887  1.00  0.00     0.116 C 
ATOM      7  C   UNL A   1      32.562  25.284  23.515  1.00  0.00     0.097 C 
ATOM      8  C   UNL A   1      33.081  23.836  23.234  1.00  0.00     0.041 C 
ATOM      9  C   UNL A   1      33.876  23.136  24.303  1.00  0.00    -0.030 C 
ATOM     10  C   UNL A   1      34.360  25.253  25.447  1.00  0.00     0.043 C 
ATOM     11  C   UNL A   1      34.465  23.777  25.314  1.00  0.00    -0.030 C 
BRANCH   7  12
ATOM     12  C   UNL A   1      32.725  26.193  22.288  1.00  0.00     0.228 C 
ATOM     13  N   UNL A   1      32.000  27.314  21.972  1.00  0.00    -0.326 N 
ATOM     14  H   UNL A   1      32.444  27.798  21.238  1.00  0.00     0.169 HD
ATOM     15  O   UNL A   1      33.675  25.979  21.515  1.00  0.00    -0.274 OA
BRANCH  13  16
ATOM     16  C   UNL A   1      30.821  28.005  22.353  1.00  0.00     0.044 A 
ATOM     17  C   UNL A   1      27.473  30.556  23.506  1.00  0.00     0.047 C 
ATOM     18  C   UNL A   1      28.580  29.677  22.998  1.00  0.00    -0.015 A 
ATOM     19  C   UNL A   1      29.687  30.203  22.344  1.00  0.00     0.008 A 
ATOM     20  C   UNL A   1      28.568  28.300  23.206  1.00  0.00     0.128 A 
ATOM     21  C   UNL A   1      30.765  29.366  21.991  1.00  0.00     0.026 A 
ATOM     22  C   UNL A   1      29.675  27.476  22.920  1.00  0.00     0.065 A 
ATOM     23  F   UNL A   1      27.433  27.740  23.631  1.00  0.00    -0.207 F 
ENDBRANCH  13  16
ENDBRANCH   7  12
ENDBRANCH   4   6
ENDBRANCH   3   4
ENDBRANCH   2   3
ENDBRANCH   1   2
BRANCH   1  24
ATOM     24  O   UNL A   1      33.815  30.280  26.778  1.00  0.00    -0.458 OA
BRANCH  24  25
ATOM     25  C   UNL A   1      34.528  30.969  27.711  1.00  0.00     0.338 C 
ATOM     26  O   UNL A   1      34.097  31.980  28.244  1.00  0.00    -0.246 OA
BRANCH  25  27
ATOM     27  C   UNL A   1      35.779  30.276  28.126  1.00  0.00     0.060 A 
ATOM     28  C   UNL A   1      35.877  29.771  29.426  1.00  0.00     0.016 A 
ATOM     29  C   UNL A   1      36.865  30.153  27.253  1.00  0.00     0.016 A 
ATOM     30  C   UNL A   1      37.088  29.241  29.876  1.00  0.00     0.010 A 
ATOM     31  C   UNL A   1      38.087  29.712  27.734  1.00  0.00     0.010 A 
ATOM     32  C   UNL A   1      38.221  29.320  29.069  1.00  0.00    -0.014 A 
BRANCH  32  33
ATOM     33  C   UNL A   1      39.568  28.947  29.500  1.00  0.00     0.031 A 
ATOM     34  C   UNL A   1      40.113  27.617  29.171  1.00  0.00     0.074 A 
ATOM     35  C   UNL A   1      40.400  29.871  30.033  1.00  0.00     0.049 A 
ATOM     36  N   UNL A   1      41.254  27.174  29.588  1.00  0.00    -0.248 NA
ATOM     37  C   UNL A   1      39.358  26.625  28.406  1.00  0.00     0.031 C 
ATOM     38  C   UNL A   1      41.844  29.946  29.847  1.00  0.00     0.029 A 
ATOM     39  N   UNL A   1      40.120  30.834  31.004  1.00  0.00    -0.354 N 
ATOM     40  C   UNL A   1      41.519  26.032  28.877  1.00  0.00     0.074 A 
ATOM     41  C   UNL A   1      40.249  25.632  28.329  1.00  0.00     0.031 C 
ATOM     42  C   UNL A   1      42.358  30.790  30.751  1.00  0.00     0.029 A 
ATOM     43  C   UNL A   1      41.303  31.128  31.699  1.00  0.00     0.049 A 
ATOM     44  H   UNL A   1      39.239  31.238  31.174  1.00  0.00     0.167 HD
ATOM     45  C   UNL A   1      42.814  25.668  28.672  1.00  0.00     0.037 A 
ATOM     46  C   UNL A   1      41.483  31.227  33.049  1.00  0.00     0.037 A 
ATOM     47  C   UNL A   1      43.722  26.388  29.570  1.00  0.00     0.049 A 
ATOM     48  C   UNL A   1      42.567  30.292  33.544  1.00  0.00     0.074 A 
ATOM     49  C   UNL A   1      44.646  27.398  29.380  1.00  0.00     0.029 A 
ATOM     50  N   UNL A   1      43.563  26.257  30.951  1.00  0.00    -0.354 N 
ATOM     51  N   UNL A   1      43.170  29.416  32.793  1.00  0.00    -0.248 NA
ATOM     52  C   UNL A   1      42.969  30.186  34.946  1.00  0.00     0.031 C 
ATOM     53  C   UNL A   1      44.973  27.936  30.657  1.00  0.00     0.029 A 
ATOM     54  C   UNL A   1      44.292  27.218  31.629  1.00  0.00     0.049 A 
ATOM     55  H   UNL A   1      43.006  25.571  31.384  1.00  0.00     0.167 HD
ATOM     56  C   UNL A   1      43.812  28.511  33.586  1.00  0.00     0.074 A 
ATOM     57  C   UNL A   1      43.745  29.091  34.914  1.00  0.00     0.031 C 
ATOM     58  C   UNL A   1      44.236  27.312  33.088  1.00  0.00     0.037 A 
BRANCH  45  59
ATOM     59  C   UNL A   1      43.281  24.807  27.509  1.00  0.00     0.058 A 
ATOM     60  C   UNL A   1      43.405  23.409  27.659  1.00  0.00     0.135 A 
ATOM     61  C   UNL A   1      43.740  25.300  26.264  1.00  0.00     0.135 A 
ATOM     62  F   UNL A   1      43.061  22.805  28.807  1.00  0.00    -0.206 F 
ATOM     63  C   UNL A   1      43.915  22.575  26.654  1.00  0.00     0.059 A 
ATOM     64  C   UNL A   1      44.194  24.483  25.228  1.00  0.00     0.059 A 
ATOM     65  F   UNL A   1      43.855  26.606  26.004  1.00  0.00    -0.206 F 
ATOM     66  C   UNL A   1      44.297  23.120  25.435  1.00  0.00     0.060 A 
BRANCH  66  67
ATOM     67  S   UNL A   1      44.951  22.058  24.134  1.00  0.00     0.124 S 
ATOM     68  O   UNL A   1      46.356  22.449  24.103  1.00  0.00    -0.237 OA
ATOM     69  O   UNL A   1      44.671  20.722  24.649  1.00  0.00    -0.237 OA
ATOM     70  O   UNL A   1      44.173  22.441  22.957  1.00  0.00    -0.744 OA
ENDBRANCH  66  67
ENDBRANCH  45  59
BRANCH  46  71
ATOM     71  C   UNL A   1      40.268  31.536  33.844  1.00  0.00     0.058 A 
ATOM     72  C   UNL A   1      39.994  32.872  34.172  1.00  0.00     0.135 A 
ATOM     73  C   UNL A   1      39.209  30.624  33.885  1.00  0.00     0.135 A 
ATOM     74  F   UNL A   1      40.994  33.761  34.299  1.00  0.00    -0.206 F 
ATOM     75  C   UNL A   1      38.687  33.340  34.194  1.00  0.00     0.059 A 
ATOM     76  C   UNL A   1      37.898  31.069  33.973  1.00  0.00     0.059 A 
ATOM     77  F   UNL A   1      39.404  29.328  33.613  1.00  0.00    -0.206 F 
ATOM     78  C   UNL A   1      37.683  32.444  33.839  1.00  0.00     0.060 A 
BRANCH  78  79
ATOM     79  S   UNL A   1      36.877  32.745  32.175  1.00  0.00     0.124 S 
ATOM     80  O   UNL A   1      37.930  32.542  31.191  1.00  0.00    -0.237 OA
ATOM     81  O   UNL A   1      35.909  31.661  32.215  1.00  0.00    -0.237 OA
ATOM     82  O   UNL A   1      36.370  34.098  32.307  1.00  0.00    -0.744 OA
ENDBRANCH  78  79
ENDBRANCH  46  71
BRANCH  58  83
ATOM     83  C   UNL A   1      44.656  26.148  33.949  1.00  0.00     0.058 A 
ATOM     84  C   UNL A   1      43.767  25.373  34.719  1.00  0.00     0.135 A 
ATOM     85  C   UNL A   1      45.995  25.700  33.933  1.00  0.00     0.135 A 
ATOM     86  F   UNL A   1      42.446  25.606  34.710  1.00  0.00    -0.206 F 
ATOM     87  C   UNL A   1      44.192  24.302  35.503  1.00  0.00     0.059 A 
ATOM     88  C   UNL A   1      46.431  24.596  34.662  1.00  0.00     0.059 A 
ATOM     89  F   UNL A   1      46.927  26.328  33.201  1.00  0.00    -0.206 F 
ATOM     90  C   UNL A   1      45.529  23.927  35.478  1.00  0.00     0.060 A 
BRANCH  90  91
ATOM     91  S   UNL A   1      46.082  22.543  36.489  1.00  0.00     0.124 S 
ATOM     92  O   UNL A   1      45.319  21.440  35.912  1.00  0.00    -0.237 OA
ATOM     93  O   UNL A   1      47.520  22.508  36.238  1.00  0.00    -0.237 OA
ATOM     94  O   UNL A   1      45.698  22.939  37.840  1.00  0.00    -0.744 OA
ENDBRANCH  90  91
ENDBRANCH  58  83
ENDBRANCH  32  33
ENDBRANCH  25  27
ENDBRANCH  24  25
ENDBRANCH   1  24
TORSDOF 16
ENDMDL
MODEL 3
REMARK VINA RESULT:     -12.2      3.711      9.783
REMARK SMILES Cc1ccc(NC(=O)[C@H]2CC=CC[C@H]2C(=O)OCCOC(=O)c2ccc(-c3c4nc(c(-c5c(F)cc(S(=O)(=O)[O-])cc5F)c5ccc([nH]5)c(-c5c(F)cc(S(=O)(=O)[O-])cc5F)c5nc(c(-c6c(F)cc(S(=O)(=O)[O-])cc6F)c6ccc3[nH]6)C=C5)C=C4)cc2)cc1F
REMARK SMILES IDX 19 1 18 2 17 3 15 4 16 5 14 6 9 7 10 8 11 9 13 10 12 11 7 12
REMARK SMILES IDX 6 13 8 15 5 16 1 17 2 18 3 19 90 20 4 21 89 22 91 23 20 24
REMARK SMILES IDX 21 25 22 26 23 27 24 28 88 29 25 30 87 31 26 32 27 33 28 34
REMARK SMILES IDX 81 35 29 36 86 37 80 38 82 39 30 40 85 41 79 42 78 43 31 45
REMARK SMILES IDX 65 46 44 47 64 48 45 49 48 50 63 51 83 52 46 53 47 54 62 56
REMARK SMILES IDX 84 57 49 58 32 59 33 60 42 61 34 62 35 63 41 64 43 65 36 66
REMARK SMILES IDX 37 67 38 68 39 69 40 70 66 71 67 72 76 73 68 74 69 75 75 76
REMARK SMILES IDX 77 77 70 78 71 79 72 80 73 81 74 82 50 83 51 84 60 85 52 86
REMARK SMILES IDX 53 87 59 88 61 89 54 90 55 91 56 92 57 93 58 94
REMARK H PARENT 6 14 82 44 48 55
REMARK Flexibility Score: inf
ROOT
ATOM      1  C   UNL A   1      36.580  22.755  24.406  1.00  0.00     0.275 C 
ENDROOT
BRANCH   1   2
ATOM      2  C   UNL A   1      35.438  22.361  25.325  1.00  0.00     0.274 C 
BRANCH   2   3
ATOM      3  O   UNL A   1      34.295  23.066  24.837  1.00  0.00    -0.462 OA
BRANCH   3   4
ATOM      4  C   UNL A   1      33.385  22.339  24.159  1.00  0.00     0.310 C 
ATOM      5  O   UNL A   1      33.233  21.131  24.295  1.00  0.00    -0.252 OA
BRANCH   4   6
ATOM      6  C   UNL A   1      32.535  23.249  23.299  1.00  0.00     0.116 C 
ATOM      7  C   UNL A   1      31.175  23.712  23.909  1.00  0.00     0.097 C 
ATOM      8  C   UNL A   1      30.713  25.104  23.369  1.00  0.00     0.041 C 
ATOM      9  C   UNL A   1      31.536  25.772  22.302  1.00  0.00    -0.030 C 
ATOM     10  C   UNL A   1      33.480  24.360  22.800  1.00  0.00     0.043 C 
ATOM     11  C   UNL A   1      32.801  25.440  22.039  1.00  0.00    -0.030 C 
BRANCH   7  12
ATOM     12  C   UNL A   1      31.022  23.615  25.434  1.00  0.00     0.228 C 
ATOM     13  N   UNL A   1      31.270  24.590  26.366  1.00  0.00    -0.326 N 
ATOM     14  H   UNL A   1      30.906  24.314  27.238  1.00  0.00     0.169 HD
ATOM     15  O   UNL A   1      30.527  22.580  25.915  1.00  0.00    -0.274 OA
BRANCH  13  16
ATOM     16  C   UNL A   1      31.879  25.866  26.488  1.00  0.00     0.044 A 
ATOM     17  C   UNL A   1      34.198  29.544  26.864  1.00  0.00     0.047 C 
ATOM     18  C   UNL A   1      33.389  28.303  26.617  1.00  0.00    -0.015 A 
ATOM     19  C   UNL A   1      33.968  27.140  26.125  1.00  0.00     0.008 A 
ATOM     20  C   UNL A   1      32.030  28.250  26.921  1.00  0.00     0.128 A 
ATOM     21  C   UNL A   1      33.207  25.958  26.024  1.00  0.00     0.026 A 
ATOM     22  C   UNL A   1      31.289  27.051  26.888  1.00  0.00     0.065 A 
ATOM     23  F   UNL A   1      31.401  29.397  27.185  1.00  0.00    -0.207 F 
ENDBRANCH  13  16
ENDBRANCH   7  12
ENDBRANCH   4   6
ENDBRANCH   3   4
ENDBRANCH   2   3
ENDBRANCH   1   2
BRANCH   1  24
ATOM     24  O   UNL A   1      37.413  23.744  25.042  1.00  0.00    -0.458 OA
BRANCH  24  25
ATOM     25  C   UNL A   1      38.381  23.251  25.863  1.00  0.00     0.338 C 
ATOM     26  O   UNL A   1      38.730  22.081  25.828  1.00  0.00    -0.246 OA
BRANCH  25  27
ATOM     27  C   UNL A   1      39.069  24.304  26.660  1.00  0.00     0.060 A 
ATOM     28  C   UNL A   1      38.747  24.453  28.013  1.00  0.00     0.016 A 
ATOM     29  C   UNL A   1      40.001  25.165  26.073  1.00  0.00     0.016 A 
ATOM     30  C   UNL A   1      39.278  25.520  28.741  1.00  0.00     0.010 A 
ATOM     31  C   UNL A   1      40.452  26.272  26.774  1.00  0.00     0.010 A 
ATOM     32  C   UNL A   1      40.034  26.492  28.091  1.00  0.00    -0.014 A 
BRANCH  32  33
ATOM     33  C   UNL A   1      40.501  27.729  28.717  1.00  0.00     0.031 A 
ATOM     34  C   UNL A   1      39.630  28.918  28.755  1.00  0.00     0.074 A 
ATOM     35  C   UNL A   1      41.648  27.746  29.433  1.00  0.00     0.049 A 
ATOM     36  N   UNL A   1      39.995  30.074  29.206  1.00  0.00    -0.248 NA
ATOM     37  C   UNL A   1      38.281  28.923  28.191  1.00  0.00     0.031 C 
ATOM     38  C   UNL A   1      41.905  28.525  30.639  1.00  0.00     0.029 A 
ATOM     39  N   UNL A   1      42.885  27.188  29.106  1.00  0.00    -0.354 N 
ATOM     40  C   UNL A   1      38.859  30.834  29.313  1.00  0.00     0.074 A 
ATOM     41  C   UNL A   1      37.885  30.164  28.492  1.00  0.00     0.031 C 
ATOM     42  C   UNL A   1      43.220  28.520  30.891  1.00  0.00     0.029 A 
ATOM     43  C   UNL A   1      43.894  27.927  29.742  1.00  0.00     0.049 A 
ATOM     44  H   UNL A   1      43.026  26.407  28.524  1.00  0.00     0.167 HD
ATOM     45  C   UNL A   1      38.817  31.830  30.240  1.00  0.00     0.037 A 
ATOM     46  C   UNL A   1      45.059  28.395  29.205  1.00  0.00     0.037 A 
ATOM     47  C   UNL A   1      40.156  32.157  30.737  1.00  0.00     0.049 A 
ATOM     48  C   UNL A   1      45.196  29.895  29.373  1.00  0.00     0.074 A 
ATOM     49  C   UNL A   1      40.805  31.940  31.938  1.00  0.00     0.029 A 
ATOM     50  N   UNL A   1      41.132  32.591  29.838  1.00  0.00    -0.354 N 
ATOM     51  N   UNL A   1      44.261  30.659  29.861  1.00  0.00    -0.248 NA
ATOM     52  C   UNL A   1      46.342  30.664  28.891  1.00  0.00     0.031 C 
ATOM     53  C   UNL A   1      42.196  32.159  31.728  1.00  0.00     0.029 A 
ATOM     54  C   UNL A   1      42.389  32.565  30.416  1.00  0.00     0.049 A 
ATOM     55  H   UNL A   1      40.950  32.879  28.914  1.00  0.00     0.167 HD
ATOM     56  C   UNL A   1      44.539  31.959  29.553  1.00  0.00     0.074 A 
ATOM     57  C   UNL A   1      45.895  31.922  29.040  1.00  0.00     0.031 C 
ATOM     58  C   UNL A   1      43.578  32.925  29.644  1.00  0.00     0.037 A 
BRANCH  45  59
ATOM     59  C   UNL A   1      37.533  32.369  30.850  1.00  0.00     0.058 A 
ATOM     60  C   UNL A   1      36.783  33.360  30.179  1.00  0.00     0.135 A 
ATOM     61  C   UNL A   1      37.048  32.050  32.140  1.00  0.00     0.135 A 
ATOM     62  F   UNL A   1      37.155  33.805  28.969  1.00  0.00    -0.206 F 
ATOM     63  C   UNL A   1      35.643  33.959  30.731  1.00  0.00     0.059 A 
ATOM     64  C   UNL A   1      35.881  32.588  32.685  1.00  0.00     0.059 A 
ATOM     65  F   UNL A   1      37.717  31.259  32.986  1.00  0.00    -0.206 F 
ATOM     66  C   UNL A   1      35.191  33.558  31.982  1.00  0.00     0.060 A 
BRANCH  66  67
ATOM     67  S   UNL A   1      33.724  34.319  32.701  1.00  0.00     0.124 S 
ATOM     68  O   UNL A   1      33.024  33.163  33.251  1.00  0.00    -0.237 OA
ATOM     69  O   UNL A   1      34.293  35.243  33.676  1.00  0.00    -0.237 OA
ATOM     70  O   UNL A   1      33.073  34.953  31.557  1.00  0.00    -0.744 OA
ENDBRANCH  66  67
ENDBRANCH  45  59
BRANCH  46  71
ATOM     71  C   UNL A   1      45.556  27.676  28.007  1.00  0.00     0.058 A 
ATOM     72  C   UNL A   1      46.496  26.647  28.174  1.00  0.00     0.135 A 
ATOM     73  C   UNL A   1      44.812  27.692  26.822  1.00  0.00     0.135 A 
ATOM     74  F   UNL A   1      47.344  26.663  29.215  1.00  0.00    -0.206 F 
ATOM     75  C   UNL A   1      46.449  25.511  27.376  1.00  0.00     0.059 A 
ATOM     76  C   UNL A   1      44.803  26.592  25.979  1.00  0.00     0.059 A 
ATOM     77  F   UNL A   1      43.919  28.661  26.584  1.00  0.00    -0.206 F 
ATOM     78  C   UNL A   1      45.415  25.425  26.449  1.00  0.00     0.060 A 
BRANCH  78  79
ATOM     79  S   UNL A   1      44.069  24.185  26.845  1.00  0.00     0.124 S 
ATOM     80  O   UNL A   1      43.169  24.210  25.702  1.00  0.00    -0.237 OA
ATOM     81  O   UNL A   1      44.897  22.992  26.900  1.00  0.00    -0.237 OA
ATOM     82  O   UNL A   1      43.534  24.684  28.098  1.00  0.00    -0.744 OA
ENDBRANCH  78  79
ENDBRANCH  46  71
BRANCH  58  83
ATOM     83  C   UNL A   1      43.708  34.296  29.029  1.00  0.00     0.058 A 
ATOM     84  C   UNL A   1      43.775  34.538  27.644  1.00  0.00     0.135 A 
ATOM     85  C   UNL A   1      43.656  35.448  29.846  1.00  0.00     0.135 A 
ATOM     86  F   UNL A   1      43.692  33.539  26.753  1.00  0.00    -0.206 F 
ATOM     87  C   UNL A   1      43.894  35.820  27.112  1.00  0.00     0.059 A 
ATOM     88  C   UNL A   1      43.713  36.740  29.332  1.00  0.00     0.059 A 
ATOM     89  F   UNL A   1      43.546  35.348  31.179  1.00  0.00    -0.206 F 
ATOM     90  C   UNL A   1      43.874  36.917  27.964  1.00  0.00     0.060 A 
BRANCH  90  91
ATOM     91  S   UNL A   1      44.026  38.576  27.280  1.00  0.00     0.124 S 
ATOM     92  O   UNL A   1      45.254  38.456  26.499  1.00  0.00    -0.237 OA
ATOM     93  O   UNL A   1      42.800  38.723  26.501  1.00  0.00    -0.237 OA
ATOM     94  O   UNL A   1      44.111  39.422  28.467  1.00  0.00    -0.744 OA
ENDBRANCH  90  91
ENDBRANCH  58  83
ENDBRANCH  32  33
ENDBRANCH  25  27
ENDBRANCH  24  25
ENDBRANCH   1  24
TORSDOF 16
ENDMDL
