MODEL 1
REMARK VINA RESULT:     -12.2      0.000      0.000
REMARK SMILES CC1=C(CC(=O)OCCOC(=O)c2ccc(-c3c4nc(c(-c5c(F)cc(S(=O)(=O)[O-])cc5F)c5ccc([nH]5)c(-c5c(F)cc(S(=O)(=O)[O-])cc5F)c5nc(c(-c6c(F)cc(S(=O)(=O)[O-])cc6F)c6ccc3[nH]6)C=C5)C=C4)cc2)c2cc(F)ccc2/C1=C\c1cccc(OCc2ccccc2)c1
REMARK SMILES IDX 8 1 7 2 5 3 6 4 4 5 3 6 1 7 2 8 86 9 79 10 85 11 87 12 80 13
REMARK SMILES IDX 84 14 81 15 83 16 82 17 88 18 89 19 101 20 90 21 92 22 91 23
REMARK SMILES IDX 93 24 94 25 95 26 96 27 100 28 97 29 99 30 98 31 9 32 10 33
REMARK SMILES IDX 11 34 12 35 13 36 14 37 78 38 15 39 77 40 16 41 17 42 18 43
REMARK SMILES IDX 71 44 19 45 76 46 70 47 72 48 20 49 75 50 69 51 68 52 21 54
REMARK SMILES IDX 55 55 34 56 54 57 35 58 38 59 53 60 73 61 36 62 37 63 52 65
REMARK SMILES IDX 74 66 39 67 22 68 23 69 32 70 24 71 25 72 31 73 33 74 26 75
REMARK SMILES IDX 27 76 28 77 29 78 30 79 56 80 57 81 66 82 58 83 59 84 65 85
REMARK SMILES IDX 67 86 60 87 61 88 62 89 63 90 64 91 40 92 41 93 50 94 42 95
REMARK SMILES IDX 43 96 49 97 51 98 44 99 45 100 46 101 47 102 48 103
REMARK H PARENT 72 53 38 64
REMARK Flexibility Score: inf
ROOT
ATOM      1  C   UNL A   1      35.751  21.458  25.692  1.00  0.00     0.274 C 
ENDROOT
BRANCH   1   2
ATOM      2  O   UNL A   1      34.921  21.028  24.592  1.00  0.00    -0.462 OA
BRANCH   2   3
ATOM      3  C   UNL A   1      33.671  20.608  24.924  1.00  0.00     0.310 C 
ATOM      4  O   UNL A   1      33.407  19.934  25.916  1.00  0.00    -0.252 OA
BRANCH   3   5
ATOM      5  C   UNL A   1      32.579  21.047  23.957  1.00  0.00     0.159 C 
BRANCH   5   6
ATOM      6  C   UNL A   1      32.192  22.488  23.989  1.00  0.00    -0.025 C 
ATOM      7  C   UNL A   1      33.338  23.315  21.875  1.00  0.00     0.045 C 
ATOM      8  C   UNL A   1      32.525  23.468  23.117  1.00  0.00    -0.039 C 
ATOM      9  C   UNL A   1      31.913  24.734  23.551  1.00  0.00    -0.014 C 
ATOM     10  C   UNL A   1      31.288  23.067  24.997  1.00  0.00    -0.011 A 
ATOM     11  C   UNL A   1      31.127  24.443  24.766  1.00  0.00    -0.010 A 
ATOM     12  C   UNL A   1      32.049  25.906  22.906  1.00  0.00     0.017 C 
ATOM     13  C   UNL A   1      30.606  22.451  26.033  1.00  0.00     0.048 A 
ATOM     14  C   UNL A   1      30.327  25.212  25.604  1.00  0.00     0.012 A 
ATOM     15  C   UNL A   1      29.810  23.227  26.871  1.00  0.00     0.123 A 
ATOM     16  C   UNL A   1      29.672  24.597  26.674  1.00  0.00     0.040 A 
ATOM     17  F   UNL A   1      29.148  22.640  27.878  1.00  0.00    -0.207 F 
BRANCH  12  18
ATOM     18  C   UNL A   1      31.377  27.147  23.287  1.00  0.00    -0.021 A 
ATOM     19  C   UNL A   1      30.209  27.551  22.634  1.00  0.00     0.008 A 
ATOM     20  C   UNL A   1      31.962  27.968  24.261  1.00  0.00     0.054 A 
ATOM     21  C   UNL A   1      29.651  28.794  22.924  1.00  0.00     0.004 A 
ATOM     22  C   UNL A   1      31.382  29.194  24.579  1.00  0.00     0.120 A 
ATOM     23  C   UNL A   1      30.243  29.614  23.886  1.00  0.00     0.046 A 
BRANCH  22  24
ATOM     24  O   UNL A   1      31.797  30.048  25.565  1.00  0.00    -0.489 OA
BRANCH  24  25
ATOM     25  C   UNL A   1      32.243  29.491  26.808  1.00  0.00     0.265 C 
BRANCH  25  26
ATOM     26  C   UNL A   1      33.646  29.883  27.238  1.00  0.00    -0.011 A 
ATOM     27  C   UNL A   1      34.709  28.967  27.265  1.00  0.00     0.007 A 
ATOM     28  C   UNL A   1      33.898  31.209  27.625  1.00  0.00     0.007 A 
ATOM     29  C   UNL A   1      36.000  29.378  27.600  1.00  0.00     0.000 A 
ATOM     30  C   UNL A   1      35.185  31.614  27.982  1.00  0.00     0.000 A 
ATOM     31  C   UNL A   1      36.238  30.702  27.956  1.00  0.00     0.000 A 
ENDBRANCH  25  26
ENDBRANCH  24  25
ENDBRANCH  22  24
ENDBRANCH  12  18
ENDBRANCH   5   6
ENDBRANCH   3   5
ENDBRANCH   2   3
ENDBRANCH   1   2
BRANCH   1  32
ATOM     32  C   UNL A   1      37.206  21.586  25.251  1.00  0.00     0.275 C 
BRANCH  32  33
ATOM     33  O   UNL A   1      37.872  22.555  26.076  1.00  0.00    -0.458 OA
BRANCH  33  34
ATOM     34  C   UNL A   1      39.132  22.234  26.451  1.00  0.00     0.338 C 
ATOM     35  O   UNL A   1      39.646  21.130  26.447  1.00  0.00    -0.246 OA
BRANCH  34  36
ATOM     36  C   UNL A   1      39.830  23.450  26.906  1.00  0.00     0.060 A 
ATOM     37  C   UNL A   1      39.434  24.681  26.390  1.00  0.00     0.016 A 
ATOM     38  C   UNL A   1      40.805  23.386  27.905  1.00  0.00     0.016 A 
ATOM     39  C   UNL A   1      40.051  25.846  26.848  1.00  0.00     0.010 A 
ATOM     40  C   UNL A   1      41.338  24.558  28.439  1.00  0.00     0.010 A 
ATOM     41  C   UNL A   1      41.000  25.798  27.887  1.00  0.00    -0.014 A 
BRANCH  41  42
ATOM     42  C   UNL A   1      41.668  27.045  28.343  1.00  0.00     0.031 A 
ATOM     43  C   UNL A   1      43.112  27.298  27.991  1.00  0.00     0.074 A 
ATOM     44  C   UNL A   1      40.966  27.968  29.030  1.00  0.00     0.049 A 
ATOM     45  N   UNL A   1      43.833  28.372  28.195  1.00  0.00    -0.248 NA
ATOM     46  C   UNL A   1      43.852  26.203  27.339  1.00  0.00     0.031 C 
ATOM     47  C   UNL A   1      39.578  27.816  29.478  1.00  0.00     0.029 A 
ATOM     48  N   UNL A   1      41.311  29.229  29.447  1.00  0.00    -0.354 N 
ATOM     49  C   UNL A   1      45.094  28.087  27.683  1.00  0.00     0.074 A 
ATOM     50  C   UNL A   1      45.068  26.716  27.230  1.00  0.00     0.031 C 
ATOM     51  C   UNL A   1      39.173  28.962  30.049  1.00  0.00     0.029 A 
ATOM     52  C   UNL A   1      40.273  29.921  30.027  1.00  0.00     0.049 A 
ATOM     53  H   UNL A   1      42.215  29.603  29.341  1.00  0.00     0.167 HD
ATOM     54  C   UNL A   1      46.163  28.906  27.558  1.00  0.00     0.037 A 
ATOM     55  C   UNL A   1      40.210  31.194  30.466  1.00  0.00     0.037 A 
ATOM     56  C   UNL A   1      46.181  30.279  27.983  1.00  0.00     0.049 A 
ATOM     57  C   UNL A   1      41.418  32.080  30.324  1.00  0.00     0.074 A 
ATOM     58  C   UNL A   1      47.209  31.200  27.874  1.00  0.00     0.029 A 
ATOM     59  N   UNL A   1      45.117  30.931  28.586  1.00  0.00    -0.354 N 
ATOM     60  N   UNL A   1      42.583  31.807  29.787  1.00  0.00    -0.248 NA
ATOM     61  C   UNL A   1      41.301  33.451  30.842  1.00  0.00     0.031 C 
ATOM     62  C   UNL A   1      46.774  32.404  28.435  1.00  0.00     0.029 A 
ATOM     63  C   UNL A   1      45.466  32.242  28.862  1.00  0.00     0.049 A 
ATOM     64  H   UNL A   1      44.244  30.524  28.787  1.00  0.00     0.167 HD
ATOM     65  C   UNL A   1      43.327  32.978  29.879  1.00  0.00     0.074 A 
ATOM     66  C   UNL A   1      42.478  33.966  30.512  1.00  0.00     0.031 C 
ATOM     67  C   UNL A   1      44.600  33.214  29.479  1.00  0.00     0.037 A 
BRANCH  54  68
ATOM     68  C   UNL A   1      47.392  28.356  26.890  1.00  0.00     0.058 A 
ATOM     69  C   UNL A   1      47.476  28.268  25.492  1.00  0.00     0.135 A 
ATOM     70  C   UNL A   1      48.519  27.984  27.640  1.00  0.00     0.135 A 
ATOM     71  F   UNL A   1      46.418  28.592  24.730  1.00  0.00    -0.206 F 
ATOM     72  C   UNL A   1      48.631  27.826  24.859  1.00  0.00     0.059 A 
ATOM     73  C   UNL A   1      49.694  27.558  27.026  1.00  0.00     0.059 A 
ATOM     74  F   UNL A   1      48.488  28.044  28.981  1.00  0.00    -0.206 F 
ATOM     75  C   UNL A   1      49.738  27.480  25.635  1.00  0.00     0.060 A 
BRANCH  75  76
ATOM     76  S   UNL A   1      51.245  26.953  24.792  1.00  0.00     0.124 S 
ATOM     77  O   UNL A   1      51.444  25.621  25.354  1.00  0.00    -0.237 OA
ATOM     78  O   UNL A   1      50.845  26.994  23.388  1.00  0.00    -0.237 OA
ATOM     79  O   UNL A   1      52.228  27.956  25.190  1.00  0.00    -0.744 OA
ENDBRANCH  75  76
ENDBRANCH  54  68
BRANCH  55  80
ATOM     80  C   UNL A   1      38.944  31.730  31.034  1.00  0.00     0.058 A 
ATOM     81  C   UNL A   1      38.110  32.562  30.272  1.00  0.00     0.135 A 
ATOM     82  C   UNL A   1      38.553  31.442  32.351  1.00  0.00     0.135 A 
ATOM     83  F   UNL A   1      38.444  32.870  29.010  1.00  0.00    -0.206 F 
ATOM     84  C   UNL A   1      36.947  33.111  30.801  1.00  0.00     0.059 A 
ATOM     85  C   UNL A   1      37.384  31.961  32.896  1.00  0.00     0.059 A 
ATOM     86  F   UNL A   1      39.310  30.640  33.116  1.00  0.00    -0.206 F 
ATOM     87  C   UNL A   1      36.594  32.808  32.118  1.00  0.00     0.060 A 
BRANCH  87  88
ATOM     88  S   UNL A   1      35.077  33.518  32.792  1.00  0.00     0.124 S 
ATOM     89  O   UNL A   1      35.273  33.324  34.223  1.00  0.00    -0.237 OA
ATOM     90  O   UNL A   1      35.144  34.897  32.318  1.00  0.00    -0.237 OA
ATOM     91  O   UNL A   1      34.028  32.704  32.182  1.00  0.00    -0.744 OA
ENDBRANCH  87  88
ENDBRANCH  55  80
BRANCH  67  92
ATOM     92  C   UNL A   1      45.151  34.595  29.690  1.00  0.00     0.058 A 
ATOM     93  C   UNL A   1      45.865  34.926  30.851  1.00  0.00     0.135 A 
ATOM     94  C   UNL A   1      45.032  35.569  28.686  1.00  0.00     0.135 A 
ATOM     95  F   UNL A   1      46.002  34.028  31.839  1.00  0.00    -0.206 F 
ATOM     96  C   UNL A   1      46.434  36.183  31.016  1.00  0.00     0.059 A 
ATOM     97  C   UNL A   1      45.611  36.827  28.822  1.00  0.00     0.059 A 
ATOM     98  F   UNL A   1      44.366  35.296  27.553  1.00  0.00    -0.206 F 
ATOM     99  C   UNL A   1      46.306  37.126  29.993  1.00  0.00     0.060 A 
BRANCH  99 100
ATOM    100  S   UNL A   1      47.095  38.737  30.201  1.00  0.00     0.124 S 
ATOM    101  O   UNL A   1      46.733  39.404  28.956  1.00  0.00    -0.237 OA
ATOM    102  O   UNL A   1      46.448  39.248  31.406  1.00  0.00    -0.237 OA
ATOM    103  O   UNL A   1      48.509  38.406  30.349  1.00  0.00    -0.744 OA
ENDBRANCH  99 100
ENDBRANCH  67  92
ENDBRANCH  41  42
ENDBRANCH  34  36
ENDBRANCH  33  34
ENDBRANCH  32  33
ENDBRANCH   1  32
TORSDOF 19
ENDMDL
MODEL 2
REMARK VINA RESULT:     -12.1      5.206      8.806
REMARK SMILES CC1=C(CC(=O)OCCOC(=O)c2ccc(-c3c4nc(c(-c5c(F)cc(S(=O)(=O)[O-])cc5F)c5ccc([nH]5)c(-c5c(F)cc(S(=O)(=O)[O-])cc5F)c5nc(c(-c6c(F)cc(S(=O)(=O)[O-])cc6F)c6ccc3[nH]6)C=C5)C=C4)cc2)c2cc(F)ccc2/C1=C\c1cccc(OCc2ccccc2)c1
REMARK SMILES IDX 8 1 7 2 5 3 6 4 4 5 3 6 1 7 2 8 86 9 79 10 85 11 87 12 80 13
REMARK SMILES IDX 84 14 81 15 83 16 82 17 88 18 89 19 101 20 90 21 92 22 91 23
REMARK SMILES IDX 93 24 94 25 95 26 96 27 100 28 97 29 99 30 98 31 9 32 10 33
REMARK SMILES IDX 11 34 12 35 13 36 14 37 78 38 15 39 77 40 16 41 17 42 18 43
REMARK SMILES IDX 71 44 19 45 76 46 70 47 72 48 20 49 75 50 69 51 68 52 21 54
REMARK SMILES IDX 55 55 34 56 54 57 35 58 38 59 53 60 73 61 36 62 37 63 52 65
REMARK SMILES IDX 74 66 39 67 22 68 23 69 32 70 24 71 25 72 31 73 33 74 26 75
REMARK SMILES IDX 27 76 28 77 29 78 30 79 56 80 57 81 66 82 58 83 59 84 65 85
REMARK SMILES IDX 67 86 60 87 61 88 62 89 63 90 64 91 40 92 41 93 50 94 42 95
REMARK SMILES IDX 43 96 49 97 51 98 44 99 45 100 46 101 47 102 48 103
REMARK H PARENT 72 53 38 64
REMARK Flexibility Score: inf
ROOT
ATOM      1  C   UNL A   1      44.061  23.556  25.251  1.00  0.00     0.274 C 
ENDROOT
BRANCH   1   2
ATOM      2  O   UNL A   1      42.900  23.654  26.102  1.00  0.00    -0.462 OA
BRANCH   2   3
ATOM      3  C   UNL A   1      43.105  23.372  27.416  1.00  0.00     0.310 C 
ATOM      4  O   UNL A   1      44.211  23.219  27.927  1.00  0.00    -0.252 OA
BRANCH   3   5
ATOM      5  C   UNL A   1      41.832  23.258  28.245  1.00  0.00     0.159 C 
BRANCH   5   6
ATOM      6  C   UNL A   1      40.556  23.066  27.494  1.00  0.00    -0.025 C 
ATOM      7  C   UNL A   1      39.553  25.394  27.697  1.00  0.00     0.045 C 
ATOM      8  C   UNL A   1      39.569  23.964  27.270  1.00  0.00    -0.039 C 
ATOM      9  C   UNL A   1      38.503  23.328  26.480  1.00  0.00    -0.014 C 
ATOM     10  C   UNL A   1      40.200  21.819  26.797  1.00  0.00    -0.011 A 
ATOM     11  C   UNL A   1      38.937  21.946  26.195  1.00  0.00    -0.010 A 
ATOM     12  C   UNL A   1      37.374  23.945  26.087  1.00  0.00     0.017 C 
ATOM     13  C   UNL A   1      40.927  20.649  26.646  1.00  0.00     0.048 A 
ATOM     14  C   UNL A   1      38.379  20.885  25.490  1.00  0.00     0.012 A 
ATOM     15  C   UNL A   1      40.361  19.590  25.944  1.00  0.00     0.123 A 
ATOM     16  C   UNL A   1      39.095  19.692  25.375  1.00  0.00     0.040 A 
ATOM     17  F   UNL A   1      41.056  18.454  25.796  1.00  0.00    -0.207 F 
BRANCH  12  18
ATOM     18  C   UNL A   1      36.351  23.343  25.235  1.00  0.00    -0.021 A 
ATOM     19  C   UNL A   1      36.450  23.423  23.843  1.00  0.00     0.008 A 
ATOM     20  C   UNL A   1      35.228  22.752  25.830  1.00  0.00     0.054 A 
ATOM     21  C   UNL A   1      35.407  22.953  23.048  1.00  0.00     0.004 A 
ATOM     22  C   UNL A   1      34.202  22.246  25.034  1.00  0.00     0.120 A 
ATOM     23  C   UNL A   1      34.285  22.376  23.645  1.00  0.00     0.046 A 
BRANCH  22  24
ATOM     24  O   UNL A   1      33.098  21.571  25.479  1.00  0.00    -0.489 OA
BRANCH  24  25
ATOM     25  C   UNL A   1      33.256  20.215  25.915  1.00  0.00     0.265 C 
BRANCH  25  26
ATOM     26  C   UNL A   1      33.322  19.174  24.811  1.00  0.00    -0.011 A 
ATOM     27  C   UNL A   1      32.396  19.135  23.757  1.00  0.00     0.007 A 
ATOM     28  C   UNL A   1      34.344  18.212  24.838  1.00  0.00     0.007 A 
ATOM     29  C   UNL A   1      32.527  18.206  22.723  1.00  0.00     0.000 A 
ATOM     30  C   UNL A   1      34.462  17.269  23.815  1.00  0.00     0.000 A 
ATOM     31  C   UNL A   1      33.561  17.275  22.751  1.00  0.00     0.000 A 
ENDBRANCH  25  26
ENDBRANCH  24  25
ENDBRANCH  22  24
ENDBRANCH  12  18
ENDBRANCH   5   6
ENDBRANCH   3   5
ENDBRANCH   2   3
ENDBRANCH   1   2
BRANCH   1  32
ATOM     32  C   UNL A   1      44.681  24.931  25.023  1.00  0.00     0.275 C 
BRANCH  32  33
ATOM     33  O   UNL A   1      43.688  25.946  25.240  1.00  0.00    -0.458 OA
BRANCH  33  34
ATOM     34  C   UNL A   1      44.166  27.190  25.469  1.00  0.00     0.338 C 
ATOM     35  O   UNL A   1      44.926  27.832  24.765  1.00  0.00    -0.246 OA
BRANCH  34  36
ATOM     36  C   UNL A   1      43.640  27.686  26.753  1.00  0.00     0.060 A 
ATOM     37  C   UNL A   1      43.777  29.037  27.056  1.00  0.00     0.016 A 
ATOM     38  C   UNL A   1      42.932  26.840  27.612  1.00  0.00     0.016 A 
ATOM     39  C   UNL A   1      43.240  29.531  28.245  1.00  0.00     0.010 A 
ATOM     40  C   UNL A   1      42.302  27.358  28.743  1.00  0.00     0.010 A 
ATOM     41  C   UNL A   1      42.485  28.700  29.094  1.00  0.00    -0.014 A 
BRANCH  41  42
ATOM     42  C   UNL A   1      41.945  29.235  30.372  1.00  0.00     0.031 A 
ATOM     43  C   UNL A   1      42.726  29.066  31.650  1.00  0.00     0.074 A 
ATOM     44  C   UNL A   1      40.779  29.911  30.374  1.00  0.00     0.049 A 
ATOM     45  N   UNL A   1      42.479  29.561  32.836  1.00  0.00    -0.248 NA
ATOM     46  C   UNL A   1      43.932  28.221  31.600  1.00  0.00     0.031 C 
ATOM     47  C   UNL A   1      39.904  30.095  29.212  1.00  0.00     0.029 A 
ATOM     48  N   UNL A   1      40.142  30.596  31.378  1.00  0.00    -0.354 N 
ATOM     49  C   UNL A   1      43.503  29.105  33.660  1.00  0.00     0.074 A 
ATOM     50  C   UNL A   1      44.331  28.231  32.863  1.00  0.00     0.031 C 
ATOM     51  C   UNL A   1      38.880  30.894  29.555  1.00  0.00     0.029 A 
ATOM     52  C   UNL A   1      39.013  31.263  30.960  1.00  0.00     0.049 A 
ATOM     53  H   UNL A   1      40.462  30.609  32.309  1.00  0.00     0.167 HD
ATOM     54  C   UNL A   1      43.758  29.422  34.950  1.00  0.00     0.037 A 
ATOM     55  C   UNL A   1      38.195  32.098  31.631  1.00  0.00     0.037 A 
ATOM     56  C   UNL A   1      42.951  30.315  35.736  1.00  0.00     0.049 A 
ATOM     57  C   UNL A   1      38.497  32.425  33.068  1.00  0.00     0.074 A 
ATOM     58  C   UNL A   1      43.143  30.720  37.045  1.00  0.00     0.029 A 
ATOM     59  N   UNL A   1      41.805  30.948  35.281  1.00  0.00    -0.354 N 
ATOM     60  N   UNL A   1      39.500  32.026  33.812  1.00  0.00    -0.248 NA
ATOM     61  C   UNL A   1      37.557  33.322  33.757  1.00  0.00     0.031 C 
ATOM     62  C   UNL A   1      42.098  31.582  37.391  1.00  0.00     0.029 A 
ATOM     63  C   UNL A   1      41.275  31.738  36.287  1.00  0.00     0.049 A 
ATOM     64  H   UNL A   1      41.426  30.852  34.379  1.00  0.00     0.167 HD
ATOM     65  C   UNL A   1      39.328  32.644  35.046  1.00  0.00     0.074 A 
ATOM     66  C   UNL A   1      38.131  33.452  34.947  1.00  0.00     0.031 C 
ATOM     67  C   UNL A   1      40.089  32.547  36.162  1.00  0.00     0.037 A 
BRANCH  54  68
ATOM     68  C   UNL A   1      44.991  28.839  35.583  1.00  0.00     0.058 A 
ATOM     69  C   UNL A   1      46.186  29.571  35.643  1.00  0.00     0.135 A 
ATOM     70  C   UNL A   1      44.961  27.578  36.198  1.00  0.00     0.135 A 
ATOM     71  F   UNL A   1      46.273  30.775  35.053  1.00  0.00    -0.206 F 
ATOM     72  C   UNL A   1      47.313  29.072  36.286  1.00  0.00     0.059 A 
ATOM     73  C   UNL A   1      46.071  27.067  36.865  1.00  0.00     0.059 A 
ATOM     74  F   UNL A   1      43.843  26.835  36.163  1.00  0.00    -0.206 F 
ATOM     75  C   UNL A   1      47.243  27.821  36.901  1.00  0.00     0.060 A 
BRANCH  75  76
ATOM     76  S   UNL A   1      48.702  27.211  37.771  1.00  0.00     0.124 S 
ATOM     77  O   UNL A   1      48.147  26.886  39.082  1.00  0.00    -0.237 OA
ATOM     78  O   UNL A   1      49.098  26.070  36.951  1.00  0.00    -0.237 OA
ATOM     79  O   UNL A   1      49.617  28.348  37.742  1.00  0.00    -0.744 OA
ENDBRANCH  75  76
ENDBRANCH  54  68
BRANCH  55  80
ATOM     80  C   UNL A   1      37.039  32.730  30.941  1.00  0.00     0.058 A 
ATOM     81  C   UNL A   1      35.745  32.203  31.076  1.00  0.00     0.135 A 
ATOM     82  C   UNL A   1      37.203  33.855  30.118  1.00  0.00     0.135 A 
ATOM     83  F   UNL A   1      35.539  31.125  31.847  1.00  0.00    -0.206 F 
ATOM     84  C   UNL A   1      34.660  32.751  30.401  1.00  0.00     0.059 A 
ATOM     85  C   UNL A   1      36.130  34.435  29.450  1.00  0.00     0.059 A 
ATOM     86  F   UNL A   1      38.418  34.405  29.967  1.00  0.00    -0.206 F 
ATOM     87  C   UNL A   1      34.863  33.866  29.585  1.00  0.00     0.060 A 
BRANCH  87  88
ATOM     88  S   UNL A   1      33.445  34.577  28.722  1.00  0.00     0.124 S 
ATOM     89  O   UNL A   1      32.554  34.890  29.832  1.00  0.00    -0.237 OA
ATOM     90  O   UNL A   1      34.042  35.721  28.039  1.00  0.00    -0.237 OA
ATOM     91  O   UNL A   1      33.009  33.492  27.847  1.00  0.00    -0.744 OA
ENDBRANCH  87  88
ENDBRANCH  55  80
BRANCH  67  92
ATOM     92  C   UNL A   1      39.672  33.348  37.362  1.00  0.00     0.058 A 
ATOM     93  C   UNL A   1      38.707  32.867  38.260  1.00  0.00     0.135 A 
ATOM     94  C   UNL A   1      40.299  34.569  37.656  1.00  0.00     0.135 A 
ATOM     95  F   UNL A   1      38.078  31.707  38.018  1.00  0.00    -0.206 F 
ATOM     96  C   UNL A   1      38.369  33.577  39.406  1.00  0.00     0.059 A 
ATOM     97  C   UNL A   1      39.991  35.285  38.808  1.00  0.00     0.059 A 
ATOM     98  F   UNL A   1      41.235  35.065  36.832  1.00  0.00    -0.206 F 
ATOM     99  C   UNL A   1      39.021  34.783  39.674  1.00  0.00     0.060 A 
BRANCH  99 100
ATOM    100  S   UNL A   1      38.607  35.667  41.194  1.00  0.00     0.124 S 
ATOM    101  O   UNL A   1      38.529  37.044  40.721  1.00  0.00    -0.237 OA
ATOM    102  O   UNL A   1      37.338  35.054  41.576  1.00  0.00    -0.237 OA
ATOM    103  O   UNL A   1      39.731  35.368  42.077  1.00  0.00    -0.744 OA
ENDBRANCH  99 100
ENDBRANCH  67  92
ENDBRANCH  41  42
ENDBRANCH  34  36
ENDBRANCH  33  34
ENDBRANCH  32  33
ENDBRANCH   1  32
TORSDOF 19
ENDMDL
MODEL 3
REMARK VINA RESULT:     -12.0      5.109      8.640
REMARK SMILES CC1=C(CC(=O)OCCOC(=O)c2ccc(-c3c4nc(c(-c5c(F)cc(S(=O)(=O)[O-])cc5F)c5ccc([nH]5)c(-c5c(F)cc(S(=O)(=O)[O-])cc5F)c5nc(c(-c6c(F)cc(S(=O)(=O)[O-])cc6F)c6ccc3[nH]6)C=C5)C=C4)cc2)c2cc(F)ccc2/C1=C\c1cccc(OCc2ccccc2)c1
REMARK SMILES IDX 8 1 7 2 5 3 6 4 4 5 3 6 1 7 2 8 86 9 79 10 85 11 87 12 80 13
REMARK SMILES IDX 84 14 81 15 83 16 82 17 88 18 89 19 101 20 90 21 92 22 91 23
REMARK SMILES IDX 93 24 94 25 95 26 96 27 100 28 97 29 99 30 98 31 9 32 10 33
REMARK SMILES IDX 11 34 12 35 13 36 14 37 78 38 15 39 77 40 16 41 17 42 18 43
REMARK SMILES IDX 71 44 19 45 76 46 70 47 72 48 20 49 75 50 69 51 68 52 21 54
REMARK SMILES IDX 55 55 34 56 54 57 35 58 38 59 53 60 73 61 36 62 37 63 52 65
REMARK SMILES IDX 74 66 39 67 22 68 23 69 32 70 24 71 25 72 31 73 33 74 26 75
REMARK SMILES IDX 27 76 28 77 29 78 30 79 56 80 57 81 66 82 58 83 59 84 65 85
REMARK SMILES IDX 67 86 60 87 61 88 62 89 63 90 64 91 40 92 41 93 50 94 42 95
REMARK SMILES IDX 43 96 49 97 51 98 44 99 45 100 46 101 47 102 48 103
REMARK H PARENT 72 53 38 64
REMARK Flexibility Score: inf
ROOT
ATOM      1  C   UNL A   1      43.821  23.269  24.589  1.00  0.00     0.274 C 
ENDROOT
BRANCH   1   2
ATOM      2  O   UNL A   1      43.152  22.160  25.226  1.00  0.00    -0.462 OA
BRANCH   2   3
ATOM      3  C   UNL A   1      43.473  21.947  26.529  1.00  0.00     0.310 C 
ATOM      4  O   UNL A   1      44.615  21.991  26.978  1.00  0.00    -0.252 OA
BRANCH   3   5
ATOM      5  C   UNL A   1      42.284  21.643  27.431  1.00  0.00     0.159 C 
BRANCH   5   6
ATOM      6  C   UNL A   1      40.927  21.808  26.833  1.00  0.00    -0.025 C 
ATOM      7  C   UNL A   1      40.576  19.491  25.849  1.00  0.00     0.045 C 
ATOM      8  C   UNL A   1      40.197  20.904  26.141  1.00  0.00    -0.039 C 
ATOM      9  C   UNL A   1      38.916  21.512  25.746  1.00  0.00    -0.014 C 
ATOM     10  C   UNL A   1      40.116  23.030  26.976  1.00  0.00    -0.011 A 
ATOM     11  C   UNL A   1      38.897  22.882  26.295  1.00  0.00    -0.010 A 
ATOM     12  C   UNL A   1      37.959  20.882  25.042  1.00  0.00     0.017 C 
ATOM     13  C   UNL A   1      40.382  24.193  27.680  1.00  0.00     0.048 A 
ATOM     14  C   UNL A   1      37.968  23.917  26.273  1.00  0.00     0.012 A 
ATOM     15  C   UNL A   1      39.451  25.226  27.651  1.00  0.00     0.123 A 
ATOM     16  C   UNL A   1      38.256  25.104  26.949  1.00  0.00     0.040 A 
ATOM     17  F   UNL A   1      39.702  26.356  28.328  1.00  0.00    -0.207 F 
BRANCH  12  18
ATOM     18  C   UNL A   1      36.653  21.454  24.718  1.00  0.00    -0.021 A 
ATOM     19  C   UNL A   1      36.524  22.389  23.686  1.00  0.00     0.008 A 
ATOM     20  C   UNL A   1      35.545  21.114  25.505  1.00  0.00     0.054 A 
ATOM     21  C   UNL A   1      35.298  23.014  23.471  1.00  0.00     0.004 A 
ATOM     22  C   UNL A   1      34.309  21.711  25.265  1.00  0.00     0.120 A 
ATOM     23  C   UNL A   1      34.200  22.681  24.264  1.00  0.00     0.046 A 
BRANCH  22  24
ATOM     24  O   UNL A   1      33.133  21.408  25.897  1.00  0.00    -0.489 OA
BRANCH  24  25
ATOM     25  C   UNL A   1      32.125  20.704  25.162  1.00  0.00     0.265 C 
BRANCH  25  26
ATOM     26  C   UNL A   1      32.505  19.308  24.697  1.00  0.00    -0.011 A 
ATOM     27  C   UNL A   1      32.552  18.954  23.340  1.00  0.00     0.007 A 
ATOM     28  C   UNL A   1      32.821  18.331  25.654  1.00  0.00     0.007 A 
ATOM     29  C   UNL A   1      32.971  17.682  22.946  1.00  0.00     0.000 A 
ATOM     30  C   UNL A   1      33.219  17.052  25.259  1.00  0.00     0.000 A 
ATOM     31  C   UNL A   1      33.307  16.732  23.906  1.00  0.00     0.000 A 
ENDBRANCH  25  26
ENDBRANCH  24  25
ENDBRANCH  22  24
ENDBRANCH  12  18
ENDBRANCH   5   6
ENDBRANCH   3   5
ENDBRANCH   2   3
ENDBRANCH   1   2
BRANCH   1  32
ATOM     32  C   UNL A   1      43.139  24.587  24.943  1.00  0.00     0.275 C 
BRANCH  32  33
ATOM     33  O   UNL A   1      43.543  24.997  26.259  1.00  0.00    -0.458 OA
BRANCH  33  34
ATOM     34  C   UNL A   1      44.166  26.196  26.329  1.00  0.00     0.338 C 
ATOM     35  O   UNL A   1      45.004  26.641  25.565  1.00  0.00    -0.246 OA
BRANCH  34  36
ATOM     36  C   UNL A   1      43.689  26.923  27.520  1.00  0.00     0.060 A 
ATOM     37  C   UNL A   1      43.717  28.314  27.510  1.00  0.00     0.016 A 
ATOM     38  C   UNL A   1      43.131  26.238  28.603  1.00  0.00     0.016 A 
ATOM     39  C   UNL A   1      43.223  29.018  28.609  1.00  0.00     0.010 A 
ATOM     40  C   UNL A   1      42.538  26.944  29.648  1.00  0.00     0.010 A 
ATOM     41  C   UNL A   1      42.616  28.340  29.684  1.00  0.00    -0.014 A 
BRANCH  41  42
ATOM     42  C   UNL A   1      42.121  29.103  30.861  1.00  0.00     0.031 A 
ATOM     43  C   UNL A   1      42.944  29.158  32.123  1.00  0.00     0.074 A 
ATOM     44  C   UNL A   1      40.959  29.780  30.778  1.00  0.00     0.049 A 
ATOM     45  N   UNL A   1      42.740  29.863  33.207  1.00  0.00    -0.248 NA
ATOM     46  C   UNL A   1      44.144  28.306  32.187  1.00  0.00     0.031 C 
ATOM     47  C   UNL A   1      40.046  29.760  29.631  1.00  0.00     0.029 A 
ATOM     48  N   UNL A   1      40.359  30.641  31.662  1.00  0.00    -0.354 N 
ATOM     49  C   UNL A   1      43.788  29.552  34.066  1.00  0.00     0.074 A 
ATOM     50  C   UNL A   1      44.585  28.539  33.414  1.00  0.00     0.031 C 
ATOM     51  C   UNL A   1      39.038  30.619  29.857  1.00  0.00     0.029 A 
ATOM     52  C   UNL A   1      39.220  31.234  31.167  1.00  0.00     0.049 A 
ATOM     53  H   UNL A   1      40.710  30.819  32.564  1.00  0.00     0.167 HD
ATOM     54  C   UNL A   1      44.088  30.094  35.269  1.00  0.00     0.037 A 
ATOM     55  C   UNL A   1      38.428  32.185  31.701  1.00  0.00     0.037 A 
ATOM     56  C   UNL A   1      43.312  31.122  35.906  1.00  0.00     0.049 A 
ATOM     57  C   UNL A   1      38.780  32.763  33.046  1.00  0.00     0.074 A 
ATOM     58  C   UNL A   1      43.549  31.755  37.114  1.00  0.00     0.029 A 
ATOM     59  N   UNL A   1      42.154  31.675  35.382  1.00  0.00    -0.354 N 
ATOM     60  N   UNL A   1      39.806  32.494  33.816  1.00  0.00    -0.248 NA
ATOM     61  C   UNL A   1      37.868  33.779  33.591  1.00  0.00     0.031 C 
ATOM     62  C   UNL A   1      42.520  32.676  37.331  1.00  0.00     0.029 A 
ATOM     63  C   UNL A   1      41.661  32.639  36.245  1.00  0.00     0.049 A 
ATOM     64  H   UNL A   1      41.744  31.421  34.524  1.00  0.00     0.167 HD
ATOM     65  C   UNL A   1      39.678  33.326  34.924  1.00  0.00     0.074 A 
ATOM     66  C   UNL A   1      38.482  34.115  34.719  1.00  0.00     0.031 C 
ATOM     67  C   UNL A   1      40.476  33.424  36.014  1.00  0.00     0.037 A 
BRANCH  54  68
ATOM     68  C   UNL A   1      45.338  29.621  35.957  1.00  0.00     0.058 A 
ATOM     69  C   UNL A   1      46.570  30.256  35.732  1.00  0.00     0.135 A 
ATOM     70  C   UNL A   1      45.298  28.581  36.899  1.00  0.00     0.135 A 
ATOM     71  F   UNL A   1      46.666  31.243  34.826  1.00  0.00    -0.206 F 
ATOM     72  C   UNL A   1      47.719  29.874  36.413  1.00  0.00     0.059 A 
ATOM     73  C   UNL A   1      46.432  28.197  37.608  1.00  0.00     0.059 A 
ATOM     74  F   UNL A   1      44.145  27.938  37.146  1.00  0.00    -0.206 F 
ATOM     75  C   UNL A   1      47.639  28.848  37.355  1.00  0.00     0.060 A 
BRANCH  75  76
ATOM     76  S   UNL A   1      49.133  28.399  38.262  1.00  0.00     0.124 S 
ATOM     77  O   UNL A   1      50.176  28.761  37.307  1.00  0.00    -0.237 OA
ATOM     78  O   UNL A   1      49.041  29.244  39.449  1.00  0.00    -0.237 OA
ATOM     79  O   UNL A   1      48.971  26.968  38.501  1.00  0.00    -0.744 OA
ENDBRANCH  75  76
ENDBRANCH  54  68
BRANCH  55  80
ATOM     80  C   UNL A   1      37.253  32.695  30.946  1.00  0.00     0.058 A 
ATOM     81  C   UNL A   1      37.410  33.655  29.935  1.00  0.00     0.135 A 
ATOM     82  C   UNL A   1      35.952  32.252  31.231  1.00  0.00     0.135 A 
ATOM     83  F   UNL A   1      38.633  34.113  29.630  1.00  0.00    -0.206 F 
ATOM     84  C   UNL A   1      36.318  34.178  29.250  1.00  0.00     0.059 A 
ATOM     85  C   UNL A   1      34.847  32.744  30.545  1.00  0.00     0.059 A 
ATOM     86  F   UNL A   1      35.750  31.325  32.179  1.00  0.00    -0.206 F 
ATOM     87  C   UNL A   1      35.038  33.719  29.566  1.00  0.00     0.060 A 
BRANCH  87  88
ATOM     88  S   UNL A   1      33.629  34.397  28.663  1.00  0.00     0.124 S 
ATOM     89  O   UNL A   1      34.248  35.499  27.937  1.00  0.00    -0.237 OA
ATOM     90  O   UNL A   1      33.203  33.258  27.856  1.00  0.00    -0.237 OA
ATOM     91  O   UNL A   1      32.705  34.782  29.727  1.00  0.00    -0.744 OA
ENDBRANCH  87  88
ENDBRANCH  55  80
BRANCH  67  92
ATOM     92  C   UNL A   1      40.103  34.433  37.062  1.00  0.00     0.058 A 
ATOM     93  C   UNL A   1      39.306  34.081  38.161  1.00  0.00     0.135 A 
ATOM     94  C   UNL A   1      40.612  35.740  37.005  1.00  0.00     0.135 A 
ATOM     95  F   UNL A   1      38.793  32.844  38.256  1.00  0.00    -0.206 F 
ATOM     96  C   UNL A   1      39.015  34.996  39.167  1.00  0.00     0.059 A 
ATOM     97  C   UNL A   1      40.352  36.665  38.011  1.00  0.00     0.059 A 
ATOM     98  F   UNL A   1      41.387  36.121  35.979  1.00  0.00    -0.206 F 
ATOM     99  C   UNL A   1      39.548  36.285  39.085  1.00  0.00     0.060 A 
BRANCH  99 100
ATOM    100  S   UNL A   1      39.204  37.446  40.424  1.00  0.00     0.124 S 
ATOM    101  O   UNL A   1      40.523  38.021  40.661  1.00  0.00    -0.237 OA
ATOM    102  O   UNL A   1      38.221  38.340  39.819  1.00  0.00    -0.237 OA
ATOM    103  O   UNL A   1      38.691  36.592  41.491  1.00  0.00    -0.744 OA
ENDBRANCH  99 100
ENDBRANCH  67  92
ENDBRANCH  41  42
ENDBRANCH  34  36
ENDBRANCH  33  34
ENDBRANCH  32  33
ENDBRANCH   1  32
TORSDOF 19
ENDMDL
