MODEL 1
REMARK VINA RESULT:     -12.0      0.000      0.000
REMARK SMILES CC(C)Cc1ccc(-c2cc(Cl)cc3c2O[C@H](C(F)(F)F)C(C(=O)OCCOC(=O)c2ccc(-c4c5nc(c(-c6c(F)cc(S(=O)(=O)[O-])cc6F)c6ccc([nH]6)c(-c6c(F)cc(S(=O)(=O)[O-])cc6F)c6nc(c(-c7c(F)cc(S(=O)(=O)[O-])cc7F)c7ccc4[nH]7)C=C6)C=C5)cc2)=C3)cc1
REMARK SMILES IDX 26 1 25 2 23 3 24 4 22 5 9 6 10 7 15 8 11 9 14 10 16 11
REMARK SMILES IDX 12 12 13 13 97 14 17 15 8 16 5 17 6 18 99 19 7 20 98 21 4 22
REMARK SMILES IDX 2 23 1 24 3 25 18 26 19 27 20 28 21 29 27 30 28 31 29 32
REMARK SMILES IDX 30 33 31 34 32 35 96 36 33 37 95 38 34 39 35 40 36 41 89 42
REMARK SMILES IDX 37 43 94 44 88 45 90 46 38 47 93 48 87 49 86 50 39 52 73 53
REMARK SMILES IDX 52 54 72 55 53 56 56 57 71 58 91 59 54 60 55 61 70 63 92 64
REMARK SMILES IDX 57 65 40 66 41 67 50 68 42 69 43 70 49 71 51 72 44 73 45 74
REMARK SMILES IDX 46 75 47 76 48 77 74 78 75 79 84 80 76 81 77 82 83 83 85 84
REMARK SMILES IDX 78 85 79 86 80 87 81 88 82 89 58 90 59 91 68 92 60 93 61 94
REMARK SMILES IDX 67 95 69 96 62 97 63 98 64 99 65 100 66 101
REMARK H PARENT 90 51 56 62
REMARK Flexibility Score: inf
ROOT
ATOM      1  C   UNL A   1      43.492  23.868  25.228  1.00  0.00     0.275 C 
ENDROOT
BRANCH   1   2
ATOM      2  O   UNL A   1      43.770  22.550  25.766  1.00  0.00    -0.459 OA
BRANCH   2   3
ATOM      3  C   UNL A   1      43.337  22.414  27.049  1.00  0.00     0.338 C 
ATOM      4  O   UNL A   1      43.868  22.956  28.013  1.00  0.00    -0.246 OA
BRANCH   3   5
ATOM      5  C   UNL A   1      42.096  21.612  27.190  1.00  0.00     0.087 C 
ATOM      6  C   UNL A   1      38.458  23.120  26.109  1.00  0.00     0.026 A 
ATOM      7  C   UNL A   1      38.716  24.504  26.308  1.00  0.00     0.033 A 
ATOM      8  C   UNL A   1      39.478  22.313  26.627  1.00  0.00     0.135 A 
ATOM      9  C   UNL A   1      39.765  25.043  27.057  1.00  0.00     0.042 A 
ATOM     10  C   UNL A   1      40.358  22.854  27.619  1.00  0.00     0.019 A 
ATOM     11  O   UNL A   1      39.851  21.066  26.137  1.00  0.00    -0.475 OA
ATOM     12  Cl  UNL A   1      40.227  26.695  27.031  1.00  0.00    -0.084 Cl
ATOM     13  C   UNL A   1      40.518  24.210  27.826  1.00  0.00     0.032 A 
ATOM     14  C   UNL A   1      41.362  21.980  28.251  1.00  0.00     0.027 C 
ATOM     15  C   UNL A   1      41.359  20.917  26.062  1.00  0.00     0.316 C 
BRANCH   6  16
ATOM     16  C   UNL A   1      37.084  22.855  25.495  1.00  0.00    -0.015 A 
ATOM     17  C   UNL A   1      34.908  24.140  23.988  1.00  0.00    -0.048 A 
ATOM     18  C   UNL A   1      35.755  23.194  23.401  1.00  0.00     0.004 A 
ATOM     19  C   UNL A   1      34.930  24.066  25.401  1.00  0.00     0.004 A 
ATOM     20  C   UNL A   1      36.823  22.555  24.147  1.00  0.00     0.009 A 
ATOM     21  C   UNL A   1      35.993  23.469  26.131  1.00  0.00     0.009 A 
BRANCH  17  22
ATOM     22  C   UNL A   1      33.823  25.154  23.200  1.00  0.00     0.038 C 
BRANCH  22  23
ATOM     23  C   UNL A   1      33.201  27.031  23.266  1.00  0.00    -0.013 C 
ATOM     24  C   UNL A   1      31.995  27.514  24.150  1.00  0.00     0.008 C 
ATOM     25  C   UNL A   1      34.028  28.425  23.333  1.00  0.00     0.008 C 
ENDBRANCH  22  23
ENDBRANCH  17  22
ENDBRANCH   6  16
BRANCH  15  26
ATOM     26  C   UNL A   1      41.776  19.444  26.177  1.00  0.00     0.430 C 
ATOM     27  F   UNL A   1      40.776  18.605  25.810  1.00  0.00    -0.167 F 
ATOM     28  F   UNL A   1      42.858  19.150  25.429  1.00  0.00    -0.167 F 
ATOM     29  F   UNL A   1      42.091  19.132  27.464  1.00  0.00    -0.167 F 
ENDBRANCH  15  26
ENDBRANCH   3   5
ENDBRANCH   2   3
ENDBRANCH   1   2
BRANCH   1  30
ATOM     30  C   UNL A   1      44.753  24.619  24.787  1.00  0.00     0.275 C 
BRANCH  30  31
ATOM     31  O   UNL A   1      45.228  25.496  25.824  1.00  0.00    -0.458 OA
BRANCH  31  32
ATOM     32  C   UNL A   1      44.687  26.741  25.771  1.00  0.00     0.338 C 
ATOM     33  O   UNL A   1      44.561  27.417  24.770  1.00  0.00    -0.246 OA
BRANCH  32  34
ATOM     34  C   UNL A   1      44.116  27.134  27.087  1.00  0.00     0.060 A 
ATOM     35  C   UNL A   1      44.041  28.498  27.314  1.00  0.00     0.016 A 
ATOM     36  C   UNL A   1      43.655  26.257  28.082  1.00  0.00     0.016 A 
ATOM     37  C   UNL A   1      43.447  28.958  28.484  1.00  0.00     0.010 A 
ATOM     38  C   UNL A   1      43.013  26.750  29.252  1.00  0.00     0.010 A 
ATOM     39  C   UNL A   1      42.841  28.121  29.440  1.00  0.00    -0.014 A 
BRANCH  39  40
ATOM     40  C   UNL A   1      42.132  28.824  30.578  1.00  0.00     0.031 A 
ATOM     41  C   UNL A   1      43.170  29.145  31.828  1.00  0.00     0.074 A 
ATOM     42  C   UNL A   1      40.842  29.340  30.454  1.00  0.00     0.049 A 
ATOM     43  N   UNL A   1      43.154  30.063  32.776  1.00  0.00    -0.248 NA
ATOM     44  C   UNL A   1      44.367  28.297  31.975  1.00  0.00     0.031 C 
ATOM     45  C   UNL A   1      39.728  29.289  29.512  1.00  0.00     0.029 A 
ATOM     46  N   UNL A   1      40.306  30.298  31.264  1.00  0.00    -0.354 N 
ATOM     47  C   UNL A   1      44.219  29.902  33.665  1.00  0.00     0.074 A 
ATOM     48  C   UNL A   1      44.972  28.807  33.054  1.00  0.00     0.031 C 
ATOM     49  C   UNL A   1      38.818  30.289  29.749  1.00  0.00     0.029 A 
ATOM     50  C   UNL A   1      39.159  31.051  30.977  1.00  0.00     0.049 A 
ATOM     51  H   UNL A   1      40.761  30.473  32.119  1.00  0.00     0.167 HD
ATOM     52  C   UNL A   1      44.521  30.525  34.870  1.00  0.00     0.037 A 
ATOM     53  C   UNL A   1      38.510  32.168  31.583  1.00  0.00     0.037 A 
ATOM     54  C   UNL A   1      43.786  31.573  35.651  1.00  0.00     0.049 A 
ATOM     55  C   UNL A   1      38.820  33.116  33.006  1.00  0.00     0.074 A 
ATOM     56  C   UNL A   1      44.021  32.165  36.888  1.00  0.00     0.029 A 
ATOM     57  N   UNL A   1      42.569  32.135  35.322  1.00  0.00    -0.354 N 
ATOM     58  N   UNL A   1      39.900  33.161  33.758  1.00  0.00    -0.248 NA
ATOM     59  C   UNL A   1      37.865  34.075  33.608  1.00  0.00     0.031 C 
ATOM     60  C   UNL A   1      42.961  33.094  37.186  1.00  0.00     0.029 A 
ATOM     61  C   UNL A   1      42.047  33.139  36.129  1.00  0.00     0.049 A 
ATOM     62  H   UNL A   1      42.076  31.828  34.528  1.00  0.00     0.167 HD
ATOM     63  C   UNL A   1      39.830  33.920  34.889  1.00  0.00     0.074 A 
ATOM     64  C   UNL A   1      38.520  34.545  34.700  1.00  0.00     0.031 C 
ATOM     65  C   UNL A   1      40.732  33.912  35.948  1.00  0.00     0.037 A 
BRANCH  52  66
ATOM     66  C   UNL A   1      45.799  30.017  35.503  1.00  0.00     0.058 A 
ATOM     67  C   UNL A   1      47.042  30.605  35.210  1.00  0.00     0.135 A 
ATOM     68  C   UNL A   1      45.790  28.908  36.364  1.00  0.00     0.135 A 
ATOM     69  F   UNL A   1      47.112  31.647  34.367  1.00  0.00    -0.206 F 
ATOM     70  C   UNL A   1      48.231  30.091  35.719  1.00  0.00     0.059 A 
ATOM     71  C   UNL A   1      46.967  28.389  36.902  1.00  0.00     0.059 A 
ATOM     72  F   UNL A   1      44.633  28.298  36.667  1.00  0.00    -0.206 F 
ATOM     73  C   UNL A   1      48.185  28.975  36.558  1.00  0.00     0.060 A 
BRANCH  73  74
ATOM     74  S   UNL A   1      49.742  28.290  37.168  1.00  0.00     0.124 S 
ATOM     75  O   UNL A   1      50.612  28.466  36.008  1.00  0.00    -0.237 OA
ATOM     76  O   UNL A   1      50.032  29.147  38.313  1.00  0.00    -0.237 OA
ATOM     77  O   UNL A   1      49.403  26.908  37.491  1.00  0.00    -0.744 OA
ENDBRANCH  73  74
ENDBRANCH  52  66
BRANCH  53  78
ATOM     78  C   UNL A   1      37.321  32.722  30.835  1.00  0.00     0.058 A 
ATOM     79  C   UNL A   1      36.019  32.284  31.141  1.00  0.00     0.135 A 
ATOM     80  C   UNL A   1      37.447  33.680  29.818  1.00  0.00     0.135 A 
ATOM     81  F   UNL A   1      35.828  31.352  32.087  1.00  0.00    -0.206 F 
ATOM     82  C   UNL A   1      34.896  32.779  30.479  1.00  0.00     0.059 A 
ATOM     83  C   UNL A   1      36.337  34.224  29.174  1.00  0.00     0.059 A 
ATOM     84  F   UNL A   1      38.662  34.124  29.458  1.00  0.00    -0.206 F 
ATOM     85  C   UNL A   1      35.065  33.761  29.505  1.00  0.00     0.060 A 
BRANCH  85  86
ATOM     86  S   UNL A   1      33.604  34.474  28.715  1.00  0.00     0.124 S 
ATOM     87  O   UNL A   1      34.169  35.643  28.051  1.00  0.00    -0.237 OA
ATOM     88  O   UNL A   1      33.166  33.392  27.838  1.00  0.00    -0.237 OA
ATOM     89  O   UNL A   1      32.718  34.752  29.842  1.00  0.00    -0.744 OA
ENDBRANCH  85  86
ENDBRANCH  53  78
BRANCH  65  90
ATOM     90  C   UNL A   1      40.312  34.734  37.136  1.00  0.00     0.058 A 
ATOM     91  C   UNL A   1      39.554  34.191  38.187  1.00  0.00     0.135 A 
ATOM     92  C   UNL A   1      40.766  36.055  37.277  1.00  0.00     0.135 A 
ATOM     93  F   UNL A   1      39.127  32.919  38.127  1.00  0.00    -0.206 F 
ATOM     94  C   UNL A   1      39.221  34.943  39.311  1.00  0.00     0.059 A 
ATOM     95  C   UNL A   1      40.470  36.815  38.404  1.00  0.00     0.059 A 
ATOM     96  F   UNL A   1      41.529  36.612  36.324  1.00  0.00    -0.206 F 
ATOM     97  C   UNL A   1      39.677  36.258  39.406  1.00  0.00     0.060 A 
BRANCH  97  98
ATOM     98  S   UNL A   1      39.222  37.232  40.855  1.00  0.00     0.124 S 
ATOM     99  O   UNL A   1      40.525  37.716  41.301  1.00  0.00    -0.237 OA
ATOM    100  O   UNL A   1      38.331  38.240  40.288  1.00  0.00    -0.237 OA
ATOM    101  O   UNL A   1      38.581  36.259  41.733  1.00  0.00    -0.744 OA
ENDBRANCH  97  98
ENDBRANCH  65  90
ENDBRANCH  39  40
ENDBRANCH  32  34
ENDBRANCH  31  32
ENDBRANCH  30  31
ENDBRANCH   1  30
TORSDOF 18
ENDMDL
MODEL 2
REMARK VINA RESULT:     -11.9      1.265      2.498
REMARK SMILES CC(C)Cc1ccc(-c2cc(Cl)cc3c2O[C@H](C(F)(F)F)C(C(=O)OCCOC(=O)c2ccc(-c4c5nc(c(-c6c(F)cc(S(=O)(=O)[O-])cc6F)c6ccc([nH]6)c(-c6c(F)cc(S(=O)(=O)[O-])cc6F)c6nc(c(-c7c(F)cc(S(=O)(=O)[O-])cc7F)c7ccc4[nH]7)C=C6)C=C5)cc2)=C3)cc1
REMARK SMILES IDX 26 1 25 2 23 3 24 4 22 5 9 6 10 7 15 8 11 9 14 10 16 11
REMARK SMILES IDX 12 12 13 13 97 14 17 15 8 16 5 17 6 18 99 19 7 20 98 21 4 22
REMARK SMILES IDX 2 23 1 24 3 25 18 26 19 27 20 28 21 29 27 30 28 31 29 32
REMARK SMILES IDX 30 33 31 34 32 35 96 36 33 37 95 38 34 39 35 40 36 41 89 42
REMARK SMILES IDX 37 43 94 44 88 45 90 46 38 47 93 48 87 49 86 50 39 52 73 53
REMARK SMILES IDX 52 54 72 55 53 56 56 57 71 58 91 59 54 60 55 61 70 63 92 64
REMARK SMILES IDX 57 65 40 66 41 67 50 68 42 69 43 70 49 71 51 72 44 73 45 74
REMARK SMILES IDX 46 75 47 76 48 77 74 78 75 79 84 80 76 81 77 82 83 83 85 84
REMARK SMILES IDX 78 85 79 86 80 87 81 88 82 89 58 90 59 91 68 92 60 93 61 94
REMARK SMILES IDX 67 95 69 96 62 97 63 98 64 99 65 100 66 101
REMARK H PARENT 90 51 56 62
REMARK Flexibility Score: inf
ROOT
ATOM      1  C   UNL A   1      43.615  23.963  25.146  1.00  0.00     0.275 C 
ENDROOT
BRANCH   1   2
ATOM      2  O   UNL A   1      43.772  22.609  25.639  1.00  0.00    -0.459 OA
BRANCH   2   3
ATOM      3  C   UNL A   1      43.413  22.491  26.946  1.00  0.00     0.338 C 
ATOM      4  O   UNL A   1      44.024  23.008  27.875  1.00  0.00    -0.246 OA
BRANCH   3   5
ATOM      5  C   UNL A   1      42.150  21.743  27.164  1.00  0.00     0.087 C 
ATOM      6  C   UNL A   1      38.525  23.376  26.227  1.00  0.00     0.026 A 
ATOM      7  C   UNL A   1      38.848  24.752  26.383  1.00  0.00     0.033 A 
ATOM      8  C   UNL A   1      39.537  22.539  26.712  1.00  0.00     0.135 A 
ATOM      9  C   UNL A   1      39.953  25.263  27.070  1.00  0.00     0.042 A 
ATOM     10  C   UNL A   1      40.485  23.062  27.649  1.00  0.00     0.019 A 
ATOM     11  O   UNL A   1      39.836  21.268  26.232  1.00  0.00    -0.475 OA
ATOM     12  Cl  UNL A   1      40.478  26.894  26.985  1.00  0.00    -0.084 Cl
ATOM     13  C   UNL A   1      40.709  24.414  27.819  1.00  0.00     0.032 A 
ATOM     14  C   UNL A   1      41.484  22.161  28.250  1.00  0.00     0.027 C 
ATOM     15  C   UNL A   1      41.331  21.056  26.088  1.00  0.00     0.316 C 
BRANCH   6  16
ATOM     16  C   UNL A   1      37.114  23.155  25.686  1.00  0.00    -0.015 A 
ATOM     17  C   UNL A   1      35.117  21.062  25.147  1.00  0.00    -0.048 A 
ATOM     18  C   UNL A   1      34.963  21.978  26.193  1.00  0.00     0.004 A 
ATOM     19  C   UNL A   1      36.039  21.518  24.175  1.00  0.00     0.004 A 
ATOM     20  C   UNL A   1      35.945  23.014  26.454  1.00  0.00     0.009 A 
ATOM     21  C   UNL A   1      37.022  22.510  24.442  1.00  0.00     0.009 A 
BRANCH  17  22
ATOM     22  C   UNL A   1      34.226  19.660  24.890  1.00  0.00     0.038 C 
BRANCH  22  23
ATOM     23  C   UNL A   1      34.458  17.852  24.122  1.00  0.00    -0.013 C 
ATOM     24  C   UNL A   1      34.770  16.576  24.984  1.00  0.00     0.008 C 
ATOM     25  C   UNL A   1      33.631  17.073  22.962  1.00  0.00     0.008 C 
ENDBRANCH  22  23
ENDBRANCH  17  22
ENDBRANCH   6  16
BRANCH  15  26
ATOM     26  C   UNL A   1      41.693  19.570  26.214  1.00  0.00     0.430 C 
ATOM     27  F   UNL A   1      42.229  19.281  27.425  1.00  0.00    -0.167 F 
ATOM     28  F   UNL A   1      40.634  18.757  26.025  1.00  0.00    -0.167 F 
ATOM     29  F   UNL A   1      42.626  19.221  25.285  1.00  0.00    -0.167 F 
ENDBRANCH  15  26
ENDBRANCH   3   5
ENDBRANCH   2   3
ENDBRANCH   1   2
BRANCH   1  30
ATOM     30  C   UNL A   1      44.939  24.611  24.725  1.00  0.00     0.275 C 
BRANCH  30  31
ATOM     31  O   UNL A   1      45.436  25.493  25.747  1.00  0.00    -0.458 OA
BRANCH  31  32
ATOM     32  C   UNL A   1      44.893  26.737  25.701  1.00  0.00     0.338 C 
ATOM     33  O   UNL A   1      44.758  27.415  24.703  1.00  0.00    -0.246 OA
BRANCH  32  34
ATOM     34  C   UNL A   1      44.332  27.127  27.023  1.00  0.00     0.060 A 
ATOM     35  C   UNL A   1      44.252  28.490  27.251  1.00  0.00     0.016 A 
ATOM     36  C   UNL A   1      43.884  26.248  28.022  1.00  0.00     0.016 A 
ATOM     37  C   UNL A   1      43.667  28.948  28.427  1.00  0.00     0.010 A 
ATOM     38  C   UNL A   1      43.250  26.737  29.198  1.00  0.00     0.010 A 
ATOM     39  C   UNL A   1      43.074  28.107  29.389  1.00  0.00    -0.014 A 
BRANCH  39  40
ATOM     40  C   UNL A   1      42.372  28.806  30.533  1.00  0.00     0.031 A 
ATOM     41  C   UNL A   1      43.421  29.134  31.772  1.00  0.00     0.074 A 
ATOM     42  C   UNL A   1      41.078  29.313  30.422  1.00  0.00     0.049 A 
ATOM     43  N   UNL A   1      43.409  30.053  32.720  1.00  0.00    -0.248 NA
ATOM     44  C   UNL A   1      44.625  28.295  31.907  1.00  0.00     0.031 C 
ATOM     45  C   UNL A   1      39.954  29.255  29.491  1.00  0.00     0.029 A 
ATOM     46  N   UNL A   1      40.544  30.268  31.237  1.00  0.00    -0.354 N 
ATOM     47  C   UNL A   1      44.484  29.900  33.598  1.00  0.00     0.074 A 
ATOM     48  C   UNL A   1      45.238  28.809  32.979  1.00  0.00     0.031 C 
ATOM     49  C   UNL A   1      39.041  30.249  29.738  1.00  0.00     0.029 A 
ATOM     50  C   UNL A   1      39.390  31.014  30.961  1.00  0.00     0.049 A 
ATOM     51  H   UNL A   1      41.007  30.448  32.087  1.00  0.00     0.167 HD
ATOM     52  C   UNL A   1      44.794  30.525  34.799  1.00  0.00     0.037 A 
ATOM     53  C   UNL A   1      38.740  32.128  31.573  1.00  0.00     0.037 A 
ATOM     54  C   UNL A   1      44.060  31.569  35.587  1.00  0.00     0.049 A 
ATOM     55  C   UNL A   1      39.058  33.078  32.992  1.00  0.00     0.074 A 
ATOM     56  C   UNL A   1      44.304  32.163  36.821  1.00  0.00     0.029 A 
ATOM     57  N   UNL A   1      42.836  32.123  35.271  1.00  0.00    -0.354 N 
ATOM     58  N   UNL A   1      40.145  33.131  33.733  1.00  0.00    -0.248 NA
ATOM     59  C   UNL A   1      38.102  34.031  33.604  1.00  0.00     0.031 C 
ATOM     60  C   UNL A   1      43.242  33.086  37.129  1.00  0.00     0.029 A 
ATOM     61  C   UNL A   1      42.316  33.125  36.082  1.00  0.00     0.049 A 
ATOM     62  H   UNL A   1      42.337  31.812  34.481  1.00  0.00     0.167 HD
ATOM     63  C   UNL A   1      40.081  33.890  34.864  1.00  0.00     0.074 A 
ATOM     64  C   UNL A   1      38.766  34.507  34.688  1.00  0.00     0.031 C 
ATOM     65  C   UNL A   1      40.995  33.889  35.914  1.00  0.00     0.037 A 
BRANCH  52  66
ATOM     66  C   UNL A   1      46.082  30.026  35.419  1.00  0.00     0.058 A 
ATOM     67  C   UNL A   1      46.088  28.943  36.315  1.00  0.00     0.135 A 
ATOM     68  C   UNL A   1      47.306  30.663  35.158  1.00  0.00     0.135 A 
ATOM     69  F   UNL A   1      44.941  28.319  36.625  1.00  0.00    -0.206 F 
ATOM     70  C   UNL A   1      47.254  28.533  36.957  1.00  0.00     0.059 A 
ATOM     71  C   UNL A   1      48.489  30.256  35.774  1.00  0.00     0.059 A 
ATOM     72  F   UNL A   1      47.356  31.712  34.322  1.00  0.00    -0.206 F 
ATOM     73  C   UNL A   1      48.449  29.202  36.687  1.00  0.00     0.060 A 
BRANCH  73  74
ATOM     74  S   UNL A   1      49.942  28.689  37.568  1.00  0.00     0.124 S 
ATOM     75  O   UNL A   1      49.715  29.269  38.888  1.00  0.00    -0.237 OA
ATOM     76  O   UNL A   1      49.863  27.234  37.492  1.00  0.00    -0.237 OA
ATOM     77  O   UNL A   1      51.020  29.297  36.794  1.00  0.00    -0.744 OA
ENDBRANCH  73  74
ENDBRANCH  52  66
BRANCH  53  78
ATOM     78  C   UNL A   1      37.539  32.673  30.837  1.00  0.00     0.058 A 
ATOM     79  C   UNL A   1      36.243  32.225  31.154  1.00  0.00     0.135 A 
ATOM     80  C   UNL A   1      37.648  33.633  29.820  1.00  0.00     0.135 A 
ATOM     81  F   UNL A   1      36.068  31.290  32.101  1.00  0.00    -0.206 F 
ATOM     82  C   UNL A   1      35.110  32.712  30.504  1.00  0.00     0.059 A 
ATOM     83  C   UNL A   1      36.528  34.170  29.187  1.00  0.00     0.059 A 
ATOM     84  F   UNL A   1      38.856  34.087  29.449  1.00  0.00    -0.206 F 
ATOM     85  C   UNL A   1      35.263  33.696  29.530  1.00  0.00     0.060 A 
BRANCH  85  86
ATOM     86  S   UNL A   1      33.788  34.399  28.754  1.00  0.00     0.124 S 
ATOM     87  O   UNL A   1      34.346  35.548  28.051  1.00  0.00    -0.237 OA
ATOM     88  O   UNL A   1      33.326  33.299  27.913  1.00  0.00    -0.237 OA
ATOM     89  O   UNL A   1      32.930  34.709  29.893  1.00  0.00    -0.744 OA
ENDBRANCH  85  86
ENDBRANCH  53  78
BRANCH  65  90
ATOM     90  C   UNL A   1      40.582  34.709  37.106  1.00  0.00     0.058 A 
ATOM     91  C   UNL A   1      40.942  36.060  37.240  1.00  0.00     0.135 A 
ATOM     92  C   UNL A   1      39.722  34.166  38.073  1.00  0.00     0.135 A 
ATOM     93  F   UNL A   1      41.729  36.646  36.323  1.00  0.00    -0.206 F 
ATOM     94  C   UNL A   1      40.506  36.828  38.317  1.00  0.00     0.059 A 
ATOM     95  C   UNL A   1      39.250  34.923  39.141  1.00  0.00     0.059 A 
ATOM     96  F   UNL A   1      39.310  32.892  37.973  1.00  0.00    -0.206 F 
ATOM     97  C   UNL A   1      39.665  36.247  39.267  1.00  0.00     0.060 A 
BRANCH  97  98
ATOM     98  S   UNL A   1      39.122  37.242  40.671  1.00  0.00     0.124 S 
ATOM     99  O   UNL A   1      38.205  38.177  40.027  1.00  0.00    -0.237 OA
ATOM    100  O   UNL A   1      38.506  36.247  41.542  1.00  0.00    -0.237 OA
ATOM    101  O   UNL A   1      40.361  37.827  41.174  1.00  0.00    -0.744 OA
ENDBRANCH  97  98
ENDBRANCH  65  90
ENDBRANCH  39  40
ENDBRANCH  32  34
ENDBRANCH  31  32
ENDBRANCH  30  31
ENDBRANCH   1  30
TORSDOF 18
ENDMDL
MODEL 3
REMARK VINA RESULT:     -11.8      0.825      1.641
REMARK SMILES CC(C)Cc1ccc(-c2cc(Cl)cc3c2O[C@H](C(F)(F)F)C(C(=O)OCCOC(=O)c2ccc(-c4c5nc(c(-c6c(F)cc(S(=O)(=O)[O-])cc6F)c6ccc([nH]6)c(-c6c(F)cc(S(=O)(=O)[O-])cc6F)c6nc(c(-c7c(F)cc(S(=O)(=O)[O-])cc7F)c7ccc4[nH]7)C=C6)C=C5)cc2)=C3)cc1
REMARK SMILES IDX 26 1 25 2 23 3 24 4 22 5 9 6 10 7 15 8 11 9 14 10 16 11
REMARK SMILES IDX 12 12 13 13 97 14 17 15 8 16 5 17 6 18 99 19 7 20 98 21 4 22
REMARK SMILES IDX 2 23 1 24 3 25 18 26 19 27 20 28 21 29 27 30 28 31 29 32
REMARK SMILES IDX 30 33 31 34 32 35 96 36 33 37 95 38 34 39 35 40 36 41 89 42
REMARK SMILES IDX 37 43 94 44 88 45 90 46 38 47 93 48 87 49 86 50 39 52 73 53
REMARK SMILES IDX 52 54 72 55 53 56 56 57 71 58 91 59 54 60 55 61 70 63 92 64
REMARK SMILES IDX 57 65 40 66 41 67 50 68 42 69 43 70 49 71 51 72 44 73 45 74
REMARK SMILES IDX 46 75 47 76 48 77 74 78 75 79 84 80 76 81 77 82 83 83 85 84
REMARK SMILES IDX 78 85 79 86 80 87 81 88 82 89 58 90 59 91 68 92 60 93 61 94
REMARK SMILES IDX 67 95 69 96 62 97 63 98 64 99 65 100 66 101
REMARK H PARENT 90 51 56 62
REMARK Flexibility Score: inf
ROOT
ATOM      1  C   UNL A   1      42.919  23.375  24.978  1.00  0.00     0.275 C 
ENDROOT
BRANCH   1   2
ATOM      2  O   UNL A   1      43.894  22.701  25.813  1.00  0.00    -0.459 OA
BRANCH   2   3
ATOM      3  C   UNL A   1      43.446  22.515  27.084  1.00  0.00     0.338 C 
ATOM      4  O   UNL A   1      43.933  23.057  28.070  1.00  0.00    -0.246 OA
BRANCH   3   5
ATOM      5  C   UNL A   1      42.241  21.654  27.182  1.00  0.00     0.087 C 
ATOM      6  C   UNL A   1      38.553  23.026  26.086  1.00  0.00     0.026 A 
ATOM      7  C   UNL A   1      38.745  24.414  26.328  1.00  0.00     0.033 A 
ATOM      8  C   UNL A   1      39.602  22.252  26.597  1.00  0.00     0.135 A 
ATOM      9  C   UNL A   1      39.758  24.979  27.109  1.00  0.00     0.042 A 
ATOM     10  C   UNL A   1      40.441  22.803  27.618  1.00  0.00     0.019 A 
ATOM     11  O   UNL A   1      40.038  21.037  26.079  1.00  0.00    -0.475 OA
ATOM     12  Cl  UNL A   1      40.144  26.650  27.137  1.00  0.00    -0.084 Cl
ATOM     13  C   UNL A   1      40.536  24.158  27.866  1.00  0.00     0.032 A 
ATOM     14  C   UNL A   1      41.475  21.957  28.241  1.00  0.00     0.027 C 
ATOM     15  C   UNL A   1      41.552  20.958  26.023  1.00  0.00     0.316 C 
BRANCH   6  16
ATOM     16  C   UNL A   1      37.202  22.718  25.444  1.00  0.00    -0.015 A 
ATOM     17  C   UNL A   1      35.038  23.923  23.856  1.00  0.00    -0.048 A 
ATOM     18  C   UNL A   1      35.921  22.984  23.310  1.00  0.00     0.004 A 
ATOM     19  C   UNL A   1      35.024  23.876  25.271  1.00  0.00     0.004 A 
ATOM     20  C   UNL A   1      36.983  22.386  24.096  1.00  0.00     0.009 A 
ATOM     21  C   UNL A   1      36.081  23.319  26.039  1.00  0.00     0.009 A 
BRANCH  17  22
ATOM     22  C   UNL A   1      33.950  24.895  23.021  1.00  0.00     0.038 C 
BRANCH  22  23
ATOM     23  C   UNL A   1      33.352  26.780  22.970  1.00  0.00    -0.013 C 
ATOM     24  C   UNL A   1      31.934  27.227  22.461  1.00  0.00     0.008 C 
ATOM     25  C   UNL A   1      33.532  27.983  24.044  1.00  0.00     0.008 C 
ENDBRANCH  22  23
ENDBRANCH  17  22
ENDBRANCH   6  16
BRANCH  15  26
ATOM     26  C   UNL A   1      42.033  19.504  26.103  1.00  0.00     0.430 C 
ATOM     27  F   UNL A   1      41.001  18.626  26.076  1.00  0.00    -0.167 F 
ATOM     28  F   UNL A   1      42.878  19.179  25.103  1.00  0.00    -0.167 F 
ATOM     29  F   UNL A   1      42.702  19.280  27.268  1.00  0.00    -0.167 F 
ENDBRANCH  15  26
ENDBRANCH   3   5
ENDBRANCH   2   3
ENDBRANCH   1   2
BRANCH   1  30
ATOM     30  C   UNL A   1      43.018  24.903  25.047  1.00  0.00     0.275 C 
BRANCH  30  31
ATOM     31  O   UNL A   1      44.315  25.322  25.508  1.00  0.00    -0.458 OA
BRANCH  31  32
ATOM     32  C   UNL A   1      44.395  26.655  25.760  1.00  0.00     0.338 C 
ATOM     33  O   UNL A   1      44.745  27.506  24.968  1.00  0.00    -0.246 OA
BRANCH  32  34
ATOM     34  C   UNL A   1      43.851  26.980  27.105  1.00  0.00     0.060 A 
ATOM     35  C   UNL A   1      43.613  28.325  27.337  1.00  0.00     0.016 A 
ATOM     36  C   UNL A   1      43.561  26.059  28.125  1.00  0.00     0.016 A 
ATOM     37  C   UNL A   1      43.030  28.713  28.538  1.00  0.00     0.010 A 
ATOM     38  C   UNL A   1      42.925  26.473  29.328  1.00  0.00     0.010 A 
ATOM     39  C   UNL A   1      42.590  27.811  29.526  1.00  0.00    -0.014 A 
BRANCH  39  40
ATOM     40  C   UNL A   1      41.859  28.426  30.700  1.00  0.00     0.031 A 
ATOM     41  C   UNL A   1      42.856  28.585  32.013  1.00  0.00     0.074 A 
ATOM     42  C   UNL A   1      40.593  28.998  30.582  1.00  0.00     0.049 A 
ATOM     43  N   UNL A   1      42.832  29.405  33.047  1.00  0.00    -0.248 NA
ATOM     44  C   UNL A   1      44.018  27.684  32.119  1.00  0.00     0.031 C 
ATOM     45  C   UNL A   1      39.516  29.080  29.599  1.00  0.00     0.029 A 
ATOM     46  N   UNL A   1      40.056  29.891  31.462  1.00  0.00    -0.354 N 
ATOM     47  C   UNL A   1      43.855  29.121  33.954  1.00  0.00     0.074 A 
ATOM     48  C   UNL A   1      44.596  28.063  33.265  1.00  0.00     0.031 C 
ATOM     49  C   UNL A   1      38.631  30.084  29.901  1.00  0.00     0.029 A 
ATOM     50  C   UNL A   1      38.947  30.709  31.209  1.00  0.00     0.049 A 
ATOM     51  H   UNL A   1      40.483  29.965  32.346  1.00  0.00     0.167 HD
ATOM     52  C   UNL A   1      44.129  29.611  35.224  1.00  0.00     0.037 A 
ATOM     53  C   UNL A   1      38.311  31.786  31.899  1.00  0.00     0.037 A 
ATOM     54  C   UNL A   1      43.398  30.603  36.077  1.00  0.00     0.049 A 
ATOM     55  C   UNL A   1      38.595  32.578  33.419  1.00  0.00     0.074 A 
ATOM     56  C   UNL A   1      43.602  31.063  37.375  1.00  0.00     0.029 A 
ATOM     57  N   UNL A   1      42.214  31.239  35.762  1.00  0.00    -0.354 N 
ATOM     58  N   UNL A   1      39.644  32.510  34.211  1.00  0.00    -0.248 NA
ATOM     59  C   UNL A   1      37.648  33.507  34.078  1.00  0.00     0.031 C 
ATOM     60  C   UNL A   1      42.563  31.997  37.724  1.00  0.00     0.029 A 
ATOM     61  C   UNL A   1      41.693  32.178  36.645  1.00  0.00     0.049 A 
ATOM     62  H   UNL A   1      41.743  31.029  34.923  1.00  0.00     0.167 HD
ATOM     63  C   UNL A   1      39.554  33.156  35.408  1.00  0.00     0.074 A 
ATOM     64  C   UNL A   1      38.274  33.845  35.234  1.00  0.00     0.031 C 
ATOM     65  C   UNL A   1      40.412  33.013  36.493  1.00  0.00     0.037 A 
BRANCH  52  66
ATOM     66  C   UNL A   1      45.363  28.998  35.850  1.00  0.00     0.058 A 
ATOM     67  C   UNL A   1      45.282  27.832  36.632  1.00  0.00     0.135 A 
ATOM     68  C   UNL A   1      46.623  29.603  35.711  1.00  0.00     0.135 A 
ATOM     69  F   UNL A   1      44.098  27.232  36.825  1.00  0.00    -0.206 F 
ATOM     70  C   UNL A   1      46.397  27.311  37.283  1.00  0.00     0.059 A 
ATOM     71  C   UNL A   1      47.757  29.086  36.337  1.00  0.00     0.059 A 
ATOM     72  F   UNL A   1      46.756  30.725  34.988  1.00  0.00    -0.206 F 
ATOM     73  C   UNL A   1      47.630  27.950  37.137  1.00  0.00     0.060 A 
BRANCH  73  74
ATOM     74  S   UNL A   1      49.055  27.288  38.030  1.00  0.00     0.124 S 
ATOM     75  O   UNL A   1      49.725  28.513  38.458  1.00  0.00    -0.237 OA
ATOM     76  O   UNL A   1      48.424  26.508  39.090  1.00  0.00    -0.237 OA
ATOM     77  O   UNL A   1      49.761  26.510  37.017  1.00  0.00    -0.744 OA
ENDBRANCH  73  74
ENDBRANCH  52  66
BRANCH  53  78
ATOM     78  C   UNL A   1      37.172  32.452  31.166  1.00  0.00     0.058 A 
ATOM     79  C   UNL A   1      37.425  33.467  30.225  1.00  0.00     0.135 A 
ATOM     80  C   UNL A   1      35.830  32.103  31.378  1.00  0.00     0.135 A 
ATOM     81  F   UNL A   1      38.684  33.867  29.989  1.00  0.00    -0.206 F 
ATOM     82  C   UNL A   1      36.399  34.099  29.521  1.00  0.00     0.059 A 
ATOM     83  C   UNL A   1      34.791  32.686  30.655  1.00  0.00     0.059 A 
ATOM     84  F   UNL A   1      35.514  31.160  32.280  1.00  0.00    -0.206 F 
ATOM     85  C   UNL A   1      35.085  33.690  29.734  1.00  0.00     0.060 A 
BRANCH  85  86
ATOM     86  S   UNL A   1      33.763  34.439  28.753  1.00  0.00     0.124 S 
ATOM     87  O   UNL A   1      32.809  34.820  29.788  1.00  0.00    -0.237 OA
ATOM     88  O   UNL A   1      34.456  35.539  28.087  1.00  0.00    -0.237 OA
ATOM     89  O   UNL A   1      33.344  33.351  27.874  1.00  0.00    -0.744 OA
ENDBRANCH  85  86
ENDBRANCH  53  78
BRANCH  65  90
ATOM     90  C   UNL A   1      39.972  33.730  37.741  1.00  0.00     0.058 A 
ATOM     91  C   UNL A   1      39.012  33.187  38.611  1.00  0.00     0.135 A 
ATOM     92  C   UNL A   1      40.600  34.925  38.126  1.00  0.00     0.135 A 
ATOM     93  F   UNL A   1      38.408  32.026  38.315  1.00  0.00    -0.206 F 
ATOM     94  C   UNL A   1      38.654  33.830  39.794  1.00  0.00     0.059 A 
ATOM     95  C   UNL A   1      40.280  35.568  39.318  1.00  0.00     0.059 A 
ATOM     96  F   UNL A   1      41.555  35.466  37.355  1.00  0.00    -0.206 F 
ATOM     97  C   UNL A   1      39.289  35.025  40.134  1.00  0.00     0.060 A 
BRANCH  97  98
ATOM     98  S   UNL A   1      38.804  35.862  41.657  1.00  0.00     0.124 S 
ATOM     99  O   UNL A   1      37.443  35.369  41.840  1.00  0.00    -0.237 OA
ATOM    100  O   UNL A   1      39.790  35.371  42.614  1.00  0.00    -0.237 OA
ATOM    101  O   UNL A   1      38.916  37.277  41.319  1.00  0.00    -0.744 OA
ENDBRANCH  97  98
ENDBRANCH  65  90
ENDBRANCH  39  40
ENDBRANCH  32  34
ENDBRANCH  31  32
ENDBRANCH  30  31
ENDBRANCH   1  30
TORSDOF 18
ENDMDL
