MODEL 1
REMARK VINA RESULT:     -10.1      0.000      0.000
REMARK SMILES O=C(OCCOC(=O)[C@@H]1CSCN1C(=O)c1cccc(Cl)c1)c1ccc(-c2c3nc(c(-c4c(F)cc(S(=O)(=O)[O-])cc4F)c4ccc([nH]4)c(-c4c(F)cc(S(=O)(=O)[O-])cc4F)c4nc(c(-c5c(F)cc(S(=O)(=O)[O-])cc5F)c5ccc2[nH]5)C=C4)C=C3)cc1
REMARK SMILES IDX 4 1 3 2 2 3 1 4 23 5 24 6 88 7 25 8 87 9 26 10 27 11 28 12
REMARK SMILES IDX 81 13 29 14 86 15 80 16 82 17 30 18 85 19 79 20 78 21 31 23
REMARK SMILES IDX 65 24 44 25 64 26 45 27 48 28 63 29 83 30 46 31 47 32 62 34
REMARK SMILES IDX 84 35 49 36 32 37 33 38 42 39 34 40 35 41 41 42 43 43 36 44
REMARK SMILES IDX 37 45 38 46 39 47 40 48 66 49 67 50 76 51 68 52 69 53 75 54
REMARK SMILES IDX 77 55 70 56 71 57 72 58 73 59 74 60 50 61 51 62 60 63 52 64
REMARK SMILES IDX 53 65 59 66 61 67 54 68 55 69 56 70 57 71 58 72 5 73 6 74
REMARK SMILES IDX 7 75 8 76 9 77 10 78 13 79 11 80 12 81 14 82 15 83 16 84
REMARK SMILES IDX 17 85 22 86 18 87 20 88 19 89 21 90
REMARK H PARENT 82 22 48 33
REMARK Flexibility Score: inf
ROOT
ATOM      1  C   UNL A   1      39.737  20.548  25.790  1.00  0.00     0.275 C 
ENDROOT
BRANCH   1   2
ATOM      2  O   UNL A   1      39.281  21.584  26.684  1.00  0.00    -0.458 OA
BRANCH   2   3
ATOM      3  C   UNL A   1      38.787  22.821  26.435  1.00  0.00     0.338 C 
ATOM      4  O   UNL A   1      37.794  22.900  25.710  1.00  0.00    -0.246 OA
BRANCH   3   5
ATOM      5  C   UNL A   1      39.430  24.113  26.858  1.00  0.00     0.060 A 
ATOM      6  C   UNL A   1      40.030  25.054  26.020  1.00  0.00     0.016 A 
ATOM      7  C   UNL A   1      39.365  24.423  28.234  1.00  0.00     0.016 A 
ATOM      8  C   UNL A   1      40.449  26.297  26.507  1.00  0.00     0.010 A 
ATOM      9  C   UNL A   1      39.775  25.667  28.728  1.00  0.00     0.010 A 
ATOM     10  C   UNL A   1      40.311  26.618  27.858  1.00  0.00    -0.014 A 
BRANCH  10  11
ATOM     11  C   UNL A   1      40.868  27.898  28.348  1.00  0.00     0.031 A 
ATOM     12  C   UNL A   1      42.345  28.115  28.230  1.00  0.00     0.074 A 
ATOM     13  C   UNL A   1      40.058  28.877  28.794  1.00  0.00     0.049 A 
ATOM     14  N   UNL A   1      43.044  29.179  28.515  1.00  0.00    -0.248 NA
ATOM     15  C   UNL A   1      43.139  26.992  27.703  1.00  0.00     0.031 C 
ATOM     16  C   UNL A   1      38.604  28.782  28.886  1.00  0.00     0.029 A 
ATOM     17  N   UNL A   1      40.330  30.148  29.234  1.00  0.00    -0.354 N 
ATOM     18  C   UNL A   1      44.354  28.860  28.191  1.00  0.00     0.074 A 
ATOM     19  C   UNL A   1      44.363  27.492  27.724  1.00  0.00     0.031 C 
ATOM     20  C   UNL A   1      38.108  29.940  29.356  1.00  0.00     0.029 A 
ATOM     21  C   UNL A   1      39.211  30.855  29.615  1.00  0.00     0.049 A 
ATOM     22  H   UNL A   1      41.240  30.520  29.272  1.00  0.00     0.167 HD
ATOM     23  C   UNL A   1      45.448  29.649  28.265  1.00  0.00     0.037 A 
ATOM     24  C   UNL A   1      39.097  32.098  30.121  1.00  0.00     0.037 A 
ATOM     25  C   UNL A   1      45.423  31.004  28.742  1.00  0.00     0.049 A 
ATOM     26  C   UNL A   1      40.347  32.920  30.276  1.00  0.00     0.074 A 
ATOM     27  C   UNL A   1      46.476  31.890  28.871  1.00  0.00     0.029 A 
ATOM     28  N   UNL A   1      44.283  31.664  29.183  1.00  0.00    -0.354 N 
ATOM     29  N   UNL A   1      41.579  32.610  29.948  1.00  0.00    -0.248 NA
ATOM     30  C   UNL A   1      40.195  34.258  30.861  1.00  0.00     0.031 C 
ATOM     31  C   UNL A   1      45.983  33.067  29.441  1.00  0.00     0.029 A 
ATOM     32  C   UNL A   1      44.614  32.935  29.615  1.00  0.00     0.049 A 
ATOM     33  H   UNL A   1      43.375  31.283  29.186  1.00  0.00     0.167 HD
ATOM     34  C   UNL A   1      42.347  33.720  30.270  1.00  0.00     0.074 A 
ATOM     35  C   UNL A   1      41.438  34.716  30.802  1.00  0.00     0.031 C 
ATOM     36  C   UNL A   1      43.684  33.903  30.140  1.00  0.00     0.037 A 
BRANCH  23  37
ATOM     37  C   UNL A   1      46.758  29.047  27.855  1.00  0.00     0.058 A 
ATOM     38  C   UNL A   1      47.602  28.413  28.781  1.00  0.00     0.135 A 
ATOM     39  C   UNL A   1      47.169  29.096  26.514  1.00  0.00     0.135 A 
ATOM     40  F   UNL A   1      47.273  28.372  30.081  1.00  0.00    -0.206 F 
ATOM     41  C   UNL A   1      48.815  27.854  28.390  1.00  0.00     0.059 A 
ATOM     42  C   UNL A   1      48.365  28.524  26.098  1.00  0.00     0.059 A 
ATOM     43  F   UNL A   1      46.406  29.709  25.597  1.00  0.00    -0.206 F 
ATOM     44  C   UNL A   1      49.184  27.910  27.045  1.00  0.00     0.060 A 
BRANCH  44  45
ATOM     45  S   UNL A   1      50.746  27.154  26.550  1.00  0.00     0.124 S 
ATOM     46  O   UNL A   1      50.426  25.734  26.645  1.00  0.00    -0.237 OA
ATOM     47  O   UNL A   1      50.925  27.674  25.197  1.00  0.00    -0.237 OA
ATOM     48  O   UNL A   1      51.695  27.652  27.540  1.00  0.00    -0.744 OA
ENDBRANCH  44  45
ENDBRANCH  23  37
BRANCH  24  49
ATOM     49  C   UNL A   1      37.785  32.631  30.579  1.00  0.00     0.058 A 
ATOM     50  C   UNL A   1      36.874  33.229  29.695  1.00  0.00     0.135 A 
ATOM     51  C   UNL A   1      37.463  32.631  31.943  1.00  0.00     0.135 A 
ATOM     52  F   UNL A   1      37.151  33.282  28.383  1.00  0.00    -0.206 F 
ATOM     53  C   UNL A   1      35.699  33.827  30.148  1.00  0.00     0.059 A 
ATOM     54  C   UNL A   1      36.297  33.222  32.418  1.00  0.00     0.059 A 
ATOM     55  F   UNL A   1      38.293  32.066  32.833  1.00  0.00    -0.206 F 
ATOM     56  C   UNL A   1      35.423  33.824  31.516  1.00  0.00     0.060 A 
BRANCH  56  57
ATOM     57  S   UNL A   1      33.901  34.585  32.124  1.00  0.00     0.124 S 
ATOM     58  O   UNL A   1      33.241  34.951  30.876  1.00  0.00    -0.237 OA
ATOM     59  O   UNL A   1      33.282  33.500  32.877  1.00  0.00    -0.237 OA
ATOM     60  O   UNL A   1      34.393  35.702  32.928  1.00  0.00    -0.744 OA
ENDBRANCH  56  57
ENDBRANCH  24  49
BRANCH  36  61
ATOM     61  C   UNL A   1      44.234  35.233  30.560  1.00  0.00     0.058 A 
ATOM     62  C   UNL A   1      44.727  35.448  31.856  1.00  0.00     0.135 A 
ATOM     63  C   UNL A   1      44.321  36.285  29.635  1.00  0.00     0.135 A 
ATOM     64  F   UNL A   1      44.655  34.474  32.777  1.00  0.00    -0.206 F 
ATOM     65  C   UNL A   1      45.273  36.670  32.227  1.00  0.00     0.059 A 
ATOM     66  C   UNL A   1      44.891  37.505  29.976  1.00  0.00     0.059 A 
ATOM     67  F   UNL A   1      43.870  36.123  28.381  1.00  0.00    -0.206 F 
ATOM     68  C   UNL A   1      45.356  37.691  31.278  1.00  0.00     0.060 A 
BRANCH  68  69
ATOM     69  S   UNL A   1      46.111  39.257  31.758  1.00  0.00     0.124 S 
ATOM     70  O   UNL A   1      45.534  40.173  30.781  1.00  0.00    -0.237 OA
ATOM     71  O   UNL A   1      45.645  39.419  33.132  1.00  0.00    -0.237 OA
ATOM     72  O   UNL A   1      47.541  39.002  31.615  1.00  0.00    -0.744 OA
ENDBRANCH  68  69
ENDBRANCH  36  61
ENDBRANCH  10  11
ENDBRANCH   3   5
ENDBRANCH   2   3
ENDBRANCH   1   2
BRANCH   1  73
ATOM     73  C   UNL A   1      40.806  19.643  26.404  1.00  0.00     0.274 C 
BRANCH  73  74
ATOM     74  O   UNL A   1      41.663  19.123  25.383  1.00  0.00    -0.461 OA
BRANCH  74  75
ATOM     75  C   UNL A   1      42.994  19.017  25.653  1.00  0.00     0.329 C 
ATOM     76  O   UNL A   1      43.489  18.263  26.487  1.00  0.00    -0.250 OA
BRANCH  75  77
ATOM     77  C   UNL A   1      43.791  19.921  24.707  1.00  0.00     0.206 C 
ATOM     78  C   UNL A   1      44.922  19.098  24.081  1.00  0.00     0.108 C 
ATOM     79  N   UNL A   1      44.345  21.091  25.383  1.00  0.00    -0.315 N 
ATOM     80  S   UNL A   1      46.466  19.996  24.377  1.00  0.00    -0.138 SA
ATOM     81  C   UNL A   1      45.753  20.997  25.688  1.00  0.00     0.191 C 
BRANCH  79  82
ATOM     82  C   UNL A   1      43.482  22.108  25.748  1.00  0.00     0.255 C 
ATOM     83  O   UNL A   1      42.651  22.562  24.965  1.00  0.00    -0.269 OA
BRANCH  82  84
ATOM     84  C   UNL A   1      43.566  22.687  27.105  1.00  0.00     0.041 A 
ATOM     85  C   UNL A   1      42.558  22.468  28.054  1.00  0.00     0.014 A 
ATOM     86  C   UNL A   1      44.720  23.388  27.455  1.00  0.00     0.034 A 
ATOM     87  C   UNL A   1      42.656  23.051  29.317  1.00  0.00     0.002 A 
ATOM     88  C   UNL A   1      44.817  23.955  28.722  1.00  0.00     0.041 A 
ATOM     89  C   UNL A   1      43.780  23.812  29.644  1.00  0.00     0.020 A 
ATOM     90  Cl  UNL A   1      46.227  24.845  29.137  1.00  0.00    -0.084 Cl
ENDBRANCH  82  84
ENDBRANCH  79  82
ENDBRANCH  75  77
ENDBRANCH  74  75
ENDBRANCH  73  74
ENDBRANCH   1  73
TORSDOF 16
ENDMDL
MODEL 2
REMARK VINA RESULT:      -9.9      5.075      6.641
REMARK SMILES O=C(OCCOC(=O)[C@@H]1CSCN1C(=O)c1cccc(Cl)c1)c1ccc(-c2c3nc(c(-c4c(F)cc(S(=O)(=O)[O-])cc4F)c4ccc([nH]4)c(-c4c(F)cc(S(=O)(=O)[O-])cc4F)c4nc(c(-c5c(F)cc(S(=O)(=O)[O-])cc5F)c5ccc2[nH]5)C=C4)C=C3)cc1
REMARK SMILES IDX 4 1 3 2 2 3 1 4 23 5 24 6 88 7 25 8 87 9 26 10 27 11 28 12
REMARK SMILES IDX 81 13 29 14 86 15 80 16 82 17 30 18 85 19 79 20 78 21 31 23
REMARK SMILES IDX 65 24 44 25 64 26 45 27 48 28 63 29 83 30 46 31 47 32 62 34
REMARK SMILES IDX 84 35 49 36 32 37 33 38 42 39 34 40 35 41 41 42 43 43 36 44
REMARK SMILES IDX 37 45 38 46 39 47 40 48 66 49 67 50 76 51 68 52 69 53 75 54
REMARK SMILES IDX 77 55 70 56 71 57 72 58 73 59 74 60 50 61 51 62 60 63 52 64
REMARK SMILES IDX 53 65 59 66 61 67 54 68 55 69 56 70 57 71 58 72 5 73 6 74
REMARK SMILES IDX 7 75 8 76 9 77 10 78 13 79 11 80 12 81 14 82 15 83 16 84
REMARK SMILES IDX 17 85 22 86 18 87 20 88 19 89 21 90
REMARK H PARENT 82 22 48 33
REMARK Flexibility Score: inf
ROOT
ATOM      1  C   UNL A   1      43.106  22.868  25.192  1.00  0.00     0.275 C 
ENDROOT
BRANCH   1   2
ATOM      2  O   UNL A   1      42.692  23.786  26.225  1.00  0.00    -0.458 OA
BRANCH   2   3
ATOM      3  C   UNL A   1      42.234  25.060  26.153  1.00  0.00     0.338 C 
ATOM      4  O   UNL A   1      42.090  25.548  25.031  1.00  0.00    -0.246 OA
BRANCH   3   5
ATOM      5  C   UNL A   1      42.018  25.971  27.329  1.00  0.00     0.060 A 
ATOM      6  C   UNL A   1      42.809  27.064  27.687  1.00  0.00     0.016 A 
ATOM      7  C   UNL A   1      40.868  25.724  28.108  1.00  0.00     0.016 A 
ATOM      8  C   UNL A   1      42.418  27.939  28.706  1.00  0.00     0.010 A 
ATOM      9  C   UNL A   1      40.465  26.598  29.125  1.00  0.00     0.010 A 
ATOM     10  C   UNL A   1      41.238  27.723  29.421  1.00  0.00    -0.014 A 
BRANCH  10  11
ATOM     11  C   UNL A   1      40.922  28.610  30.562  1.00  0.00     0.031 A 
ATOM     12  C   UNL A   1      41.765  28.502  31.794  1.00  0.00     0.074 A 
ATOM     13  C   UNL A   1      39.969  29.555  30.457  1.00  0.00     0.049 A 
ATOM     14  N   UNL A   1      41.728  29.223  32.880  1.00  0.00    -0.248 NA
ATOM     15  C   UNL A   1      42.801  27.454  31.797  1.00  0.00     0.031 C 
ATOM     16  C   UNL A   1      39.140  29.779  29.275  1.00  0.00     0.029 A 
ATOM     17  N   UNL A   1      39.545  30.517  31.338  1.00  0.00    -0.354 N 
ATOM     18  C   UNL A   1      42.740  28.727  33.689  1.00  0.00     0.074 A 
ATOM     19  C   UNL A   1      43.349  27.620  32.990  1.00  0.00     0.031 C 
ATOM     20  C   UNL A   1      38.304  30.807  29.502  1.00  0.00     0.029 A 
ATOM     21  C   UNL A   1      38.525  31.305  30.852  1.00  0.00     0.049 A 
ATOM     22  H   UNL A   1      39.934  30.633  32.235  1.00  0.00     0.167 HD
ATOM     23  C   UNL A   1      43.131  29.172  34.904  1.00  0.00     0.037 A 
ATOM     24  C   UNL A   1      37.847  32.310  31.438  1.00  0.00     0.037 A 
ATOM     25  C   UNL A   1      42.506  30.268  35.590  1.00  0.00     0.049 A 
ATOM     26  C   UNL A   1      38.247  32.723  32.828  1.00  0.00     0.074 A 
ATOM     27  C   UNL A   1      42.814  30.794  36.831  1.00  0.00     0.029 A 
ATOM     28  N   UNL A   1      41.433  30.999  35.097  1.00  0.00    -0.354 N 
ATOM     29  N   UNL A   1      39.219  32.255  33.576  1.00  0.00    -0.248 NA
ATOM     30  C   UNL A   1      37.468  33.799  33.454  1.00  0.00     0.031 C 
ATOM     31  C   UNL A   1      41.893  31.807  37.112  1.00  0.00     0.029 A 
ATOM     32  C   UNL A   1      41.047  31.951  36.024  1.00  0.00     0.049 A 
ATOM     33  H   UNL A   1      41.012  30.861  34.218  1.00  0.00     0.167 HD
ATOM     34  C   UNL A   1      39.181  32.991  34.751  1.00  0.00     0.074 A 
ATOM     35  C   UNL A   1      38.101  33.948  34.609  1.00  0.00     0.031 C 
ATOM     36  C   UNL A   1      39.966  32.888  35.851  1.00  0.00     0.037 A 
BRANCH  23  37
ATOM     37  C   UNL A   1      44.258  28.444  35.572  1.00  0.00     0.058 A 
ATOM     38  C   UNL A   1      45.597  28.821  35.381  1.00  0.00     0.135 A 
ATOM     39  C   UNL A   1      43.993  27.362  36.424  1.00  0.00     0.135 A 
ATOM     40  F   UNL A   1      45.906  29.826  34.547  1.00  0.00    -0.206 F 
ATOM     41  C   UNL A   1      46.637  28.142  36.009  1.00  0.00     0.059 A 
ATOM     42  C   UNL A   1      45.015  26.684  37.079  1.00  0.00     0.059 A 
ATOM     43  F   UNL A   1      42.731  26.952  36.621  1.00  0.00    -0.206 F 
ATOM     44  C   UNL A   1      46.334  27.078  36.860  1.00  0.00     0.060 A 
BRANCH  44  45
ATOM     45  S   UNL A   1      47.691  26.227  37.689  1.00  0.00     0.124 S 
ATOM     46  O   UNL A   1      48.167  25.339  36.634  1.00  0.00    -0.237 OA
ATOM     47  O   UNL A   1      48.581  27.330  38.038  1.00  0.00    -0.237 OA
ATOM     48  O   UNL A   1      47.041  25.568  38.819  1.00  0.00    -0.744 OA
ENDBRANCH  44  45
ENDBRANCH  23  37
BRANCH  24  49
ATOM     49  C   UNL A   1      36.690  32.960  30.766  1.00  0.00     0.058 A 
ATOM     50  C   UNL A   1      36.855  33.887  29.725  1.00  0.00     0.135 A 
ATOM     51  C   UNL A   1      35.386  32.727  31.227  1.00  0.00     0.135 A 
ATOM     52  F   UNL A   1      38.086  34.169  29.270  1.00  0.00    -0.206 F 
ATOM     53  C   UNL A   1      35.773  34.575  29.177  1.00  0.00     0.059 A 
ATOM     54  C   UNL A   1      34.292  33.401  30.696  1.00  0.00     0.059 A 
ATOM     55  F   UNL A   1      35.167  31.845  32.214  1.00  0.00    -0.206 F 
ATOM     56  C   UNL A   1      34.493  34.329  29.677  1.00  0.00     0.060 A 
BRANCH  56  57
ATOM     57  S   UNL A   1      33.076  35.203  28.976  1.00  0.00     0.124 S 
ATOM     58  O   UNL A   1      32.269  35.448  30.166  1.00  0.00    -0.237 OA
ATOM     59  O   UNL A   1      33.695  36.378  28.372  1.00  0.00    -0.237 OA
ATOM     60  O   UNL A   1      32.528  34.232  28.032  1.00  0.00    -0.744 OA
ENDBRANCH  56  57
ENDBRANCH  24  49
BRANCH  36  61
ATOM     61  C   UNL A   1      39.696  33.846  36.974  1.00  0.00     0.058 A 
ATOM     62  C   UNL A   1      38.846  33.509  38.038  1.00  0.00     0.135 A 
ATOM     63  C   UNL A   1      40.343  35.090  37.011  1.00  0.00     0.135 A 
ATOM     64  F   UNL A   1      38.197  32.334  38.039  1.00  0.00    -0.206 F 
ATOM     65  C   UNL A   1      38.632  34.384  39.095  1.00  0.00     0.059 A 
ATOM     66  C   UNL A   1      40.167  35.967  38.074  1.00  0.00     0.059 A 
ATOM     67  F   UNL A   1      41.172  35.452  36.019  1.00  0.00    -0.206 F 
ATOM     68  C   UNL A   1      39.302  35.609  39.107  1.00  0.00     0.060 A 
BRANCH  68  69
ATOM     69  S   UNL A   1      39.053  36.716  40.508  1.00  0.00     0.124 S 
ATOM     70  O   UNL A   1      38.459  37.881  39.861  1.00  0.00    -0.237 OA
ATOM     71  O   UNL A   1      38.159  35.940  41.363  1.00  0.00    -0.237 OA
ATOM     72  O   UNL A   1      40.401  36.907  41.034  1.00  0.00    -0.744 OA
ENDBRANCH  68  69
ENDBRANCH  36  61
ENDBRANCH  10  11
ENDBRANCH   3   5
ENDBRANCH   2   3
ENDBRANCH   1   2
BRANCH   1  73
ATOM     73  C   UNL A   1      44.612  22.897  24.923  1.00  0.00     0.274 C 
BRANCH  73  74
ATOM     74  O   UNL A   1      44.972  24.108  24.251  1.00  0.00    -0.461 OA
BRANCH  74  75
ATOM     75  C   UNL A   1      46.104  24.753  24.652  1.00  0.00     0.329 C 
ATOM     76  O   UNL A   1      47.227  24.562  24.194  1.00  0.00    -0.250 OA
BRANCH  75  77
ATOM     77  C   UNL A   1      45.755  25.811  25.704  1.00  0.00     0.206 C 
ATOM     78  C   UNL A   1      45.355  27.104  24.986  1.00  0.00     0.108 C 
ATOM     79  N   UNL A   1      46.861  26.075  26.621  1.00  0.00    -0.315 N 
ATOM     80  S   UNL A   1      46.381  28.433  25.663  1.00  0.00    -0.138 SA
ATOM     81  C   UNL A   1      47.587  27.292  26.349  1.00  0.00     0.191 C 
BRANCH  79  82
ATOM     82  C   UNL A   1      47.166  25.120  27.573  1.00  0.00     0.255 C 
ATOM     83  O   UNL A   1      48.199  24.456  27.516  1.00  0.00    -0.269 OA
BRANCH  82  84
ATOM     84  C   UNL A   1      46.222  24.865  28.682  1.00  0.00     0.041 A 
ATOM     85  C   UNL A   1      46.316  25.565  29.893  1.00  0.00     0.014 A 
ATOM     86  C   UNL A   1      45.173  23.971  28.466  1.00  0.00     0.034 A 
ATOM     87  C   UNL A   1      45.425  25.282  30.927  1.00  0.00     0.002 A 
ATOM     88  C   UNL A   1      44.280  23.704  29.498  1.00  0.00     0.041 A 
ATOM     89  C   UNL A   1      44.417  24.335  30.735  1.00  0.00     0.020 A 
ATOM     90  Cl  UNL A   1      43.010  22.577  29.239  1.00  0.00    -0.084 Cl
ENDBRANCH  82  84
ENDBRANCH  79  82
ENDBRANCH  75  77
ENDBRANCH  74  75
ENDBRANCH  73  74
ENDBRANCH   1  73
TORSDOF 16
ENDMDL
MODEL 3
REMARK VINA RESULT:      -9.8      5.983      7.856
REMARK SMILES O=C(OCCOC(=O)[C@@H]1CSCN1C(=O)c1cccc(Cl)c1)c1ccc(-c2c3nc(c(-c4c(F)cc(S(=O)(=O)[O-])cc4F)c4ccc([nH]4)c(-c4c(F)cc(S(=O)(=O)[O-])cc4F)c4nc(c(-c5c(F)cc(S(=O)(=O)[O-])cc5F)c5ccc2[nH]5)C=C4)C=C3)cc1
REMARK SMILES IDX 4 1 3 2 2 3 1 4 23 5 24 6 88 7 25 8 87 9 26 10 27 11 28 12
REMARK SMILES IDX 81 13 29 14 86 15 80 16 82 17 30 18 85 19 79 20 78 21 31 23
REMARK SMILES IDX 65 24 44 25 64 26 45 27 48 28 63 29 83 30 46 31 47 32 62 34
REMARK SMILES IDX 84 35 49 36 32 37 33 38 42 39 34 40 35 41 41 42 43 43 36 44
REMARK SMILES IDX 37 45 38 46 39 47 40 48 66 49 67 50 76 51 68 52 69 53 75 54
REMARK SMILES IDX 77 55 70 56 71 57 72 58 73 59 74 60 50 61 51 62 60 63 52 64
REMARK SMILES IDX 53 65 59 66 61 67 54 68 55 69 56 70 57 71 58 72 5 73 6 74
REMARK SMILES IDX 7 75 8 76 9 77 10 78 13 79 11 80 12 81 14 82 15 83 16 84
REMARK SMILES IDX 17 85 22 86 18 87 20 88 19 89 21 90
REMARK H PARENT 82 22 48 33
REMARK Flexibility Score: inf
ROOT
ATOM      1  C   UNL A   1      39.840  22.315  26.500  1.00  0.00     0.275 C 
ENDROOT
BRANCH   1   2
ATOM      2  O   UNL A   1      39.783  23.756  26.525  1.00  0.00    -0.458 OA
BRANCH   2   3
ATOM      3  C   UNL A   1      40.741  24.681  26.778  1.00  0.00     0.338 C 
ATOM      4  O   UNL A   1      41.772  24.628  26.107  1.00  0.00    -0.246 OA
BRANCH   3   5
ATOM      5  C   UNL A   1      40.708  25.679  27.903  1.00  0.00     0.060 A 
ATOM      6  C   UNL A   1      41.662  26.662  28.168  1.00  0.00     0.016 A 
ATOM      7  C   UNL A   1      39.566  25.647  28.733  1.00  0.00     0.016 A 
ATOM      8  C   UNL A   1      41.444  27.641  29.143  1.00  0.00     0.010 A 
ATOM      9  C   UNL A   1      39.336  26.626  29.706  1.00  0.00     0.010 A 
ATOM     10  C   UNL A   1      40.275  27.640  29.907  1.00  0.00    -0.014 A 
BRANCH  10  11
ATOM     11  C   UNL A   1      40.138  28.626  31.001  1.00  0.00     0.031 A 
ATOM     12  C   UNL A   1      41.033  28.488  32.193  1.00  0.00     0.074 A 
ATOM     13  C   UNL A   1      39.301  29.676  30.882  1.00  0.00     0.049 A 
ATOM     14  N   UNL A   1      41.148  29.272  33.229  1.00  0.00    -0.248 NA
ATOM     15  C   UNL A   1      41.931  27.321  32.213  1.00  0.00     0.031 C 
ATOM     16  C   UNL A   1      38.437  29.929  29.733  1.00  0.00     0.029 A 
ATOM     17  N   UNL A   1      39.050  30.734  31.718  1.00  0.00    -0.354 N 
ATOM     18  C   UNL A   1      42.138  28.703  34.016  1.00  0.00     0.074 A 
ATOM     19  C   UNL A   1      42.566  27.488  33.361  1.00  0.00     0.031 C 
ATOM     20  C   UNL A   1      37.747  31.066  29.932  1.00  0.00     0.029 A 
ATOM     21  C   UNL A   1      38.107  31.613  31.234  1.00  0.00     0.049 A 
ATOM     22  H   UNL A   1      39.503  30.854  32.584  1.00  0.00     0.167 HD
ATOM     23  C   UNL A   1      42.652  29.168  35.176  1.00  0.00     0.037 A 
ATOM     24  C   UNL A   1      37.592  32.728  31.785  1.00  0.00     0.037 A 
ATOM     25  C   UNL A   1      42.206  30.373  35.819  1.00  0.00     0.049 A 
ATOM     26  C   UNL A   1      38.121  33.170  33.122  1.00  0.00     0.074 A 
ATOM     27  C   UNL A   1      42.649  30.929  37.005  1.00  0.00     0.029 A 
ATOM     28  N   UNL A   1      41.203  31.201  35.334  1.00  0.00    -0.354 N 
ATOM     29  N   UNL A   1      39.071  32.630  33.848  1.00  0.00    -0.248 NA
ATOM     30  C   UNL A   1      37.516  34.370  33.714  1.00  0.00     0.031 C 
ATOM     31  C   UNL A   1      41.876  32.064  37.264  1.00  0.00     0.029 A 
ATOM     32  C   UNL A   1      40.991  32.247  36.214  1.00  0.00     0.049 A 
ATOM     33  H   UNL A   1      40.717  31.064  34.489  1.00  0.00     0.167 HD
ATOM     34  C   UNL A   1      39.192  33.435  34.972  1.00  0.00     0.074 A 
ATOM     35  C   UNL A   1      38.230  34.508  34.822  1.00  0.00     0.031 C 
ATOM     36  C   UNL A   1      40.023  33.300  36.035  1.00  0.00     0.037 A 
BRANCH  23  37
ATOM     37  C   UNL A   1      43.720  28.346  35.832  1.00  0.00     0.058 A 
ATOM     38  C   UNL A   1      45.082  28.558  35.567  1.00  0.00     0.135 A 
ATOM     39  C   UNL A   1      43.375  27.341  36.749  1.00  0.00     0.135 A 
ATOM     40  F   UNL A   1      45.463  29.481  34.671  1.00  0.00    -0.206 F 
ATOM     41  C   UNL A   1      46.068  27.793  36.184  1.00  0.00     0.059 A 
ATOM     42  C   UNL A   1      44.343  26.581  37.394  1.00  0.00     0.059 A 
ATOM     43  F   UNL A   1      42.085  27.089  37.018  1.00  0.00    -0.206 F 
ATOM     44  C   UNL A   1      45.687  26.811  37.100  1.00  0.00     0.060 A 
BRANCH  44  45
ATOM     45  S   UNL A   1      46.977  25.847  37.914  1.00  0.00     0.124 S 
ATOM     46  O   UNL A   1      47.802  25.446  36.779  1.00  0.00    -0.237 OA
ATOM     47  O   UNL A   1      47.573  26.829  38.815  1.00  0.00    -0.237 OA
ATOM     48  O   UNL A   1      46.238  24.770  38.565  1.00  0.00    -0.744 OA
ENDBRANCH  44  45
ENDBRANCH  23  37
BRANCH  24  49
ATOM     49  C   UNL A   1      36.484  33.476  31.131  1.00  0.00     0.058 A 
ATOM     50  C   UNL A   1      35.164  33.421  31.608  1.00  0.00     0.135 A 
ATOM     51  C   UNL A   1      36.719  34.191  29.949  1.00  0.00     0.135 A 
ATOM     52  F   UNL A   1      34.882  32.723  32.719  1.00  0.00    -0.206 F 
ATOM     53  C   UNL A   1      34.113  34.032  30.925  1.00  0.00     0.059 A 
ATOM     54  C   UNL A   1      35.686  34.808  29.251  1.00  0.00     0.059 A 
ATOM     55  F   UNL A   1      37.962  34.283  29.452  1.00  0.00    -0.206 F 
ATOM     56  C   UNL A   1      34.385  34.719  29.740  1.00  0.00     0.060 A 
BRANCH  56  57
ATOM     57  S   UNL A   1      33.039  35.526  28.845  1.00  0.00     0.124 S 
ATOM     58  O   UNL A   1      33.762  36.545  28.092  1.00  0.00    -0.237 OA
ATOM     59  O   UNL A   1      32.480  34.431  28.059  1.00  0.00    -0.237 OA
ATOM     60  O   UNL A   1      32.184  36.024  29.920  1.00  0.00    -0.744 OA
ENDBRANCH  56  57
ENDBRANCH  24  49
BRANCH  36  61
ATOM     61  C   UNL A   1      39.938  34.349  37.103  1.00  0.00     0.058 A 
ATOM     62  C   UNL A   1      40.607  35.577  36.982  1.00  0.00     0.135 A 
ATOM     63  C   UNL A   1      39.131  34.143  38.233  1.00  0.00     0.135 A 
ATOM     64  F   UNL A   1      41.398  35.814  35.924  1.00  0.00    -0.206 F 
ATOM     65  C   UNL A   1      40.492  36.561  37.955  1.00  0.00     0.059 A 
ATOM     66  C   UNL A   1      38.978  35.125  39.203  1.00  0.00     0.059 A 
ATOM     67  F   UNL A   1      38.466  32.988  38.388  1.00  0.00    -0.206 F 
ATOM     68  C   UNL A   1      39.670  36.328  39.060  1.00  0.00     0.060 A 
BRANCH  68  69
ATOM     69  S   UNL A   1      39.491  37.631  40.293  1.00  0.00     0.124 S 
ATOM     70  O   UNL A   1      40.873  38.067  40.463  1.00  0.00    -0.237 OA
ATOM     71  O   UNL A   1      38.606  38.577  39.620  1.00  0.00    -0.237 OA
ATOM     72  O   UNL A   1      38.905  36.939  41.437  1.00  0.00    -0.744 OA
ENDBRANCH  68  69
ENDBRANCH  36  61
ENDBRANCH  10  11
ENDBRANCH   3   5
ENDBRANCH   2   3
ENDBRANCH   1   2
BRANCH   1  73
ATOM     73  C   UNL A   1      38.681  21.676  25.733  1.00  0.00     0.274 C 
BRANCH  73  74
ATOM     74  O   UNL A   1      37.548  22.550  25.728  1.00  0.00    -0.461 OA
BRANCH  74  75
ATOM     75  C   UNL A   1      36.487  22.222  24.938  1.00  0.00     0.329 C 
ATOM     76  O   UNL A   1      36.335  22.578  23.772  1.00  0.00    -0.250 OA
BRANCH  75  77
ATOM     77  C   UNL A   1      35.548  21.275  25.693  1.00  0.00     0.206 C 
ATOM     78  C   UNL A   1      35.483  19.943  24.937  1.00  0.00     0.108 C 
ATOM     79  N   UNL A   1      34.204  21.824  25.848  1.00  0.00    -0.315 N 
ATOM     80  S   UNL A   1      33.734  19.580  24.641  1.00  0.00    -0.138 SA
ATOM     81  C   UNL A   1      33.225  21.277  24.938  1.00  0.00     0.191 C 
BRANCH  79  82
ATOM     82  C   UNL A   1      34.015  22.853  26.752  1.00  0.00     0.255 C 
ATOM     83  O   UNL A   1      34.230  22.705  27.953  1.00  0.00    -0.269 OA
BRANCH  82  84
ATOM     84  C   UNL A   1      33.522  24.163  26.277  1.00  0.00     0.041 A 
ATOM     85  C   UNL A   1      34.387  25.099  25.694  1.00  0.00     0.014 A 
ATOM     86  C   UNL A   1      32.152  24.417  26.340  1.00  0.00     0.034 A 
ATOM     87  C   UNL A   1      33.894  26.335  25.280  1.00  0.00     0.002 A 
ATOM     88  C   UNL A   1      31.665  25.647  25.912  1.00  0.00     0.041 A 
ATOM     89  C   UNL A   1      32.532  26.616  25.408  1.00  0.00     0.020 A 
ATOM     90  Cl  UNL A   1      29.981  25.968  26.023  1.00  0.00    -0.084 Cl
ENDBRANCH  82  84
ENDBRANCH  79  82
ENDBRANCH  75  77
ENDBRANCH  74  75
ENDBRANCH  73  74
ENDBRANCH   1  73
TORSDOF 16
ENDMDL
