MODEL 1
REMARK VINA RESULT:     -11.5      0.000      0.000
REMARK SMILES COCCn1cc(NC(=O)N[C@H]2C=C[C@H](C(=O)OCCOC(=O)c3ccc(-c4c5nc(c(-c6c(F)cc(S(=O)(=O)[O-])cc6F)c6ccc([nH]6)c(-c6c(F)cc(S(=O)(=O)[O-])cc6F)c6nc(c(-c7c(F)cc(S(=O)(=O)[O-])cc7F)c7ccc4[nH]7)C=C6)C=C5)cc3)C2)cn1
REMARK SMILES IDX 19 1 18 2 16 3 17 4 15 5 12 6 13 7 90 8 14 9 11 10 8 11 9 12
REMARK SMILES IDX 10 14 7 16 5 17 6 18 92 19 91 20 4 21 3 22 2 23 1 24 20 25
REMARK SMILES IDX 21 26 22 27 23 28 24 29 25 30 89 31 26 32 88 33 27 34 28 35
REMARK SMILES IDX 29 36 82 37 30 38 87 39 81 40 83 41 31 42 86 43 80 44 79 45
REMARK SMILES IDX 32 47 66 48 45 49 65 50 46 51 49 52 64 53 84 54 47 55 48 56
REMARK SMILES IDX 63 58 85 59 50 60 33 61 34 62 43 63 35 64 36 65 42 66 44 67
REMARK SMILES IDX 37 68 38 69 39 70 40 71 41 72 67 73 68 74 77 75 69 76 70 77
REMARK SMILES IDX 76 78 78 79 71 80 72 81 73 82 74 83 75 84 51 85 52 86 61 87
REMARK SMILES IDX 53 88 54 89 60 90 62 91 55 92 56 93 57 94 58 95 59 96
REMARK H PARENT 8 13 11 15 83 46 49 57
REMARK Flexibility Score: inf
ROOT
ATOM      1  C   UNL A   1      31.701  30.208  26.667  1.00  0.00     0.274 C 
ENDROOT
BRANCH   1   2
ATOM      2  O   UNL A   1      32.104  28.980  26.011  1.00  0.00    -0.462 OA
BRANCH   2   3
ATOM      3  C   UNL A   1      31.700  27.786  26.563  1.00  0.00     0.312 C 
ATOM      4  O   UNL A   1      31.242  27.667  27.692  1.00  0.00    -0.252 OA
BRANCH   3   5
ATOM      5  C   UNL A   1      31.951  26.622  25.578  1.00  0.00     0.124 C 
ATOM      6  C   UNL A   1      31.832  26.986  23.109  1.00  0.00     0.107 C 
ATOM      7  C   UNL A   1      30.686  26.164  23.625  1.00  0.00    -0.006 C 
ATOM      8  C   UNL A   1      32.743  26.998  24.327  1.00  0.00     0.048 C 
ATOM      9  C   UNL A   1      30.726  26.014  24.959  1.00  0.00    -0.014 C 
BRANCH   6  10
ATOM     10  N   UNL A   1      32.276  26.491  21.799  1.00  0.00    -0.332 N 
ATOM     11  N   UNL A   1      32.982  24.203  21.768  1.00  0.00    -0.305 N 
ATOM     12  C   UNL A   1      32.739  25.389  21.171  1.00  0.00     0.319 C 
ATOM     13  H   UNL A   1      32.727  23.397  21.263  1.00  0.00     0.171 HD
ATOM     14  O   UNL A   1      32.866  25.466  19.945  1.00  0.00    -0.248 OA
ATOM     15  H   UNL A   1      32.214  27.224  21.145  1.00  0.00     0.165 HD
BRANCH  11  16
ATOM     16  C   UNL A   1      33.543  24.000  22.999  1.00  0.00     0.081 A 
ATOM     17  N   UNL A   1      33.780  23.646  25.136  1.00  0.00    -0.268 N 
ATOM     18  C   UNL A   1      33.022  23.272  24.052  1.00  0.00     0.135 A 
ATOM     19  N   UNL A   1      34.879  24.312  24.764  1.00  0.00    -0.179 NA
ATOM     20  C   UNL A   1      34.756  24.500  23.463  1.00  0.00     0.161 A 
BRANCH  17  21
ATOM     21  C   UNL A   1      33.445  23.584  26.551  1.00  0.00     0.172 C 
BRANCH  21  22
ATOM     22  C   UNL A   1      32.287  22.646  26.909  1.00  0.00     0.183 C 
BRANCH  22  23
ATOM     23  O   UNL A   1      31.102  23.254  27.422  1.00  0.00    -0.383 OA
ATOM     24  C   UNL A   1      29.949  22.978  26.637  1.00  0.00     0.194 C 
ENDBRANCH  22  23
ENDBRANCH  21  22
ENDBRANCH  17  21
ENDBRANCH  11  16
ENDBRANCH   6  10
ENDBRANCH   3   5
ENDBRANCH   2   3
ENDBRANCH   1   2
BRANCH   1  25
ATOM     25  C   UNL A   1      32.831  31.215  26.912  1.00  0.00     0.275 C 
BRANCH  25  26
ATOM     26  O   UNL A   1      33.940  30.661  27.625  1.00  0.00    -0.458 OA
BRANCH  26  27
ATOM     27  C   UNL A   1      34.801  31.619  28.004  1.00  0.00     0.338 C 
ATOM     28  O   UNL A   1      34.766  32.780  27.595  1.00  0.00    -0.246 OA
BRANCH  27  29
ATOM     29  C   UNL A   1      35.961  31.095  28.714  1.00  0.00     0.060 A 
ATOM     30  C   UNL A   1      36.905  31.992  29.219  1.00  0.00     0.016 A 
ATOM     31  C   UNL A   1      36.264  29.744  28.566  1.00  0.00     0.016 A 
ATOM     32  C   UNL A   1      38.231  31.590  29.268  1.00  0.00     0.010 A 
ATOM     33  C   UNL A   1      37.548  29.316  28.803  1.00  0.00     0.010 A 
ATOM     34  C   UNL A   1      38.560  30.257  28.951  1.00  0.00    -0.014 A 
BRANCH  34  35
ATOM     35  C   UNL A   1      39.925  29.743  29.119  1.00  0.00     0.031 A 
ATOM     36  C   UNL A   1      40.213  29.739  30.584  1.00  0.00     0.074 A 
ATOM     37  C   UNL A   1      40.682  29.206  28.116  1.00  0.00     0.049 A 
ATOM     38  N   UNL A   1      41.040  30.508  31.212  1.00  0.00    -0.248 NA
ATOM     39  C   UNL A   1      39.249  29.076  31.496  1.00  0.00     0.031 C 
ATOM     40  C   UNL A   1      40.384  29.111  26.675  1.00  0.00     0.029 A 
ATOM     41  N   UNL A   1      41.903  28.561  28.175  1.00  0.00    -0.354 N 
ATOM     42  C   UNL A   1      40.930  30.146  32.553  1.00  0.00     0.074 A 
ATOM     43  C   UNL A   1      39.661  29.498  32.692  1.00  0.00     0.031 C 
ATOM     44  C   UNL A   1      41.238  28.252  26.059  1.00  0.00     0.029 A 
ATOM     45  C   UNL A   1      42.241  27.814  27.009  1.00  0.00     0.049 A 
ATOM     46  H   UNL A   1      42.494  28.613  28.961  1.00  0.00     0.167 HD
ATOM     47  C   UNL A   1      42.055  30.066  33.315  1.00  0.00     0.037 A 
ATOM     48  C   UNL A   1      43.310  26.966  26.843  1.00  0.00     0.037 A 
ATOM     49  C   UNL A   1      43.115  30.818  32.683  1.00  0.00     0.049 A 
ATOM     50  C   UNL A   1      44.283  27.363  27.885  1.00  0.00     0.074 A 
ATOM     51  C   UNL A   1      43.362  32.147  32.417  1.00  0.00     0.029 A 
ATOM     52  N   UNL A   1      43.839  30.085  31.779  1.00  0.00    -0.354 N 
ATOM     53  N   UNL A   1      44.878  28.525  27.887  1.00  0.00    -0.248 NA
ATOM     54  C   UNL A   1      44.156  26.705  29.172  1.00  0.00     0.031 C 
ATOM     55  C   UNL A   1      44.013  32.170  31.145  1.00  0.00     0.029 A 
ATOM     56  C   UNL A   1      44.260  30.860  30.736  1.00  0.00     0.049 A 
ATOM     57  H   UNL A   1      44.031  29.124  31.869  1.00  0.00     0.167 HD
ATOM     58  C   UNL A   1      44.784  28.953  29.203  1.00  0.00     0.074 A 
ATOM     59  C   UNL A   1      44.400  27.754  29.961  1.00  0.00     0.031 C 
ATOM     60  C   UNL A   1      44.714  30.290  29.486  1.00  0.00     0.037 A 
BRANCH  47  61
ATOM     61  C   UNL A   1      42.347  28.904  34.251  1.00  0.00     0.058 A 
ATOM     62  C   UNL A   1      42.424  27.605  33.710  1.00  0.00     0.135 A 
ATOM     63  C   UNL A   1      42.270  28.959  35.665  1.00  0.00     0.135 A 
ATOM     64  F   UNL A   1      42.481  27.424  32.381  1.00  0.00    -0.206 F 
ATOM     65  C   UNL A   1      42.383  26.455  34.503  1.00  0.00     0.059 A 
ATOM     66  C   UNL A   1      42.273  27.829  36.476  1.00  0.00     0.059 A 
ATOM     67  F   UNL A   1      42.106  30.102  36.338  1.00  0.00    -0.206 F 
ATOM     68  C   UNL A   1      42.306  26.578  35.886  1.00  0.00     0.060 A 
BRANCH  68  69
ATOM     69  S   UNL A   1      42.247  25.094  36.905  1.00  0.00     0.124 S 
ATOM     70  O   UNL A   1      43.310  25.352  37.869  1.00  0.00    -0.237 OA
ATOM     71  O   UNL A   1      40.884  25.146  37.423  1.00  0.00    -0.237 OA
ATOM     72  O   UNL A   1      42.507  24.019  35.951  1.00  0.00    -0.744 OA
ENDBRANCH  68  69
ENDBRANCH  47  61
BRANCH  48  73
ATOM     73  C   UNL A   1      43.448  25.632  26.150  1.00  0.00     0.058 A 
ATOM     74  C   UNL A   1      44.478  25.330  25.220  1.00  0.00     0.135 A 
ATOM     75  C   UNL A   1      42.762  24.513  26.653  1.00  0.00     0.135 A 
ATOM     76  F   UNL A   1      45.230  26.316  24.704  1.00  0.00    -0.206 F 
ATOM     77  C   UNL A   1      44.812  24.010  24.840  1.00  0.00     0.059 A 
ATOM     78  C   UNL A   1      43.081  23.193  26.297  1.00  0.00     0.059 A 
ATOM     79  F   UNL A   1      41.815  24.671  27.588  1.00  0.00    -0.206 F 
ATOM     80  C   UNL A   1      44.115  22.941  25.401  1.00  0.00     0.060 A 
BRANCH  80  81
ATOM     81  S   UNL A   1      44.611  21.225  25.048  1.00  0.00     0.124 S 
ATOM     82  O   UNL A   1      44.566  21.184  23.590  1.00  0.00    -0.237 OA
ATOM     83  O   UNL A   1      45.941  21.150  25.643  1.00  0.00    -0.237 OA
ATOM     84  O   UNL A   1      43.587  20.432  25.721  1.00  0.00    -0.744 OA
ENDBRANCH  80  81
ENDBRANCH  48  73
BRANCH  60  85
ATOM     85  C   UNL A   1      45.056  31.265  28.384  1.00  0.00     0.058 A 
ATOM     86  C   UNL A   1      44.204  31.646  27.329  1.00  0.00     0.135 A 
ATOM     87  C   UNL A   1      46.270  31.954  28.502  1.00  0.00     0.135 A 
ATOM     88  F   UNL A   1      42.986  31.101  27.199  1.00  0.00    -0.206 F 
ATOM     89  C   UNL A   1      44.562  32.647  26.417  1.00  0.00     0.059 A 
ATOM     90  C   UNL A   1      46.633  32.970  27.626  1.00  0.00     0.059 A 
ATOM     91  F   UNL A   1      47.096  31.680  29.524  1.00  0.00    -0.206 F 
ATOM     92  C   UNL A   1      45.782  33.304  26.576  1.00  0.00     0.060 A 
BRANCH  92  93
ATOM     93  S   UNL A   1      46.236  34.639  25.444  1.00  0.00     0.124 S 
ATOM     94  O   UNL A   1      47.658  34.391  25.228  1.00  0.00    -0.237 OA
ATOM     95  O   UNL A   1      45.369  34.392  24.296  1.00  0.00    -0.237 OA
ATOM     96  O   UNL A   1      45.923  35.850  26.200  1.00  0.00    -0.744 OA
ENDBRANCH  92  93
ENDBRANCH  60  85
ENDBRANCH  34  35
ENDBRANCH  27  29
ENDBRANCH  26  27
ENDBRANCH  25  26
ENDBRANCH   1  25
TORSDOF 19
ENDMDL
MODEL 2
REMARK VINA RESULT:     -11.4      2.813      9.173
REMARK SMILES COCCn1cc(NC(=O)N[C@H]2C=C[C@H](C(=O)OCCOC(=O)c3ccc(-c4c5nc(c(-c6c(F)cc(S(=O)(=O)[O-])cc6F)c6ccc([nH]6)c(-c6c(F)cc(S(=O)(=O)[O-])cc6F)c6nc(c(-c7c(F)cc(S(=O)(=O)[O-])cc7F)c7ccc4[nH]7)C=C6)C=C5)cc3)C2)cn1
REMARK SMILES IDX 19 1 18 2 16 3 17 4 15 5 12 6 13 7 90 8 14 9 11 10 8 11 9 12
REMARK SMILES IDX 10 14 7 16 5 17 6 18 92 19 91 20 4 21 3 22 2 23 1 24 20 25
REMARK SMILES IDX 21 26 22 27 23 28 24 29 25 30 89 31 26 32 88 33 27 34 28 35
REMARK SMILES IDX 29 36 82 37 30 38 87 39 81 40 83 41 31 42 86 43 80 44 79 45
REMARK SMILES IDX 32 47 66 48 45 49 65 50 46 51 49 52 64 53 84 54 47 55 48 56
REMARK SMILES IDX 63 58 85 59 50 60 33 61 34 62 43 63 35 64 36 65 42 66 44 67
REMARK SMILES IDX 37 68 38 69 39 70 40 71 41 72 67 73 68 74 77 75 69 76 70 77
REMARK SMILES IDX 76 78 78 79 71 80 72 81 73 82 74 83 75 84 51 85 52 86 61 87
REMARK SMILES IDX 53 88 54 89 60 90 62 91 55 92 56 93 57 94 58 95 59 96
REMARK H PARENT 8 13 11 15 83 46 49 57
REMARK Flexibility Score: inf
ROOT
ATOM      1  C   UNL A   1      36.689  21.038  25.066  1.00  0.00     0.274 C 
ENDROOT
BRANCH   1   2
ATOM      2  O   UNL A   1      35.753  22.010  25.597  1.00  0.00    -0.462 OA
BRANCH   2   3
ATOM      3  C   UNL A   1      34.409  21.782  25.417  1.00  0.00     0.312 C 
ATOM      4  O   UNL A   1      33.608  21.613  26.328  1.00  0.00    -0.252 OA
BRANCH   3   5
ATOM      5  C   UNL A   1      34.067  21.723  23.911  1.00  0.00     0.124 C 
ATOM      6  C   UNL A   1      33.148  23.723  22.728  1.00  0.00     0.107 C 
ATOM      7  C   UNL A   1      32.127  22.635  22.895  1.00  0.00    -0.006 C 
ATOM      8  C   UNL A   1      34.418  22.984  23.122  1.00  0.00     0.048 C 
ATOM      9  C   UNL A   1      32.611  21.583  23.576  1.00  0.00    -0.014 C 
BRANCH   6  10
ATOM     10  N   UNL A   1      32.995  24.382  21.423  1.00  0.00    -0.332 N 
ATOM     11  N   UNL A   1      32.372  26.692  21.524  1.00  0.00    -0.305 N 
ATOM     12  C   UNL A   1      32.700  25.569  20.851  1.00  0.00     0.319 C 
ATOM     13  H   UNL A   1      32.747  27.535  21.179  1.00  0.00     0.171 HD
ATOM     14  O   UNL A   1      32.825  25.635  19.624  1.00  0.00    -0.248 OA
ATOM     15  H   UNL A   1      33.170  23.723  20.712  1.00  0.00     0.165 HD
BRANCH  11  16
ATOM     16  C   UNL A   1      31.577  26.785  22.633  1.00  0.00     0.081 A 
ATOM     17  N   UNL A   1      30.629  26.351  24.546  1.00  0.00    -0.268 N 
ATOM     18  C   UNL A   1      31.843  26.309  23.902  1.00  0.00     0.135 A 
ATOM     19  N   UNL A   1      29.732  27.072  23.863  1.00  0.00    -0.179 NA
ATOM     20  C   UNL A   1      30.315  27.365  22.715  1.00  0.00     0.161 A 
BRANCH  17  21
ATOM     21  C   UNL A   1      30.180  25.587  25.700  1.00  0.00     0.172 C 
BRANCH  21  22
ATOM     22  C   UNL A   1      31.095  24.430  26.116  1.00  0.00     0.183 C 
BRANCH  22  23
ATOM     23  O   UNL A   1      30.753  23.740  27.317  1.00  0.00    -0.383 OA
ATOM     24  C   UNL A   1      29.637  22.873  27.163  1.00  0.00     0.194 C 
ENDBRANCH  22  23
ENDBRANCH  21  22
ENDBRANCH  17  21
ENDBRANCH  11  16
ENDBRANCH   6  10
ENDBRANCH   3   5
ENDBRANCH   2   3
ENDBRANCH   1   2
BRANCH   1  25
ATOM     25  C   UNL A   1      38.151  21.254  25.473  1.00  0.00     0.275 C 
BRANCH  25  26
ATOM     26  O   UNL A   1      38.481  22.628  25.695  1.00  0.00    -0.458 OA
BRANCH  26  27
ATOM     27  C   UNL A   1      39.739  22.758  26.149  1.00  0.00     0.338 C 
ATOM     28  O   UNL A   1      40.657  21.986  25.870  1.00  0.00    -0.246 OA
BRANCH  27  29
ATOM     29  C   UNL A   1      39.856  23.721  27.236  1.00  0.00     0.060 A 
ATOM     30  C   UNL A   1      38.968  24.798  27.281  1.00  0.00     0.016 A 
ATOM     31  C   UNL A   1      41.035  23.733  27.977  1.00  0.00     0.016 A 
ATOM     32  C   UNL A   1      39.418  25.998  27.811  1.00  0.00     0.010 A 
ATOM     33  C   UNL A   1      41.384  24.873  28.660  1.00  0.00     0.010 A 
ATOM     34  C   UNL A   1      40.691  26.052  28.413  1.00  0.00    -0.014 A 
BRANCH  34  35
ATOM     35  C   UNL A   1      41.160  27.256  29.108  1.00  0.00     0.031 A 
ATOM     36  C   UNL A   1      42.401  27.708  28.410  1.00  0.00     0.074 A 
ATOM     37  C   UNL A   1      40.463  27.913  30.083  1.00  0.00     0.049 A 
ATOM     38  N   UNL A   1      43.607  27.668  28.872  1.00  0.00    -0.248 NA
ATOM     39  C   UNL A   1      42.362  27.890  26.938  1.00  0.00     0.031 C 
ATOM     40  C   UNL A   1      39.189  27.541  30.725  1.00  0.00     0.029 A 
ATOM     41  N   UNL A   1      40.724  29.123  30.697  1.00  0.00    -0.354 N 
ATOM     42  C   UNL A   1      44.409  28.164  27.847  1.00  0.00     0.074 A 
ATOM     43  C   UNL A   1      43.657  28.012  26.639  1.00  0.00     0.031 C 
ATOM     44  C   UNL A   1      38.674  28.587  31.421  1.00  0.00     0.029 A 
ATOM     45  C   UNL A   1      39.620  29.685  31.403  1.00  0.00     0.049 A 
ATOM     46  H   UNL A   1      41.603  29.563  30.652  1.00  0.00     0.167 HD
ATOM     47  C   UNL A   1      45.437  29.002  28.153  1.00  0.00     0.037 A 
ATOM     48  C   UNL A   1      39.546  30.931  31.979  1.00  0.00     0.037 A 
ATOM     49  C   UNL A   1      45.773  28.858  29.550  1.00  0.00     0.049 A 
ATOM     50  C   UNL A   1      40.952  31.354  32.165  1.00  0.00     0.074 A 
ATOM     51  C   UNL A   1      46.316  27.867  30.339  1.00  0.00     0.029 A 
ATOM     52  N   UNL A   1      45.042  29.673  30.374  1.00  0.00    -0.354 N 
ATOM     53  N   UNL A   1      41.768  30.744  32.980  1.00  0.00    -0.248 NA
ATOM     54  C   UNL A   1      41.562  32.069  31.060  1.00  0.00     0.031 C 
ATOM     55  C   UNL A   1      45.637  27.959  31.593  1.00  0.00     0.029 A 
ATOM     56  C   UNL A   1      44.800  29.074  31.578  1.00  0.00     0.049 A 
ATOM     57  H   UNL A   1      44.731  30.575  30.130  1.00  0.00     0.167 HD
ATOM     58  C   UNL A   1      42.938  30.605  32.249  1.00  0.00     0.074 A 
ATOM     59  C   UNL A   1      42.774  31.511  31.104  1.00  0.00     0.031 C 
ATOM     60  C   UNL A   1      43.768  29.541  32.477  1.00  0.00     0.037 A 
BRANCH  47  61
ATOM     61  C   UNL A   1      45.718  30.288  27.391  1.00  0.00     0.058 A 
ATOM     62  C   UNL A   1      47.059  30.650  27.150  1.00  0.00     0.135 A 
ATOM     63  C   UNL A   1      44.770  31.311  27.143  1.00  0.00     0.135 A 
ATOM     64  F   UNL A   1      48.051  29.771  27.369  1.00  0.00    -0.206 F 
ATOM     65  C   UNL A   1      47.432  31.932  26.740  1.00  0.00     0.059 A 
ATOM     66  C   UNL A   1      45.115  32.581  26.692  1.00  0.00     0.059 A 
ATOM     67  F   UNL A   1      43.466  31.168  27.400  1.00  0.00    -0.206 F 
ATOM     68  C   UNL A   1      46.451  32.892  26.515  1.00  0.00     0.060 A 
BRANCH  68  69
ATOM     69  S   UNL A   1      46.934  34.546  25.992  1.00  0.00     0.124 S 
ATOM     70  O   UNL A   1      48.094  34.268  25.154  1.00  0.00    -0.237 OA
ATOM     71  O   UNL A   1      45.733  34.999  25.296  1.00  0.00    -0.237 OA
ATOM     72  O   UNL A   1      47.215  35.230  27.252  1.00  0.00    -0.744 OA
ENDBRANCH  68  69
ENDBRANCH  47  61
BRANCH  48  73
ATOM     73  C   UNL A   1      38.434  31.949  32.053  1.00  0.00     0.058 A 
ATOM     74  C   UNL A   1      38.019  32.743  30.951  1.00  0.00     0.135 A 
ATOM     75  C   UNL A   1      37.530  31.915  33.128  1.00  0.00     0.135 A 
ATOM     76  F   UNL A   1      38.782  32.818  29.849  1.00  0.00    -0.206 F 
ATOM     77  C   UNL A   1      36.783  33.430  30.918  1.00  0.00     0.059 A 
ATOM     78  C   UNL A   1      36.294  32.581  33.114  1.00  0.00     0.059 A 
ATOM     79  F   UNL A   1      37.785  31.144  34.195  1.00  0.00    -0.206 F 
ATOM     80  C   UNL A   1      35.916  33.327  32.003  1.00  0.00     0.060 A 
BRANCH  80  81
ATOM     81  S   UNL A   1      34.258  34.078  31.937  1.00  0.00     0.124 S 
ATOM     82  O   UNL A   1      33.850  33.809  30.562  1.00  0.00    -0.237 OA
ATOM     83  O   UNL A   1      33.534  33.343  32.969  1.00  0.00    -0.237 OA
ATOM     84  O   UNL A   1      34.511  35.484  32.243  1.00  0.00    -0.744 OA
ENDBRANCH  80  81
ENDBRANCH  48  73
BRANCH  60  85
ATOM     85  C   UNL A   1      43.543  28.726  33.729  1.00  0.00     0.058 A 
ATOM     86  C   UNL A   1      43.886  29.118  35.037  1.00  0.00     0.135 A 
ATOM     87  C   UNL A   1      42.804  27.544  33.591  1.00  0.00     0.135 A 
ATOM     88  F   UNL A   1      44.513  30.280  35.265  1.00  0.00    -0.206 F 
ATOM     89  C   UNL A   1      43.533  28.348  36.154  1.00  0.00     0.059 A 
ATOM     90  C   UNL A   1      42.418  26.780  34.687  1.00  0.00     0.059 A 
ATOM     91  F   UNL A   1      42.393  27.152  32.375  1.00  0.00    -0.206 F 
ATOM     92  C   UNL A   1      42.797  27.179  35.966  1.00  0.00     0.060 A 
BRANCH  92  93
ATOM     93  S   UNL A   1      42.282  26.203  37.398  1.00  0.00     0.124 S 
ATOM     94  O   UNL A   1      40.920  26.677  37.623  1.00  0.00    -0.237 OA
ATOM     95  O   UNL A   1      42.401  24.832  36.909  1.00  0.00    -0.237 OA
ATOM     96  O   UNL A   1      43.249  26.573  38.429  1.00  0.00    -0.744 OA
ENDBRANCH  92  93
ENDBRANCH  60  85
ENDBRANCH  34  35
ENDBRANCH  27  29
ENDBRANCH  26  27
ENDBRANCH  25  26
ENDBRANCH   1  25
TORSDOF 19
ENDMDL
MODEL 3
REMARK VINA RESULT:     -11.4      1.395      2.542
REMARK SMILES COCCn1cc(NC(=O)N[C@H]2C=C[C@H](C(=O)OCCOC(=O)c3ccc(-c4c5nc(c(-c6c(F)cc(S(=O)(=O)[O-])cc6F)c6ccc([nH]6)c(-c6c(F)cc(S(=O)(=O)[O-])cc6F)c6nc(c(-c7c(F)cc(S(=O)(=O)[O-])cc7F)c7ccc4[nH]7)C=C6)C=C5)cc3)C2)cn1
REMARK SMILES IDX 19 1 18 2 16 3 17 4 15 5 12 6 13 7 90 8 14 9 11 10 8 11 9 12
REMARK SMILES IDX 10 14 7 16 5 17 6 18 92 19 91 20 4 21 3 22 2 23 1 24 20 25
REMARK SMILES IDX 21 26 22 27 23 28 24 29 25 30 89 31 26 32 88 33 27 34 28 35
REMARK SMILES IDX 29 36 82 37 30 38 87 39 81 40 83 41 31 42 86 43 80 44 79 45
REMARK SMILES IDX 32 47 66 48 45 49 65 50 46 51 49 52 64 53 84 54 47 55 48 56
REMARK SMILES IDX 63 58 85 59 50 60 33 61 34 62 43 63 35 64 36 65 42 66 44 67
REMARK SMILES IDX 37 68 38 69 39 70 40 71 41 72 67 73 68 74 77 75 69 76 70 77
REMARK SMILES IDX 76 78 78 79 71 80 72 81 73 82 74 83 75 84 51 85 52 86 61 87
REMARK SMILES IDX 53 88 54 89 60 90 62 91 55 92 56 93 57 94 58 95 59 96
REMARK H PARENT 8 13 11 15 83 46 49 57
REMARK Flexibility Score: inf
ROOT
ATOM      1  C   UNL A   1      33.391  29.649  25.824  1.00  0.00     0.274 C 
ENDROOT
BRANCH   1   2
ATOM      2  O   UNL A   1      32.332  29.650  24.833  1.00  0.00    -0.462 OA
BRANCH   2   3
ATOM      3  C   UNL A   1      32.078  28.482  24.154  1.00  0.00     0.312 C 
ATOM      4  O   UNL A   1      32.762  28.054  23.233  1.00  0.00    -0.252 OA
BRANCH   3   5
ATOM      5  C   UNL A   1      30.788  27.817  24.685  1.00  0.00     0.124 C 
ATOM      6  C   UNL A   1      30.804  25.452  25.490  1.00  0.00     0.107 C 
ATOM      7  C   UNL A   1      30.063  25.613  24.195  1.00  0.00    -0.006 C 
ATOM      8  C   UNL A   1      30.986  26.906  25.896  1.00  0.00     0.048 C 
ATOM      9  C   UNL A   1      30.100  26.876  23.740  1.00  0.00    -0.014 C 
BRANCH   6  10
ATOM     10  N   UNL A   1      30.132  24.472  26.355  1.00  0.00    -0.332 N 
ATOM     11  N   UNL A   1      31.412  22.508  26.844  1.00  0.00    -0.305 N 
ATOM     12  C   UNL A   1      30.307  23.276  26.955  1.00  0.00     0.319 C 
ATOM     13  H   UNL A   1      31.716  22.056  27.664  1.00  0.00     0.171 HD
ATOM     14  O   UNL A   1      29.413  22.910  27.726  1.00  0.00    -0.248 OA
ATOM     15  H   UNL A   1      29.233  24.807  26.575  1.00  0.00     0.165 HD
BRANCH  11  16
ATOM     16  C   UNL A   1      32.155  22.292  25.716  1.00  0.00     0.081 A 
ATOM     17  N   UNL A   1      33.744  22.396  24.229  1.00  0.00    -0.268 N 
ATOM     18  C   UNL A   1      33.529  22.361  25.587  1.00  0.00     0.135 A 
ATOM     19  N   UNL A   1      32.642  22.071  23.545  1.00  0.00    -0.179 NA
ATOM     20  C   UNL A   1      31.682  21.975  24.447  1.00  0.00     0.161 A 
BRANCH  17  21
ATOM     21  C   UNL A   1      34.894  22.910  23.500  1.00  0.00     0.172 C 
BRANCH  21  22
ATOM     22  C   UNL A   1      36.002  23.517  24.368  1.00  0.00     0.183 C 
BRANCH  22  23
ATOM     23  O   UNL A   1      37.278  22.879  24.321  1.00  0.00    -0.383 OA
ATOM     24  C   UNL A   1      37.652  22.289  25.559  1.00  0.00     0.194 C 
ENDBRANCH  22  23
ENDBRANCH  21  22
ENDBRANCH  17  21
ENDBRANCH  11  16
ENDBRANCH   6  10
ENDBRANCH   3   5
ENDBRANCH   2   3
ENDBRANCH   1   2
BRANCH   1  25
ATOM     25  C   UNL A   1      33.293  30.757  26.880  1.00  0.00     0.275 C 
BRANCH  25  26
ATOM     26  O   UNL A   1      34.076  30.499  28.048  1.00  0.00    -0.458 OA
BRANCH  26  27
ATOM     27  C   UNL A   1      35.110  31.353  28.139  1.00  0.00     0.338 C 
ATOM     28  O   UNL A   1      35.181  32.418  27.525  1.00  0.00    -0.246 OA
BRANCH  27  29
ATOM     29  C   UNL A   1      36.272  30.773  28.798  1.00  0.00     0.060 A 
ATOM     30  C   UNL A   1      37.186  31.623  29.425  1.00  0.00     0.016 A 
ATOM     31  C   UNL A   1      36.611  29.457  28.492  1.00  0.00     0.016 A 
ATOM     32  C   UNL A   1      38.522  31.248  29.447  1.00  0.00     0.010 A 
ATOM     33  C   UNL A   1      37.902  29.034  28.696  1.00  0.00     0.010 A 
ATOM     34  C   UNL A   1      38.888  29.972  28.975  1.00  0.00    -0.014 A 
BRANCH  34  35
ATOM     35  C   UNL A   1      40.263  29.473  29.101  1.00  0.00     0.031 A 
ATOM     36  C   UNL A   1      40.572  29.409  30.561  1.00  0.00     0.074 A 
ATOM     37  C   UNL A   1      41.014  28.994  28.066  1.00  0.00     0.049 A 
ATOM     38  N   UNL A   1      41.395  30.163  31.212  1.00  0.00    -0.248 NA
ATOM     39  C   UNL A   1      39.631  28.691  31.455  1.00  0.00     0.031 C 
ATOM     40  C   UNL A   1      40.697  28.958  26.626  1.00  0.00     0.029 A 
ATOM     41  N   UNL A   1      42.246  28.366  28.080  1.00  0.00    -0.354 N 
ATOM     42  C   UNL A   1      41.310  29.740  32.537  1.00  0.00     0.074 A 
ATOM     43  C   UNL A   1      40.053  29.067  32.664  1.00  0.00     0.031 C 
ATOM     44  C   UNL A   1      41.556  28.141  25.961  1.00  0.00     0.029 A 
ATOM     45  C   UNL A   1      42.579  27.678  26.878  1.00  0.00     0.049 A 
ATOM     46  H   UNL A   1      42.846  28.393  28.860  1.00  0.00     0.167 HD
ATOM     47  C   UNL A   1      42.446  29.645  33.279  1.00  0.00     0.037 A 
ATOM     48  C   UNL A   1      43.659  26.854  26.660  1.00  0.00     0.037 A 
ATOM     49  C   UNL A   1      43.486  30.440  32.667  1.00  0.00     0.049 A 
ATOM     50  C   UNL A   1      44.640  27.221  27.705  1.00  0.00     0.074 A 
ATOM     51  C   UNL A   1      43.708  31.785  32.457  1.00  0.00     0.029 A 
ATOM     52  N   UNL A   1      44.208  29.760  31.722  1.00  0.00    -0.354 N 
ATOM     53  N   UNL A   1      45.216  28.391  27.751  1.00  0.00    -0.248 NA
ATOM     54  C   UNL A   1      44.541  26.504  28.963  1.00  0.00     0.031 C 
ATOM     55  C   UNL A   1      44.340  31.874  31.179  1.00  0.00     0.029 A 
ATOM     56  C   UNL A   1      44.602  30.588  30.709  1.00  0.00     0.049 A 
ATOM     57  H   UNL A   1      44.416  28.800  31.766  1.00  0.00     0.167 HD
ATOM     58  C   UNL A   1      45.134  28.759  29.085  1.00  0.00     0.074 A 
ATOM     59  C   UNL A   1      44.779  27.522  29.795  1.00  0.00     0.031 C 
ATOM     60  C   UNL A   1      45.047  30.080  29.429  1.00  0.00     0.037 A 
BRANCH  47  61
ATOM     61  C   UNL A   1      42.770  28.448  34.159  1.00  0.00     0.058 A 
ATOM     62  C   UNL A   1      43.045  28.668  35.524  1.00  0.00     0.135 A 
ATOM     63  C   UNL A   1      43.101  27.154  33.684  1.00  0.00     0.135 A 
ATOM     64  F   UNL A   1      42.793  29.862  36.084  1.00  0.00    -0.206 F 
ATOM     65  C   UNL A   1      43.640  27.702  36.338  1.00  0.00     0.059 A 
ATOM     66  C   UNL A   1      43.654  26.162  34.488  1.00  0.00     0.059 A 
ATOM     67  F   UNL A   1      42.986  26.803  32.400  1.00  0.00    -0.206 F 
ATOM     68  C   UNL A   1      43.942  26.451  35.809  1.00  0.00     0.060 A 
BRANCH  68  69
ATOM     69  S   UNL A   1      44.715  25.209  36.860  1.00  0.00     0.124 S 
ATOM     70  O   UNL A   1      43.997  25.391  38.115  1.00  0.00    -0.237 OA
ATOM     71  O   UNL A   1      44.424  23.980  36.127  1.00  0.00    -0.237 OA
ATOM     72  O   UNL A   1      46.120  25.605  36.873  1.00  0.00    -0.744 OA
ENDBRANCH  68  69
ENDBRANCH  47  61
BRANCH  48  73
ATOM     73  C   UNL A   1      43.808  25.555  25.906  1.00  0.00     0.058 A 
ATOM     74  C   UNL A   1      44.996  25.166  25.233  1.00  0.00     0.135 A 
ATOM     75  C   UNL A   1      42.887  24.515  26.125  1.00  0.00     0.135 A 
ATOM     76  F   UNL A   1      45.967  26.066  25.006  1.00  0.00    -0.206 F 
ATOM     77  C   UNL A   1      45.255  23.836  24.831  1.00  0.00     0.059 A 
ATOM     78  C   UNL A   1      43.126  23.186  25.742  1.00  0.00     0.059 A 
ATOM     79  F   UNL A   1      41.760  24.750  26.810  1.00  0.00    -0.206 F 
ATOM     80  C   UNL A   1      44.316  22.844  25.108  1.00  0.00     0.060 A 
BRANCH  80  81
ATOM     81  S   UNL A   1      44.677  21.098  24.736  1.00  0.00     0.124 S 
ATOM     82  O   UNL A   1      45.991  20.917  25.343  1.00  0.00    -0.237 OA
ATOM     83  O   UNL A   1      43.575  20.400  25.389  1.00  0.00    -0.237 OA
ATOM     84  O   UNL A   1      44.658  21.053  23.276  1.00  0.00    -0.744 OA
ENDBRANCH  80  81
ENDBRANCH  48  73
BRANCH  60  85
ATOM     85  C   UNL A   1      45.359  31.108  28.367  1.00  0.00     0.058 A 
ATOM     86  C   UNL A   1      44.457  31.590  27.399  1.00  0.00     0.135 A 
ATOM     87  C   UNL A   1      46.608  31.738  28.442  1.00  0.00     0.135 A 
ATOM     88  F   UNL A   1      43.210  31.105  27.320  1.00  0.00    -0.206 F 
ATOM     89  C   UNL A   1      44.798  32.632  26.526  1.00  0.00     0.059 A 
ATOM     90  C   UNL A   1      46.958  32.793  27.605  1.00  0.00     0.059 A 
ATOM     91  F   UNL A   1      47.488  31.367  29.386  1.00  0.00    -0.206 F 
ATOM     92  C   UNL A   1      46.054  33.228  26.640  1.00  0.00     0.060 A 
BRANCH  92  93
ATOM     93  S   UNL A   1      46.492  34.612  25.562  1.00  0.00     0.124 S 
ATOM     94  O   UNL A   1      45.504  34.496  24.494  1.00  0.00    -0.237 OA
ATOM     95  O   UNL A   1      46.336  35.764  26.445  1.00  0.00    -0.237 OA
ATOM     96  O   UNL A   1      47.869  34.319  25.172  1.00  0.00    -0.744 OA
ENDBRANCH  92  93
ENDBRANCH  60  85
ENDBRANCH  34  35
ENDBRANCH  27  29
ENDBRANCH  26  27
ENDBRANCH  25  26
ENDBRANCH   1  25
TORSDOF 19
ENDMDL
