MODEL 1
REMARK VINA RESULT:     -12.0      0.000      0.000
REMARK SMILES COc1ccc(C2=NN(C(=O)CCC(=O)OCCOC(=O)c3ccc(-c4c5nc(c(-c6c(F)cc(S(=O)(=O)[O-])cc6F)c6ccc([nH]6)c(-c6c(F)cc(S(=O)(=O)[O-])cc6F)c6nc(c(-c7c(F)cc(S(=O)(=O)[O-])cc7F)c7ccc4[nH]7)C=C6)C=C5)cc3)[C@H](c3ccc(Cl)cc3Cl)C2)cc1
REMARK SMILES IDX 17 1 16 2 14 3 15 4 13 5 12 6 10 7 11 8 9 9 7 10 8 11 97 12
REMARK SMILES IDX 88 13 6 14 3 15 4 16 99 17 5 18 98 19 2 20 1 21 89 22 90 23
REMARK SMILES IDX 95 24 91 25 94 26 96 27 92 28 93 29 18 30 19 31 20 32 21 33
REMARK SMILES IDX 22 34 23 35 87 36 24 37 86 38 25 39 26 40 27 41 80 42 28 43
REMARK SMILES IDX 85 44 79 45 81 46 29 47 84 48 78 49 77 50 30 52 64 53 43 54
REMARK SMILES IDX 63 55 44 56 47 57 62 58 82 59 45 60 46 61 61 63 83 64 48 65
REMARK SMILES IDX 31 66 32 67 41 68 33 69 34 70 40 71 42 72 35 73 36 74 37 75
REMARK SMILES IDX 38 76 39 77 65 78 66 79 75 80 67 81 68 82 74 83 76 84 69 85
REMARK SMILES IDX 70 86 71 87 72 88 73 89 49 90 50 91 59 92 51 93 52 94 58 95
REMARK SMILES IDX 60 96 53 97 54 98 55 99 56 100 57 101
REMARK H PARENT 81 51 47 62
REMARK Flexibility Score: inf
ROOT
ATOM      1  C   UNL A   1      35.108  30.990  27.624  1.00  0.00     0.274 C 
ENDROOT
BRANCH   1   2
ATOM      2  O   UNL A   1      33.738  31.407  27.433  1.00  0.00    -0.462 OA
BRANCH   2   3
ATOM      3  C   UNL A   1      32.863  30.435  27.058  1.00  0.00     0.306 C 
ATOM      4  O   UNL A   1      31.714  30.642  26.690  1.00  0.00    -0.252 OA
BRANCH   3   5
ATOM      5  C   UNL A   1      33.444  29.050  27.207  1.00  0.00     0.132 C 
BRANCH   5   6
ATOM      6  C   UNL A   1      32.430  27.919  27.058  1.00  0.00     0.114 C 
BRANCH   6   7
ATOM      7  C   UNL A   1      32.881  26.906  26.019  1.00  0.00     0.243 C 
ATOM      8  O   UNL A   1      34.020  26.433  26.131  1.00  0.00    -0.273 OA
BRANCH   7   9
ATOM      9  N   UNL A   1      32.035  26.605  24.949  1.00  0.00    -0.225 N 
ATOM     10  C   UNL A   1      30.495  27.451  23.700  1.00  0.00     0.071 C 
ATOM     11  N   UNL A   1      31.670  27.703  24.171  1.00  0.00    -0.174 NA
ATOM     12  C   UNL A   1      29.955  26.091  23.947  1.00  0.00     0.091 C 
ATOM     13  C   UNL A   1      31.051  25.512  24.836  1.00  0.00     0.149 C 
BRANCH  10  14
ATOM     14  C   UNL A   1      29.658  28.406  22.983  1.00  0.00    -0.002 A 
ATOM     15  C   UNL A   1      28.128  30.395  21.817  1.00  0.00     0.118 A 
ATOM     16  C   UNL A   1      27.516  29.401  22.587  1.00  0.00     0.047 A 
ATOM     17  C   UNL A   1      29.513  30.404  21.642  1.00  0.00     0.047 A 
ATOM     18  C   UNL A   1      28.280  28.387  23.163  1.00  0.00     0.014 A 
ATOM     19  C   UNL A   1      30.285  29.402  22.226  1.00  0.00     0.014 A 
BRANCH  15  20
ATOM     20  O   UNL A   1      27.310  31.371  21.318  1.00  0.00    -0.497 OA
ATOM     21  C   UNL A   1      28.037  32.461  20.757  1.00  0.00     0.278 C 
ENDBRANCH  15  20
ENDBRANCH  10  14
BRANCH  13  22
ATOM     22  C   UNL A   1      31.409  24.075  24.431  1.00  0.00    -0.004 A 
ATOM     23  C   UNL A   1      31.073  23.070  25.386  1.00  0.00     0.009 A 
ATOM     24  C   UNL A   1      32.228  23.667  23.365  1.00  0.00     0.047 A 
ATOM     25  C   UNL A   1      31.590  21.775  25.334  1.00  0.00     0.021 A 
ATOM     26  C   UNL A   1      32.780  22.372  23.334  1.00  0.00     0.041 A 
ATOM     27  Cl  UNL A   1      32.616  24.666  22.016  1.00  0.00    -0.084 Cl
ATOM     28  C   UNL A   1      32.478  21.445  24.327  1.00  0.00     0.042 A 
ATOM     29  Cl  UNL A   1      33.219  19.893  24.323  1.00  0.00    -0.084 Cl
ENDBRANCH  13  22
ENDBRANCH   7   9
ENDBRANCH   6   7
ENDBRANCH   5   6
ENDBRANCH   3   5
ENDBRANCH   2   3
ENDBRANCH   1   2
BRANCH   1  30
ATOM     30  C   UNL A   1      35.559  31.034  29.090  1.00  0.00     0.275 C 
BRANCH  30  31
ATOM     31  O   UNL A   1      35.778  29.729  29.658  1.00  0.00    -0.458 OA
BRANCH  31  32
ATOM     32  C   UNL A   1      36.674  29.714  30.666  1.00  0.00     0.338 C 
ATOM     33  O   UNL A   1      36.425  29.726  31.854  1.00  0.00    -0.246 OA
BRANCH  32  34
ATOM     34  C   UNL A   1      38.052  29.610  30.227  1.00  0.00     0.060 A 
ATOM     35  C   UNL A   1      39.049  29.750  31.198  1.00  0.00     0.016 A 
ATOM     36  C   UNL A   1      38.350  29.527  28.869  1.00  0.00     0.016 A 
ATOM     37  C   UNL A   1      40.378  29.723  30.811  1.00  0.00     0.010 A 
ATOM     38  C   UNL A   1      39.684  29.487  28.484  1.00  0.00     0.010 A 
ATOM     39  C   UNL A   1      40.696  29.541  29.458  1.00  0.00    -0.014 A 
BRANCH  39  40
ATOM     40  C   UNL A   1      42.071  29.173  29.084  1.00  0.00     0.031 A 
ATOM     41  C   UNL A   1      43.162  30.188  29.042  1.00  0.00     0.074 A 
ATOM     42  C   UNL A   1      42.269  27.892  28.722  1.00  0.00     0.049 A 
ATOM     43  N   UNL A   1      44.397  30.039  28.644  1.00  0.00    -0.248 NA
ATOM     44  C   UNL A   1      42.829  31.547  29.497  1.00  0.00     0.031 C 
ATOM     45  C   UNL A   1      41.235  26.849  28.731  1.00  0.00     0.029 A 
ATOM     46  N   UNL A   1      43.383  27.250  28.260  1.00  0.00    -0.354 N 
ATOM     47  C   UNL A   1      44.994  31.283  28.791  1.00  0.00     0.074 A 
ATOM     48  C   UNL A   1      43.979  32.182  29.303  1.00  0.00     0.031 C 
ATOM     49  C   UNL A   1      41.762  25.701  28.286  1.00  0.00     0.029 A 
ATOM     50  C   UNL A   1      43.152  25.939  27.922  1.00  0.00     0.049 A 
ATOM     51  H   UNL A   1      44.263  27.684  28.177  1.00  0.00     0.167 HD
ATOM     52  C   UNL A   1      46.275  31.626  28.518  1.00  0.00     0.037 A 
ATOM     53  C   UNL A   1      43.967  25.036  27.350  1.00  0.00     0.037 A 
ATOM     54  C   UNL A   1      47.251  30.704  27.992  1.00  0.00     0.049 A 
ATOM     55  C   UNL A   1      45.368  25.454  27.028  1.00  0.00     0.074 A 
ATOM     56  C   UNL A   1      48.585  30.929  27.707  1.00  0.00     0.029 A 
ATOM     57  N   UNL A   1      46.989  29.380  27.660  1.00  0.00    -0.354 N 
ATOM     58  N   UNL A   1      45.936  26.625  27.209  1.00  0.00    -0.248 NA
ATOM     59  C   UNL A   1      46.240  24.442  26.424  1.00  0.00     0.031 C 
ATOM     60  C   UNL A   1      49.118  29.754  27.164  1.00  0.00     0.029 A 
ATOM     61  C   UNL A   1      48.129  28.783  27.147  1.00  0.00     0.049 A 
ATOM     62  H   UNL A   1      46.120  28.932  27.774  1.00  0.00     0.167 HD
ATOM     63  C   UNL A   1      47.234  26.491  26.744  1.00  0.00     0.074 A 
ATOM     64  C   UNL A   1      47.374  25.118  26.294  1.00  0.00     0.031 C 
ATOM     65  C   UNL A   1      48.223  27.417  26.690  1.00  0.00     0.037 A 
BRANCH  52  66
ATOM     66  C   UNL A   1      46.679  33.054  28.754  1.00  0.00     0.058 A 
ATOM     67  C   UNL A   1      47.065  33.512  30.023  1.00  0.00     0.135 A 
ATOM     68  C   UNL A   1      46.708  33.972  27.692  1.00  0.00     0.135 A 
ATOM     69  F   UNL A   1      47.041  32.681  31.077  1.00  0.00    -0.206 F 
ATOM     70  C   UNL A   1      47.444  34.835  30.237  1.00  0.00     0.059 A 
ATOM     71  C   UNL A   1      47.102  35.295  27.878  1.00  0.00     0.059 A 
ATOM     72  F   UNL A   1      46.346  33.589  26.458  1.00  0.00    -0.206 F 
ATOM     73  C   UNL A   1      47.455  35.720  29.158  1.00  0.00     0.060 A 
BRANCH  73  74
ATOM     74  S   UNL A   1      47.944  37.434  29.449  1.00  0.00     0.124 S 
ATOM     75  O   UNL A   1      46.776  37.956  30.149  1.00  0.00    -0.237 OA
ATOM     76  O   UNL A   1      49.151  37.284  30.256  1.00  0.00    -0.237 OA
ATOM     77  O   UNL A   1      48.157  37.960  28.104  1.00  0.00    -0.744 OA
ENDBRANCH  73  74
ENDBRANCH  52  66
BRANCH  53  78
ATOM     78  C   UNL A   1      43.455  23.677  27.049  1.00  0.00     0.058 A 
ATOM     79  C   UNL A   1      43.174  23.286  25.733  1.00  0.00     0.135 A 
ATOM     80  C   UNL A   1      43.307  22.718  28.064  1.00  0.00     0.135 A 
ATOM     81  F   UNL A   1      43.304  24.168  24.731  1.00  0.00    -0.206 F 
ATOM     82  C   UNL A   1      42.760  21.992  25.432  1.00  0.00     0.059 A 
ATOM     83  C   UNL A   1      42.916  21.413  27.785  1.00  0.00     0.059 A 
ATOM     84  F   UNL A   1      43.589  23.036  29.338  1.00  0.00    -0.206 F 
ATOM     85  C   UNL A   1      42.639  21.061  26.465  1.00  0.00     0.060 A 
BRANCH  85  86
ATOM     86  S   UNL A   1      42.169  19.365  26.057  1.00  0.00     0.124 S 
ATOM     87  O   UNL A   1      40.739  19.510  25.808  1.00  0.00    -0.237 OA
ATOM     88  O   UNL A   1      42.997  19.087  24.888  1.00  0.00    -0.237 OA
ATOM     89  O   UNL A   1      42.529  18.620  27.260  1.00  0.00    -0.744 OA
ENDBRANCH  85  86
ENDBRANCH  53  78
BRANCH  65  90
ATOM     90  C   UNL A   1      49.532  26.963  26.115  1.00  0.00     0.058 A 
ATOM     91  C   UNL A   1      50.515  26.371  26.921  1.00  0.00     0.135 A 
ATOM     92  C   UNL A   1      49.794  27.100  24.742  1.00  0.00     0.135 A 
ATOM     93  F   UNL A   1      50.313  26.233  28.241  1.00  0.00    -0.206 F 
ATOM     94  C   UNL A   1      51.727  25.948  26.390  1.00  0.00     0.059 A 
ATOM     95  C   UNL A   1      50.991  26.663  24.186  1.00  0.00     0.059 A 
ATOM     96  F   UNL A   1      48.880  27.657  23.932  1.00  0.00    -0.206 F 
ATOM     97  C   UNL A   1      51.955  26.099  25.020  1.00  0.00     0.060 A 
BRANCH  97  98
ATOM     98  S   UNL A   1      53.522  25.522  24.335  1.00  0.00     0.124 S 
ATOM     99  O   UNL A   1      53.515  24.117  24.730  1.00  0.00    -0.237 OA
ATOM    100  O   UNL A   1      53.355  25.780  22.907  1.00  0.00    -0.237 OA
ATOM    101  O   UNL A   1      54.512  26.360  25.004  1.00  0.00    -0.744 OA
ENDBRANCH  97  98
ENDBRANCH  65  90
ENDBRANCH  39  40
ENDBRANCH  32  34
ENDBRANCH  31  32
ENDBRANCH  30  31
ENDBRANCH   1  30
TORSDOF 20
ENDMDL
MODEL 2
REMARK VINA RESULT:     -11.7      6.386     11.903
REMARK SMILES COc1ccc(C2=NN(C(=O)CCC(=O)OCCOC(=O)c3ccc(-c4c5nc(c(-c6c(F)cc(S(=O)(=O)[O-])cc6F)c6ccc([nH]6)c(-c6c(F)cc(S(=O)(=O)[O-])cc6F)c6nc(c(-c7c(F)cc(S(=O)(=O)[O-])cc7F)c7ccc4[nH]7)C=C6)C=C5)cc3)[C@H](c3ccc(Cl)cc3Cl)C2)cc1
REMARK SMILES IDX 17 1 16 2 14 3 15 4 13 5 12 6 10 7 11 8 9 9 7 10 8 11 97 12
REMARK SMILES IDX 88 13 6 14 3 15 4 16 99 17 5 18 98 19 2 20 1 21 89 22 90 23
REMARK SMILES IDX 95 24 91 25 94 26 96 27 92 28 93 29 18 30 19 31 20 32 21 33
REMARK SMILES IDX 22 34 23 35 87 36 24 37 86 38 25 39 26 40 27 41 80 42 28 43
REMARK SMILES IDX 85 44 79 45 81 46 29 47 84 48 78 49 77 50 30 52 64 53 43 54
REMARK SMILES IDX 63 55 44 56 47 57 62 58 82 59 45 60 46 61 61 63 83 64 48 65
REMARK SMILES IDX 31 66 32 67 41 68 33 69 34 70 40 71 42 72 35 73 36 74 37 75
REMARK SMILES IDX 38 76 39 77 65 78 66 79 75 80 67 81 68 82 74 83 76 84 69 85
REMARK SMILES IDX 70 86 71 87 72 88 73 89 49 90 50 91 59 92 51 93 52 94 58 95
REMARK SMILES IDX 60 96 53 97 54 98 55 99 56 100 57 101
REMARK H PARENT 81 51 47 62
REMARK Flexibility Score: inf
ROOT
ATOM      1  C   UNL A   1      40.833  21.679  26.194  1.00  0.00     0.274 C 
ENDROOT
BRANCH   1   2
ATOM      2  O   UNL A   1      39.692  22.164  26.935  1.00  0.00    -0.462 OA
BRANCH   2   3
ATOM      3  C   UNL A   1      38.763  22.855  26.220  1.00  0.00     0.306 C 
ATOM      4  O   UNL A   1      38.725  24.076  26.132  1.00  0.00    -0.252 OA
BRANCH   3   5
ATOM      5  C   UNL A   1      37.734  21.950  25.589  1.00  0.00     0.132 C 
BRANCH   5   6
ATOM      6  C   UNL A   1      36.898  22.607  24.494  1.00  0.00     0.114 C 
BRANCH   6   7
ATOM      7  C   UNL A   1      35.572  23.111  25.038  1.00  0.00     0.243 C 
ATOM      8  O   UNL A   1      35.576  24.173  25.675  1.00  0.00    -0.273 OA
BRANCH   7   9
ATOM      9  N   UNL A   1      34.425  22.333  24.866  1.00  0.00    -0.225 N 
ATOM     10  C   UNL A   1      33.762  20.293  24.655  1.00  0.00     0.071 C 
ATOM     11  N   UNL A   1      34.516  21.043  25.388  1.00  0.00    -0.174 NA
ATOM     12  C   UNL A   1      32.925  20.976  23.639  1.00  0.00     0.091 C 
ATOM     13  C   UNL A   1      33.412  22.414  23.797  1.00  0.00     0.149 C 
BRANCH  10  14
ATOM     14  C   UNL A   1      33.703  18.838  24.733  1.00  0.00    -0.002 A 
ATOM     15  C   UNL A   1      33.667  16.100  25.137  1.00  0.00     0.118 A 
ATOM     16  C   UNL A   1      34.767  16.703  24.520  1.00  0.00     0.047 A 
ATOM     17  C   UNL A   1      32.586  16.871  25.569  1.00  0.00     0.047 A 
ATOM     18  C   UNL A   1      34.784  18.079  24.298  1.00  0.00     0.014 A 
ATOM     19  C   UNL A   1      32.601  18.249  25.364  1.00  0.00     0.014 A 
BRANCH  15  20
ATOM     20  O   UNL A   1      33.748  14.751  25.347  1.00  0.00    -0.497 OA
ATOM     21  C   UNL A   1      32.495  14.178  25.713  1.00  0.00     0.278 C 
ENDBRANCH  15  20
ENDBRANCH  10  14
BRANCH  13  22
ATOM     22  C   UNL A   1      32.245  23.410  23.795  1.00  0.00    -0.004 A 
ATOM     23  C   UNL A   1      32.216  24.316  22.693  1.00  0.00     0.009 A 
ATOM     24  C   UNL A   1      31.361  23.692  24.850  1.00  0.00     0.047 A 
ATOM     25  C   UNL A   1      31.431  25.469  22.681  1.00  0.00     0.021 A 
ATOM     26  C   UNL A   1      30.598  24.875  24.855  1.00  0.00     0.041 A 
ATOM     27  Cl  UNL A   1      31.108  22.646  26.195  1.00  0.00    -0.084 Cl
ATOM     28  C   UNL A   1      30.654  25.764  23.787  1.00  0.00     0.042 A 
ATOM     29  Cl  UNL A   1      29.779  27.243  23.838  1.00  0.00    -0.084 Cl
ENDBRANCH  13  22
ENDBRANCH   7   9
ENDBRANCH   6   7
ENDBRANCH   5   6
ENDBRANCH   3   5
ENDBRANCH   2   3
ENDBRANCH   1   2
BRANCH   1  30
ATOM     30  C   UNL A   1      41.874  22.766  25.897  1.00  0.00     0.275 C 
BRANCH  30  31
ATOM     31  O   UNL A   1      42.078  23.675  26.996  1.00  0.00    -0.458 OA
BRANCH  31  32
ATOM     32  C   UNL A   1      42.276  24.954  26.619  1.00  0.00     0.338 C 
ATOM     33  O   UNL A   1      42.667  25.336  25.535  1.00  0.00    -0.246 OA
BRANCH  32  34
ATOM     34  C   UNL A   1      41.910  25.928  27.629  1.00  0.00     0.060 A 
ATOM     35  C   UNL A   1      40.752  25.680  28.373  1.00  0.00     0.016 A 
ATOM     36  C   UNL A   1      42.611  27.127  27.732  1.00  0.00     0.016 A 
ATOM     37  C   UNL A   1      40.331  26.617  29.302  1.00  0.00     0.010 A 
ATOM     38  C   UNL A   1      42.196  28.059  28.674  1.00  0.00     0.010 A 
ATOM     39  C   UNL A   1      41.083  27.785  29.487  1.00  0.00    -0.014 A 
BRANCH  39  40
ATOM     40  C   UNL A   1      40.849  28.610  30.683  1.00  0.00     0.031 A 
ATOM     41  C   UNL A   1      39.804  29.674  30.701  1.00  0.00     0.074 A 
ATOM     42  C   UNL A   1      41.671  28.395  31.727  1.00  0.00     0.049 A 
ATOM     43  N   UNL A   1      39.543  30.542  31.641  1.00  0.00    -0.248 NA
ATOM     44  C   UNL A   1      38.946  29.787  29.512  1.00  0.00     0.031 C 
ATOM     45  C   UNL A   1      42.724  27.372  31.768  1.00  0.00     0.029 A 
ATOM     46  N   UNL A   1      41.771  29.022  32.938  1.00  0.00    -0.354 N 
ATOM     47  C   UNL A   1      38.493  31.313  31.161  1.00  0.00     0.074 A 
ATOM     48  C   UNL A   1      38.175  30.818  29.837  1.00  0.00     0.031 C 
ATOM     49  C   UNL A   1      43.369  27.450  32.939  1.00  0.00     0.029 A 
ATOM     50  C   UNL A   1      42.805  28.550  33.709  1.00  0.00     0.049 A 
ATOM     51  H   UNL A   1      41.163  29.740  33.227  1.00  0.00     0.167 HD
ATOM     52  C   UNL A   1      37.866  32.338  31.784  1.00  0.00     0.037 A 
ATOM     53  C   UNL A   1      43.266  28.982  34.895  1.00  0.00     0.037 A 
ATOM     54  C   UNL A   1      38.225  32.812  33.098  1.00  0.00     0.049 A 
ATOM     55  C   UNL A   1      42.573  30.139  35.544  1.00  0.00     0.074 A 
ATOM     56  C   UNL A   1      37.640  33.821  33.841  1.00  0.00     0.029 A 
ATOM     57  N   UNL A   1      39.277  32.314  33.857  1.00  0.00    -0.354 N 
ATOM     58  N   UNL A   1      41.554  30.837  35.099  1.00  0.00    -0.248 NA
ATOM     59  C   UNL A   1      43.085  30.573  36.846  1.00  0.00     0.031 C 
ATOM     60  C   UNL A   1      38.364  33.959  35.031  1.00  0.00     0.029 A 
ATOM     61  C   UNL A   1      39.376  33.012  35.049  1.00  0.00     0.049 A 
ATOM     62  H   UNL A   1      39.865  31.572  33.587  1.00  0.00     0.167 HD
ATOM     63  C   UNL A   1      41.299  31.794  36.069  1.00  0.00     0.074 A 
ATOM     64  C   UNL A   1      42.257  31.569  37.135  1.00  0.00     0.031 C 
ATOM     65  C   UNL A   1      40.359  32.772  36.079  1.00  0.00     0.037 A 
BRANCH  52  66
ATOM     66  C   UNL A   1      36.754  33.028  31.043  1.00  0.00     0.058 A 
ATOM     67  C   UNL A   1      37.011  33.913  29.985  1.00  0.00     0.135 A 
ATOM     68  C   UNL A   1      35.413  32.779  31.376  1.00  0.00     0.135 A 
ATOM     69  F   UNL A   1      38.275  34.198  29.633  1.00  0.00    -0.206 F 
ATOM     70  C   UNL A   1      35.978  34.545  29.297  1.00  0.00     0.059 A 
ATOM     71  C   UNL A   1      34.364  33.386  30.691  1.00  0.00     0.059 A 
ATOM     72  F   UNL A   1      35.111  31.944  32.383  1.00  0.00    -0.206 F 
ATOM     73  C   UNL A   1      34.658  34.278  29.661  1.00  0.00     0.060 A 
BRANCH  73  74
ATOM     74  S   UNL A   1      33.327  35.109  28.765  1.00  0.00     0.124 S 
ATOM     75  O   UNL A   1      32.793  34.018  27.957  1.00  0.00    -0.237 OA
ATOM     76  O   UNL A   1      32.465  35.575  29.846  1.00  0.00    -0.237 OA
ATOM     77  O   UNL A   1      34.020  36.159  28.024  1.00  0.00    -0.744 OA
ENDBRANCH  73  74
ENDBRANCH  52  66
BRANCH  53  78
ATOM     78  C   UNL A   1      44.440  28.313  35.509  1.00  0.00     0.058 A 
ATOM     79  C   UNL A   1      44.283  27.190  36.332  1.00  0.00     0.135 A 
ATOM     80  C   UNL A   1      45.747  28.740  35.224  1.00  0.00     0.135 A 
ATOM     81  F   UNL A   1      43.053  26.745  36.629  1.00  0.00    -0.206 F 
ATOM     82  C   UNL A   1      45.380  26.514  36.856  1.00  0.00     0.059 A 
ATOM     83  C   UNL A   1      46.860  28.068  35.717  1.00  0.00     0.059 A 
ATOM     84  F   UNL A   1      45.951  29.796  34.419  1.00  0.00    -0.206 F 
ATOM     85  C   UNL A   1      46.666  26.958  36.539  1.00  0.00     0.060 A 
BRANCH  85  86
ATOM     86  S   UNL A   1      48.085  26.033  37.165  1.00  0.00     0.124 S 
ATOM     87  O   UNL A   1      48.204  24.972  36.170  1.00  0.00    -0.237 OA
ATOM     88  O   UNL A   1      49.140  27.040  37.154  1.00  0.00    -0.237 OA
ATOM     89  O   UNL A   1      47.649  25.609  38.492  1.00  0.00    -0.744 OA
ENDBRANCH  85  86
ENDBRANCH  53  78
BRANCH  65  90
ATOM     90  C   UNL A   1      40.342  33.668  37.282  1.00  0.00     0.058 A 
ATOM     91  C   UNL A   1      41.179  34.791  37.364  1.00  0.00     0.135 A 
ATOM     92  C   UNL A   1      39.466  33.413  38.348  1.00  0.00     0.135 A 
ATOM     93  F   UNL A   1      42.042  35.065  36.374  1.00  0.00    -0.206 F 
ATOM     94  C   UNL A   1      41.163  35.623  38.477  1.00  0.00     0.059 A 
ATOM     95  C   UNL A   1      39.418  34.245  39.461  1.00  0.00     0.059 A 
ATOM     96  F   UNL A   1      38.645  32.352  38.310  1.00  0.00    -0.206 F 
ATOM     97  C   UNL A   1      40.279  35.341  39.520  1.00  0.00     0.060 A 
BRANCH  97  98
ATOM     98  S   UNL A   1      40.248  36.443  40.950  1.00  0.00     0.124 S 
ATOM     99  O   UNL A   1      40.663  35.543  42.022  1.00  0.00    -0.237 OA
ATOM    100  O   UNL A   1      41.214  37.471  40.575  1.00  0.00    -0.237 OA
ATOM    101  O   UNL A   1      38.858  36.887  41.003  1.00  0.00    -0.744 OA
ENDBRANCH  97  98
ENDBRANCH  65  90
ENDBRANCH  39  40
ENDBRANCH  32  34
ENDBRANCH  31  32
ENDBRANCH  30  31
ENDBRANCH   1  30
TORSDOF 20
ENDMDL
MODEL 3
REMARK VINA RESULT:     -11.6      2.253      8.218
REMARK SMILES COc1ccc(C2=NN(C(=O)CCC(=O)OCCOC(=O)c3ccc(-c4c5nc(c(-c6c(F)cc(S(=O)(=O)[O-])cc6F)c6ccc([nH]6)c(-c6c(F)cc(S(=O)(=O)[O-])cc6F)c6nc(c(-c7c(F)cc(S(=O)(=O)[O-])cc7F)c7ccc4[nH]7)C=C6)C=C5)cc3)[C@H](c3ccc(Cl)cc3Cl)C2)cc1
REMARK SMILES IDX 17 1 16 2 14 3 15 4 13 5 12 6 10 7 11 8 9 9 7 10 8 11 97 12
REMARK SMILES IDX 88 13 6 14 3 15 4 16 99 17 5 18 98 19 2 20 1 21 89 22 90 23
REMARK SMILES IDX 95 24 91 25 94 26 96 27 92 28 93 29 18 30 19 31 20 32 21 33
REMARK SMILES IDX 22 34 23 35 87 36 24 37 86 38 25 39 26 40 27 41 80 42 28 43
REMARK SMILES IDX 85 44 79 45 81 46 29 47 84 48 78 49 77 50 30 52 64 53 43 54
REMARK SMILES IDX 63 55 44 56 47 57 62 58 82 59 45 60 46 61 61 63 83 64 48 65
REMARK SMILES IDX 31 66 32 67 41 68 33 69 34 70 40 71 42 72 35 73 36 74 37 75
REMARK SMILES IDX 38 76 39 77 65 78 66 79 75 80 67 81 68 82 74 83 76 84 69 85
REMARK SMILES IDX 70 86 71 87 72 88 73 89 49 90 50 91 59 92 51 93 52 94 58 95
REMARK SMILES IDX 60 96 53 97 54 98 55 99 56 100 57 101
REMARK H PARENT 81 51 47 62
REMARK Flexibility Score: inf
ROOT
ATOM      1  C   UNL A   1      39.394  21.805  25.704  1.00  0.00     0.274 C 
ENDROOT
BRANCH   1   2
ATOM      2  O   UNL A   1      37.996  22.165  25.665  1.00  0.00    -0.462 OA
BRANCH   2   3
ATOM      3  C   UNL A   1      37.676  23.382  26.183  1.00  0.00     0.306 C 
ATOM      4  O   UNL A   1      38.484  24.166  26.661  1.00  0.00    -0.252 OA
BRANCH   3   5
ATOM      5  C   UNL A   1      36.189  23.641  26.162  1.00  0.00     0.132 C 
BRANCH   5   6
ATOM      6  C   UNL A   1      35.661  24.195  24.842  1.00  0.00     0.114 C 
BRANCH   6   7
ATOM      7  C   UNL A   1      34.411  25.034  25.056  1.00  0.00     0.243 C 
ATOM      8  O   UNL A   1      34.457  25.929  25.911  1.00  0.00    -0.273 OA
BRANCH   7   9
ATOM      9  N   UNL A   1      33.251  24.722  24.343  1.00  0.00    -0.225 N 
ATOM     10  C   UNL A   1      31.336  25.524  23.765  1.00  0.00     0.071 C 
ATOM     11  N   UNL A   1      32.591  25.824  23.799  1.00  0.00    -0.174 NA
ATOM     12  C   UNL A   1      30.972  24.131  24.121  1.00  0.00     0.091 C 
ATOM     13  C   UNL A   1      32.334  23.583  24.535  1.00  0.00     0.149 C 
BRANCH  10  14
ATOM     14  C   UNL A   1      30.263  26.456  23.438  1.00  0.00    -0.002 A 
ATOM     15  C   UNL A   1      28.318  28.379  23.016  1.00  0.00     0.118 A 
ATOM     16  C   UNL A   1      28.018  27.228  23.751  1.00  0.00     0.047 A 
ATOM     17  C   UNL A   1      29.601  28.577  22.503  1.00  0.00     0.047 A 
ATOM     18  C   UNL A   1      28.988  26.248  23.952  1.00  0.00     0.014 A 
ATOM     19  C   UNL A   1      30.581  27.609  22.711  1.00  0.00     0.014 A 
BRANCH  15  20
ATOM     20  O   UNL A   1      27.319  29.305  22.896  1.00  0.00    -0.497 OA
ATOM     21  C   UNL A   1      27.754  30.624  23.217  1.00  0.00     0.278 C 
ENDBRANCH  15  20
ENDBRANCH  10  14
BRANCH  13  22
ATOM     22  C   UNL A   1      32.578  22.180  23.961  1.00  0.00    -0.004 A 
ATOM     23  C   UNL A   1      32.145  21.988  22.615  1.00  0.00     0.009 A 
ATOM     24  C   UNL A   1      32.945  21.021  24.664  1.00  0.00     0.047 A 
ATOM     25  C   UNL A   1      32.000  20.725  22.040  1.00  0.00     0.021 A 
ATOM     26  C   UNL A   1      32.762  19.745  24.097  1.00  0.00     0.041 A 
ATOM     27  Cl  UNL A   1      33.653  21.035  26.235  1.00  0.00    -0.084 Cl
ATOM     28  C   UNL A   1      32.270  19.604  22.804  1.00  0.00     0.042 A 
ATOM     29  Cl  UNL A   1      31.977  18.041  22.150  1.00  0.00    -0.084 Cl
ENDBRANCH  13  22
ENDBRANCH   7   9
ENDBRANCH   6   7
ENDBRANCH   5   6
ENDBRANCH   3   5
ENDBRANCH   2   3
ENDBRANCH   1   2
BRANCH   1  30
ATOM     30  C   UNL A   1      39.656  20.452  26.380  1.00  0.00     0.275 C 
BRANCH  30  31
ATOM     31  O   UNL A   1      40.656  19.664  25.708  1.00  0.00    -0.458 OA
BRANCH  31  32
ATOM     32  C   UNL A   1      41.832  19.597  26.364  1.00  0.00     0.338 C 
ATOM     33  O   UNL A   1      42.382  18.589  26.759  1.00  0.00    -0.246 OA
BRANCH  32  34
ATOM     34  C   UNL A   1      42.487  20.880  26.531  1.00  0.00     0.060 A 
ATOM     35  C   UNL A   1      43.020  21.485  25.388  1.00  0.00     0.016 A 
ATOM     36  C   UNL A   1      42.700  21.396  27.807  1.00  0.00     0.016 A 
ATOM     37  C   UNL A   1      43.711  22.678  25.514  1.00  0.00     0.010 A 
ATOM     38  C   UNL A   1      43.381  22.600  27.930  1.00  0.00     0.010 A 
ATOM     39  C   UNL A   1      43.848  23.261  26.781  1.00  0.00    -0.014 A 
BRANCH  39  40
ATOM     40  C   UNL A   1      44.269  24.668  26.884  1.00  0.00     0.031 A 
ATOM     41  C   UNL A   1      45.694  25.067  26.702  1.00  0.00     0.074 A 
ATOM     42  C   UNL A   1      43.312  25.555  27.215  1.00  0.00     0.049 A 
ATOM     43  N   UNL A   1      46.233  26.247  26.855  1.00  0.00    -0.248 NA
ATOM     44  C   UNL A   1      46.638  24.012  26.307  1.00  0.00     0.031 C 
ATOM     45  C   UNL A   1      41.896  25.223  27.418  1.00  0.00     0.029 A 
ATOM     46  N   UNL A   1      43.376  26.898  27.459  1.00  0.00    -0.354 N 
ATOM     47  C   UNL A   1      47.584  26.082  26.581  1.00  0.00     0.074 A 
ATOM     48  C   UNL A   1      47.784  24.682  26.266  1.00  0.00     0.031 C 
ATOM     49  C   UNL A   1      41.229  26.331  27.765  1.00  0.00     0.029 A 
ATOM     50  C   UNL A   1      42.174  27.436  27.849  1.00  0.00     0.049 A 
ATOM     51  H   UNL A   1      44.201  27.426  27.364  1.00  0.00     0.167 HD
ATOM     52  C   UNL A   1      48.555  27.025  26.596  1.00  0.00     0.037 A 
ATOM     53  C   UNL A   1      41.876  28.679  28.262  1.00  0.00     0.037 A 
ATOM     54  C   UNL A   1      48.316  28.407  26.932  1.00  0.00     0.049 A 
ATOM     55  C   UNL A   1      42.977  29.694  28.301  1.00  0.00     0.074 A 
ATOM     56  C   UNL A   1      49.215  29.459  26.950  1.00  0.00     0.029 A 
ATOM     57  N   UNL A   1      47.087  28.925  27.323  1.00  0.00    -0.354 N 
ATOM     58  N   UNL A   1      44.246  29.536  28.000  1.00  0.00    -0.248 NA
ATOM     59  C   UNL A   1      42.618  31.046  28.735  1.00  0.00     0.031 C 
ATOM     60  C   UNL A   1      48.538  30.602  27.392  1.00  0.00     0.029 A 
ATOM     61  C   UNL A   1      47.209  30.274  27.612  1.00  0.00     0.049 A 
ATOM     62  H   UNL A   1      46.252  28.408  27.385  1.00  0.00     0.167 HD
ATOM     63  C   UNL A   1      44.838  30.772  28.206  1.00  0.00     0.074 A 
ATOM     64  C   UNL A   1      43.783  31.672  28.634  1.00  0.00     0.031 C 
ATOM     65  C   UNL A   1      46.137  31.133  28.056  1.00  0.00     0.037 A 
BRANCH  52  66
ATOM     66  C   UNL A   1      49.956  26.589  26.270  1.00  0.00     0.058 A 
ATOM     67  C   UNL A   1      50.801  26.033  27.243  1.00  0.00     0.135 A 
ATOM     68  C   UNL A   1      50.452  26.703  24.962  1.00  0.00     0.135 A 
ATOM     69  F   UNL A   1      50.384  25.915  28.514  1.00  0.00    -0.206 F 
ATOM     70  C   UNL A   1      52.096  25.626  26.936  1.00  0.00     0.059 A 
ATOM     71  C   UNL A   1      51.737  26.284  24.627  1.00  0.00     0.059 A 
ATOM     72  F   UNL A   1      49.687  27.231  23.993  1.00  0.00    -0.206 F 
ATOM     73  C   UNL A   1      52.556  25.759  25.625  1.00  0.00     0.060 A 
BRANCH  73  74
ATOM     74  S   UNL A   1      54.241  25.231  25.240  1.00  0.00     0.124 S 
ATOM     75  O   UNL A   1      54.539  26.041  24.064  1.00  0.00    -0.237 OA
ATOM     76  O   UNL A   1      54.966  25.588  26.455  1.00  0.00    -0.237 OA
ATOM     77  O   UNL A   1      54.101  23.799  24.997  1.00  0.00    -0.744 OA
ENDBRANCH  73  74
ENDBRANCH  52  66
BRANCH  53  78
ATOM     78  C   UNL A   1      40.486  29.000  28.672  1.00  0.00     0.058 A 
ATOM     79  C   UNL A   1      40.123  29.038  30.024  1.00  0.00     0.135 A 
ATOM     80  C   UNL A   1      39.513  29.347  27.720  1.00  0.00     0.135 A 
ATOM     81  F   UNL A   1      41.021  28.717  30.968  1.00  0.00    -0.206 F 
ATOM     82  C   UNL A   1      38.842  29.406  30.422  1.00  0.00     0.059 A 
ATOM     83  C   UNL A   1      38.233  29.739  28.095  1.00  0.00     0.059 A 
ATOM     84  F   UNL A   1      39.821  29.351  26.413  1.00  0.00    -0.206 F 
ATOM     85  C   UNL A   1      37.904  29.760  29.450  1.00  0.00     0.060 A 
BRANCH  85  86
ATOM     86  S   UNL A   1      36.265  30.303  29.978  1.00  0.00     0.124 S 
ATOM     87  O   UNL A   1      36.145  29.650  31.277  1.00  0.00    -0.237 OA
ATOM     88  O   UNL A   1      36.413  31.755  30.004  1.00  0.00    -0.237 OA
ATOM     89  O   UNL A   1      35.388  29.790  28.929  1.00  0.00    -0.744 OA
ENDBRANCH  85  86
ENDBRANCH  53  78
BRANCH  65  90
ATOM     90  C   UNL A   1      46.473  32.561  28.371  1.00  0.00     0.058 A 
ATOM     91  C   UNL A   1      46.319  33.573  27.412  1.00  0.00     0.135 A 
ATOM     92  C   UNL A   1      46.929  32.921  29.649  1.00  0.00     0.135 A 
ATOM     93  F   UNL A   1      45.898  33.273  26.174  1.00  0.00    -0.206 F 
ATOM     94  C   UNL A   1      46.627  34.896  27.703  1.00  0.00     0.059 A 
ATOM     95  C   UNL A   1      47.222  34.242  29.968  1.00  0.00     0.059 A 
ATOM     96  F   UNL A   1      47.088  31.986  30.599  1.00  0.00    -0.206 F 
ATOM     97  C   UNL A   1      47.079  35.220  28.984  1.00  0.00     0.060 A 
BRANCH  97  98
ATOM     98  S   UNL A   1      47.452  36.946  29.360  1.00  0.00     0.124 S 
ATOM     99  O   UNL A   1      48.626  37.180  28.525  1.00  0.00    -0.237 OA
ATOM    100  O   UNL A   1      46.231  37.629  28.943  1.00  0.00    -0.237 OA
ATOM    101  O   UNL A   1      47.695  36.933  30.799  1.00  0.00    -0.744 OA
ENDBRANCH  97  98
ENDBRANCH  65  90
ENDBRANCH  39  40
ENDBRANCH  32  34
ENDBRANCH  31  32
ENDBRANCH  30  31
ENDBRANCH   1  30
TORSDOF 20
ENDMDL
