MODEL 1
REMARK VINA RESULT:     -14.4      0.000      0.000
REMARK SMILES CC(=O)Nc1cnc(N2CC=C(c3ccccc3C)CC2)c(C(=O)OCCOC(=O)c2ccc(-c3c4nc(c(-c5c(F)cc(S(=O)(=O)[O-])cc5F)c5ccc([nH]5)c(-c5c(F)cc(S(=O)(=O)[O-])cc5F)c5nc(c(-c6c(F)cc(S(=O)(=O)[O-])cc6F)c6ccc3[nH]6)C=C5)C=C4)cc2)c1
REMARK SMILES IDX 27 1 26 2 25 3 23 4 24 5 22 6 5 7 6 8 97 9 7 10 8 11 4 12
REMARK SMILES IDX 1 13 2 14 3 15 9 17 10 18 21 19 11 20 20 21 12 22 13 23
REMARK SMILES IDX 14 24 18 25 15 26 17 27 19 28 16 29 28 30 29 31 30 32 31 33
REMARK SMILES IDX 32 34 96 35 33 36 95 37 34 38 35 39 36 40 89 41 37 42 94 43
REMARK SMILES IDX 88 44 90 45 38 46 93 47 87 48 86 49 39 51 73 52 52 53 72 54
REMARK SMILES IDX 53 55 56 56 71 57 91 58 54 59 55 60 70 62 92 63 57 64 40 65
REMARK SMILES IDX 41 66 50 67 42 68 43 69 49 70 51 71 44 72 45 73 46 74 47 75
REMARK SMILES IDX 48 76 74 77 75 78 84 79 76 80 77 81 83 82 85 83 78 84 79 85
REMARK SMILES IDX 80 86 81 87 82 88 58 89 59 90 68 91 60 92 61 93 67 94 69 95
REMARK SMILES IDX 62 96 63 97 64 98 65 99 66 100
REMARK H PARENT 4 16 90 50 56 61
REMARK Flexibility Score: inf
ROOT
ATOM      1  C   UNL A   1      34.056  30.583  27.913  1.00  0.00     0.275 C 
ENDROOT
BRANCH   1   2
ATOM      2  C   UNL A   1      32.888  29.847  27.229  1.00  0.00     0.275 C 
BRANCH   2   3
ATOM      3  O   UNL A   1      32.592  30.312  25.891  1.00  0.00    -0.458 OA
BRANCH   3   4
ATOM      4  C   UNL A   1      32.724  29.345  24.938  1.00  0.00     0.342 C 
ATOM      5  O   UNL A   1      33.740  29.150  24.277  1.00  0.00    -0.246 OA
BRANCH   4   6
ATOM      6  C   UNL A   1      31.449  28.873  24.380  1.00  0.00     0.104 A 
ATOM      7  C   UNL A   1      29.898  29.982  22.899  1.00  0.00     0.060 A 
ATOM      8  C   UNL A   1      29.616  28.738  22.376  1.00  0.00     0.139 A 
ATOM      9  C   UNL A   1      30.734  30.020  23.991  1.00  0.00     0.047 A 
ATOM     10  N   UNL A   1      30.216  27.593  22.792  1.00  0.00    -0.236 NA
ATOM     11  C   UNL A   1      31.189  27.640  23.749  1.00  0.00     0.143 A 
BRANCH   7  12
ATOM     12  N   UNL A   1      29.415  31.158  22.311  1.00  0.00    -0.325 N 
ATOM     13  C   UNL A   1      27.370  31.376  23.731  1.00  0.00     0.114 C 
ATOM     14  C   UNL A   1      28.191  31.754  22.514  1.00  0.00     0.221 C 
ATOM     15  O   UNL A   1      27.820  32.640  21.743  1.00  0.00    -0.275 OA
ATOM     16  H   UNL A   1      30.020  31.610  21.679  1.00  0.00     0.169 HD
ENDBRANCH   7  12
BRANCH  11  17
ATOM     17  N   UNL A   1      31.817  26.429  23.992  1.00  0.00    -0.352 N 
ATOM     18  C   UNL A   1      32.149  26.100  25.386  1.00  0.00     0.146 C 
ATOM     19  C   UNL A   1      32.442  25.679  22.897  1.00  0.00     0.123 C 
ATOM     20  C   UNL A   1      33.169  24.995  25.543  1.00  0.00    -0.002 C 
ATOM     21  C   UNL A   1      33.873  25.214  23.210  1.00  0.00     0.057 C 
ATOM     22  C   UNL A   1      33.995  24.572  24.570  1.00  0.00    -0.041 C 
BRANCH  22  23
ATOM     23  C   UNL A   1      34.983  23.468  24.752  1.00  0.00    -0.020 A 
ATOM     24  C   UNL A   1      36.271  23.769  25.224  1.00  0.00     0.008 A 
ATOM     25  C   UNL A   1      34.665  22.107  24.556  1.00  0.00    -0.044 A 
ATOM     26  C   UNL A   1      37.192  22.773  25.570  1.00  0.00     0.001 A 
ATOM     27  C   UNL A   1      35.598  21.108  24.910  1.00  0.00     0.004 A 
ATOM     28  C   UNL A   1      33.336  21.668  24.014  1.00  0.00     0.045 C 
ATOM     29  C   UNL A   1      36.850  21.437  25.423  1.00  0.00     0.000 A 
ENDBRANCH  22  23
ENDBRANCH  11  17
ENDBRANCH   4   6
ENDBRANCH   3   4
ENDBRANCH   2   3
ENDBRANCH   1   2
BRANCH   1  30
ATOM     30  O   UNL A   1      35.423  30.305  27.531  1.00  0.00    -0.458 OA
BRANCH  30  31
ATOM     31  C   UNL A   1      36.405  30.602  28.416  1.00  0.00     0.338 C 
ATOM     32  O   UNL A   1      36.243  31.451  29.293  1.00  0.00    -0.246 OA
BRANCH  31  33
ATOM     33  C   UNL A   1      37.492  29.593  28.324  1.00  0.00     0.060 A 
ATOM     34  C   UNL A   1      38.413  29.663  27.275  1.00  0.00     0.016 A 
ATOM     35  C   UNL A   1      37.775  28.813  29.447  1.00  0.00     0.016 A 
ATOM     36  C   UNL A   1      39.683  29.122  27.407  1.00  0.00     0.010 A 
ATOM     37  C   UNL A   1      39.049  28.322  29.613  1.00  0.00     0.010 A 
ATOM     38  C   UNL A   1      40.007  28.506  28.607  1.00  0.00    -0.014 A 
BRANCH  38  39
ATOM     39  C   UNL A   1      41.237  27.761  28.767  1.00  0.00     0.031 A 
ATOM     40  C   UNL A   1      41.354  26.335  28.392  1.00  0.00     0.074 A 
ATOM     41  C   UNL A   1      42.218  28.520  29.300  1.00  0.00     0.049 A 
ATOM     42  N   UNL A   1      42.183  25.516  28.942  1.00  0.00    -0.248 NA
ATOM     43  C   UNL A   1      40.518  25.685  27.378  1.00  0.00     0.031 C 
ATOM     44  C   UNL A   1      43.620  28.226  29.488  1.00  0.00     0.029 A 
ATOM     45  N   UNL A   1      42.028  29.721  30.006  1.00  0.00    -0.354 N 
ATOM     46  C   UNL A   1      42.233  24.380  28.156  1.00  0.00     0.074 A 
ATOM     47  C   UNL A   1      41.101  24.481  27.267  1.00  0.00     0.031 C 
ATOM     48  C   UNL A   1      44.067  28.980  30.510  1.00  0.00     0.029 A 
ATOM     49  C   UNL A   1      42.919  29.684  31.072  1.00  0.00     0.049 A 
ATOM     50  H   UNL A   1      41.394  30.442  29.789  1.00  0.00     0.167 HD
ATOM     51  C   UNL A   1      43.342  23.587  28.212  1.00  0.00     0.037 A 
ATOM     52  C   UNL A   1      42.483  29.615  32.363  1.00  0.00     0.037 A 
ATOM     53  C   UNL A   1      44.263  24.102  29.220  1.00  0.00     0.049 A 
ATOM     54  C   UNL A   1      42.964  28.333  32.993  1.00  0.00     0.074 A 
ATOM     55  C   UNL A   1      45.282  25.034  29.110  1.00  0.00     0.029 A 
ATOM     56  N   UNL A   1      43.926  24.038  30.568  1.00  0.00    -0.354 N 
ATOM     57  N   UNL A   1      43.151  27.215  32.339  1.00  0.00    -0.248 NA
ATOM     58  C   UNL A   1      43.403  28.264  34.381  1.00  0.00     0.031 C 
ATOM     59  C   UNL A   1      45.473  25.622  30.380  1.00  0.00     0.029 A 
ATOM     60  C   UNL A   1      44.587  25.033  31.266  1.00  0.00     0.049 A 
ATOM     61  H   UNL A   1      43.310  23.381  30.966  1.00  0.00     0.167 HD
ATOM     62  C   UNL A   1      43.862  26.354  33.139  1.00  0.00     0.074 A 
ATOM     63  C   UNL A   1      43.953  27.039  34.419  1.00  0.00     0.031 C 
ATOM     64  C   UNL A   1      44.427  25.188  32.699  1.00  0.00     0.037 A 
BRANCH  51  65
ATOM     65  C   UNL A   1      43.739  22.621  27.116  1.00  0.00     0.058 A 
ATOM     66  C   UNL A   1      43.015  21.421  26.924  1.00  0.00     0.135 A 
ATOM     67  C   UNL A   1      44.837  22.797  26.252  1.00  0.00     0.135 A 
ATOM     68  F   UNL A   1      41.935  21.125  27.657  1.00  0.00    -0.206 F 
ATOM     69  C   UNL A   1      43.377  20.447  25.994  1.00  0.00     0.059 A 
ATOM     70  C   UNL A   1      45.232  21.822  25.319  1.00  0.00     0.059 A 
ATOM     71  F   UNL A   1      45.555  23.931  26.286  1.00  0.00    -0.206 F 
ATOM     72  C   UNL A   1      44.497  20.645  25.202  1.00  0.00     0.060 A 
BRANCH  72  73
ATOM     73  S   UNL A   1      44.958  19.335  24.048  1.00  0.00     0.124 S 
ATOM     74  O   UNL A   1      44.220  18.189  24.574  1.00  0.00    -0.237 OA
ATOM     75  O   UNL A   1      44.477  19.865  22.777  1.00  0.00    -0.237 OA
ATOM     76  O   UNL A   1      46.408  19.253  24.186  1.00  0.00    -0.744 OA
ENDBRANCH  72  73
ENDBRANCH  51  65
BRANCH  52  77
ATOM     77  C   UNL A   1      41.220  30.361  32.651  1.00  0.00     0.058 A 
ATOM     78  C   UNL A   1      40.098  29.591  33.029  1.00  0.00     0.135 A 
ATOM     79  C   UNL A   1      41.183  31.724  32.967  1.00  0.00     0.135 A 
ATOM     80  F   UNL A   1      40.047  28.288  32.711  1.00  0.00    -0.206 F 
ATOM     81  C   UNL A   1      39.080  30.098  33.832  1.00  0.00     0.059 A 
ATOM     82  C   UNL A   1      40.167  32.252  33.775  1.00  0.00     0.059 A 
ATOM     83  F   UNL A   1      42.196  32.533  32.623  1.00  0.00    -0.206 F 
ATOM     84  C   UNL A   1      39.161  31.415  34.262  1.00  0.00     0.060 A 
BRANCH  84  85
ATOM     85  S   UNL A   1      38.015  31.952  35.560  1.00  0.00     0.124 S 
ATOM     86  O   UNL A   1      38.760  33.035  36.194  1.00  0.00    -0.237 OA
ATOM     87  O   UNL A   1      36.854  32.354  34.772  1.00  0.00    -0.237 OA
ATOM     88  O   UNL A   1      37.838  30.752  36.365  1.00  0.00    -0.744 OA
ENDBRANCH  84  85
ENDBRANCH  52  77
BRANCH  64  89
ATOM     89  C   UNL A   1      45.068  24.149  33.582  1.00  0.00     0.058 A 
ATOM     90  C   UNL A   1      46.421  24.185  33.948  1.00  0.00     0.135 A 
ATOM     91  C   UNL A   1      44.282  23.153  34.215  1.00  0.00     0.135 A 
ATOM     92  F   UNL A   1      47.235  25.154  33.505  1.00  0.00    -0.206 F 
ATOM     93  C   UNL A   1      46.978  23.249  34.814  1.00  0.00     0.059 A 
ATOM     94  C   UNL A   1      44.804  22.251  35.130  1.00  0.00     0.059 A 
ATOM     95  F   UNL A   1      42.968  23.029  33.977  1.00  0.00    -0.206 F 
ATOM     96  C   UNL A   1      46.162  22.284  35.399  1.00  0.00     0.060 A 
BRANCH  96  97
ATOM     97  S   UNL A   1      46.864  21.096  36.552  1.00  0.00     0.124 S 
ATOM     98  O   UNL A   1      47.393  20.088  35.639  1.00  0.00    -0.237 OA
ATOM     99  O   UNL A   1      47.862  21.889  37.264  1.00  0.00    -0.237 OA
ATOM    100  O   UNL A   1      45.713  20.688  37.350  1.00  0.00    -0.744 OA
ENDBRANCH  96  97
ENDBRANCH  64  89
ENDBRANCH  38  39
ENDBRANCH  31  33
ENDBRANCH  30  31
ENDBRANCH   1  30
TORSDOF 17
ENDMDL
MODEL 2
REMARK VINA RESULT:     -13.8      1.134      2.021
REMARK SMILES CC(=O)Nc1cnc(N2CC=C(c3ccccc3C)CC2)c(C(=O)OCCOC(=O)c2ccc(-c3c4nc(c(-c5c(F)cc(S(=O)(=O)[O-])cc5F)c5ccc([nH]5)c(-c5c(F)cc(S(=O)(=O)[O-])cc5F)c5nc(c(-c6c(F)cc(S(=O)(=O)[O-])cc6F)c6ccc3[nH]6)C=C5)C=C4)cc2)c1
REMARK SMILES IDX 27 1 26 2 25 3 23 4 24 5 22 6 5 7 6 8 97 9 7 10 8 11 4 12
REMARK SMILES IDX 1 13 2 14 3 15 9 17 10 18 21 19 11 20 20 21 12 22 13 23
REMARK SMILES IDX 14 24 18 25 15 26 17 27 19 28 16 29 28 30 29 31 30 32 31 33
REMARK SMILES IDX 32 34 96 35 33 36 95 37 34 38 35 39 36 40 89 41 37 42 94 43
REMARK SMILES IDX 88 44 90 45 38 46 93 47 87 48 86 49 39 51 73 52 52 53 72 54
REMARK SMILES IDX 53 55 56 56 71 57 91 58 54 59 55 60 70 62 92 63 57 64 40 65
REMARK SMILES IDX 41 66 50 67 42 68 43 69 49 70 51 71 44 72 45 73 46 74 47 75
REMARK SMILES IDX 48 76 74 77 75 78 84 79 76 80 77 81 83 82 85 83 78 84 79 85
REMARK SMILES IDX 80 86 81 87 82 88 58 89 59 90 68 91 60 92 61 93 67 94 69 95
REMARK SMILES IDX 62 96 63 97 64 98 65 99 66 100
REMARK H PARENT 4 16 90 50 56 61
REMARK Flexibility Score: inf
ROOT
ATOM      1  C   UNL A   1      34.744  29.831  27.521  1.00  0.00     0.275 C 
ENDROOT
BRANCH   1   2
ATOM      2  C   UNL A   1      34.573  28.916  26.294  1.00  0.00     0.275 C 
BRANCH   2   3
ATOM      3  O   UNL A   1      33.197  28.672  25.919  1.00  0.00    -0.458 OA
BRANCH   3   4
ATOM      4  C   UNL A   1      32.881  27.347  25.841  1.00  0.00     0.342 C 
ATOM      5  O   UNL A   1      33.629  26.431  26.169  1.00  0.00    -0.246 OA
BRANCH   4   6
ATOM      6  C   UNL A   1      31.808  27.039  24.884  1.00  0.00     0.104 A 
ATOM      7  C   UNL A   1      30.711  28.463  23.274  1.00  0.00     0.060 A 
ATOM      8  C   UNL A   1      30.589  27.346  22.474  1.00  0.00     0.139 A 
ATOM      9  C   UNL A   1      31.219  28.268  24.537  1.00  0.00     0.047 A 
ATOM     10  N   UNL A   1      31.061  26.120  22.817  1.00  0.00    -0.236 NA
ATOM     11  C   UNL A   1      31.738  25.952  23.991  1.00  0.00     0.143 A 
BRANCH   7  12
ATOM     12  N   UNL A   1      30.397  29.745  22.806  1.00  0.00    -0.325 N 
ATOM     13  C   UNL A   1      27.913  29.476  22.856  1.00  0.00     0.114 C 
ATOM     14  C   UNL A   1      29.162  30.219  22.426  1.00  0.00     0.221 C 
ATOM     15  O   UNL A   1      29.092  31.281  21.807  1.00  0.00    -0.275 OA
ATOM     16  H   UNL A   1      31.146  30.381  22.740  1.00  0.00     0.169 HD
ENDBRANCH   7  12
BRANCH  11  17
ATOM     17  N   UNL A   1      32.284  24.691  24.166  1.00  0.00    -0.352 N 
ATOM     18  C   UNL A   1      33.212  24.201  23.136  1.00  0.00     0.146 C 
ATOM     19  C   UNL A   1      31.702  23.750  25.129  1.00  0.00     0.123 C 
ATOM     20  C   UNL A   1      33.449  22.708  23.165  1.00  0.00    -0.002 C 
ATOM     21  C   UNL A   1      31.464  22.347  24.550  1.00  0.00     0.057 C 
ATOM     22  C   UNL A   1      32.654  21.819  23.789  1.00  0.00    -0.041 C 
BRANCH  22  23
ATOM     23  C   UNL A   1      32.922  20.351  23.812  1.00  0.00    -0.020 A 
ATOM     24  C   UNL A   1      32.169  19.502  22.984  1.00  0.00     0.008 A 
ATOM     25  C   UNL A   1      33.963  19.767  24.564  1.00  0.00    -0.044 A 
ATOM     26  C   UNL A   1      32.471  18.143  22.834  1.00  0.00     0.001 A 
ATOM     27  C   UNL A   1      34.264  18.397  24.405  1.00  0.00     0.004 A 
ATOM     28  C   UNL A   1      34.806  20.566  25.515  1.00  0.00     0.045 C 
ATOM     29  C   UNL A   1      33.530  17.591  23.538  1.00  0.00     0.000 A 
ENDBRANCH  22  23
ENDBRANCH  11  17
ENDBRANCH   4   6
ENDBRANCH   3   4
ENDBRANCH   2   3
ENDBRANCH   1   2
BRANCH   1  30
ATOM     30  O   UNL A   1      35.859  30.750  27.602  1.00  0.00    -0.458 OA
BRANCH  30  31
ATOM     31  C   UNL A   1      36.618  30.733  28.722  1.00  0.00     0.338 C 
ATOM     32  O   UNL A   1      36.287  31.357  29.732  1.00  0.00    -0.246 OA
BRANCH  31  33
ATOM     33  C   UNL A   1      37.662  29.681  28.612  1.00  0.00     0.060 A 
ATOM     34  C   UNL A   1      38.555  29.702  27.536  1.00  0.00     0.016 A 
ATOM     35  C   UNL A   1      37.946  28.903  29.736  1.00  0.00     0.016 A 
ATOM     36  C   UNL A   1      39.805  29.113  27.638  1.00  0.00     0.010 A 
ATOM     37  C   UNL A   1      39.204  28.363  29.871  1.00  0.00     0.010 A 
ATOM     38  C   UNL A   1      40.140  28.498  28.836  1.00  0.00    -0.014 A 
BRANCH  38  39
ATOM     39  C   UNL A   1      41.343  27.706  28.970  1.00  0.00     0.031 A 
ATOM     40  C   UNL A   1      41.400  26.280  28.583  1.00  0.00     0.074 A 
ATOM     41  C   UNL A   1      42.361  28.425  29.491  1.00  0.00     0.049 A 
ATOM     42  N   UNL A   1      42.208  25.427  29.113  1.00  0.00    -0.248 NA
ATOM     43  C   UNL A   1      40.524  25.669  27.580  1.00  0.00     0.031 C 
ATOM     44  C   UNL A   1      43.754  28.077  29.653  1.00  0.00     0.029 A 
ATOM     45  N   UNL A   1      42.228  29.627  30.208  1.00  0.00    -0.354 N 
ATOM     46  C   UNL A   1      42.202  24.296  28.319  1.00  0.00     0.074 A 
ATOM     47  C   UNL A   1      41.059  24.445  27.450  1.00  0.00     0.031 C 
ATOM     48  C   UNL A   1      44.246  28.807  30.672  1.00  0.00     0.029 A 
ATOM     49  C   UNL A   1      43.134  29.549  31.258  1.00  0.00     0.049 A 
ATOM     50  H   UNL A   1      41.618  30.373  30.006  1.00  0.00     0.167 HD
ATOM     51  C   UNL A   1      43.281  23.461  28.351  1.00  0.00     0.037 A 
ATOM     52  C   UNL A   1      42.719  29.486  32.557  1.00  0.00     0.037 A 
ATOM     53  C   UNL A   1      44.237  23.934  29.346  1.00  0.00     0.049 A 
ATOM     54  C   UNL A   1      43.162  28.183  33.169  1.00  0.00     0.074 A 
ATOM     55  C   UNL A   1      45.288  24.829  29.225  1.00  0.00     0.029 A 
ATOM     56  N   UNL A   1      43.922  23.872  30.699  1.00  0.00    -0.354 N 
ATOM     57  N   UNL A   1      43.296  27.064  32.505  1.00  0.00    -0.248 NA
ATOM     58  C   UNL A   1      43.621  28.088  34.549  1.00  0.00     0.031 C 
ATOM     59  C   UNL A   1      45.523  25.400  30.496  1.00  0.00     0.029 A 
ATOM     60  C   UNL A   1      44.630  24.837  31.393  1.00  0.00     0.049 A 
ATOM     61  H   UNL A   1      43.288  23.237  31.104  1.00  0.00     0.167 HD
ATOM     62  C   UNL A   1      43.988  26.171  33.286  1.00  0.00     0.074 A 
ATOM     63  C   UNL A   1      44.125  26.843  34.569  1.00  0.00     0.031 C 
ATOM     64  C   UNL A   1      44.501  24.988  32.830  1.00  0.00     0.037 A 
BRANCH  51  65
ATOM     65  C   UNL A   1      43.623  22.489  27.242  1.00  0.00     0.058 A 
ATOM     66  C   UNL A   1      42.900  21.282  27.102  1.00  0.00     0.135 A 
ATOM     67  C   UNL A   1      44.668  22.667  26.315  1.00  0.00     0.135 A 
ATOM     68  F   UNL A   1      41.867  20.983  27.898  1.00  0.00    -0.206 F 
ATOM     69  C   UNL A   1      43.217  20.303  26.160  1.00  0.00     0.059 A 
ATOM     70  C   UNL A   1      45.018  21.687  25.368  1.00  0.00     0.059 A 
ATOM     71  F   UNL A   1      45.376  23.808  26.298  1.00  0.00    -0.206 F 
ATOM     72  C   UNL A   1      44.288  20.503  25.304  1.00  0.00     0.060 A 
BRANCH  72  73
ATOM     73  S   UNL A   1      44.693  19.187  24.136  1.00  0.00     0.124 S 
ATOM     74  O   UNL A   1      44.450  19.832  22.848  1.00  0.00    -0.237 OA
ATOM     75  O   UNL A   1      46.091  18.917  24.453  1.00  0.00    -0.237 OA
ATOM     76  O   UNL A   1      43.756  18.123  24.482  1.00  0.00    -0.744 OA
ENDBRANCH  72  73
ENDBRANCH  51  65
BRANCH  52  77
ATOM     77  C   UNL A   1      41.489  30.276  32.871  1.00  0.00     0.058 A 
ATOM     78  C   UNL A   1      40.331  29.544  33.214  1.00  0.00     0.135 A 
ATOM     79  C   UNL A   1      41.513  31.627  33.242  1.00  0.00     0.135 A 
ATOM     80  F   UNL A   1      40.223  28.258  32.844  1.00  0.00    -0.206 F 
ATOM     81  C   UNL A   1      39.334  30.064  34.035  1.00  0.00     0.059 A 
ATOM     82  C   UNL A   1      40.518  32.167  34.068  1.00  0.00     0.059 A 
ATOM     83  F   UNL A   1      42.563  32.402  32.933  1.00  0.00    -0.206 F 
ATOM     84  C   UNL A   1      39.473  31.357  34.518  1.00  0.00     0.060 A 
BRANCH  84  85
ATOM     85  S   UNL A   1      38.347  31.893  35.834  1.00  0.00     0.124 S 
ATOM     86  O   UNL A   1      37.092  32.065  35.108  1.00  0.00    -0.237 OA
ATOM     87  O   UNL A   1      38.404  30.753  36.744  1.00  0.00    -0.237 OA
ATOM     88  O   UNL A   1      38.966  33.116  36.325  1.00  0.00    -0.744 OA
ENDBRANCH  84  85
ENDBRANCH  52  77
BRANCH  64  89
ATOM     89  C   UNL A   1      45.118  23.920  33.694  1.00  0.00     0.058 A 
ATOM     90  C   UNL A   1      44.424  22.773  34.107  1.00  0.00     0.135 A 
ATOM     91  C   UNL A   1      46.500  23.954  34.011  1.00  0.00     0.135 A 
ATOM     92  F   UNL A   1      43.143  22.576  33.763  1.00  0.00    -0.206 F 
ATOM     93  C   UNL A   1      45.033  21.770  34.855  1.00  0.00     0.059 A 
ATOM     94  C   UNL A   1      47.140  22.934  34.699  1.00  0.00     0.059 A 
ATOM     95  F   UNL A   1      47.286  24.978  33.648  1.00  0.00    -0.206 F 
ATOM     96  C   UNL A   1      46.390  21.860  35.148  1.00  0.00     0.060 A 
BRANCH  96  97
ATOM     97  S   UNL A   1      47.195  20.547  36.078  1.00  0.00     0.124 S 
ATOM     98  O   UNL A   1      48.374  20.295  35.256  1.00  0.00    -0.237 OA
ATOM     99  O   UNL A   1      47.448  21.176  37.371  1.00  0.00    -0.237 OA
ATOM    100  O   UNL A   1      46.192  19.487  36.091  1.00  0.00    -0.744 OA
ENDBRANCH  96  97
ENDBRANCH  64  89
ENDBRANCH  38  39
ENDBRANCH  31  33
ENDBRANCH  30  31
ENDBRANCH   1  30
TORSDOF 17
ENDMDL
MODEL 3
REMARK VINA RESULT:     -12.0      5.355     11.976
REMARK SMILES CC(=O)Nc1cnc(N2CC=C(c3ccccc3C)CC2)c(C(=O)OCCOC(=O)c2ccc(-c3c4nc(c(-c5c(F)cc(S(=O)(=O)[O-])cc5F)c5ccc([nH]5)c(-c5c(F)cc(S(=O)(=O)[O-])cc5F)c5nc(c(-c6c(F)cc(S(=O)(=O)[O-])cc6F)c6ccc3[nH]6)C=C5)C=C4)cc2)c1
REMARK SMILES IDX 27 1 26 2 25 3 23 4 24 5 22 6 5 7 6 8 97 9 7 10 8 11 4 12
REMARK SMILES IDX 1 13 2 14 3 15 9 17 10 18 21 19 11 20 20 21 12 22 13 23
REMARK SMILES IDX 14 24 18 25 15 26 17 27 19 28 16 29 28 30 29 31 30 32 31 33
REMARK SMILES IDX 32 34 96 35 33 36 95 37 34 38 35 39 36 40 89 41 37 42 94 43
REMARK SMILES IDX 88 44 90 45 38 46 93 47 87 48 86 49 39 51 73 52 52 53 72 54
REMARK SMILES IDX 53 55 56 56 71 57 91 58 54 59 55 60 70 62 92 63 57 64 40 65
REMARK SMILES IDX 41 66 50 67 42 68 43 69 49 70 51 71 44 72 45 73 46 74 47 75
REMARK SMILES IDX 48 76 74 77 75 78 84 79 76 80 77 81 83 82 85 83 78 84 79 85
REMARK SMILES IDX 80 86 81 87 82 88 58 89 59 90 68 91 60 92 61 93 67 94 69 95
REMARK SMILES IDX 62 96 63 97 64 98 65 99 66 100
REMARK H PARENT 4 16 90 50 56 61
REMARK Flexibility Score: inf
ROOT
ATOM      1  C   UNL A   1      45.769  27.388  26.913  1.00  0.00     0.275 C 
ENDROOT
BRANCH   1   2
ATOM      2  C   UNL A   1      44.783  27.285  25.733  1.00  0.00     0.275 C 
BRANCH   2   3
ATOM      3  O   UNL A   1      44.689  25.965  25.148  1.00  0.00    -0.458 OA
BRANCH   3   4
ATOM      4  C   UNL A   1      43.406  25.532  24.986  1.00  0.00     0.342 C 
ATOM      5  O   UNL A   1      42.444  26.264  24.770  1.00  0.00    -0.246 OA
BRANCH   4   6
ATOM      6  C   UNL A   1      43.137  24.212  25.576  1.00  0.00     0.104 A 
ATOM      7  C   UNL A   1      44.573  22.283  25.780  1.00  0.00     0.060 A 
ATOM      8  C   UNL A   1      43.914  22.005  26.959  1.00  0.00     0.139 A 
ATOM      9  C   UNL A   1      44.088  23.331  25.032  1.00  0.00     0.047 A 
ATOM     10  N   UNL A   1      42.922  22.780  27.468  1.00  0.00    -0.236 NA
ATOM     11  C   UNL A   1      42.558  23.931  26.829  1.00  0.00     0.143 A 
BRANCH   7  12
ATOM     12  N   UNL A   1      45.720  21.580  25.391  1.00  0.00    -0.325 N 
ATOM     13  C   UNL A   1      44.551  19.500  24.648  1.00  0.00     0.114 C 
ATOM     14  C   UNL A   1      45.808  20.255  25.032  1.00  0.00     0.221 C 
ATOM     15  O   UNL A   1      46.918  19.726  24.957  1.00  0.00    -0.275 OA
ATOM     16  H   UNL A   1      46.560  22.093  25.372  1.00  0.00     0.169 HD
ENDBRANCH   7  12
BRANCH  11  17
ATOM     17  N   UNL A   1      41.634  24.702  27.514  1.00  0.00    -0.352 N 
ATOM     18  C   UNL A   1      40.234  24.645  27.068  1.00  0.00     0.146 C 
ATOM     19  C   UNL A   1      42.073  25.788  28.397  1.00  0.00     0.123 C 
ATOM     20  C   UNL A   1      39.370  25.782  27.567  1.00  0.00    -0.002 C 
ATOM     21  C   UNL A   1      41.337  27.114  28.153  1.00  0.00     0.057 C 
ATOM     22  C   UNL A   1      39.841  26.943  28.056  1.00  0.00    -0.041 C 
BRANCH  22  23
ATOM     23  C   UNL A   1      38.963  28.042  28.554  1.00  0.00    -0.020 A 
ATOM     24  C   UNL A   1      38.475  28.997  27.647  1.00  0.00     0.008 A 
ATOM     25  C   UNL A   1      38.516  28.129  29.890  1.00  0.00    -0.044 A 
ATOM     26  C   UNL A   1      37.523  29.956  28.011  1.00  0.00     0.001 A 
ATOM     27  C   UNL A   1      37.553  29.097  30.249  1.00  0.00     0.004 A 
ATOM     28  C   UNL A   1      39.002  27.191  30.956  1.00  0.00     0.045 C 
ATOM     29  C   UNL A   1      37.051  29.999  29.314  1.00  0.00     0.000 A 
ENDBRANCH  22  23
ENDBRANCH  11  17
ENDBRANCH   4   6
ENDBRANCH   3   4
ENDBRANCH   2   3
ENDBRANCH   1   2
BRANCH   1  30
ATOM     30  O   UNL A   1      45.502  26.697  28.155  1.00  0.00    -0.458 OA
BRANCH  30  31
ATOM     31  C   UNL A   1      46.227  27.043  29.245  1.00  0.00     0.338 C 
ATOM     32  O   UNL A   1      47.459  27.050  29.221  1.00  0.00    -0.246 OA
BRANCH  31  33
ATOM     33  C   UNL A   1      45.340  27.644  30.274  1.00  0.00     0.060 A 
ATOM     34  C   UNL A   1      45.287  29.034  30.414  1.00  0.00     0.016 A 
ATOM     35  C   UNL A   1      44.341  26.850  30.840  1.00  0.00     0.016 A 
ATOM     36  C   UNL A   1      44.166  29.654  30.946  1.00  0.00     0.010 A 
ATOM     37  C   UNL A   1      43.200  27.454  31.317  1.00  0.00     0.010 A 
ATOM     38  C   UNL A   1      43.104  28.852  31.338  1.00  0.00    -0.014 A 
BRANCH  38  39
ATOM     39  C   UNL A   1      41.976  29.393  32.064  1.00  0.00     0.031 A 
ATOM     40  C   UNL A   1      41.163  30.514  31.545  1.00  0.00     0.074 A 
ATOM     41  C   UNL A   1      41.788  28.761  33.242  1.00  0.00     0.049 A 
ATOM     42  N   UNL A   1      40.520  31.340  32.297  1.00  0.00    -0.248 NA
ATOM     43  C   UNL A   1      41.024  30.834  30.121  1.00  0.00     0.031 C 
ATOM     44  C   UNL A   1      40.709  28.878  34.196  1.00  0.00     0.029 A 
ATOM     45  N   UNL A   1      42.749  27.985  33.914  1.00  0.00    -0.354 N 
ATOM     46  C   UNL A   1      39.647  32.047  31.492  1.00  0.00     0.074 A 
ATOM     47  C   UNL A   1      40.077  31.785  30.140  1.00  0.00     0.031 C 
ATOM     48  C   UNL A   1      41.188  28.529  35.406  1.00  0.00     0.029 A 
ATOM     49  C   UNL A   1      42.622  28.299  35.262  1.00  0.00     0.049 A 
ATOM     50  H   UNL A   1      43.383  27.349  33.512  1.00  0.00     0.167 HD
ATOM     51  C   UNL A   1      38.539  32.610  32.055  1.00  0.00     0.037 A 
ATOM     52  C   UNL A   1      43.614  28.944  35.942  1.00  0.00     0.037 A 
ATOM     53  C   UNL A   1      38.559  32.397  33.498  1.00  0.00     0.049 A 
ATOM     54  C   UNL A   1      43.109  30.275  36.435  1.00  0.00     0.074 A 
ATOM     55  C   UNL A   1      38.066  31.347  34.256  1.00  0.00     0.029 A 
ATOM     56  N   UNL A   1      39.508  33.043  34.283  1.00  0.00    -0.354 N 
ATOM     57  N   UNL A   1      42.209  30.997  35.818  1.00  0.00    -0.248 NA
ATOM     58  C   UNL A   1      43.486  30.818  37.734  1.00  0.00     0.031 C 
ATOM     59  C   UNL A   1      38.811  31.289  35.456  1.00  0.00     0.029 A 
ATOM     60  C   UNL A   1      39.741  32.315  35.437  1.00  0.00     0.049 A 
ATOM     61  H   UNL A   1      39.949  33.893  34.053  1.00  0.00     0.167 HD
ATOM     62  C   UNL A   1      41.773  31.979  36.674  1.00  0.00     0.074 A 
ATOM     63  C   UNL A   1      42.635  31.852  37.839  1.00  0.00     0.031 C 
ATOM     64  C   UNL A   1      40.680  32.768  36.444  1.00  0.00     0.037 A 
BRANCH  51  65
ATOM     65  C   UNL A   1      37.299  32.985  31.272  1.00  0.00     0.058 A 
ATOM     66  C   UNL A   1      37.341  34.037  30.327  1.00  0.00     0.135 A 
ATOM     67  C   UNL A   1      36.038  32.379  31.430  1.00  0.00     0.135 A 
ATOM     68  F   UNL A   1      38.475  34.693  30.054  1.00  0.00    -0.206 F 
ATOM     69  C   UNL A   1      36.219  34.492  29.635  1.00  0.00     0.059 A 
ATOM     70  C   UNL A   1      34.888  32.832  30.757  1.00  0.00     0.059 A 
ATOM     71  F   UNL A   1      35.888  31.320  32.241  1.00  0.00    -0.206 F 
ATOM     72  C   UNL A   1      34.990  33.896  29.865  1.00  0.00     0.060 A 
BRANCH  72  73
ATOM     73  S   UNL A   1      33.556  34.553  28.985  1.00  0.00     0.124 S 
ATOM     74  O   UNL A   1      32.657  34.907  30.082  1.00  0.00    -0.237 OA
ATOM     75  O   UNL A   1      34.133  35.677  28.256  1.00  0.00    -0.237 OA
ATOM     76  O   UNL A   1      33.117  33.431  28.162  1.00  0.00    -0.744 OA
ENDBRANCH  72  73
ENDBRANCH  51  65
BRANCH  52  77
ATOM     77  C   UNL A   1      45.006  28.586  35.530  1.00  0.00     0.058 A 
ATOM     78  C   UNL A   1      45.489  27.326  35.946  1.00  0.00     0.135 A 
ATOM     79  C   UNL A   1      45.676  29.196  34.463  1.00  0.00     0.135 A 
ATOM     80  F   UNL A   1      44.924  26.709  36.996  1.00  0.00    -0.206 F 
ATOM     81  C   UNL A   1      46.461  26.626  35.235  1.00  0.00     0.059 A 
ATOM     82  C   UNL A   1      46.656  28.508  33.735  1.00  0.00     0.059 A 
ATOM     83  F   UNL A   1      45.299  30.405  34.020  1.00  0.00    -0.206 F 
ATOM     84  C   UNL A   1      46.987  27.197  34.085  1.00  0.00     0.060 A 
BRANCH  84  85
ATOM     85  S   UNL A   1      47.993  26.144  33.005  1.00  0.00     0.124 S 
ATOM     86  O   UNL A   1      48.605  27.123  32.112  1.00  0.00    -0.237 OA
ATOM     87  O   UNL A   1      48.891  25.515  33.969  1.00  0.00    -0.237 OA
ATOM     88  O   UNL A   1      47.012  25.259  32.394  1.00  0.00    -0.744 OA
ENDBRANCH  84  85
ENDBRANCH  52  77
BRANCH  64  89
ATOM     89  C   UNL A   1      40.277  33.955  37.280  1.00  0.00     0.058 A 
ATOM     90  C   UNL A   1      39.275  33.897  38.259  1.00  0.00     0.135 A 
ATOM     91  C   UNL A   1      41.009  35.167  37.215  1.00  0.00     0.135 A 
ATOM     92  F   UNL A   1      38.596  32.764  38.492  1.00  0.00    -0.206 F 
ATOM     93  C   UNL A   1      38.961  34.990  39.062  1.00  0.00     0.059 A 
ATOM     94  C   UNL A   1      40.755  36.246  38.050  1.00  0.00     0.059 A 
ATOM     95  F   UNL A   1      42.014  35.344  36.344  1.00  0.00    -0.206 F 
ATOM     96  C   UNL A   1      39.705  36.161  38.949  1.00  0.00     0.060 A 
BRANCH  96  97
ATOM     97  S   UNL A   1      39.335  37.564  40.011  1.00  0.00     0.124 S 
ATOM     98  O   UNL A   1      38.862  36.893  41.217  1.00  0.00    -0.237 OA
ATOM     99  O   UNL A   1      40.628  38.232  40.125  1.00  0.00    -0.237 OA
ATOM    100  O   UNL A   1      38.325  38.295  39.254  1.00  0.00    -0.744 OA
ENDBRANCH  96  97
ENDBRANCH  64  89
ENDBRANCH  38  39
ENDBRANCH  31  33
ENDBRANCH  30  31
ENDBRANCH   1  30
TORSDOF 17
ENDMDL
