MODEL 1
REMARK VINA RESULT:     -11.3      0.000      0.000
REMARK SMILES COc1ncccc1NS(=O)(=O)c1ccc(Br)c(C(=O)OCCOC(=O)c2ccc(-c3c4nc(c(-c5c(F)cc(S(=O)(=O)[O-])cc5F)c5ccc([nH]5)c(-c5c(F)cc(S(=O)(=O)[O-])cc5F)c5nc(c(-c6c(F)cc(S(=O)(=O)[O-])cc6F)c6ccc3[nH]6)C=C5)C=C4)cc2)c1
REMARK SMILES IDX 22 1 21 2 19 3 20 4 18 5 13 6 14 7 93 8 15 9 16 10 17 11
REMARK SMILES IDX 10 12 11 13 12 14 9 15 8 17 3 18 4 19 5 20 7 21 6 22 2 23
REMARK SMILES IDX 1 24 23 25 24 26 25 27 26 28 27 29 28 30 92 31 29 32 91 33
REMARK SMILES IDX 30 34 31 35 32 36 85 37 33 38 90 39 84 40 86 41 34 42 89 43
REMARK SMILES IDX 83 44 82 45 35 47 69 48 48 49 68 50 49 51 52 52 67 53 87 54
REMARK SMILES IDX 50 55 51 56 66 58 88 59 53 60 36 61 37 62 46 63 38 64 39 65
REMARK SMILES IDX 45 66 47 67 40 68 41 69 42 70 43 71 44 72 70 73 71 74 80 75
REMARK SMILES IDX 72 76 73 77 79 78 81 79 74 80 75 81 76 82 77 83 78 84 54 85
REMARK SMILES IDX 55 86 64 87 56 88 57 89 63 90 65 91 58 92 59 93 60 94 61 95
REMARK SMILES IDX 62 96
REMARK H PARENT 9 16 86 46 52 57
REMARK Flexibility Score: inf
ROOT
ATOM      1  C   UNL A   1      37.701  23.318  25.763  1.00  0.00     0.275 C 
ENDROOT
BRANCH   1   2
ATOM      2  O   UNL A   1      36.677  22.519  25.135  1.00  0.00    -0.458 OA
BRANCH   2   3
ATOM      3  C   UNL A   1      35.410  22.928  25.351  1.00  0.00     0.339 C 
ATOM      4  O   UNL A   1      34.965  23.396  26.391  1.00  0.00    -0.246 OA
BRANCH   3   5
ATOM      5  C   UNL A   1      34.554  22.784  24.157  1.00  0.00     0.075 A 
ATOM      6  C   UNL A   1      33.350  24.028  22.427  1.00  0.00     0.088 A 
ATOM      7  C   UNL A   1      32.392  23.021  22.428  1.00  0.00     0.023 A 
ATOM      8  C   UNL A   1      34.414  23.913  23.325  1.00  0.00     0.039 A 
ATOM      9  C   UNL A   1      32.605  21.829  23.129  1.00  0.00     0.018 A 
ATOM     10  C   UNL A   1      33.689  21.702  24.001  1.00  0.00     0.032 A 
ATOM     11  Br  UNL A   1      33.822  20.095  24.998  1.00  0.00    -0.050 Br
BRANCH   6  12
ATOM     12  S   UNL A   1      33.058  25.592  21.623  1.00  0.00     0.262 S 
ATOM     13  O   UNL A   1      32.829  25.301  20.222  1.00  0.00    -0.201 OA
ATOM     14  O   UNL A   1      34.145  26.463  22.014  1.00  0.00    -0.201 OA
BRANCH  12  15
ATOM     15  N   UNL A   1      31.623  26.364  22.105  1.00  0.00    -0.274 N 
ATOM     16  H   UNL A   1      30.811  26.236  21.562  1.00  0.00     0.180 HD
BRANCH  15  17
ATOM     17  C   UNL A   1      31.552  27.198  23.275  1.00  0.00     0.111 A 
ATOM     18  C   UNL A   1      31.295  28.573  23.236  1.00  0.00     0.238 A 
ATOM     19  N   UNL A   1      31.293  29.366  24.332  1.00  0.00    -0.220 NA
ATOM     20  C   UNL A   1      31.395  28.755  25.529  1.00  0.00     0.115 A 
ATOM     21  C   UNL A   1      31.563  26.595  24.535  1.00  0.00     0.034 A 
ATOM     22  C   UNL A   1      31.468  27.382  25.682  1.00  0.00     0.023 A 
BRANCH  18  23
ATOM     23  O   UNL A   1      30.910  29.248  22.111  1.00  0.00    -0.480 OA
ATOM     24  C   UNL A   1      29.590  29.788  22.177  1.00  0.00     0.280 C 
ENDBRANCH  18  23
ENDBRANCH  15  17
ENDBRANCH  12  15
ENDBRANCH   6  12
ENDBRANCH   3   5
ENDBRANCH   2   3
ENDBRANCH   1   2
BRANCH   1  25
ATOM     25  C   UNL A   1      38.925  22.464  26.088  1.00  0.00     0.275 C 
BRANCH  25  26
ATOM     26  O   UNL A   1      39.636  22.993  27.223  1.00  0.00    -0.458 OA
BRANCH  26  27
ATOM     27  C   UNL A   1      40.581  23.909  26.919  1.00  0.00     0.338 C 
ATOM     28  O   UNL A   1      41.497  23.794  26.122  1.00  0.00    -0.246 OA
BRANCH  27  29
ATOM     29  C   UNL A   1      40.326  25.170  27.629  1.00  0.00     0.060 A 
ATOM     30  C   UNL A   1      41.284  26.168  27.544  1.00  0.00     0.016 A 
ATOM     31  C   UNL A   1      39.296  25.268  28.558  1.00  0.00     0.016 A 
ATOM     32  C   UNL A   1      41.327  27.166  28.512  1.00  0.00     0.010 A 
ATOM     33  C   UNL A   1      39.246  26.379  29.414  1.00  0.00     0.010 A 
ATOM     34  C   UNL A   1      40.296  27.317  29.446  1.00  0.00    -0.014 A 
BRANCH  34  35
ATOM     35  C   UNL A   1      40.335  28.430  30.450  1.00  0.00     0.031 A 
ATOM     36  C   UNL A   1      41.354  28.429  31.567  1.00  0.00     0.074 A 
ATOM     37  C   UNL A   1      39.464  29.461  30.368  1.00  0.00     0.049 A 
ATOM     38  N   UNL A   1      41.399  29.163  32.651  1.00  0.00    -0.248 NA
ATOM     39  C   UNL A   1      42.455  27.456  31.466  1.00  0.00     0.031 C 
ATOM     40  C   UNL A   1      38.457  29.648  29.320  1.00  0.00     0.029 A 
ATOM     41  N   UNL A   1      39.291  30.561  31.177  1.00  0.00    -0.354 N 
ATOM     42  C   UNL A   1      42.475  28.688  33.395  1.00  0.00     0.074 A 
ATOM     43  C   UNL A   1      43.056  27.599  32.640  1.00  0.00     0.031 C 
ATOM     44  C   UNL A   1      37.828  30.814  29.505  1.00  0.00     0.029 A 
ATOM     45  C   UNL A   1      38.276  31.394  30.762  1.00  0.00     0.049 A 
ATOM     46  H   UNL A   1      39.840  30.736  31.975  1.00  0.00     0.167 HD
ATOM     47  C   UNL A   1      42.929  29.117  34.600  1.00  0.00     0.037 A 
ATOM     48  C   UNL A   1      37.708  32.466  31.348  1.00  0.00     0.037 A 
ATOM     49  C   UNL A   1      42.384  30.250  35.310  1.00  0.00     0.049 A 
ATOM     50  C   UNL A   1      38.193  32.897  32.700  1.00  0.00     0.074 A 
ATOM     51  C   UNL A   1      42.792  30.784  36.521  1.00  0.00     0.029 A 
ATOM     52  N   UNL A   1      41.323  31.030  34.871  1.00  0.00    -0.354 N 
ATOM     53  N   UNL A   1      39.164  32.393  33.425  1.00  0.00    -0.248 NA
ATOM     54  C   UNL A   1      37.489  34.021  33.328  1.00  0.00     0.031 C 
ATOM     55  C   UNL A   1      41.943  31.849  36.840  1.00  0.00     0.029 A 
ATOM     56  C   UNL A   1      41.048  32.024  35.798  1.00  0.00     0.049 A 
ATOM     57  H   UNL A   1      40.838  30.897  34.025  1.00  0.00     0.167 HD
ATOM     58  C   UNL A   1      39.199  33.152  34.588  1.00  0.00     0.074 A 
ATOM     59  C   UNL A   1      38.164  34.158  34.461  1.00  0.00     0.031 C 
ATOM     60  C   UNL A   1      40.016  33.024  35.662  1.00  0.00     0.037 A 
BRANCH  47  61
ATOM     61  C   UNL A   1      44.038  28.335  35.258  1.00  0.00     0.058 A 
ATOM     62  C   UNL A   1      45.394  28.668  35.108  1.00  0.00     0.135 A 
ATOM     63  C   UNL A   1      43.728  27.240  36.085  1.00  0.00     0.135 A 
ATOM     64  F   UNL A   1      45.756  29.695  34.322  1.00  0.00    -0.206 F 
ATOM     65  C   UNL A   1      46.400  27.922  35.718  1.00  0.00     0.059 A 
ATOM     66  C   UNL A   1      44.716  26.501  36.732  1.00  0.00     0.059 A 
ATOM     67  F   UNL A   1      42.450  26.876  36.274  1.00  0.00    -0.206 F 
ATOM     68  C   UNL A   1      46.051  26.839  36.526  1.00  0.00     0.060 A 
BRANCH  68  69
ATOM     69  S   UNL A   1      47.369  25.870  37.291  1.00  0.00     0.124 S 
ATOM     70  O   UNL A   1      48.532  26.720  37.049  1.00  0.00    -0.237 OA
ATOM     71  O   UNL A   1      46.926  25.785  38.679  1.00  0.00    -0.237 OA
ATOM     72  O   UNL A   1      47.346  24.614  36.549  1.00  0.00    -0.744 OA
ENDBRANCH  68  69
ENDBRANCH  47  61
BRANCH  48  73
ATOM     73  C   UNL A   1      36.577  33.163  30.674  1.00  0.00     0.058 A 
ATOM     74  C   UNL A   1      35.252  32.945  31.075  1.00  0.00     0.135 A 
ATOM     75  C   UNL A   1      36.802  34.097  29.648  1.00  0.00     0.135 A 
ATOM     76  F   UNL A   1      34.981  32.051  32.039  1.00  0.00    -0.206 F 
ATOM     77  C   UNL A   1      34.191  33.625  30.486  1.00  0.00     0.059 A 
ATOM     78  C   UNL A   1      35.763  34.816  29.069  1.00  0.00     0.059 A 
ATOM     79  F   UNL A   1      38.052  34.351  29.232  1.00  0.00    -0.206 F 
ATOM     80  C   UNL A   1      34.458  34.567  29.491  1.00  0.00     0.060 A 
BRANCH  80  81
ATOM     81  S   UNL A   1      33.080  35.495  28.781  1.00  0.00     0.124 S 
ATOM     82  O   UNL A   1      32.402  35.976  29.979  1.00  0.00    -0.237 OA
ATOM     83  O   UNL A   1      33.770  36.508  27.988  1.00  0.00    -0.237 OA
ATOM     84  O   UNL A   1      32.360  34.488  28.009  1.00  0.00    -0.744 OA
ENDBRANCH  80  81
ENDBRANCH  48  73
BRANCH  60  85
ATOM     85  C   UNL A   1      39.855  34.027  36.772  1.00  0.00     0.058 A 
ATOM     86  C   UNL A   1      38.963  33.819  37.836  1.00  0.00     0.135 A 
ATOM     87  C   UNL A   1      40.631  35.197  36.785  1.00  0.00     0.135 A 
ATOM     88  F   UNL A   1      38.190  32.722  37.867  1.00  0.00    -0.206 F 
ATOM     89  C   UNL A   1      38.829  34.749  38.862  1.00  0.00     0.059 A 
ATOM     90  C   UNL A   1      40.536  36.125  37.817  1.00  0.00     0.059 A 
ATOM     91  F   UNL A   1      41.504  35.442  35.795  1.00  0.00    -0.206 F 
ATOM     92  C   UNL A   1      39.622  35.898  38.845  1.00  0.00     0.060 A 
BRANCH  92  93
ATOM     93  S   UNL A   1      39.461  37.081  40.199  1.00  0.00     0.124 S 
ATOM     94  O   UNL A   1      40.818  37.607  40.294  1.00  0.00    -0.237 OA
ATOM     95  O   UNL A   1      38.456  38.007  39.686  1.00  0.00    -0.237 OA
ATOM     96  O   UNL A   1      39.027  36.255  41.323  1.00  0.00    -0.744 OA
ENDBRANCH  92  93
ENDBRANCH  60  85
ENDBRANCH  34  35
ENDBRANCH  27  29
ENDBRANCH  26  27
ENDBRANCH  25  26
ENDBRANCH   1  25
TORSDOF 18
ENDMDL
MODEL 2
REMARK VINA RESULT:     -11.1      6.712     11.961
REMARK SMILES COc1ncccc1NS(=O)(=O)c1ccc(Br)c(C(=O)OCCOC(=O)c2ccc(-c3c4nc(c(-c5c(F)cc(S(=O)(=O)[O-])cc5F)c5ccc([nH]5)c(-c5c(F)cc(S(=O)(=O)[O-])cc5F)c5nc(c(-c6c(F)cc(S(=O)(=O)[O-])cc6F)c6ccc3[nH]6)C=C5)C=C4)cc2)c1
REMARK SMILES IDX 22 1 21 2 19 3 20 4 18 5 13 6 14 7 93 8 15 9 16 10 17 11
REMARK SMILES IDX 10 12 11 13 12 14 9 15 8 17 3 18 4 19 5 20 7 21 6 22 2 23
REMARK SMILES IDX 1 24 23 25 24 26 25 27 26 28 27 29 28 30 92 31 29 32 91 33
REMARK SMILES IDX 30 34 31 35 32 36 85 37 33 38 90 39 84 40 86 41 34 42 89 43
REMARK SMILES IDX 83 44 82 45 35 47 69 48 48 49 68 50 49 51 52 52 67 53 87 54
REMARK SMILES IDX 50 55 51 56 66 58 88 59 53 60 36 61 37 62 46 63 38 64 39 65
REMARK SMILES IDX 45 66 47 67 40 68 41 69 42 70 43 71 44 72 70 73 71 74 80 75
REMARK SMILES IDX 72 76 73 77 79 78 81 79 74 80 75 81 76 82 77 83 78 84 54 85
REMARK SMILES IDX 55 86 64 87 56 88 57 89 63 90 65 91 58 92 59 93 60 94 61 95
REMARK SMILES IDX 62 96
REMARK H PARENT 9 16 86 46 52 57
REMARK Flexibility Score: inf
ROOT
ATOM      1  C   UNL A   1      33.705  28.879  26.175  1.00  0.00     0.275 C 
ENDROOT
BRANCH   1   2
ATOM      2  O   UNL A   1      33.515  27.452  26.254  1.00  0.00    -0.458 OA
BRANCH   2   3
ATOM      3  C   UNL A   1      32.235  27.033  26.171  1.00  0.00     0.339 C 
ATOM      4  O   UNL A   1      31.359  27.205  27.009  1.00  0.00    -0.246 OA
BRANCH   3   5
ATOM      5  C   UNL A   1      31.945  26.333  24.905  1.00  0.00     0.075 A 
ATOM      6  C   UNL A   1      32.586  24.428  23.508  1.00  0.00     0.088 A 
ATOM      7  C   UNL A   1      32.283  25.197  22.391  1.00  0.00     0.023 A 
ATOM      8  C   UNL A   1      32.444  25.022  24.764  1.00  0.00     0.039 A 
ATOM      9  C   UNL A   1      31.640  26.433  22.525  1.00  0.00     0.018 A 
ATOM     10  C   UNL A   1      31.468  27.011  23.784  1.00  0.00     0.032 A 
ATOM     11  Br  UNL A   1      30.698  28.742  23.850  1.00  0.00    -0.050 Br
BRANCH   6  12
ATOM     12  S   UNL A   1      33.491  22.898  23.369  1.00  0.00     0.262 S 
ATOM     13  O   UNL A   1      34.685  23.192  22.601  1.00  0.00    -0.201 OA
ATOM     14  O   UNL A   1      32.550  21.906  22.895  1.00  0.00    -0.201 OA
BRANCH  12  15
ATOM     15  N   UNL A   1      34.104  22.316  24.843  1.00  0.00    -0.274 N 
ATOM     16  H   UNL A   1      33.507  21.803  25.435  1.00  0.00     0.180 HD
BRANCH  15  17
ATOM     17  C   UNL A   1      35.462  22.546  25.257  1.00  0.00     0.111 A 
ATOM     18  C   UNL A   1      36.439  21.545  25.311  1.00  0.00     0.238 A 
ATOM     19  N   UNL A   1      37.698  21.750  25.761  1.00  0.00    -0.220 NA
ATOM     20  C   UNL A   1      38.054  23.023  26.023  1.00  0.00     0.115 A 
ATOM     21  C   UNL A   1      35.896  23.860  25.451  1.00  0.00     0.034 A 
ATOM     22  C   UNL A   1      37.217  24.106  25.826  1.00  0.00     0.023 A 
BRANCH  18  23
ATOM     23  O   UNL A   1      36.268  20.282  24.813  1.00  0.00    -0.480 OA
ATOM     24  C   UNL A   1      37.439  19.468  24.875  1.00  0.00     0.280 C 
ENDBRANCH  18  23
ENDBRANCH  15  17
ENDBRANCH  12  15
ENDBRANCH   6  12
ENDBRANCH   3   5
ENDBRANCH   2   3
ENDBRANCH   1   2
BRANCH   1  25
ATOM     25  C   UNL A   1      33.982  29.461  27.561  1.00  0.00     0.275 C 
BRANCH  25  26
ATOM     26  O   UNL A   1      35.328  29.169  27.982  1.00  0.00    -0.458 OA
BRANCH  26  27
ATOM     27  C   UNL A   1      35.857  30.070  28.840  1.00  0.00     0.338 C 
ATOM     28  O   UNL A   1      35.260  30.783  29.628  1.00  0.00    -0.246 OA
BRANCH  27  29
ATOM     29  C   UNL A   1      37.325  30.039  28.781  1.00  0.00     0.060 A 
ATOM     30  C   UNL A   1      37.923  30.004  27.530  1.00  0.00     0.016 A 
ATOM     31  C   UNL A   1      38.079  29.790  29.923  1.00  0.00     0.016 A 
ATOM     32  C   UNL A   1      39.225  29.532  27.403  1.00  0.00     0.010 A 
ATOM     33  C   UNL A   1      39.444  29.492  29.793  1.00  0.00     0.010 A 
ATOM     34  C   UNL A   1      40.027  29.298  28.526  1.00  0.00    -0.014 A 
BRANCH  34  35
ATOM     35  C   UNL A   1      41.445  28.839  28.366  1.00  0.00     0.031 A 
ATOM     36  C   UNL A   1      42.593  29.813  28.511  1.00  0.00     0.074 A 
ATOM     37  C   UNL A   1      41.723  27.544  28.100  1.00  0.00     0.049 A 
ATOM     38  N   UNL A   1      43.854  29.665  28.184  1.00  0.00    -0.248 NA
ATOM     39  C   UNL A   1      42.281  31.137  29.074  1.00  0.00     0.031 C 
ATOM     40  C   UNL A   1      40.739  26.464  27.988  1.00  0.00     0.029 A 
ATOM     41  N   UNL A   1      42.924  26.905  27.885  1.00  0.00    -0.354 N 
ATOM     42  C   UNL A   1      44.462  30.894  28.421  1.00  0.00     0.074 A 
ATOM     43  C   UNL A   1      43.431  31.780  28.919  1.00  0.00     0.031 C 
ATOM     44  C   UNL A   1      41.370  25.299  27.800  1.00  0.00     0.029 A 
ATOM     45  C   UNL A   1      42.791  25.559  27.629  1.00  0.00     0.049 A 
ATOM     46  H   UNL A   1      43.793  27.366  27.911  1.00  0.00     0.167 HD
ATOM     47  C   UNL A   1      45.758  31.251  28.234  1.00  0.00     0.037 A 
ATOM     48  C   UNL A   1      43.688  24.636  27.231  1.00  0.00     0.037 A 
ATOM     49  C   UNL A   1      46.790  30.338  27.804  1.00  0.00     0.049 A 
ATOM     50  C   UNL A   1      45.106  25.059  26.985  1.00  0.00     0.074 A 
ATOM     51  C   UNL A   1      48.138  30.593  27.613  1.00  0.00     0.029 A 
ATOM     52  N   UNL A   1      46.595  28.996  27.509  1.00  0.00    -0.354 N 
ATOM     53  N   UNL A   1      45.650  26.243  27.144  1.00  0.00    -0.248 NA
ATOM     54  C   UNL A   1      46.024  24.033  26.478  1.00  0.00     0.031 C 
ATOM     55  C   UNL A   1      48.746  29.421  27.150  1.00  0.00     0.029 A 
ATOM     56  C   UNL A   1      47.792  28.417  27.115  1.00  0.00     0.049 A 
ATOM     57  H   UNL A   1      45.734  28.524  27.572  1.00  0.00     0.167 HD
ATOM     58  C   UNL A   1      46.982  26.097  26.773  1.00  0.00     0.074 A 
ATOM     59  C   UNL A   1      47.162  24.709  26.399  1.00  0.00     0.031 C 
ATOM     60  C   UNL A   1      47.963  27.033  26.746  1.00  0.00     0.037 A 
BRANCH  47  61
ATOM     61  C   UNL A   1      46.132  32.697  28.441  1.00  0.00     0.058 A 
ATOM     62  C   UNL A   1      46.534  33.206  29.686  1.00  0.00     0.135 A 
ATOM     63  C   UNL A   1      46.111  33.590  27.354  1.00  0.00     0.135 A 
ATOM     64  F   UNL A   1      46.564  32.408  30.766  1.00  0.00    -0.206 F 
ATOM     65  C   UNL A   1      46.864  34.549  29.854  1.00  0.00     0.059 A 
ATOM     66  C   UNL A   1      46.468  34.929  27.491  1.00  0.00     0.059 A 
ATOM     67  F   UNL A   1      45.740  33.162  26.136  1.00  0.00    -0.206 F 
ATOM     68  C   UNL A   1      46.825  35.403  28.750  1.00  0.00     0.060 A 
BRANCH  68  69
ATOM     69  S   UNL A   1      47.234  37.145  28.991  1.00  0.00     0.124 S 
ATOM     70  O   UNL A   1      48.575  37.211  28.417  1.00  0.00    -0.237 OA
ATOM     71  O   UNL A   1      46.187  37.818  28.228  1.00  0.00    -0.237 OA
ATOM     72  O   UNL A   1      47.162  37.318  30.438  1.00  0.00    -0.744 OA
ENDBRANCH  68  69
ENDBRANCH  47  61
BRANCH  48  73
ATOM     73  C   UNL A   1      43.247  23.234  26.987  1.00  0.00     0.058 A 
ATOM     74  C   UNL A   1      43.136  22.728  25.685  1.00  0.00     0.135 A 
ATOM     75  C   UNL A   1      42.973  22.359  28.053  1.00  0.00     0.135 A 
ATOM     76  F   UNL A   1      43.370  23.527  24.632  1.00  0.00    -0.206 F 
ATOM     77  C   UNL A   1      42.770  21.407  25.446  1.00  0.00     0.059 A 
ATOM     78  C   UNL A   1      42.641  21.026  27.840  1.00  0.00     0.059 A 
ATOM     79  F   UNL A   1      43.072  22.789  29.320  1.00  0.00    -0.206 F 
ATOM     80  C   UNL A   1      42.536  20.560  26.531  1.00  0.00     0.060 A 
BRANCH  80  81
ATOM     81  S   UNL A   1      42.131  18.830  26.210  1.00  0.00     0.124 S 
ATOM     82  O   UNL A   1      40.755  18.933  25.738  1.00  0.00    -0.237 OA
ATOM     83  O   UNL A   1      43.125  18.464  25.206  1.00  0.00    -0.237 OA
ATOM     84  O   UNL A   1      42.305  18.197  27.514  1.00  0.00    -0.744 OA
ENDBRANCH  80  81
ENDBRANCH  48  73
BRANCH  60  85
ATOM     85  C   UNL A   1      49.337  26.575  26.339  1.00  0.00     0.058 A 
ATOM     86  C   UNL A   1      49.853  26.826  25.058  1.00  0.00     0.135 A 
ATOM     87  C   UNL A   1      50.160  25.905  27.258  1.00  0.00     0.135 A 
ATOM     88  F   UNL A   1      49.104  27.453  24.138  1.00  0.00    -0.206 F 
ATOM     89  C   UNL A   1      51.129  26.406  24.695  1.00  0.00     0.059 A 
ATOM     90  C   UNL A   1      51.451  25.504  26.927  1.00  0.00     0.059 A 
ATOM     91  F   UNL A   1      49.718  25.646  28.500  1.00  0.00    -0.206 F 
ATOM     92  C   UNL A   1      51.922  25.748  25.638  1.00  0.00     0.060 A 
BRANCH  92  93
ATOM     93  S   UNL A   1      53.587  25.238  25.164  1.00  0.00     0.124 S 
ATOM     94  O   UNL A   1      53.638  25.660  23.768  1.00  0.00    -0.237 OA
ATOM     95  O   UNL A   1      54.421  26.001  26.087  1.00  0.00    -0.237 OA
ATOM     96  O   UNL A   1      53.577  23.795  25.384  1.00  0.00    -0.744 OA
ENDBRANCH  92  93
ENDBRANCH  60  85
ENDBRANCH  34  35
ENDBRANCH  27  29
ENDBRANCH  26  27
ENDBRANCH  25  26
ENDBRANCH   1  25
TORSDOF 18
ENDMDL
MODEL 3
REMARK VINA RESULT:     -10.9      5.211     10.702
REMARK SMILES COc1ncccc1NS(=O)(=O)c1ccc(Br)c(C(=O)OCCOC(=O)c2ccc(-c3c4nc(c(-c5c(F)cc(S(=O)(=O)[O-])cc5F)c5ccc([nH]5)c(-c5c(F)cc(S(=O)(=O)[O-])cc5F)c5nc(c(-c6c(F)cc(S(=O)(=O)[O-])cc6F)c6ccc3[nH]6)C=C5)C=C4)cc2)c1
REMARK SMILES IDX 22 1 21 2 19 3 20 4 18 5 13 6 14 7 93 8 15 9 16 10 17 11
REMARK SMILES IDX 10 12 11 13 12 14 9 15 8 17 3 18 4 19 5 20 7 21 6 22 2 23
REMARK SMILES IDX 1 24 23 25 24 26 25 27 26 28 27 29 28 30 92 31 29 32 91 33
REMARK SMILES IDX 30 34 31 35 32 36 85 37 33 38 90 39 84 40 86 41 34 42 89 43
REMARK SMILES IDX 83 44 82 45 35 47 69 48 48 49 68 50 49 51 52 52 67 53 87 54
REMARK SMILES IDX 50 55 51 56 66 58 88 59 53 60 36 61 37 62 46 63 38 64 39 65
REMARK SMILES IDX 45 66 47 67 40 68 41 69 42 70 43 71 44 72 70 73 71 74 80 75
REMARK SMILES IDX 72 76 73 77 79 78 81 79 74 80 75 81 76 82 77 83 78 84 54 85
REMARK SMILES IDX 55 86 64 87 56 88 57 89 63 90 65 91 58 92 59 93 60 94 61 95
REMARK SMILES IDX 62 96
REMARK H PARENT 9 16 86 46 52 57
REMARK Flexibility Score: inf
ROOT
ATOM      1  C   UNL A   1      33.447  28.862  25.590  1.00  0.00     0.275 C 
ENDROOT
BRANCH   1   2
ATOM      2  O   UNL A   1      32.016  28.681  25.580  1.00  0.00    -0.458 OA
BRANCH   2   3
ATOM      3  C   UNL A   1      31.588  27.437  25.877  1.00  0.00     0.339 C 
ATOM      4  O   UNL A   1      30.991  27.098  26.891  1.00  0.00    -0.246 OA
BRANCH   3   5
ATOM      5  C   UNL A   1      31.888  26.462  24.812  1.00  0.00     0.075 A 
ATOM      6  C   UNL A   1      33.480  24.748  24.091  1.00  0.00     0.088 A 
ATOM      7  C   UNL A   1      33.219  25.116  22.777  1.00  0.00     0.023 A 
ATOM      8  C   UNL A   1      32.830  25.455  25.106  1.00  0.00     0.039 A 
ATOM      9  C   UNL A   1      32.174  25.996  22.473  1.00  0.00     0.018 A 
ATOM     10  C   UNL A   1      31.502  26.678  23.489  1.00  0.00     0.032 A 
ATOM     11  Br  UNL A   1      30.187  27.940  22.970  1.00  0.00    -0.050 Br
BRANCH   6  12
ATOM     12  S   UNL A   1      34.865  23.708  24.511  1.00  0.00     0.262 S 
ATOM     13  O   UNL A   1      35.820  24.549  25.205  1.00  0.00    -0.201 OA
ATOM     14  O   UNL A   1      35.250  23.026  23.293  1.00  0.00    -0.201 OA
BRANCH  12  15
ATOM     15  N   UNL A   1      34.507  22.497  25.648  1.00  0.00    -0.274 N 
ATOM     16  H   UNL A   1      34.723  22.659  26.595  1.00  0.00     0.180 HD
BRANCH  15  17
ATOM     17  C   UNL A   1      33.900  21.247  25.278  1.00  0.00     0.111 A 
ATOM     18  C   UNL A   1      32.527  21.085  25.058  1.00  0.00     0.238 A 
ATOM     19  N   UNL A   1      31.950  19.894  24.773  1.00  0.00    -0.220 NA
ATOM     20  C   UNL A   1      32.775  18.854  24.543  1.00  0.00     0.115 A 
ATOM     21  C   UNL A   1      34.723  20.169  24.944  1.00  0.00     0.034 A 
ATOM     22  C   UNL A   1      34.154  18.956  24.555  1.00  0.00     0.023 A 
BRANCH  18  23
ATOM     23  O   UNL A   1      31.634  22.119  24.996  1.00  0.00    -0.480 OA
ATOM     24  C   UNL A   1      31.002  22.419  26.240  1.00  0.00     0.280 C 
ENDBRANCH  18  23
ENDBRANCH  15  17
ENDBRANCH  12  15
ENDBRANCH   6  12
ENDBRANCH   3   5
ENDBRANCH   2   3
ENDBRANCH   1   2
BRANCH   1  25
ATOM     25  C   UNL A   1      33.975  28.884  27.023  1.00  0.00     0.275 C 
BRANCH  25  26
ATOM     26  O   UNL A   1      33.484  30.034  27.737  1.00  0.00    -0.458 OA
BRANCH  26  27
ATOM     27  C   UNL A   1      34.447  30.834  28.247  1.00  0.00     0.338 C 
ATOM     28  O   UNL A   1      34.315  31.962  28.692  1.00  0.00    -0.246 OA
BRANCH  27  29
ATOM     29  C   UNL A   1      35.733  30.127  28.294  1.00  0.00     0.060 A 
ATOM     30  C   UNL A   1      36.156  29.629  29.517  1.00  0.00     0.016 A 
ATOM     31  C   UNL A   1      36.615  30.180  27.220  1.00  0.00     0.016 A 
ATOM     32  C   UNL A   1      37.505  29.364  29.724  1.00  0.00     0.010 A 
ATOM     33  C   UNL A   1      37.935  29.736  27.391  1.00  0.00     0.010 A 
ATOM     34  C   UNL A   1      38.419  29.377  28.664  1.00  0.00    -0.014 A 
BRANCH  34  35
ATOM     35  C   UNL A   1      39.861  29.038  28.898  1.00  0.00     0.031 A 
ATOM     36  C   UNL A   1      40.811  30.062  29.477  1.00  0.00     0.074 A 
ATOM     37  C   UNL A   1      40.335  27.807  28.604  1.00  0.00     0.049 A 
ATOM     38  N   UNL A   1      42.121  30.042  29.534  1.00  0.00    -0.248 NA
ATOM     39  C   UNL A   1      40.215  31.282  30.045  1.00  0.00     0.031 C 
ATOM     40  C   UNL A   1      39.542  26.685  28.094  1.00  0.00     0.029 A 
ATOM     41  N   UNL A   1      41.604  27.282  28.701  1.00  0.00    -0.354 N 
ATOM     42  C   UNL A   1      42.504  31.271  30.062  1.00  0.00     0.074 A 
ATOM     43  C   UNL A   1      41.288  32.016  30.308  1.00  0.00     0.031 C 
ATOM     44  C   UNL A   1      40.315  25.598  27.994  1.00  0.00     0.029 A 
ATOM     45  C   UNL A   1      41.690  25.973  28.287  1.00  0.00     0.049 A 
ATOM     46  H   UNL A   1      42.376  27.795  29.034  1.00  0.00     0.167 HD
ATOM     47  C   UNL A   1      43.755  31.735  30.312  1.00  0.00     0.037 A 
ATOM     48  C   UNL A   1      42.753  25.168  28.092  1.00  0.00     0.037 A 
ATOM     49  C   UNL A   1      44.955  30.954  30.128  1.00  0.00     0.049 A 
ATOM     50  C   UNL A   1      44.130  25.714  28.329  1.00  0.00     0.074 A 
ATOM     51  C   UNL A   1      46.266  31.321  30.379  1.00  0.00     0.029 A 
ATOM     52  N   UNL A   1      44.992  29.649  29.659  1.00  0.00    -0.354 N 
ATOM     53  N   UNL A   1      44.481  26.903  28.759  1.00  0.00    -0.248 NA
ATOM     54  C   UNL A   1      45.256  24.823  28.026  1.00  0.00     0.031 C 
ATOM     55  C   UNL A   1      47.099  30.259  30.010  1.00  0.00     0.029 A 
ATOM     56  C   UNL A   1      46.304  29.204  29.591  1.00  0.00     0.049 A 
ATOM     57  H   UNL A   1      44.203  29.115  29.412  1.00  0.00     0.167 HD
ATOM     58  C   UNL A   1      45.870  26.895  28.797  1.00  0.00     0.074 A 
ATOM     59  C   UNL A   1      46.292  25.579  28.362  1.00  0.00     0.031 C 
ATOM     60  C   UNL A   1      46.716  27.891  29.159  1.00  0.00     0.037 A 
BRANCH  47  61
ATOM     61  C   UNL A   1      43.902  33.167  30.762  1.00  0.00     0.058 A 
ATOM     62  C   UNL A   1      44.101  33.523  32.105  1.00  0.00     0.135 A 
ATOM     63  C   UNL A   1      43.870  34.206  29.814  1.00  0.00     0.135 A 
ATOM     64  F   UNL A   1      44.130  32.578  33.060  1.00  0.00    -0.206 F 
ATOM     65  C   UNL A   1      44.223  34.854  32.497  1.00  0.00     0.059 A 
ATOM     66  C   UNL A   1      44.024  35.542  30.179  1.00  0.00     0.059 A 
ATOM     67  F   UNL A   1      43.688  33.929  28.513  1.00  0.00    -0.206 F 
ATOM     68  C   UNL A   1      44.181  35.857  31.526  1.00  0.00     0.060 A 
BRANCH  68  69
ATOM     69  S   UNL A   1      44.319  37.578  32.054  1.00  0.00     0.124 S 
ATOM     70  O   UNL A   1      45.722  37.648  32.453  1.00  0.00    -0.237 OA
ATOM     71  O   UNL A   1      43.970  38.305  30.837  1.00  0.00    -0.237 OA
ATOM     72  O   UNL A   1      43.352  37.681  33.142  1.00  0.00    -0.744 OA
ENDBRANCH  68  69
ENDBRANCH  47  61
BRANCH  48  73
ATOM     73  C   UNL A   1      42.548  23.780  27.591  1.00  0.00     0.058 A 
ATOM     74  C   UNL A   1      42.519  23.505  26.217  1.00  0.00     0.135 A 
ATOM     75  C   UNL A   1      42.422  22.696  28.476  1.00  0.00     0.135 A 
ATOM     76  F   UNL A   1      42.617  24.507  25.330  1.00  0.00    -0.206 F 
ATOM     77  C   UNL A   1      42.375  22.207  25.737  1.00  0.00     0.059 A 
ATOM     78  C   UNL A   1      42.314  21.386  28.021  1.00  0.00     0.059 A 
ATOM     79  F   UNL A   1      42.452  22.902  29.802  1.00  0.00    -0.206 F 
ATOM     80  C   UNL A   1      42.285  21.153  26.648  1.00  0.00     0.060 A 
BRANCH  80  81
ATOM     81  S   UNL A   1      42.168  19.466  26.014  1.00  0.00     0.124 S 
ATOM     82  O   UNL A   1      42.655  18.691  27.149  1.00  0.00    -0.237 OA
ATOM     83  O   UNL A   1      40.742  19.346  25.724  1.00  0.00    -0.237 OA
ATOM     84  O   UNL A   1      43.039  19.486  24.844  1.00  0.00    -0.744 OA
ENDBRANCH  80  81
ENDBRANCH  48  73
BRANCH  60  85
ATOM     85  C   UNL A   1      48.188  27.581  29.144  1.00  0.00     0.058 A 
ATOM     86  C   UNL A   1      48.964  27.723  27.983  1.00  0.00     0.135 A 
ATOM     87  C   UNL A   1      48.835  27.169  30.320  1.00  0.00     0.135 A 
ATOM     88  F   UNL A   1      48.393  28.103  26.830  1.00  0.00    -0.206 F 
ATOM     89  C   UNL A   1      50.327  27.442  27.984  1.00  0.00     0.059 A 
ATOM     90  C   UNL A   1      50.203  26.914  30.351  1.00  0.00     0.059 A 
ATOM     91  F   UNL A   1      48.141  27.025  31.460  1.00  0.00    -0.206 F 
ATOM     92  C   UNL A   1      50.938  27.041  29.173  1.00  0.00     0.060 A 
BRANCH  92  93
ATOM     93  S   UNL A   1      52.713  26.712  29.167  1.00  0.00     0.124 S 
ATOM     94  O   UNL A   1      52.873  25.936  30.392  1.00  0.00    -0.237 OA
ATOM     95  O   UNL A   1      52.888  25.973  27.920  1.00  0.00    -0.237 OA
ATOM     96  O   UNL A   1      53.307  28.046  29.185  1.00  0.00    -0.744 OA
ENDBRANCH  92  93
ENDBRANCH  60  85
ENDBRANCH  34  35
ENDBRANCH  27  29
ENDBRANCH  26  27
ENDBRANCH  25  26
ENDBRANCH   1  25
TORSDOF 18
ENDMDL
