MODEL 1
REMARK VINA RESULT:     -12.2      0.000      0.000
REMARK SMILES O=C(CC1(CC(=O)OCCOC(=O)c2ccc(-c3c4nc(c(-c5c(F)cc(S(=O)(=O)[O-])cc5F)c5ccc([nH]5)c(-c5c(F)cc(S(=O)(=O)[O-])cc5F)c5nc(c(-c6c(F)cc(S(=O)(=O)[O-])cc6F)c6ccc3[nH]6)C=C5)C=C4)cc2)CCCCC1)Nc1ccc2ccccc2n1
REMARK SMILES IDX 9 1 8 2 6 3 7 4 5 5 4 6 80 7 84 8 81 9 83 10 82 11 3 12 2 13
REMARK SMILES IDX 1 14 85 15 86 17 87 18 95 19 88 20 94 21 89 22 93 23 90 24
REMARK SMILES IDX 92 25 91 26 10 27 11 28 12 29 13 30 14 31 15 32 79 33 16 34
REMARK SMILES IDX 78 35 17 36 18 37 19 38 72 39 20 40 77 41 71 42 73 43 21 44
REMARK SMILES IDX 76 45 70 46 69 47 22 49 56 50 35 51 55 52 36 53 39 54 54 55
REMARK SMILES IDX 74 56 37 57 38 58 53 60 75 61 40 62 23 63 24 64 33 65 25 66
REMARK SMILES IDX 26 67 32 68 34 69 27 70 28 71 29 72 30 73 31 74 57 75 58 76
REMARK SMILES IDX 67 77 59 78 60 79 66 80 68 81 61 82 62 83 63 84 64 85 65 86
REMARK SMILES IDX 41 87 42 88 51 89 43 90 44 91 50 92 52 93 45 94 46 95 47 96
REMARK SMILES IDX 48 97 49 98
REMARK H PARENT 85 16 73 48 39 59
REMARK Flexibility Score: inf
ROOT
ATOM      1  C   UNL A   1      33.343  30.213  26.398  1.00  0.00     0.274 C 
ENDROOT
BRANCH   1   2
ATOM      2  O   UNL A   1      33.881  28.944  25.975  1.00  0.00    -0.462 OA
BRANCH   2   3
ATOM      3  C   UNL A   1      32.961  28.042  25.559  1.00  0.00     0.306 C 
ATOM      4  O   UNL A   1      33.030  26.836  25.782  1.00  0.00    -0.252 OA
BRANCH   3   5
ATOM      5  C   UNL A   1      31.857  28.609  24.691  1.00  0.00     0.130 C 
BRANCH   5   6
ATOM      6  C   UNL A   1      31.594  28.116  23.236  1.00  0.00    -0.010 C 
ATOM      7  C   UNL A   1      30.950  29.311  22.457  1.00  0.00     0.008 C 
ATOM      8  C   UNL A   1      30.602  26.932  23.156  1.00  0.00     0.008 C 
ATOM      9  C   UNL A   1      29.552  29.684  22.946  1.00  0.00     0.001 C 
ATOM     10  C   UNL A   1      29.214  27.278  23.684  1.00  0.00     0.001 C 
ATOM     11  C   UNL A   1      28.620  28.476  22.951  1.00  0.00     0.000 C 
BRANCH   6  12
ATOM     12  C   UNL A   1      32.935  27.683  22.598  1.00  0.00     0.108 C 
BRANCH  12  13
ATOM     13  C   UNL A   1      32.997  26.239  22.142  1.00  0.00     0.226 C 
ATOM     14  O   UNL A   1      33.160  25.995  20.950  1.00  0.00    -0.275 OA
ATOM     15  N   UNL A   1      32.941  25.329  23.188  1.00  0.00    -0.311 N 
ATOM     16  H   UNL A   1      32.489  25.553  24.034  1.00  0.00     0.171 HD
BRANCH  15  17
ATOM     17  C   UNL A   1      33.549  24.079  22.998  1.00  0.00     0.133 A 
ATOM     18  C   UNL A   1      32.697  22.998  23.156  1.00  0.00     0.048 A 
ATOM     19  N   UNL A   1      34.887  23.983  23.062  1.00  0.00    -0.231 NA
ATOM     20  C   UNL A   1      33.230  21.856  23.735  1.00  0.00     0.014 A 
ATOM     21  C   UNL A   1      35.405  22.883  23.624  1.00  0.00     0.073 A 
ATOM     22  C   UNL A   1      34.592  21.820  24.061  1.00  0.00     0.000 A 
ATOM     23  C   UNL A   1      36.769  22.823  23.876  1.00  0.00     0.029 A 
ATOM     24  C   UNL A   1      35.138  20.798  24.851  1.00  0.00     0.010 A 
ATOM     25  C   UNL A   1      37.319  21.798  24.648  1.00  0.00     0.002 A 
ATOM     26  C   UNL A   1      36.495  20.804  25.166  1.00  0.00     0.001 A 
ENDBRANCH  15  17
ENDBRANCH  12  13
ENDBRANCH   6  12
ENDBRANCH   5   6
ENDBRANCH   3   5
ENDBRANCH   2   3
ENDBRANCH   1   2
BRANCH   1  27
ATOM     27  C   UNL A   1      33.990  30.727  27.684  1.00  0.00     0.275 C 
BRANCH  27  28
ATOM     28  O   UNL A   1      35.105  29.909  28.075  1.00  0.00    -0.458 OA
BRANCH  28  29
ATOM     29  C   UNL A   1      35.973  30.494  28.928  1.00  0.00     0.338 C 
ATOM     30  O   UNL A   1      35.727  31.350  29.770  1.00  0.00    -0.246 OA
BRANCH  29  31
ATOM     31  C   UNL A   1      37.307  29.911  28.747  1.00  0.00     0.060 A 
ATOM     32  C   UNL A   1      38.072  29.604  29.874  1.00  0.00     0.016 A 
ATOM     33  C   UNL A   1      37.840  29.774  27.466  1.00  0.00     0.016 A 
ATOM     34  C   UNL A   1      39.395  29.203  29.728  1.00  0.00     0.010 A 
ATOM     35  C   UNL A   1      39.156  29.325  27.319  1.00  0.00     0.010 A 
ATOM     36  C   UNL A   1      39.949  29.057  28.450  1.00  0.00    -0.014 A 
BRANCH  36  37
ATOM     37  C   UNL A   1      41.366  28.650  28.291  1.00  0.00     0.031 A 
ATOM     38  C   UNL A   1      42.456  29.679  28.379  1.00  0.00     0.074 A 
ATOM     39  C   UNL A   1      41.667  27.359  28.057  1.00  0.00     0.049 A 
ATOM     40  N   UNL A   1      43.731  29.557  28.113  1.00  0.00    -0.248 NA
ATOM     41  C   UNL A   1      42.055  31.027  28.811  1.00  0.00     0.031 C 
ATOM     42  C   UNL A   1      40.699  26.263  27.991  1.00  0.00     0.029 A 
ATOM     43  N   UNL A   1      42.875  26.753  27.822  1.00  0.00    -0.354 N 
ATOM     44  C   UNL A   1      44.281  30.818  28.308  1.00  0.00     0.074 A 
ATOM     45  C   UNL A   1      43.198  31.693  28.706  1.00  0.00     0.031 C 
ATOM     46  C   UNL A   1      41.349  25.120  27.730  1.00  0.00     0.029 A 
ATOM     47  C   UNL A   1      42.770  25.409  27.556  1.00  0.00     0.049 A 
ATOM     48  H   UNL A   1      43.734  27.234  27.840  1.00  0.00     0.167 HD
ATOM     49  C   UNL A   1      45.570  31.206  28.166  1.00  0.00     0.037 A 
ATOM     50  C   UNL A   1      43.705  24.517  27.178  1.00  0.00     0.037 A 
ATOM     51  C   UNL A   1      46.646  30.318  27.805  1.00  0.00     0.049 A 
ATOM     52  C   UNL A   1      45.125  24.973  27.003  1.00  0.00     0.074 A 
ATOM     53  C   UNL A   1      47.991  30.606  27.659  1.00  0.00     0.029 A 
ATOM     54  N   UNL A   1      46.498  28.963  27.541  1.00  0.00    -0.354 N 
ATOM     55  N   UNL A   1      45.629  26.175  27.162  1.00  0.00    -0.248 NA
ATOM     56  C   UNL A   1      46.103  23.960  26.588  1.00  0.00     0.031 C 
ATOM     57  C   UNL A   1      48.652  29.434  27.274  1.00  0.00     0.029 A 
ATOM     58  C   UNL A   1      47.725  28.405  27.217  1.00  0.00     0.049 A 
ATOM     59  H   UNL A   1      45.646  28.471  27.578  1.00  0.00     0.167 HD
ATOM     60  C   UNL A   1      46.985  26.059  26.879  1.00  0.00     0.074 A 
ATOM     61  C   UNL A   1      47.225  24.668  26.551  1.00  0.00     0.031 C 
ATOM     62  C   UNL A   1      47.942  27.018  26.890  1.00  0.00     0.037 A 
BRANCH  49  63
ATOM     63  C   UNL A   1      45.880  32.664  28.365  1.00  0.00     0.058 A 
ATOM     64  C   UNL A   1      46.015  33.551  27.286  1.00  0.00     0.135 A 
ATOM     65  C   UNL A   1      46.037  33.181  29.662  1.00  0.00     0.135 A 
ATOM     66  F   UNL A   1      45.889  33.107  26.026  1.00  0.00    -0.206 F 
ATOM     67  C   UNL A   1      46.330  34.892  27.483  1.00  0.00     0.059 A 
ATOM     68  C   UNL A   1      46.330  34.523  29.884  1.00  0.00     0.059 A 
ATOM     69  F   UNL A   1      45.918  32.376  30.730  1.00  0.00    -0.206 F 
ATOM     70  C   UNL A   1      46.494  35.366  28.786  1.00  0.00     0.060 A 
BRANCH  70  71
ATOM     71  S   UNL A   1      46.934  37.101  29.027  1.00  0.00     0.124 S 
ATOM     72  O   UNL A   1      48.331  37.106  28.600  1.00  0.00    -0.237 OA
ATOM     73  O   UNL A   1      46.000  37.789  28.142  1.00  0.00    -0.237 OA
ATOM     74  O   UNL A   1      46.712  37.312  30.454  1.00  0.00    -0.744 OA
ENDBRANCH  70  71
ENDBRANCH  49  63
BRANCH  50  75
ATOM     75  C   UNL A   1      43.309  23.109  26.917  1.00  0.00     0.058 A 
ATOM     76  C   UNL A   1      43.249  22.606  25.611  1.00  0.00     0.135 A 
ATOM     77  C   UNL A   1      43.033  22.227  27.973  1.00  0.00     0.135 A 
ATOM     78  F   UNL A   1      43.495  23.414  24.569  1.00  0.00    -0.206 F 
ATOM     79  C   UNL A   1      42.932  21.275  25.358  1.00  0.00     0.059 A 
ATOM     80  C   UNL A   1      42.735  20.887  27.748  1.00  0.00     0.059 A 
ATOM     81  F   UNL A   1      43.090  22.659  29.243  1.00  0.00    -0.206 F 
ATOM     82  C   UNL A   1      42.683  20.422  26.435  1.00  0.00     0.060 A 
BRANCH  82  83
ATOM     83  S   UNL A   1      42.352  18.677  26.103  1.00  0.00     0.124 S 
ATOM     84  O   UNL A   1      42.657  18.070  27.393  1.00  0.00    -0.237 OA
ATOM     85  O   UNL A   1      40.942  18.696  25.724  1.00  0.00    -0.237 OA
ATOM     86  O   UNL A   1      43.278  18.361  25.020  1.00  0.00    -0.744 OA
ENDBRANCH  82  83
ENDBRANCH  50  75
BRANCH  62  87
ATOM     87  C   UNL A   1      49.343  26.591  26.553  1.00  0.00     0.058 A 
ATOM     88  C   UNL A   1      50.174  25.983  27.505  1.00  0.00     0.135 A 
ATOM     89  C   UNL A   1      49.842  26.752  25.251  1.00  0.00     0.135 A 
ATOM     90  F   UNL A   1      49.747  25.813  28.766  1.00  0.00    -0.206 F 
ATOM     91  C   UNL A   1      51.462  25.566  27.183  1.00  0.00     0.059 A 
ATOM     92  C   UNL A   1      51.118  26.324  24.901  1.00  0.00     0.059 A 
ATOM     93  F   UNL A   1      49.082  27.320  24.301  1.00  0.00    -0.206 F 
ATOM     94  C   UNL A   1      51.925  25.741  25.877  1.00  0.00     0.060 A 
BRANCH  94  95
ATOM     95  S   UNL A   1      53.586  25.168  25.460  1.00  0.00     0.124 S 
ATOM     96  O   UNL A   1      53.796  25.796  24.160  1.00  0.00    -0.237 OA
ATOM     97  O   UNL A   1      54.388  25.701  26.558  1.00  0.00    -0.237 OA
ATOM     98  O   UNL A   1      53.447  23.715  25.443  1.00  0.00    -0.744 OA
ENDBRANCH  94  95
ENDBRANCH  62  87
ENDBRANCH  36  37
ENDBRANCH  29  31
ENDBRANCH  28  29
ENDBRANCH  27  28
ENDBRANCH   1  27
TORSDOF 18
ENDMDL
MODEL 2
REMARK VINA RESULT:     -12.2      6.533     11.973
REMARK SMILES O=C(CC1(CC(=O)OCCOC(=O)c2ccc(-c3c4nc(c(-c5c(F)cc(S(=O)(=O)[O-])cc5F)c5ccc([nH]5)c(-c5c(F)cc(S(=O)(=O)[O-])cc5F)c5nc(c(-c6c(F)cc(S(=O)(=O)[O-])cc6F)c6ccc3[nH]6)C=C5)C=C4)cc2)CCCCC1)Nc1ccc2ccccc2n1
REMARK SMILES IDX 9 1 8 2 6 3 7 4 5 5 4 6 80 7 84 8 81 9 83 10 82 11 3 12 2 13
REMARK SMILES IDX 1 14 85 15 86 17 87 18 95 19 88 20 94 21 89 22 93 23 90 24
REMARK SMILES IDX 92 25 91 26 10 27 11 28 12 29 13 30 14 31 15 32 79 33 16 34
REMARK SMILES IDX 78 35 17 36 18 37 19 38 72 39 20 40 77 41 71 42 73 43 21 44
REMARK SMILES IDX 76 45 70 46 69 47 22 49 56 50 35 51 55 52 36 53 39 54 54 55
REMARK SMILES IDX 74 56 37 57 38 58 53 60 75 61 40 62 23 63 24 64 33 65 25 66
REMARK SMILES IDX 26 67 32 68 34 69 27 70 28 71 29 72 30 73 31 74 57 75 58 76
REMARK SMILES IDX 67 77 59 78 60 79 66 80 68 81 61 82 62 83 63 84 64 85 65 86
REMARK SMILES IDX 41 87 42 88 51 89 43 90 44 91 50 92 52 93 45 94 46 95 47 96
REMARK SMILES IDX 48 97 49 98
REMARK H PARENT 85 16 73 48 39 59
REMARK Flexibility Score: inf
ROOT
ATOM      1  C   UNL A   1      37.869  22.858  25.627  1.00  0.00     0.274 C 
ENDROOT
BRANCH   1   2
ATOM      2  O   UNL A   1      37.430  22.118  24.470  1.00  0.00    -0.462 OA
BRANCH   2   3
ATOM      3  C   UNL A   1      36.539  22.765  23.681  1.00  0.00     0.306 C 
ATOM      4  O   UNL A   1      36.693  22.950  22.477  1.00  0.00    -0.252 OA
BRANCH   3   5
ATOM      5  C   UNL A   1      35.350  23.352  24.411  1.00  0.00     0.130 C 
BRANCH   5   6
ATOM      6  C   UNL A   1      33.937  22.694  24.385  1.00  0.00    -0.010 C 
ATOM      7  C   UNL A   1      33.121  23.315  25.567  1.00  0.00     0.008 C 
ATOM      8  C   UNL A   1      33.965  21.163  24.603  1.00  0.00     0.008 C 
ATOM      9  C   UNL A   1      33.647  22.929  26.949  1.00  0.00     0.001 C 
ATOM     10  C   UNL A   1      34.532  20.764  25.961  1.00  0.00     0.001 C 
ATOM     11  C   UNL A   1      33.759  21.416  27.103  1.00  0.00     0.000 C 
BRANCH   6  12
ATOM     12  C   UNL A   1      33.268  22.988  23.021  1.00  0.00     0.108 C 
BRANCH  12  13
ATOM     13  C   UNL A   1      32.113  23.968  23.067  1.00  0.00     0.226 C 
ATOM     14  O   UNL A   1      30.979  23.546  23.280  1.00  0.00    -0.275 OA
ATOM     15  N   UNL A   1      32.508  25.291  22.936  1.00  0.00    -0.311 N 
ATOM     16  H   UNL A   1      33.330  25.531  22.450  1.00  0.00     0.171 HD
BRANCH  15  17
ATOM     17  C   UNL A   1      31.696  26.275  23.519  1.00  0.00     0.133 A 
ATOM     18  C   UNL A   1      31.438  27.363  22.701  1.00  0.00     0.048 A 
ATOM     19  N   UNL A   1      31.552  26.302  24.854  1.00  0.00    -0.231 NA
ATOM     20  C   UNL A   1      31.360  28.606  23.313  1.00  0.00     0.014 A 
ATOM     21  C   UNL A   1      31.480  27.500  25.448  1.00  0.00     0.073 A 
ATOM     22  C   UNL A   1      31.472  28.697  24.706  1.00  0.00     0.000 A 
ATOM     23  C   UNL A   1      31.516  27.579  26.834  1.00  0.00     0.029 A 
ATOM     24  C   UNL A   1      31.634  29.928  25.358  1.00  0.00     0.010 A 
ATOM     25  C   UNL A   1      31.660  28.805  27.487  1.00  0.00     0.002 A 
ATOM     26  C   UNL A   1      31.756  29.977  26.744  1.00  0.00     0.001 A 
ENDBRANCH  15  17
ENDBRANCH  12  13
ENDBRANCH   6  12
ENDBRANCH   5   6
ENDBRANCH   3   5
ENDBRANCH   2   3
ENDBRANCH   1   2
BRANCH   1  27
ATOM     27  C   UNL A   1      39.214  22.367  26.164  1.00  0.00     0.275 C 
BRANCH  27  28
ATOM     28  O   UNL A   1      39.665  23.169  27.267  1.00  0.00    -0.458 OA
BRANCH  28  29
ATOM     29  C   UNL A   1      40.671  24.023  26.981  1.00  0.00     0.338 C 
ATOM     30  O   UNL A   1      41.533  23.894  26.119  1.00  0.00    -0.246 OA
BRANCH  29  31
ATOM     31  C   UNL A   1      40.571  25.205  27.842  1.00  0.00     0.060 A 
ATOM     32  C   UNL A   1      41.677  26.048  27.968  1.00  0.00     0.016 A 
ATOM     33  C   UNL A   1      39.425  25.417  28.607  1.00  0.00     0.016 A 
ATOM     34  C   UNL A   1      41.661  27.082  28.899  1.00  0.00     0.010 A 
ATOM     35  C   UNL A   1      39.393  26.485  29.507  1.00  0.00     0.010 A 
ATOM     36  C   UNL A   1      40.519  27.312  29.675  1.00  0.00    -0.014 A 
BRANCH  36  37
ATOM     37  C   UNL A   1      40.507  28.400  30.682  1.00  0.00     0.031 A 
ATOM     38  C   UNL A   1      41.448  28.350  31.851  1.00  0.00     0.074 A 
ATOM     39  C   UNL A   1      39.641  29.423  30.550  1.00  0.00     0.049 A 
ATOM     40  N   UNL A   1      41.486  29.110  32.915  1.00  0.00    -0.248 NA
ATOM     41  C   UNL A   1      42.475  27.296  31.825  1.00  0.00     0.031 C 
ATOM     42  C   UNL A   1      38.707  29.601  29.437  1.00  0.00     0.029 A 
ATOM     43  N   UNL A   1      39.401  30.500  31.365  1.00  0.00    -0.354 N 
ATOM     44  C   UNL A   1      42.513  28.607  33.703  1.00  0.00     0.074 A 
ATOM     45  C   UNL A   1      43.068  27.470  32.999  1.00  0.00     0.031 C 
ATOM     46  C   UNL A   1      37.994  30.719  29.640  1.00  0.00     0.029 A 
ATOM     47  C   UNL A   1      38.380  31.305  30.920  1.00  0.00     0.049 A 
ATOM     48  H   UNL A   1      39.910  30.679  32.188  1.00  0.00     0.167 HD
ATOM     49  C   UNL A   1      42.950  29.054  34.905  1.00  0.00     0.037 A 
ATOM     50  C   UNL A   1      37.795  32.372  31.496  1.00  0.00     0.037 A 
ATOM     51  C   UNL A   1      42.415  30.210  35.579  1.00  0.00     0.049 A 
ATOM     52  C   UNL A   1      38.279  32.838  32.839  1.00  0.00     0.074 A 
ATOM     53  C   UNL A   1      42.804  30.761  36.787  1.00  0.00     0.029 A 
ATOM     54  N   UNL A   1      41.379  30.997  35.097  1.00  0.00    -0.354 N 
ATOM     55  N   UNL A   1      39.233  32.337  33.589  1.00  0.00    -0.248 NA
ATOM     56  C   UNL A   1      37.604  34.005  33.422  1.00  0.00     0.031 C 
ATOM     57  C   UNL A   1      41.981  31.862  37.053  1.00  0.00     0.029 A 
ATOM     58  C   UNL A   1      41.104  32.020  35.991  1.00  0.00     0.049 A 
ATOM     59  H   UNL A   1      40.908  30.851  34.246  1.00  0.00     0.167 HD
ATOM     60  C   UNL A   1      39.281  33.135  34.726  1.00  0.00     0.074 A 
ATOM     61  C   UNL A   1      38.269  34.159  34.559  1.00  0.00     0.031 C 
ATOM     62  C   UNL A   1      40.089  33.028  35.809  1.00  0.00     0.037 A 
BRANCH  49  63
ATOM     63  C   UNL A   1      44.038  28.268  35.582  1.00  0.00     0.058 A 
ATOM     64  C   UNL A   1      45.397  28.517  35.341  1.00  0.00     0.135 A 
ATOM     65  C   UNL A   1      43.710  27.252  36.495  1.00  0.00     0.135 A 
ATOM     66  F   UNL A   1      45.767  29.467  34.467  1.00  0.00    -0.206 F 
ATOM     67  C   UNL A   1      46.394  27.764  35.953  1.00  0.00     0.059 A 
ATOM     68  C   UNL A   1      44.691  26.501  37.137  1.00  0.00     0.059 A 
ATOM     69  F   UNL A   1      42.424  26.973  36.764  1.00  0.00    -0.206 F 
ATOM     70  C   UNL A   1      46.030  26.751  36.843  1.00  0.00     0.060 A 
BRANCH  70  71
ATOM     71  S   UNL A   1      47.332  25.760  37.606  1.00  0.00     0.124 S 
ATOM     72  O   UNL A   1      46.563  24.951  38.548  1.00  0.00    -0.237 OA
ATOM     73  O   UNL A   1      47.892  25.042  36.466  1.00  0.00    -0.237 OA
ATOM     74  O   UNL A   1      48.210  26.758  38.208  1.00  0.00    -0.744 OA
ENDBRANCH  70  71
ENDBRANCH  49  63
BRANCH  50  75
ATOM     75  C   UNL A   1      36.668  33.049  30.804  1.00  0.00     0.058 A 
ATOM     76  C   UNL A   1      35.348  32.880  31.239  1.00  0.00     0.135 A 
ATOM     77  C   UNL A   1      36.898  33.919  29.727  1.00  0.00     0.135 A 
ATOM     78  F   UNL A   1      35.078  32.051  32.258  1.00  0.00    -0.206 F 
ATOM     79  C   UNL A   1      34.291  33.552  30.633  1.00  0.00     0.059 A 
ATOM     80  C   UNL A   1      35.862  34.619  29.118  1.00  0.00     0.059 A 
ATOM     81  F   UNL A   1      38.148  34.124  29.282  1.00  0.00    -0.206 F 
ATOM     82  C   UNL A   1      34.560  34.425  29.576  1.00  0.00     0.060 A 
BRANCH  82  83
ATOM     83  S   UNL A   1      33.193  35.354  28.847  1.00  0.00     0.124 S 
ATOM     84  O   UNL A   1      33.905  36.361  28.069  1.00  0.00    -0.237 OA
ATOM     85  O   UNL A   1      32.496  34.328  28.078  1.00  0.00    -0.237 OA
ATOM     86  O   UNL A   1      32.468  35.852  30.012  1.00  0.00    -0.744 OA
ENDBRANCH  82  83
ENDBRANCH  50  75
BRANCH  62  87
ATOM     87  C   UNL A   1      39.924  34.057  36.890  1.00  0.00     0.058 A 
ATOM     88  C   UNL A   1      40.532  35.318  36.803  1.00  0.00     0.135 A 
ATOM     89  C   UNL A   1      39.112  33.793  38.005  1.00  0.00     0.135 A 
ATOM     90  F   UNL A   1      41.323  35.617  35.762  1.00  0.00    -0.206 F 
ATOM     91  C   UNL A   1      40.356  36.279  37.796  1.00  0.00     0.059 A 
ATOM     92  C   UNL A   1      38.906  34.745  38.998  1.00  0.00     0.059 A 
ATOM     93  F   UNL A   1      38.501  32.604  38.131  1.00  0.00    -0.206 F 
ATOM     94  C   UNL A   1      39.541  35.981  38.890  1.00  0.00     0.060 A 
BRANCH  94  95
ATOM     95  S   UNL A   1      39.293  37.245  40.157  1.00  0.00     0.124 S 
ATOM     96  O   UNL A   1      40.669  37.603  40.487  1.00  0.00    -0.237 OA
ATOM     97  O   UNL A   1      38.528  38.262  39.441  1.00  0.00    -0.237 OA
ATOM     98  O   UNL A   1      38.559  36.537  41.201  1.00  0.00    -0.744 OA
ENDBRANCH  94  95
ENDBRANCH  62  87
ENDBRANCH  36  37
ENDBRANCH  29  31
ENDBRANCH  28  29
ENDBRANCH  27  28
ENDBRANCH   1  27
TORSDOF 18
ENDMDL
MODEL 3
REMARK VINA RESULT:     -11.9      2.114      2.989
REMARK SMILES O=C(CC1(CC(=O)OCCOC(=O)c2ccc(-c3c4nc(c(-c5c(F)cc(S(=O)(=O)[O-])cc5F)c5ccc([nH]5)c(-c5c(F)cc(S(=O)(=O)[O-])cc5F)c5nc(c(-c6c(F)cc(S(=O)(=O)[O-])cc6F)c6ccc3[nH]6)C=C5)C=C4)cc2)CCCCC1)Nc1ccc2ccccc2n1
REMARK SMILES IDX 9 1 8 2 6 3 7 4 5 5 4 6 80 7 84 8 81 9 83 10 82 11 3 12 2 13
REMARK SMILES IDX 1 14 85 15 86 17 87 18 95 19 88 20 94 21 89 22 93 23 90 24
REMARK SMILES IDX 92 25 91 26 10 27 11 28 12 29 13 30 14 31 15 32 79 33 16 34
REMARK SMILES IDX 78 35 17 36 18 37 19 38 72 39 20 40 77 41 71 42 73 43 21 44
REMARK SMILES IDX 76 45 70 46 69 47 22 49 56 50 35 51 55 52 36 53 39 54 54 55
REMARK SMILES IDX 74 56 37 57 38 58 53 60 75 61 40 62 23 63 24 64 33 65 25 66
REMARK SMILES IDX 26 67 32 68 34 69 27 70 28 71 29 72 30 73 31 74 57 75 58 76
REMARK SMILES IDX 67 77 59 78 60 79 66 80 68 81 61 82 62 83 63 84 64 85 65 86
REMARK SMILES IDX 41 87 42 88 51 89 43 90 44 91 50 92 52 93 45 94 46 95 47 96
REMARK SMILES IDX 48 97 49 98
REMARK H PARENT 85 16 73 48 39 59
REMARK Flexibility Score: inf
ROOT
ATOM      1  C   UNL A   1      32.367  30.330  25.764  1.00  0.00     0.274 C 
ENDROOT
BRANCH   1   2
ATOM      2  O   UNL A   1      31.028  30.185  25.247  1.00  0.00    -0.462 OA
BRANCH   2   3
ATOM      3  C   UNL A   1      30.936  29.512  24.076  1.00  0.00     0.306 C 
ATOM      4  O   UNL A   1      29.938  29.507  23.361  1.00  0.00    -0.252 OA
BRANCH   3   5
ATOM      5  C   UNL A   1      32.139  28.657  23.735  1.00  0.00     0.130 C 
BRANCH   5   6
ATOM      6  C   UNL A   1      32.069  27.102  23.649  1.00  0.00    -0.010 C 
ATOM      7  C   UNL A   1      30.916  26.642  24.600  1.00  0.00     0.008 C 
ATOM      8  C   UNL A   1      33.362  26.400  24.126  1.00  0.00     0.008 C 
ATOM      9  C   UNL A   1      31.203  26.885  26.081  1.00  0.00     0.001 C 
ATOM     10  C   UNL A   1      33.685  26.672  25.590  1.00  0.00     0.001 C 
ATOM     11  C   UNL A   1      32.532  26.267  26.502  1.00  0.00     0.000 C 
BRANCH   6  12
ATOM     12  C   UNL A   1      31.792  26.689  22.184  1.00  0.00     0.108 C 
BRANCH  12  13
ATOM     13  C   UNL A   1      32.464  25.407  21.736  1.00  0.00     0.226 C 
ATOM     14  O   UNL A   1      33.372  25.464  20.912  1.00  0.00    -0.275 OA
ATOM     15  N   UNL A   1      32.003  24.282  22.404  1.00  0.00    -0.311 N 
ATOM     16  H   UNL A   1      31.092  24.249  22.778  1.00  0.00     0.171 HD
BRANCH  15  17
ATOM     17  C   UNL A   1      32.879  23.193  22.529  1.00  0.00     0.133 A 
ATOM     18  C   UNL A   1      32.302  22.053  23.064  1.00  0.00     0.048 A 
ATOM     19  N   UNL A   1      34.204  23.409  22.502  1.00  0.00    -0.231 NA
ATOM     20  C   UNL A   1      33.095  21.277  23.897  1.00  0.00     0.014 A 
ATOM     21  C   UNL A   1      34.972  22.665  23.308  1.00  0.00     0.073 A 
ATOM     22  C   UNL A   1      34.434  21.633  24.101  1.00  0.00     0.000 A 
ATOM     23  C   UNL A   1      36.318  22.977  23.448  1.00  0.00     0.029 A 
ATOM     24  C   UNL A   1      35.216  21.035  25.100  1.00  0.00     0.010 A 
ATOM     25  C   UNL A   1      37.104  22.372  24.430  1.00  0.00     0.002 A 
ATOM     26  C   UNL A   1      36.541  21.425  25.281  1.00  0.00     0.001 A 
ENDBRANCH  15  17
ENDBRANCH  12  13
ENDBRANCH   6  12
ENDBRANCH   5   6
ENDBRANCH   3   5
ENDBRANCH   2   3
ENDBRANCH   1   2
BRANCH   1  27
ATOM     27  C   UNL A   1      32.469  29.964  27.244  1.00  0.00     0.275 C 
BRANCH  27  28
ATOM     28  O   UNL A   1      33.800  29.555  27.595  1.00  0.00    -0.458 OA
BRANCH  28  29
ATOM     29  C   UNL A   1      34.544  30.496  28.217  1.00  0.00     0.338 C 
ATOM     30  O   UNL A   1      34.166  31.583  28.639  1.00  0.00    -0.246 OA
BRANCH  29  31
ATOM     31  C   UNL A   1      35.917  30.009  28.377  1.00  0.00     0.060 A 
ATOM     32  C   UNL A   1      36.352  29.608  29.642  1.00  0.00     0.016 A 
ATOM     33  C   UNL A   1      36.804  30.055  27.301  1.00  0.00     0.016 A 
ATOM     34  C   UNL A   1      37.692  29.297  29.850  1.00  0.00     0.010 A 
ATOM     35  C   UNL A   1      38.139  29.696  27.502  1.00  0.00     0.010 A 
ATOM     36  C   UNL A   1      38.597  29.335  28.783  1.00  0.00    -0.014 A 
BRANCH  36  37
ATOM     37  C   UNL A   1      40.029  29.024  29.006  1.00  0.00     0.031 A 
ATOM     38  C   UNL A   1      40.956  30.087  29.524  1.00  0.00     0.074 A 
ATOM     39  C   UNL A   1      40.496  27.791  28.732  1.00  0.00     0.049 A 
ATOM     40  N   UNL A   1      42.259  30.064  29.634  1.00  0.00    -0.248 NA
ATOM     41  C   UNL A   1      40.334  31.346  29.962  1.00  0.00     0.031 C 
ATOM     42  C   UNL A   1      39.685  26.666  28.264  1.00  0.00     0.029 A 
ATOM     43  N   UNL A   1      41.768  27.282  28.800  1.00  0.00    -0.354 N 
ATOM     44  C   UNL A   1      42.619  31.316  30.119  1.00  0.00     0.074 A 
ATOM     45  C   UNL A   1      41.396  32.076  30.272  1.00  0.00     0.031 C 
ATOM     46  C   UNL A   1      40.479  25.600  28.084  1.00  0.00     0.029 A 
ATOM     47  C   UNL A   1      41.859  25.981  28.370  1.00  0.00     0.049 A 
ATOM     48  H   UNL A   1      42.540  27.800  29.123  1.00  0.00     0.167 HD
ATOM     49  C   UNL A   1      43.857  31.784  30.407  1.00  0.00     0.037 A 
ATOM     50  C   UNL A   1      42.937  25.193  28.190  1.00  0.00     0.037 A 
ATOM     51  C   UNL A   1      45.063  31.006  30.285  1.00  0.00     0.049 A 
ATOM     52  C   UNL A   1      44.303  25.740  28.493  1.00  0.00     0.074 A 
ATOM     53  C   UNL A   1      46.363  31.378  30.575  1.00  0.00     0.029 A 
ATOM     54  N   UNL A   1      45.114  29.691  29.844  1.00  0.00    -0.354 N 
ATOM     55  N   UNL A   1      44.634  26.934  28.924  1.00  0.00    -0.248 NA
ATOM     56  C   UNL A   1      45.442  24.839  28.277  1.00  0.00     0.031 C 
ATOM     57  C   UNL A   1      47.206  30.300  30.278  1.00  0.00     0.029 A 
ATOM     58  C   UNL A   1      46.425  29.242  29.838  1.00  0.00     0.049 A 
ATOM     59  H   UNL A   1      44.334  29.155  29.574  1.00  0.00     0.167 HD
ATOM     60  C   UNL A   1      46.019  26.925  29.043  1.00  0.00     0.074 A 
ATOM     61  C   UNL A   1      46.462  25.602  28.651  1.00  0.00     0.031 C 
ATOM     62  C   UNL A   1      46.847  27.922  29.441  1.00  0.00     0.037 A 
BRANCH  49  63
ATOM     63  C   UNL A   1      43.969  33.218  30.847  1.00  0.00     0.058 A 
ATOM     64  C   UNL A   1      44.229  34.256  29.940  1.00  0.00     0.135 A 
ATOM     65  C   UNL A   1      43.807  33.556  32.200  1.00  0.00     0.135 A 
ATOM     66  F   UNL A   1      44.407  33.988  28.636  1.00  0.00    -0.206 F 
ATOM     67  C   UNL A   1      44.359  35.576  30.363  1.00  0.00     0.059 A 
ATOM     68  C   UNL A   1      43.910  34.871  32.644  1.00  0.00     0.059 A 
ATOM     69  F   UNL A   1      43.556  32.600  33.111  1.00  0.00    -0.206 F 
ATOM     70  C   UNL A   1      44.207  35.871  31.720  1.00  0.00     0.060 A 
BRANCH  70  71
ATOM     71  S   UNL A   1      44.410  37.581  32.261  1.00  0.00     0.124 S 
ATOM     72  O   UNL A   1      43.765  38.307  31.170  1.00  0.00    -0.237 OA
ATOM     73  O   UNL A   1      43.700  37.595  33.536  1.00  0.00    -0.237 OA
ATOM     74  O   UNL A   1      45.858  37.739  32.351  1.00  0.00    -0.744 OA
ENDBRANCH  70  71
ENDBRANCH  49  63
BRANCH  50  75
ATOM     75  C   UNL A   1      42.755  23.813  27.672  1.00  0.00     0.058 A 
ATOM     76  C   UNL A   1      42.601  22.728  28.545  1.00  0.00     0.135 A 
ATOM     77  C   UNL A   1      42.680  23.561  26.293  1.00  0.00     0.135 A 
ATOM     78  F   UNL A   1      42.676  22.919  29.871  1.00  0.00    -0.206 F 
ATOM     79  C   UNL A   1      42.376  21.440  28.072  1.00  0.00     0.059 A 
ATOM     80  C   UNL A   1      42.433  22.286  25.795  1.00  0.00     0.059 A 
ATOM     81  F   UNL A   1      42.808  24.570  25.417  1.00  0.00    -0.206 F 
ATOM     82  C   UNL A   1      42.287  21.230  26.694  1.00  0.00     0.060 A 
BRANCH  82  83
ATOM     83  S   UNL A   1      41.914  19.569  26.090  1.00  0.00     0.124 S 
ATOM     84  O   UNL A   1      40.491  19.678  25.790  1.00  0.00    -0.237 OA
ATOM     85  O   UNL A   1      42.802  19.452  24.937  1.00  0.00    -0.237 OA
ATOM     86  O   UNL A   1      42.258  18.716  27.223  1.00  0.00    -0.744 OA
ENDBRANCH  82  83
ENDBRANCH  50  75
BRANCH  62  87
ATOM     87  C   UNL A   1      48.316  27.613  29.487  1.00  0.00     0.058 A 
ATOM     88  C   UNL A   1      49.145  27.817  28.375  1.00  0.00     0.135 A 
ATOM     89  C   UNL A   1      48.908  27.148  30.673  1.00  0.00     0.135 A 
ATOM     90  F   UNL A   1      48.627  28.252  27.216  1.00  0.00    -0.206 F 
ATOM     91  C   UNL A   1      50.511  27.553  28.429  1.00  0.00     0.059 A 
ATOM     92  C   UNL A   1      50.273  26.898  30.756  1.00  0.00     0.059 A 
ATOM     93  F   UNL A   1      48.159  26.945  31.768  1.00  0.00    -0.206 F 
ATOM     94  C   UNL A   1      51.065  27.093  29.625  1.00  0.00     0.060 A 
BRANCH  94  95
ATOM     95  S   UNL A   1      52.843  26.784  29.696  1.00  0.00     0.124 S 
ATOM     96  O   UNL A   1      53.065  26.059  28.449  1.00  0.00    -0.237 OA
ATOM     97  O   UNL A   1      53.396  28.134  29.750  1.00  0.00    -0.237 OA
ATOM     98  O   UNL A   1      53.001  25.999  30.916  1.00  0.00    -0.744 OA
ENDBRANCH  94  95
ENDBRANCH  62  87
ENDBRANCH  36  37
ENDBRANCH  29  31
ENDBRANCH  28  29
ENDBRANCH  27  28
ENDBRANCH   1  27
TORSDOF 18
ENDMDL
