MODEL 1
REMARK VINA RESULT:     -10.9      0.000      0.000
REMARK SMILES O=Cc1ccc2c(c1)C=C(C(=O)OCCOC(=O)c1ccc(-c3c4nc(c(-c5c(F)cc(S(=O)(=O)[O-])cc5F)c5ccc([nH]5)c(-c5c(F)cc(S(=O)(=O)[O-])cc5F)c5nc(c(-c6c(F)cc(S(=O)(=O)[O-])cc6F)c6ccc3[nH]6)C=C5)C=C4)cc1)[C@H](C(F)(F)F)O2
REMARK SMILES IDX 15 1 14 2 13 3 11 4 12 5 10 6 3 7 4 8 8 9 5 10 7 11 6 12
REMARK SMILES IDX 9 13 90 14 85 15 2 16 1 17 86 18 87 19 88 20 89 21 16 22
REMARK SMILES IDX 17 23 18 24 19 25 20 26 84 27 21 28 83 29 22 30 23 31 24 32
REMARK SMILES IDX 77 33 25 34 82 35 76 36 78 37 26 38 81 39 75 40 74 41 27 43
REMARK SMILES IDX 61 44 40 45 60 46 41 47 44 48 59 49 79 50 42 51 43 52 58 54
REMARK SMILES IDX 80 55 45 56 28 57 29 58 38 59 30 60 31 61 37 62 39 63 32 64
REMARK SMILES IDX 33 65 34 66 35 67 36 68 62 69 63 70 72 71 64 72 65 73 71 74
REMARK SMILES IDX 73 75 66 76 67 77 68 78 69 79 70 80 46 81 47 82 56 83 48 84
REMARK SMILES IDX 49 85 55 86 57 87 50 88 51 89 52 90 53 91 54 92
REMARK H PARENT 78 42 44 53
REMARK Flexibility Score: inf
ROOT
ATOM      1  C   UNL A   1      34.724  33.053  27.995  1.00  0.00     0.275 C 
ENDROOT
BRANCH   1   2
ATOM      2  C   UNL A   1      33.862  34.286  28.284  1.00  0.00     0.275 C 
BRANCH   2   3
ATOM      3  O   UNL A   1      34.339  35.030  29.426  1.00  0.00    -0.459 OA
BRANCH   3   4
ATOM      4  C   UNL A   1      33.565  34.968  30.541  1.00  0.00     0.338 C 
ATOM      5  O   UNL A   1      32.368  35.196  30.573  1.00  0.00    -0.246 OA
BRANCH   4   6
ATOM      6  C   UNL A   1      34.343  34.573  31.739  1.00  0.00     0.087 C 
ATOM      7  C   UNL A   1      37.533  31.780  34.054  1.00  0.00     0.015 A 
ATOM      8  C   UNL A   1      37.435  32.602  35.180  1.00  0.00     0.015 A 
ATOM      9  C   UNL A   1      36.799  32.065  32.894  1.00  0.00     0.023 A 
ATOM     10  C   UNL A   1      36.640  33.744  35.129  1.00  0.00     0.048 A 
ATOM     11  C   UNL A   1      35.982  33.201  32.851  1.00  0.00     0.018 A 
ATOM     12  C   UNL A   1      35.932  34.044  33.966  1.00  0.00     0.128 A 
ATOM     13  C   UNL A   1      35.225  33.560  31.654  1.00  0.00     0.027 C 
ATOM     14  O   UNL A   1      35.270  35.237  33.946  1.00  0.00    -0.475 OA
ATOM     15  C   UNL A   1      34.130  35.321  33.047  1.00  0.00     0.316 C 
BRANCH   7  16
ATOM     16  C   UNL A   1      38.448  30.621  34.067  1.00  0.00     0.260 C 
ATOM     17  O   UNL A   1      38.812  30.081  35.105  1.00  0.00    -0.298 OA
ENDBRANCH   7  16
BRANCH  15  18
ATOM     18  C   UNL A   1      33.707  36.804  32.988  1.00  0.00     0.430 C 
ATOM     19  F   UNL A   1      32.371  36.945  32.840  1.00  0.00    -0.167 F 
ATOM     20  F   UNL A   1      34.015  37.426  34.156  1.00  0.00    -0.167 F 
ATOM     21  F   UNL A   1      34.334  37.479  32.001  1.00  0.00    -0.167 F 
ENDBRANCH  15  18
ENDBRANCH   4   6
ENDBRANCH   3   4
ENDBRANCH   2   3
ENDBRANCH   1   2
BRANCH   1  22
ATOM     22  O   UNL A   1      34.341  31.934  28.812  1.00  0.00    -0.458 OA
BRANCH  22  23
ATOM     23  C   UNL A   1      34.428  30.732  28.190  1.00  0.00     0.338 C 
ATOM     24  O   UNL A   1      33.562  30.205  27.508  1.00  0.00    -0.246 OA
BRANCH  23  25
ATOM     25  C   UNL A   1      35.805  30.204  28.274  1.00  0.00     0.060 A 
ATOM     26  C   UNL A   1      36.217  29.746  29.528  1.00  0.00     0.016 A 
ATOM     27  C   UNL A   1      36.688  30.174  27.191  1.00  0.00     0.016 A 
ATOM     28  C   UNL A   1      37.487  29.202  29.701  1.00  0.00     0.010 A 
ATOM     29  C   UNL A   1      37.989  29.678  27.378  1.00  0.00     0.010 A 
ATOM     30  C   UNL A   1      38.391  29.190  28.633  1.00  0.00    -0.014 A 
BRANCH  30  31
ATOM     31  C   UNL A   1      39.804  28.839  28.919  1.00  0.00     0.031 A 
ATOM     32  C   UNL A   1      40.641  29.824  29.684  1.00  0.00     0.074 A 
ATOM     33  C   UNL A   1      40.305  27.633  28.596  1.00  0.00     0.049 A 
ATOM     34  N   UNL A   1      41.867  29.708  30.126  1.00  0.00    -0.248 NA
ATOM     35  C   UNL A   1      39.999  31.106  30.010  1.00  0.00     0.031 C 
ATOM     36  C   UNL A   1      39.570  26.561  27.929  1.00  0.00     0.029 A 
ATOM     37  N   UNL A   1      41.555  27.104  28.809  1.00  0.00    -0.354 N 
ATOM     38  C   UNL A   1      42.136  30.893  30.802  1.00  0.00     0.074 A 
ATOM     39  C   UNL A   1      40.959  31.727  30.678  1.00  0.00     0.031 C 
ATOM     40  C   UNL A   1      40.385  25.500  27.784  1.00  0.00     0.029 A 
ATOM     41  C   UNL A   1      41.703  25.825  28.328  1.00  0.00     0.049 A 
ATOM     42  H   UNL A   1      42.278  27.596  29.263  1.00  0.00     0.167 HD
ATOM     43  C   UNL A   1      43.257  31.252  31.472  1.00  0.00     0.037 A 
ATOM     44  C   UNL A   1      42.781  25.014  28.325  1.00  0.00     0.037 A 
ATOM     45  C   UNL A   1      44.445  30.442  31.549  1.00  0.00     0.049 A 
ATOM     46  C   UNL A   1      44.064  25.487  28.965  1.00  0.00     0.074 A 
ATOM     47  C   UNL A   1      45.649  30.736  32.163  1.00  0.00     0.029 A 
ATOM     48  N   UNL A   1      44.586  29.187  30.975  1.00  0.00    -0.354 N 
ATOM     49  N   UNL A   1      44.310  26.609  29.602  1.00  0.00    -0.248 NA
ATOM     50  C   UNL A   1      45.218  24.578  28.893  1.00  0.00     0.031 C 
ATOM     51  C   UNL A   1      46.536  29.682  31.913  1.00  0.00     0.029 A 
ATOM     52  C   UNL A   1      45.864  28.702  31.200  1.00  0.00     0.049 A 
ATOM     53  H   UNL A   1      43.882  28.710  30.478  1.00  0.00     0.167 HD
ATOM     54  C   UNL A   1      45.627  26.519  30.043  1.00  0.00     0.074 A 
ATOM     55  C   UNL A   1      46.128  25.235  29.598  1.00  0.00     0.031 C 
ATOM     56  C   UNL A   1      46.352  27.414  30.763  1.00  0.00     0.037 A 
BRANCH  43  57
ATOM     57  C   UNL A   1      43.252  32.608  32.122  1.00  0.00     0.058 A 
ATOM     58  C   UNL A   1      43.713  33.752  31.449  1.00  0.00     0.135 A 
ATOM     59  C   UNL A   1      42.815  32.760  33.447  1.00  0.00     0.135 A 
ATOM     60  F   UNL A   1      44.162  33.660  30.187  1.00  0.00    -0.206 F 
ATOM     61  C   UNL A   1      43.791  34.987  32.084  1.00  0.00     0.059 A 
ATOM     62  C   UNL A   1      42.854  33.993  34.092  1.00  0.00     0.059 A 
ATOM     63  F   UNL A   1      42.365  31.701  34.138  1.00  0.00    -0.206 F 
ATOM     64  C   UNL A   1      43.368  35.095  33.410  1.00  0.00     0.060 A 
BRANCH  64  65
ATOM     65  S   UNL A   1      43.527  36.689  34.241  1.00  0.00     0.124 S 
ATOM     66  O   UNL A   1      42.453  36.609  35.227  1.00  0.00    -0.237 OA
ATOM     67  O   UNL A   1      44.883  36.628  34.778  1.00  0.00    -0.237 OA
ATOM     68  O   UNL A   1      43.323  37.655  33.168  1.00  0.00    -0.744 OA
ENDBRANCH  64  65
ENDBRANCH  43  57
BRANCH  44  69
ATOM     69  C   UNL A   1      42.698  23.664  27.705  1.00  0.00     0.058 A 
ATOM     70  C   UNL A   1      42.911  23.480  26.331  1.00  0.00     0.135 A 
ATOM     71  C   UNL A   1      42.392  22.529  28.474  1.00  0.00     0.135 A 
ATOM     72  F   UNL A   1      43.188  24.535  25.549  1.00  0.00    -0.206 F 
ATOM     73  C   UNL A   1      42.818  22.224  25.738  1.00  0.00     0.059 A 
ATOM     74  C   UNL A   1      42.318  21.259  27.909  1.00  0.00     0.059 A 
ATOM     75  F   UNL A   1      42.177  22.648  29.794  1.00  0.00    -0.206 F 
ATOM     76  C   UNL A   1      42.525  21.118  26.537  1.00  0.00     0.060 A 
BRANCH  76  77
ATOM     77  S   UNL A   1      42.458  19.486  25.766  1.00  0.00     0.124 S 
ATOM     78  O   UNL A   1      43.364  19.656  24.636  1.00  0.00    -0.237 OA
ATOM     79  O   UNL A   1      42.933  18.620  26.841  1.00  0.00    -0.237 OA
ATOM     80  O   UNL A   1      41.047  19.332  25.424  1.00  0.00    -0.744 OA
ENDBRANCH  76  77
ENDBRANCH  44  69
BRANCH  56  81
ATOM     81  C   UNL A   1      47.747  27.019  31.175  1.00  0.00     0.058 A 
ATOM     82  C   UNL A   1      48.010  26.333  32.371  1.00  0.00     0.135 A 
ATOM     83  C   UNL A   1      48.835  27.290  30.328  1.00  0.00     0.135 A 
ATOM     84  F   UNL A   1      47.010  26.048  33.220  1.00  0.00    -0.206 F 
ATOM     85  C   UNL A   1      49.303  25.959  32.728  1.00  0.00     0.059 A 
ATOM     86  C   UNL A   1      50.131  26.898  30.648  1.00  0.00     0.059 A 
ATOM     87  F   UNL A   1      48.643  27.930  29.163  1.00  0.00    -0.206 F 
ATOM     88  C   UNL A   1      50.358  26.246  31.859  1.00  0.00     0.060 A 
BRANCH  88  89
ATOM     89  S   UNL A   1      52.027  25.736  32.322  1.00  0.00     0.124 S 
ATOM     90  O   UNL A   1      52.167  26.346  33.640  1.00  0.00    -0.237 OA
ATOM     91  O   UNL A   1      51.926  24.280  32.303  1.00  0.00    -0.237 OA
ATOM     92  O   UNL A   1      52.863  26.312  31.272  1.00  0.00    -0.744 OA
ENDBRANCH  88  89
ENDBRANCH  56  81
ENDBRANCH  30  31
ENDBRANCH  23  25
ENDBRANCH  22  23
ENDBRANCH   1  22
TORSDOF 16
ENDMDL
MODEL 2
REMARK VINA RESULT:     -10.8      3.595     12.111
REMARK SMILES O=Cc1ccc2c(c1)C=C(C(=O)OCCOC(=O)c1ccc(-c3c4nc(c(-c5c(F)cc(S(=O)(=O)[O-])cc5F)c5ccc([nH]5)c(-c5c(F)cc(S(=O)(=O)[O-])cc5F)c5nc(c(-c6c(F)cc(S(=O)(=O)[O-])cc6F)c6ccc3[nH]6)C=C5)C=C4)cc1)[C@H](C(F)(F)F)O2
REMARK SMILES IDX 15 1 14 2 13 3 11 4 12 5 10 6 3 7 4 8 8 9 5 10 7 11 6 12
REMARK SMILES IDX 9 13 90 14 85 15 2 16 1 17 86 18 87 19 88 20 89 21 16 22
REMARK SMILES IDX 17 23 18 24 19 25 20 26 84 27 21 28 83 29 22 30 23 31 24 32
REMARK SMILES IDX 77 33 25 34 82 35 76 36 78 37 26 38 81 39 75 40 74 41 27 43
REMARK SMILES IDX 61 44 40 45 60 46 41 47 44 48 59 49 79 50 42 51 43 52 58 54
REMARK SMILES IDX 80 55 45 56 28 57 29 58 38 59 30 60 31 61 37 62 39 63 32 64
REMARK SMILES IDX 33 65 34 66 35 67 36 68 62 69 63 70 72 71 64 72 65 73 71 74
REMARK SMILES IDX 73 75 66 76 67 77 68 78 69 79 70 80 46 81 47 82 56 83 48 84
REMARK SMILES IDX 49 85 55 86 57 87 50 88 51 89 52 90 53 91 54 92
REMARK H PARENT 78 42 44 53
REMARK Flexibility Score: inf
ROOT
ATOM      1  C   UNL A   1      40.484  20.235  26.364  1.00  0.00     0.275 C 
ENDROOT
BRANCH   1   2
ATOM      2  C   UNL A   1      41.978  20.001  26.118  1.00  0.00     0.275 C 
BRANCH   2   3
ATOM      3  O   UNL A   1      42.795  21.038  26.703  1.00  0.00    -0.459 OA
BRANCH   3   4
ATOM      4  C   UNL A   1      43.161  22.047  25.868  1.00  0.00     0.338 C 
ATOM      5  O   UNL A   1      42.654  22.274  24.783  1.00  0.00    -0.246 OA
BRANCH   4   6
ATOM      6  C   UNL A   1      44.255  22.870  26.436  1.00  0.00     0.087 C 
ATOM      7  C   UNL A   1      46.384  25.285  30.037  1.00  0.00     0.015 A 
ATOM      8  C   UNL A   1      47.494  25.522  29.223  1.00  0.00     0.015 A 
ATOM      9  C   UNL A   1      45.291  24.547  29.561  1.00  0.00     0.023 A 
ATOM     10  C   UNL A   1      47.535  24.975  27.943  1.00  0.00     0.048 A 
ATOM     11  C   UNL A   1      45.322  24.016  28.266  1.00  0.00     0.018 A 
ATOM     12  C   UNL A   1      46.460  24.217  27.479  1.00  0.00     0.128 A 
ATOM     13  C   UNL A   1      44.224  23.211  27.737  1.00  0.00     0.027 C 
ATOM     14  O   UNL A   1      46.619  23.615  26.265  1.00  0.00    -0.475 OA
ATOM     15  C   UNL A   1      45.397  23.315  25.534  1.00  0.00     0.316 C 
BRANCH   7  16
ATOM     16  C   UNL A   1      46.375  25.780  31.429  1.00  0.00     0.260 C 
ATOM     17  O   UNL A   1      45.792  25.194  32.333  1.00  0.00    -0.298 OA
ENDBRANCH   7  16
BRANCH  15  18
ATOM     18  C   UNL A   1      45.790  22.417  24.342  1.00  0.00     0.430 C 
ATOM     19  F   UNL A   1      44.956  22.576  23.291  1.00  0.00    -0.167 F 
ATOM     20  F   UNL A   1      47.024  22.755  23.887  1.00  0.00    -0.167 F 
ATOM     21  F   UNL A   1      45.834  21.109  24.677  1.00  0.00    -0.167 F 
ENDBRANCH  15  18
ENDBRANCH   4   6
ENDBRANCH   3   4
ENDBRANCH   2   3
ENDBRANCH   1   2
BRANCH   1  22
ATOM     22  O   UNL A   1      40.257  21.374  27.212  1.00  0.00    -0.458 OA
BRANCH  22  23
ATOM     23  C   UNL A   1      39.566  22.381  26.624  1.00  0.00     0.338 C 
ATOM     24  O   UNL A   1      38.612  22.262  25.871  1.00  0.00    -0.246 OA
BRANCH  23  25
ATOM     25  C   UNL A   1      39.990  23.686  27.171  1.00  0.00     0.060 A 
ATOM     26  C   UNL A   1      39.606  24.816  26.443  1.00  0.00     0.016 A 
ATOM     27  C   UNL A   1      40.756  23.827  28.331  1.00  0.00     0.016 A 
ATOM     28  C   UNL A   1      39.930  26.093  26.893  1.00  0.00     0.010 A 
ATOM     29  C   UNL A   1      41.133  25.111  28.755  1.00  0.00     0.010 A 
ATOM     30  C   UNL A   1      40.720  26.248  28.039  1.00  0.00    -0.014 A 
BRANCH  30  31
ATOM     31  C   UNL A   1      41.252  27.599  28.341  1.00  0.00     0.031 A 
ATOM     32  C   UNL A   1      42.683  27.896  27.992  1.00  0.00     0.074 A 
ATOM     33  C   UNL A   1      40.458  28.572  28.823  1.00  0.00     0.049 A 
ATOM     34  N   UNL A   1      43.346  29.021  28.080  1.00  0.00    -0.248 NA
ATOM     35  C   UNL A   1      43.465  26.774  27.451  1.00  0.00     0.031 C 
ATOM     36  C   UNL A   1      39.035  28.434  29.123  1.00  0.00     0.029 A 
ATOM     37  N   UNL A   1      40.741  29.882  29.125  1.00  0.00    -0.354 N 
ATOM     38  C   UNL A   1      44.615  28.748  27.585  1.00  0.00     0.074 A 
ATOM     39  C   UNL A   1      44.640  27.343  27.235  1.00  0.00     0.031 C 
ATOM     40  C   UNL A   1      38.568  29.614  29.570  1.00  0.00     0.029 A 
ATOM     41  C   UNL A   1      39.663  30.584  29.608  1.00  0.00     0.049 A 
ATOM     42  H   UNL A   1      41.634  30.281  29.008  1.00  0.00     0.167 HD
ATOM     43  C   UNL A   1      45.664  29.591  27.429  1.00  0.00     0.037 A 
ATOM     44  C   UNL A   1      39.574  31.861  30.034  1.00  0.00     0.037 A 
ATOM     45  C   UNL A   1      45.653  30.974  27.827  1.00  0.00     0.049 A 
ATOM     46  C   UNL A   1      40.793  32.748  29.972  1.00  0.00     0.074 A 
ATOM     47  C   UNL A   1      46.679  31.899  27.754  1.00  0.00     0.029 A 
ATOM     48  N   UNL A   1      44.567  31.627  28.392  1.00  0.00    -0.354 N 
ATOM     49  N   UNL A   1      41.990  32.482  29.503  1.00  0.00    -0.248 NA
ATOM     50  C   UNL A   1      40.646  34.117  30.491  1.00  0.00     0.031 C 
ATOM     51  C   UNL A   1      46.230  33.096  28.326  1.00  0.00     0.029 A 
ATOM     52  C   UNL A   1      44.904  32.936  28.694  1.00  0.00     0.049 A 
ATOM     53  H   UNL A   1      43.686  31.220  28.556  1.00  0.00     0.167 HD
ATOM     54  C   UNL A   1      42.722  33.660  29.629  1.00  0.00     0.074 A 
ATOM     55  C   UNL A   1      41.834  34.639  30.221  1.00  0.00     0.031 C 
ATOM     56  C   UNL A   1      44.009  33.910  29.274  1.00  0.00     0.037 A 
BRANCH  43  57
ATOM     57  C   UNL A   1      46.922  29.005  26.850  1.00  0.00     0.058 A 
ATOM     58  C   UNL A   1      47.039  28.707  25.482  1.00  0.00     0.135 A 
ATOM     59  C   UNL A   1      48.014  28.705  27.680  1.00  0.00     0.135 A 
ATOM     60  F   UNL A   1      46.017  28.954  24.647  1.00  0.00    -0.206 F 
ATOM     61  C   UNL A   1      48.170  28.082  24.968  1.00  0.00     0.059 A 
ATOM     62  C   UNL A   1      49.169  28.110  27.182  1.00  0.00     0.059 A 
ATOM     63  F   UNL A   1      47.958  28.969  28.995  1.00  0.00    -0.206 F 
ATOM     64  C   UNL A   1      49.226  27.779  25.828  1.00  0.00     0.060 A 
BRANCH  64  65
ATOM     65  S   UNL A   1      50.665  26.918  25.161  1.00  0.00     0.124 S 
ATOM     66  O   UNL A   1      51.746  27.826  25.536  1.00  0.00    -0.237 OA
ATOM     67  O   UNL A   1      50.630  25.647  25.878  1.00  0.00    -0.237 OA
ATOM     68  O   UNL A   1      50.382  26.837  23.732  1.00  0.00    -0.744 OA
ENDBRANCH  64  65
ENDBRANCH  43  57
BRANCH  44  69
ATOM     69  C   UNL A   1      38.280  32.387  30.550  1.00  0.00     0.058 A 
ATOM     70  C   UNL A   1      37.949  32.295  31.910  1.00  0.00     0.135 A 
ATOM     71  C   UNL A   1      37.343  32.983  29.690  1.00  0.00     0.135 A 
ATOM     72  F   UNL A   1      38.800  31.716  32.770  1.00  0.00    -0.206 F 
ATOM     73  C   UNL A   1      36.734  32.767  32.400  1.00  0.00     0.059 A 
ATOM     74  C   UNL A   1      36.134  33.486  30.160  1.00  0.00     0.059 A 
ATOM     75  F   UNL A   1      37.610  33.096  28.379  1.00  0.00    -0.206 F 
ATOM     76  C   UNL A   1      35.835  33.366  31.516  1.00  0.00     0.060 A 
BRANCH  76  77
ATOM     77  S   UNL A   1      34.284  34.022  32.172  1.00  0.00     0.124 S 
ATOM     78  O   UNL A   1      33.664  34.569  30.972  1.00  0.00    -0.237 OA
ATOM     79  O   UNL A   1      33.657  32.827  32.727  1.00  0.00    -0.237 OA
ATOM     80  O   UNL A   1      34.724  35.006  33.157  1.00  0.00    -0.744 OA
ENDBRANCH  76  77
ENDBRANCH  44  69
BRANCH  56  81
ATOM     81  C   UNL A   1      44.526  35.315  29.454  1.00  0.00     0.058 A 
ATOM     82  C   UNL A   1      44.373  36.303  28.469  1.00  0.00     0.135 A 
ATOM     83  C   UNL A   1      45.144  35.689  30.660  1.00  0.00     0.135 A 
ATOM     84  F   UNL A   1      43.792  36.003  27.296  1.00  0.00    -0.206 F 
ATOM     85  C   UNL A   1      44.841  37.601  28.658  1.00  0.00     0.059 A 
ATOM     86  C   UNL A   1      45.590  36.988  30.884  1.00  0.00     0.059 A 
ATOM     87  F   UNL A   1      45.305  34.791  31.645  1.00  0.00    -0.206 F 
ATOM     88  C   UNL A   1      45.449  37.934  29.871  1.00  0.00     0.060 A 
BRANCH  88  89
ATOM     89  S   UNL A   1      46.031  39.626  30.114  1.00  0.00     0.124 S 
ATOM     90  O   UNL A   1      44.802  40.390  29.933  1.00  0.00    -0.237 OA
ATOM     91  O   UNL A   1      46.557  39.582  31.475  1.00  0.00    -0.237 OA
ATOM     92  O   UNL A   1      47.035  39.794  29.067  1.00  0.00    -0.744 OA
ENDBRANCH  88  89
ENDBRANCH  56  81
ENDBRANCH  30  31
ENDBRANCH  23  25
ENDBRANCH  22  23
ENDBRANCH   1  22
TORSDOF 16
ENDMDL
MODEL 3
REMARK VINA RESULT:     -10.7      4.054     10.670
REMARK SMILES O=Cc1ccc2c(c1)C=C(C(=O)OCCOC(=O)c1ccc(-c3c4nc(c(-c5c(F)cc(S(=O)(=O)[O-])cc5F)c5ccc([nH]5)c(-c5c(F)cc(S(=O)(=O)[O-])cc5F)c5nc(c(-c6c(F)cc(S(=O)(=O)[O-])cc6F)c6ccc3[nH]6)C=C5)C=C4)cc1)[C@H](C(F)(F)F)O2
REMARK SMILES IDX 15 1 14 2 13 3 11 4 12 5 10 6 3 7 4 8 8 9 5 10 7 11 6 12
REMARK SMILES IDX 9 13 90 14 85 15 2 16 1 17 86 18 87 19 88 20 89 21 16 22
REMARK SMILES IDX 17 23 18 24 19 25 20 26 84 27 21 28 83 29 22 30 23 31 24 32
REMARK SMILES IDX 77 33 25 34 82 35 76 36 78 37 26 38 81 39 75 40 74 41 27 43
REMARK SMILES IDX 61 44 40 45 60 46 41 47 44 48 59 49 79 50 42 51 43 52 58 54
REMARK SMILES IDX 80 55 45 56 28 57 29 58 38 59 30 60 31 61 37 62 39 63 32 64
REMARK SMILES IDX 33 65 34 66 35 67 36 68 62 69 63 70 72 71 64 72 65 73 71 74
REMARK SMILES IDX 73 75 66 76 67 77 68 78 69 79 70 80 46 81 47 82 56 83 48 84
REMARK SMILES IDX 49 85 55 86 57 87 50 88 51 89 52 90 53 91 54 92
REMARK H PARENT 78 42 44 53
REMARK Flexibility Score: inf
ROOT
ATOM      1  C   UNL A   1      36.977  22.903  24.318  1.00  0.00     0.275 C 
ENDROOT
BRANCH   1   2
ATOM      2  C   UNL A   1      35.823  21.968  24.690  1.00  0.00     0.275 C 
BRANCH   2   3
ATOM      3  O   UNL A   1      34.771  22.656  25.402  1.00  0.00    -0.459 OA
BRANCH   3   4
ATOM      4  C   UNL A   1      33.924  23.396  24.639  1.00  0.00     0.338 C 
ATOM      5  O   UNL A   1      33.656  23.169  23.472  1.00  0.00    -0.246 OA
BRANCH   4   6
ATOM      6  C   UNL A   1      33.336  24.525  25.398  1.00  0.00     0.087 C 
ATOM      7  C   UNL A   1      33.246  29.128  26.863  1.00  0.00     0.015 A 
ATOM      8  C   UNL A   1      32.025  28.901  27.502  1.00  0.00     0.015 A 
ATOM      9  C   UNL A   1      33.886  28.100  26.157  1.00  0.00     0.023 A 
ATOM     10  C   UNL A   1      31.413  27.655  27.391  1.00  0.00     0.048 A 
ATOM     11  C   UNL A   1      33.283  26.840  26.064  1.00  0.00     0.018 A 
ATOM     12  C   UNL A   1      32.036  26.640  26.665  1.00  0.00     0.128 A 
ATOM     13  C   UNL A   1      33.893  25.747  25.310  1.00  0.00     0.027 C 
ATOM     14  O   UNL A   1      31.326  25.486  26.499  1.00  0.00    -0.475 OA
ATOM     15  C   UNL A   1      32.108  24.282  26.264  1.00  0.00     0.316 C 
BRANCH   7  16
ATOM     16  C   UNL A   1      33.854  30.474  26.895  1.00  0.00     0.260 C 
ATOM     17  O   UNL A   1      34.610  30.834  27.789  1.00  0.00    -0.298 OA
ENDBRANCH   7  16
BRANCH  15  18
ATOM     18  C   UNL A   1      31.119  23.173  25.847  1.00  0.00     0.430 C 
ATOM     19  F   UNL A   1      30.007  23.171  26.616  1.00  0.00    -0.167 F 
ATOM     20  F   UNL A   1      30.687  23.383  24.576  1.00  0.00    -0.167 F 
ATOM     21  F   UNL A   1      31.680  21.945  25.878  1.00  0.00    -0.167 F 
ENDBRANCH  15  18
ENDBRANCH   4   6
ENDBRANCH   3   4
ENDBRANCH   2   3
ENDBRANCH   1   2
BRANCH   1  22
ATOM     22  O   UNL A   1      37.377  23.721  25.431  1.00  0.00    -0.458 OA
BRANCH  22  23
ATOM     23  C   UNL A   1      38.517  23.317  26.042  1.00  0.00     0.338 C 
ATOM     24  O   UNL A   1      39.072  22.239  25.900  1.00  0.00    -0.246 OA
BRANCH  23  25
ATOM     25  C   UNL A   1      39.138  24.440  26.774  1.00  0.00     0.060 A 
ATOM     26  C   UNL A   1      38.779  24.576  28.119  1.00  0.00     0.016 A 
ATOM     27  C   UNL A   1      40.015  25.355  26.188  1.00  0.00     0.016 A 
ATOM     28  C   UNL A   1      39.334  25.584  28.901  1.00  0.00     0.010 A 
ATOM     29  C   UNL A   1      40.531  26.408  26.961  1.00  0.00     0.010 A 
ATOM     30  C   UNL A   1      40.193  26.525  28.320  1.00  0.00    -0.014 A 
BRANCH  30  31
ATOM     31  C   UNL A   1      40.561  27.720  29.118  1.00  0.00     0.031 A 
ATOM     32  C   UNL A   1      41.937  27.781  29.716  1.00  0.00     0.074 A 
ATOM     33  C   UNL A   1      39.729  28.771  29.227  1.00  0.00     0.049 A 
ATOM     34  N   UNL A   1      42.517  28.751  30.375  1.00  0.00    -0.248 NA
ATOM     35  C   UNL A   1      42.781  26.591  29.525  1.00  0.00     0.031 C 
ATOM     36  C   UNL A   1      38.402  28.869  28.624  1.00  0.00     0.029 A 
ATOM     37  N   UNL A   1      39.895  29.972  29.874  1.00  0.00    -0.354 N 
ATOM     38  C   UNL A   1      43.800  28.298  30.659  1.00  0.00     0.074 A 
ATOM     39  C   UNL A   1      43.900  26.953  30.133  1.00  0.00     0.031 C 
ATOM     40  C   UNL A   1      37.872  30.066  28.932  1.00  0.00     0.029 A 
ATOM     41  C   UNL A   1      38.811  30.810  29.770  1.00  0.00     0.049 A 
ATOM     42  H   UNL A   1      40.714  30.209  30.367  1.00  0.00     0.167 HD
ATOM     43  C   UNL A   1      44.807  28.945  31.293  1.00  0.00     0.037 A 
ATOM     44  C   UNL A   1      38.603  32.035  30.296  1.00  0.00     0.037 A 
ATOM     45  C   UNL A   1      44.688  30.263  31.861  1.00  0.00     0.049 A 
ATOM     46  C   UNL A   1      39.694  32.685  31.112  1.00  0.00     0.074 A 
ATOM     47  C   UNL A   1      45.635  30.986  32.564  1.00  0.00     0.029 A 
ATOM     48  N   UNL A   1      43.544  31.046  31.810  1.00  0.00    -0.354 N 
ATOM     49  N   UNL A   1      40.904  32.250  31.376  1.00  0.00    -0.248 NA
ATOM     50  C   UNL A   1      39.393  34.002  31.696  1.00  0.00     0.031 C 
ATOM     51  C   UNL A   1      45.045  32.184  32.985  1.00  0.00     0.029 A 
ATOM     52  C   UNL A   1      43.753  32.236  32.488  1.00  0.00     0.049 A 
ATOM     53  H   UNL A   1      42.706  30.794  31.359  1.00  0.00     0.167 HD
ATOM     54  C   UNL A   1      41.521  33.256  32.115  1.00  0.00     0.074 A 
ATOM     55  C   UNL A   1      40.550  34.320  32.260  1.00  0.00     0.031 C 
ATOM     56  C   UNL A   1      42.782  33.298  32.617  1.00  0.00     0.037 A 
BRANCH  43  57
ATOM     57  C   UNL A   1      46.102  28.196  31.445  1.00  0.00     0.058 A 
ATOM     58  C   UNL A   1      47.118  28.270  30.477  1.00  0.00     0.135 A 
ATOM     59  C   UNL A   1      46.317  27.365  32.556  1.00  0.00     0.135 A 
ATOM     60  F   UNL A   1      46.956  29.033  29.384  1.00  0.00    -0.206 F 
ATOM     61  C   UNL A   1      48.276  27.506  30.578  1.00  0.00     0.059 A 
ATOM     62  C   UNL A   1      47.482  26.617  32.694  1.00  0.00     0.059 A 
ATOM     63  F   UNL A   1      45.381  27.257  33.512  1.00  0.00    -0.206 F 
ATOM     64  C   UNL A   1      48.444  26.674  31.686  1.00  0.00     0.060 A 
BRANCH  64  65
ATOM     65  S   UNL A   1      49.924  25.646  31.778  1.00  0.00     0.124 S 
ATOM     66  O   UNL A   1      50.919  26.611  32.236  1.00  0.00    -0.237 OA
ATOM     67  O   UNL A   1      49.537  24.627  32.750  1.00  0.00    -0.237 OA
ATOM     68  O   UNL A   1      50.094  25.170  30.410  1.00  0.00    -0.744 OA
ENDBRANCH  64  65
ENDBRANCH  43  57
BRANCH  44  69
ATOM     69  C   UNL A   1      37.312  32.738  30.063  1.00  0.00     0.058 A 
ATOM     70  C   UNL A   1      36.194  32.494  30.875  1.00  0.00     0.135 A 
ATOM     71  C   UNL A   1      37.166  33.661  29.015  1.00  0.00     0.135 A 
ATOM     72  F   UNL A   1      36.275  31.606  31.878  1.00  0.00    -0.206 F 
ATOM     73  C   UNL A   1      34.977  33.132  30.654  1.00  0.00     0.059 A 
ATOM     74  C   UNL A   1      35.967  34.331  28.790  1.00  0.00     0.059 A 
ATOM     75  F   UNL A   1      38.203  33.931  28.207  1.00  0.00    -0.206 F 
ATOM     76  C   UNL A   1      34.875  34.054  29.611  1.00  0.00     0.060 A 
BRANCH  76  77
ATOM     77  S   UNL A   1      33.306  34.914  29.367  1.00  0.00     0.124 S 
ATOM     78  O   UNL A   1      32.737  34.879  30.708  1.00  0.00    -0.237 OA
ATOM     79  O   UNL A   1      33.746  36.223  28.894  1.00  0.00    -0.237 OA
ATOM     80  O   UNL A   1      32.622  34.094  28.371  1.00  0.00    -0.744 OA
ENDBRANCH  76  77
ENDBRANCH  44  69
BRANCH  56  81
ATOM     81  C   UNL A   1      43.216  34.560  33.319  1.00  0.00     0.058 A 
ATOM     82  C   UNL A   1      43.785  35.644  32.631  1.00  0.00     0.135 A 
ATOM     83  C   UNL A   1      43.012  34.703  34.702  1.00  0.00     0.135 A 
ATOM     84  F   UNL A   1      44.005  35.564  31.309  1.00  0.00    -0.206 F 
ATOM     85  C   UNL A   1      44.164  36.809  33.291  1.00  0.00     0.059 A 
ATOM     86  C   UNL A   1      43.353  35.871  35.378  1.00  0.00     0.059 A 
ATOM     87  F   UNL A   1      42.459  33.706  35.411  1.00  0.00    -0.206 F 
ATOM     88  C   UNL A   1      43.943  36.913  34.667  1.00  0.00     0.060 A 
BRANCH  88  89
ATOM     89  S   UNL A   1      44.418  38.439  35.509  1.00  0.00     0.124 S 
ATOM     90  O   UNL A   1      43.767  39.448  34.681  1.00  0.00    -0.237 OA
ATOM     91  O   UNL A   1      43.853  38.249  36.841  1.00  0.00    -0.237 OA
ATOM     92  O   UNL A   1      45.877  38.422  35.447  1.00  0.00    -0.744 OA
ENDBRANCH  88  89
ENDBRANCH  56  81
ENDBRANCH  30  31
ENDBRANCH  23  25
ENDBRANCH  22  23
ENDBRANCH   1  22
TORSDOF 16
ENDMDL
