MODEL 1
REMARK VINA RESULT:     -11.8      0.000      0.000
REMARK SMILES COc1cccc(-c2c([C@H]3c4ccccc4C(=O)N3CC(=O)OCCOC(=O)c3ccc(-c4c5nc(c(-c6c(F)cc(S(=O)(=O)[O-])cc6F)c6ccc([nH]6)c(-c6c(F)cc(S(=O)(=O)[O-])cc6F)c6nc(c(-c7c(F)cc(S(=O)(=O)[O-])cc7F)c7ccc4[nH]7)C=C6)C=C5)cc3)c3ccccc3n2C)c1
REMARK SMILES IDX 24 1 23 2 21 3 22 4 20 5 19 6 10 7 11 8 12 9 16 10 17 11
REMARK SMILES IDX 13 12 15 13 18 14 14 15 9 16 8 17 101 18 95 19 100 20 102 21
REMARK SMILES IDX 96 22 99 23 97 24 98 25 7 26 3 27 4 28 103 29 5 30 6 31 2 32
REMARK SMILES IDX 1 33 25 34 26 35 27 36 28 37 29 38 30 39 94 40 31 41 93 42
REMARK SMILES IDX 32 43 33 44 34 45 87 46 35 47 92 48 86 49 88 50 36 51 91 52
REMARK SMILES IDX 85 53 84 54 37 56 71 57 50 58 70 59 51 60 54 61 69 62 89 63
REMARK SMILES IDX 52 64 53 65 68 67 90 68 55 69 38 70 39 71 48 72 40 73 41 74
REMARK SMILES IDX 47 75 49 76 42 77 43 78 44 79 45 80 46 81 72 82 73 83 82 84
REMARK SMILES IDX 74 85 75 86 81 87 83 88 76 89 77 90 78 91 79 92 80 93 56 94
REMARK SMILES IDX 57 95 66 96 58 97 59 98 65 99 67 100 60 101 61 102 62 103
REMARK SMILES IDX 63 104 64 105
REMARK H PARENT 88 55 54 66
REMARK Flexibility Score: inf
ROOT
ATOM      1  C   UNL A   1      32.461  27.514  26.064  1.00  0.00     0.274 C 
ENDROOT
BRANCH   1   2
ATOM      2  O   UNL A   1      32.878  26.150  26.197  1.00  0.00    -0.461 OA
BRANCH   2   3
ATOM      3  C   UNL A   1      31.919  25.282  26.588  1.00  0.00     0.325 C 
ATOM      4  O   UNL A   1      30.710  25.487  26.521  1.00  0.00    -0.250 OA
BRANCH   3   5
ATOM      5  C   UNL A   1      32.465  23.948  27.048  1.00  0.00     0.243 C 
BRANCH   5   6
ATOM      6  N   UNL A   1      32.807  22.886  26.104  1.00  0.00    -0.316 N 
ATOM      7  C   UNL A   1      34.143  22.952  25.524  1.00  0.00     0.150 C 
ATOM      8  C   UNL A   1      33.814  23.547  24.184  1.00  0.00    -0.008 A 
ATOM      9  C   UNL A   1      34.470  24.544  23.479  1.00  0.00     0.007 A 
ATOM     10  C   UNL A   1      32.493  23.226  23.859  1.00  0.00     0.045 A 
ATOM     11  C   UNL A   1      31.860  22.709  25.084  1.00  0.00     0.255 C 
ATOM     12  C   UNL A   1      33.786  25.175  22.432  1.00  0.00     0.000 A 
ATOM     13  C   UNL A   1      31.816  23.794  22.795  1.00  0.00     0.014 A 
ATOM     14  O   UNL A   1      30.667  22.491  25.199  1.00  0.00    -0.269 OA
ATOM     15  C   UNL A   1      32.481  24.785  22.076  1.00  0.00     0.001 A 
BRANCH   7  16
ATOM     16  C   UNL A   1      34.803  21.602  25.264  1.00  0.00     0.013 A 
ATOM     17  C   UNL A   1      36.190  21.362  25.292  1.00  0.00     0.055 A 
ATOM     18  N   UNL A   1      36.395  20.071  24.833  1.00  0.00    -0.343 N 
ATOM     19  C   UNL A   1      34.185  20.310  25.066  1.00  0.00     0.006 A 
ATOM     20  C   UNL A   1      35.196  19.386  24.785  1.00  0.00     0.049 A 
ATOM     21  C   UNL A   1      37.676  19.489  24.488  1.00  0.00     0.150 C 
ATOM     22  C   UNL A   1      32.855  19.828  25.115  1.00  0.00     0.011 A 
ATOM     23  C   UNL A   1      34.918  18.028  24.526  1.00  0.00     0.027 A 
ATOM     24  C   UNL A   1      32.573  18.479  24.875  1.00  0.00     0.001 A 
ATOM     25  C   UNL A   1      33.594  17.591  24.578  1.00  0.00     0.002 A 
BRANCH  17  26
ATOM     26  C   UNL A   1      37.248  22.284  25.747  1.00  0.00     0.002 A 
ATOM     27  C   UNL A   1      39.477  22.515  26.707  1.00  0.00     0.119 A 
ATOM     28  C   UNL A   1      39.238  23.870  26.920  1.00  0.00     0.046 A 
ATOM     29  C   UNL A   1      38.512  21.749  26.056  1.00  0.00     0.056 A 
ATOM     30  C   UNL A   1      38.027  24.441  26.535  1.00  0.00     0.005 A 
ATOM     31  C   UNL A   1      37.023  23.643  25.980  1.00  0.00     0.010 A 
BRANCH  27  32
ATOM     32  O   UNL A   1      40.659  22.057  27.214  1.00  0.00    -0.497 OA
ATOM     33  C   UNL A   1      40.840  20.648  27.236  1.00  0.00     0.278 C 
ENDBRANCH  27  32
ENDBRANCH  17  26
ENDBRANCH   7  16
ENDBRANCH   5   6
ENDBRANCH   3   5
ENDBRANCH   2   3
ENDBRANCH   1   2
BRANCH   1  34
ATOM     34  C   UNL A   1      33.185  28.368  27.108  1.00  0.00     0.275 C 
BRANCH  34  35
ATOM     35  O   UNL A   1      34.047  29.365  26.516  1.00  0.00    -0.458 OA
BRANCH  35  36
ATOM     36  C   UNL A   1      34.516  30.309  27.363  1.00  0.00     0.338 C 
ATOM     37  O   UNL A   1      33.956  31.333  27.717  1.00  0.00    -0.246 OA
BRANCH  36  38
ATOM     38  C   UNL A   1      35.819  29.921  27.920  1.00  0.00     0.060 A 
ATOM     39  C   UNL A   1      35.871  29.536  29.260  1.00  0.00     0.016 A 
ATOM     40  C   UNL A   1      36.996  30.070  27.184  1.00  0.00     0.016 A 
ATOM     41  C   UNL A   1      37.103  29.331  29.873  1.00  0.00     0.010 A 
ATOM     42  C   UNL A   1      38.233  29.843  27.803  1.00  0.00     0.010 A 
ATOM     43  C   UNL A   1      38.303  29.495  29.163  1.00  0.00    -0.014 A 
BRANCH  43  44
ATOM     44  C   UNL A   1      39.609  29.324  29.861  1.00  0.00     0.031 A 
ATOM     45  C   UNL A   1      40.643  28.355  29.341  1.00  0.00     0.074 A 
ATOM     46  C   UNL A   1      39.893  30.065  30.951  1.00  0.00     0.049 A 
ATOM     47  N   UNL A   1      41.780  27.992  29.879  1.00  0.00    -0.248 NA
ATOM     48  C   UNL A   1      40.357  27.705  28.052  1.00  0.00     0.031 C 
ATOM     49  C   UNL A   1      39.009  31.070  31.544  1.00  0.00     0.029 A 
ATOM     50  N   UNL A   1      41.009  30.093  31.754  1.00  0.00    -0.354 N 
ATOM     51  C   UNL A   1      42.324  27.039  29.024  1.00  0.00     0.074 A 
ATOM     52  C   UNL A   1      41.388  26.880  27.929  1.00  0.00     0.031 C 
ATOM     53  C   UNL A   1      39.625  31.637  32.590  1.00  0.00     0.029 A 
ATOM     54  C   UNL A   1      40.913  30.984  32.796  1.00  0.00     0.049 A 
ATOM     55  H   UNL A   1      41.800  29.530  31.596  1.00  0.00     0.167 HD
ATOM     56  C   UNL A   1      43.490  26.358  29.142  1.00  0.00     0.037 A 
ATOM     57  C   UNL A   1      41.743  31.224  33.831  1.00  0.00     0.037 A 
ATOM     58  C   UNL A   1      44.443  26.551  30.207  1.00  0.00     0.049 A 
ATOM     59  C   UNL A   1      43.018  30.441  33.956  1.00  0.00     0.074 A 
ATOM     60  C   UNL A   1      45.662  25.921  30.395  1.00  0.00     0.029 A 
ATOM     61  N   UNL A   1      44.293  27.442  31.258  1.00  0.00    -0.354 N 
ATOM     62  N   UNL A   1      43.496  29.514  33.160  1.00  0.00    -0.248 NA
ATOM     63  C   UNL A   1      43.861  30.723  35.126  1.00  0.00     0.031 C 
ATOM     64  C   UNL A   1      46.231  26.403  31.579  1.00  0.00     0.029 A 
ATOM     65  C   UNL A   1      45.387  27.366  32.107  1.00  0.00     0.049 A 
ATOM     66  H   UNL A   1      43.522  28.041  31.384  1.00  0.00     0.167 HD
ATOM     67  C   UNL A   1      44.697  29.108  33.729  1.00  0.00     0.074 A 
ATOM     68  C   UNL A   1      44.883  29.902  34.925  1.00  0.00     0.031 C 
ATOM     69  C   UNL A   1      45.564  28.158  33.298  1.00  0.00     0.037 A 
BRANCH  56  70
ATOM     70  C   UNL A   1      43.793  25.303  28.111  1.00  0.00     0.058 A 
ATOM     71  C   UNL A   1      44.433  25.602  26.899  1.00  0.00     0.135 A 
ATOM     72  C   UNL A   1      43.471  23.958  28.364  1.00  0.00     0.135 A 
ATOM     73  F   UNL A   1      44.753  26.871  26.601  1.00  0.00    -0.206 F 
ATOM     74  C   UNL A   1      44.717  24.612  25.962  1.00  0.00     0.059 A 
ATOM     75  C   UNL A   1      43.767  22.949  27.453  1.00  0.00     0.059 A 
ATOM     76  F   UNL A   1      42.861  23.613  29.511  1.00  0.00    -0.206 F 
ATOM     77  C   UNL A   1      44.375  23.289  26.247  1.00  0.00     0.060 A 
BRANCH  77  78
ATOM     78  S   UNL A   1      44.741  22.015  25.020  1.00  0.00     0.124 S 
ATOM     79  O   UNL A   1      45.976  21.447  25.549  1.00  0.00    -0.237 OA
ATOM     80  O   UNL A   1      43.564  21.155  25.097  1.00  0.00    -0.237 OA
ATOM     81  O   UNL A   1      44.880  22.770  23.778  1.00  0.00    -0.744 OA
ENDBRANCH  77  78
ENDBRANCH  56  70
BRANCH  57  82
ATOM     82  C   UNL A   1      41.362  32.235  34.853  1.00  0.00     0.058 A 
ATOM     83  C   UNL A   1      41.752  33.575  34.727  1.00  0.00     0.135 A 
ATOM     84  C   UNL A   1      40.562  31.884  35.953  1.00  0.00     0.135 A 
ATOM     85  F   UNL A   1      42.527  33.954  33.700  1.00  0.00    -0.206 F 
ATOM     86  C   UNL A   1      41.359  34.536  35.653  1.00  0.00     0.059 A 
ATOM     87  C   UNL A   1      40.133  32.831  36.875  1.00  0.00     0.059 A 
ATOM     88  F   UNL A   1      40.154  30.616  36.110  1.00  0.00    -0.206 F 
ATOM     89  C   UNL A   1      40.542  34.155  36.720  1.00  0.00     0.060 A 
BRANCH  89  90
ATOM     90  S   UNL A   1      39.964  35.423  37.869  1.00  0.00     0.124 S 
ATOM     91  O   UNL A   1      39.836  36.579  36.990  1.00  0.00    -0.237 OA
ATOM     92  O   UNL A   1      38.714  34.849  38.358  1.00  0.00    -0.237 OA
ATOM     93  O   UNL A   1      41.039  35.493  38.854  1.00  0.00    -0.744 OA
ENDBRANCH  89  90
ENDBRANCH  57  82
BRANCH  69  94
ATOM     94  C   UNL A   1      46.808  27.940  34.114  1.00  0.00     0.058 A 
ATOM     95  C   UNL A   1      46.857  26.985  35.141  1.00  0.00     0.135 A 
ATOM     96  C   UNL A   1      47.978  28.664  33.835  1.00  0.00     0.135 A 
ATOM     97  F   UNL A   1      45.763  26.271  35.452  1.00  0.00    -0.206 F 
ATOM     98  C   UNL A   1      48.016  26.771  35.880  1.00  0.00     0.059 A 
ATOM     99  C   UNL A   1      49.156  28.451  34.547  1.00  0.00     0.059 A 
ATOM    100  F   UNL A   1      47.988  29.583  32.857  1.00  0.00    -0.206 F 
ATOM    101  C   UNL A   1      49.161  27.510  35.576  1.00  0.00     0.060 A 
BRANCH 101 102
ATOM    102  S   UNL A   1      50.669  27.205  36.522  1.00  0.00     0.124 S 
ATOM    103  O   UNL A   1      51.066  25.892  36.027  1.00  0.00    -0.237 OA
ATOM    104  O   UNL A   1      51.523  28.319  36.120  1.00  0.00    -0.237 OA
ATOM    105  O   UNL A   1      50.213  27.242  37.909  1.00  0.00    -0.744 OA
ENDBRANCH 101 102
ENDBRANCH  69  94
ENDBRANCH  43  44
ENDBRANCH  36  38
ENDBRANCH  35  36
ENDBRANCH  34  35
ENDBRANCH   1  34
TORSDOF 18
ENDMDL
MODEL 2
REMARK VINA RESULT:     -11.8      0.902      7.816
REMARK SMILES COc1cccc(-c2c([C@H]3c4ccccc4C(=O)N3CC(=O)OCCOC(=O)c3ccc(-c4c5nc(c(-c6c(F)cc(S(=O)(=O)[O-])cc6F)c6ccc([nH]6)c(-c6c(F)cc(S(=O)(=O)[O-])cc6F)c6nc(c(-c7c(F)cc(S(=O)(=O)[O-])cc7F)c7ccc4[nH]7)C=C6)C=C5)cc3)c3ccccc3n2C)c1
REMARK SMILES IDX 24 1 23 2 21 3 22 4 20 5 19 6 10 7 11 8 12 9 16 10 17 11
REMARK SMILES IDX 13 12 15 13 18 14 14 15 9 16 8 17 101 18 95 19 100 20 102 21
REMARK SMILES IDX 96 22 99 23 97 24 98 25 7 26 3 27 4 28 103 29 5 30 6 31 2 32
REMARK SMILES IDX 1 33 25 34 26 35 27 36 28 37 29 38 30 39 94 40 31 41 93 42
REMARK SMILES IDX 32 43 33 44 34 45 87 46 35 47 92 48 86 49 88 50 36 51 91 52
REMARK SMILES IDX 85 53 84 54 37 56 71 57 50 58 70 59 51 60 54 61 69 62 89 63
REMARK SMILES IDX 52 64 53 65 68 67 90 68 55 69 38 70 39 71 48 72 40 73 41 74
REMARK SMILES IDX 47 75 49 76 42 77 43 78 44 79 45 80 46 81 72 82 73 83 82 84
REMARK SMILES IDX 74 85 75 86 81 87 83 88 76 89 77 90 78 91 79 92 80 93 56 94
REMARK SMILES IDX 57 95 66 96 58 97 59 98 65 99 67 100 60 101 61 102 62 103
REMARK SMILES IDX 63 104 64 105
REMARK H PARENT 88 55 54 66
REMARK Flexibility Score: inf
ROOT
ATOM      1  C   UNL A   1      32.115  28.557  26.152  1.00  0.00     0.274 C 
ENDROOT
BRANCH   1   2
ATOM      2  O   UNL A   1      32.915  27.469  26.629  1.00  0.00    -0.461 OA
BRANCH   2   3
ATOM      3  C   UNL A   1      33.714  26.885  25.709  1.00  0.00     0.325 C 
ATOM      4  O   UNL A   1      33.872  27.280  24.556  1.00  0.00    -0.250 OA
BRANCH   3   5
ATOM      5  C   UNL A   1      34.505  25.715  26.252  1.00  0.00     0.243 C 
BRANCH   5   6
ATOM      6  N   UNL A   1      34.145  24.332  25.949  1.00  0.00    -0.316 N 
ATOM      7  C   UNL A   1      34.719  23.774  24.731  1.00  0.00     0.150 C 
ATOM      8  C   UNL A   1      33.543  23.907  23.805  1.00  0.00    -0.008 A 
ATOM      9  C   UNL A   1      33.505  24.328  22.485  1.00  0.00     0.007 A 
ATOM     10  C   UNL A   1      32.370  23.904  24.563  1.00  0.00     0.045 A 
ATOM     11  C   UNL A   1      32.764  24.089  25.970  1.00  0.00     0.255 C 
ATOM     12  C   UNL A   1      32.270  24.707  21.946  1.00  0.00     0.000 A 
ATOM     13  C   UNL A   1      31.129  24.220  24.039  1.00  0.00     0.014 A 
ATOM     14  O   UNL A   1      31.979  24.299  26.879  1.00  0.00    -0.269 OA
ATOM     15  C   UNL A   1      31.088  24.628  22.707  1.00  0.00     0.001 A 
BRANCH   7  16
ATOM     16  C   UNL A   1      35.069  22.291  24.801  1.00  0.00     0.013 A 
ATOM     17  C   UNL A   1      36.329  21.774  25.160  1.00  0.00     0.055 A 
ATOM     18  N   UNL A   1      36.294  20.408  24.930  1.00  0.00    -0.343 N 
ATOM     19  C   UNL A   1      34.203  21.144  24.646  1.00  0.00     0.006 A 
ATOM     20  C   UNL A   1      34.995  19.992  24.715  1.00  0.00     0.049 A 
ATOM     21  C   UNL A   1      37.438  19.518  24.951  1.00  0.00     0.150 C 
ATOM     22  C   UNL A   1      32.810  20.968  24.468  1.00  0.00     0.011 A 
ATOM     23  C   UNL A   1      34.448  18.700  24.583  1.00  0.00     0.027 A 
ATOM     24  C   UNL A   1      32.258  19.688  24.353  1.00  0.00     0.001 A 
ATOM     25  C   UNL A   1      33.071  18.567  24.405  1.00  0.00     0.002 A 
BRANCH  17  26
ATOM     26  C   UNL A   1      37.479  22.519  25.707  1.00  0.00     0.002 A 
ATOM     27  C   UNL A   1      39.750  22.407  26.584  1.00  0.00     0.119 A 
ATOM     28  C   UNL A   1      39.638  23.722  27.026  1.00  0.00     0.046 A 
ATOM     29  C   UNL A   1      38.700  21.840  25.864  1.00  0.00     0.056 A 
ATOM     30  C   UNL A   1      38.469  24.445  26.797  1.00  0.00     0.005 A 
ATOM     31  C   UNL A   1      37.381  23.834  26.169  1.00  0.00     0.010 A 
BRANCH  27  32
ATOM     32  O   UNL A   1      40.904  21.776  26.952  1.00  0.00    -0.497 OA
ATOM     33  C   UNL A   1      40.868  20.357  27.002  1.00  0.00     0.278 C 
ENDBRANCH  27  32
ENDBRANCH  17  26
ENDBRANCH   7  16
ENDBRANCH   5   6
ENDBRANCH   3   5
ENDBRANCH   2   3
ENDBRANCH   1   2
BRANCH   1  34
ATOM     34  C   UNL A   1      32.447  29.818  26.952  1.00  0.00     0.275 C 
BRANCH  34  35
ATOM     35  O   UNL A   1      33.765  30.335  26.663  1.00  0.00    -0.458 OA
BRANCH  35  36
ATOM     36  C   UNL A   1      34.249  31.231  27.552  1.00  0.00     0.338 C 
ATOM     37  O   UNL A   1      33.673  32.198  28.020  1.00  0.00    -0.246 OA
BRANCH  36  38
ATOM     38  C   UNL A   1      35.601  30.861  27.994  1.00  0.00     0.060 A 
ATOM     39  C   UNL A   1      35.800  29.568  28.479  1.00  0.00     0.016 A 
ATOM     40  C   UNL A   1      36.624  31.808  28.069  1.00  0.00     0.016 A 
ATOM     41  C   UNL A   1      37.015  29.231  29.069  1.00  0.00     0.010 A 
ATOM     42  C   UNL A   1      37.852  31.455  28.647  1.00  0.00     0.010 A 
ATOM     43  C   UNL A   1      38.053  30.169  29.178  1.00  0.00    -0.014 A 
BRANCH  43  44
ATOM     44  C   UNL A   1      39.324  29.797  29.865  1.00  0.00     0.031 A 
ATOM     45  C   UNL A   1      39.704  30.426  31.183  1.00  0.00     0.074 A 
ATOM     46  C   UNL A   1      40.132  28.862  29.326  1.00  0.00     0.049 A 
ATOM     47  N   UNL A   1      40.816  30.311  31.864  1.00  0.00    -0.248 NA
ATOM     48  C   UNL A   1      38.705  31.304  31.814  1.00  0.00     0.031 C 
ATOM     49  C   UNL A   1      39.875  28.140  28.079  1.00  0.00     0.029 A 
ATOM     50  N   UNL A   1      41.333  28.353  29.760  1.00  0.00    -0.354 N 
ATOM     51  C   UNL A   1      40.674  31.134  32.975  1.00  0.00     0.074 A 
ATOM     52  C   UNL A   1      39.364  31.745  32.877  1.00  0.00     0.031 C 
ATOM     53  C   UNL A   1      40.864  27.262  27.866  1.00  0.00     0.029 A 
ATOM     54  C   UNL A   1      41.869  27.412  28.914  1.00  0.00     0.049 A 
ATOM     55  H   UNL A   1      41.766  28.635  30.597  1.00  0.00     0.167 HD
ATOM     56  C   UNL A   1      41.554  31.364  33.981  1.00  0.00     0.037 A 
ATOM     57  C   UNL A   1      43.053  26.770  28.944  1.00  0.00     0.037 A 
ATOM     58  C   UNL A   1      42.838  30.719  34.104  1.00  0.00     0.049 A 
ATOM     59  C   UNL A   1      44.023  27.056  30.055  1.00  0.00     0.074 A 
ATOM     60  C   UNL A   1      43.787  30.873  35.102  1.00  0.00     0.029 A 
ATOM     61  N   UNL A   1      43.355  29.795  33.208  1.00  0.00    -0.354 N 
ATOM     62  N   UNL A   1      43.889  27.870  31.075  1.00  0.00    -0.248 NA
ATOM     63  C   UNL A   1      45.312  26.352  30.011  1.00  0.00     0.031 C 
ATOM     64  C   UNL A   1      44.891  30.072  34.790  1.00  0.00     0.029 A 
ATOM     65  C   UNL A   1      44.613  29.384  33.621  1.00  0.00     0.049 A 
ATOM     66  H   UNL A   1      42.895  29.477  32.398  1.00  0.00     0.167 HD
ATOM     67  C   UNL A   1      45.072  27.768  31.798  1.00  0.00     0.074 A 
ATOM     68  C   UNL A   1      45.902  26.803  31.110  1.00  0.00     0.031 C 
ATOM     69  C   UNL A   1      45.435  28.423  32.928  1.00  0.00     0.037 A 
BRANCH  56  70
ATOM     70  C   UNL A   1      41.180  32.387  35.020  1.00  0.00     0.058 A 
ATOM     71  C   UNL A   1      41.582  33.728  34.930  1.00  0.00     0.135 A 
ATOM     72  C   UNL A   1      40.366  32.022  36.107  1.00  0.00     0.135 A 
ATOM     73  F   UNL A   1      42.370  34.129  33.919  1.00  0.00    -0.206 F 
ATOM     74  C   UNL A   1      41.217  34.664  35.893  1.00  0.00     0.059 A 
ATOM     75  C   UNL A   1      39.968  32.946  37.068  1.00  0.00     0.059 A 
ATOM     76  F   UNL A   1      39.947  30.753  36.241  1.00  0.00    -0.206 F 
ATOM     77  C   UNL A   1      40.413  34.262  36.962  1.00  0.00     0.060 A 
BRANCH  77  78
ATOM     78  S   UNL A   1      39.953  35.484  38.209  1.00  0.00     0.124 S 
ATOM     79  O   UNL A   1      38.727  34.903  38.747  1.00  0.00    -0.237 OA
ATOM     80  O   UNL A   1      41.106  35.470  39.105  1.00  0.00    -0.237 OA
ATOM     81  O   UNL A   1      39.780  36.710  37.437  1.00  0.00    -0.744 OA
ENDBRANCH  77  78
ENDBRANCH  56  70
BRANCH  57  82
ATOM     82  C   UNL A   1      43.394  25.814  27.857  1.00  0.00     0.058 A 
ATOM     83  C   UNL A   1      43.977  26.255  26.661  1.00  0.00     0.135 A 
ATOM     84  C   UNL A   1      43.180  24.435  28.014  1.00  0.00     0.135 A 
ATOM     85  F   UNL A   1      44.188  27.564  26.461  1.00  0.00    -0.206 F 
ATOM     86  C   UNL A   1      44.343  25.362  25.660  1.00  0.00     0.059 A 
ATOM     87  C   UNL A   1      43.564  23.521  27.040  1.00  0.00     0.059 A 
ATOM     88  F   UNL A   1      42.635  23.964  29.146  1.00  0.00    -0.206 F 
ATOM     89  C   UNL A   1      44.140  23.995  25.863  1.00  0.00     0.060 A 
BRANCH  89  90
ATOM     90  S   UNL A   1      44.697  22.835  24.596  1.00  0.00     0.124 S 
ATOM     91  O   UNL A   1      45.771  23.589  23.960  1.00  0.00    -0.237 OA
ATOM     92  O   UNL A   1      45.108  21.683  25.391  1.00  0.00    -0.237 OA
ATOM     93  O   UNL A   1      43.501  22.630  23.783  1.00  0.00    -0.744 OA
ENDBRANCH  89  90
ENDBRANCH  57  82
BRANCH  69  94
ATOM     94  C   UNL A   1      46.785  28.100  33.509  1.00  0.00     0.058 A 
ATOM     95  C   UNL A   1      47.929  28.834  33.165  1.00  0.00     0.135 A 
ATOM     96  C   UNL A   1      46.925  27.069  34.452  1.00  0.00     0.135 A 
ATOM     97  F   UNL A   1      47.850  29.825  32.262  1.00  0.00    -0.206 F 
ATOM     98  C   UNL A   1      49.173  28.546  33.720  1.00  0.00     0.059 A 
ATOM     99  C   UNL A   1      48.155  26.777  35.037  1.00  0.00     0.059 A 
ATOM    100  F   UNL A   1      45.860  26.341  34.823  1.00  0.00    -0.206 F 
ATOM    101  C   UNL A   1      49.275  27.514  34.655  1.00  0.00     0.060 A 
BRANCH 101 102
ATOM    102  S   UNL A   1      50.887  27.165  35.389  1.00  0.00     0.124 S 
ATOM    103  O   UNL A   1      51.791  27.547  34.310  1.00  0.00    -0.237 OA
ATOM    104  O   UNL A   1      50.894  28.036  36.561  1.00  0.00    -0.237 OA
ATOM    105  O   UNL A   1      50.826  25.735  35.680  1.00  0.00    -0.744 OA
ENDBRANCH 101 102
ENDBRANCH  69  94
ENDBRANCH  43  44
ENDBRANCH  36  38
ENDBRANCH  35  36
ENDBRANCH  34  35
ENDBRANCH   1  34
TORSDOF 18
ENDMDL
MODEL 3
REMARK VINA RESULT:     -11.5      7.652     16.135
REMARK SMILES COc1cccc(-c2c([C@H]3c4ccccc4C(=O)N3CC(=O)OCCOC(=O)c3ccc(-c4c5nc(c(-c6c(F)cc(S(=O)(=O)[O-])cc6F)c6ccc([nH]6)c(-c6c(F)cc(S(=O)(=O)[O-])cc6F)c6nc(c(-c7c(F)cc(S(=O)(=O)[O-])cc7F)c7ccc4[nH]7)C=C6)C=C5)cc3)c3ccccc3n2C)c1
REMARK SMILES IDX 24 1 23 2 21 3 22 4 20 5 19 6 10 7 11 8 12 9 16 10 17 11
REMARK SMILES IDX 13 12 15 13 18 14 14 15 9 16 8 17 101 18 95 19 100 20 102 21
REMARK SMILES IDX 96 22 99 23 97 24 98 25 7 26 3 27 4 28 103 29 5 30 6 31 2 32
REMARK SMILES IDX 1 33 25 34 26 35 27 36 28 37 29 38 30 39 94 40 31 41 93 42
REMARK SMILES IDX 32 43 33 44 34 45 87 46 35 47 92 48 86 49 88 50 36 51 91 52
REMARK SMILES IDX 85 53 84 54 37 56 71 57 50 58 70 59 51 60 54 61 69 62 89 63
REMARK SMILES IDX 52 64 53 65 68 67 90 68 55 69 38 70 39 71 48 72 40 73 41 74
REMARK SMILES IDX 47 75 49 76 42 77 43 78 44 79 45 80 46 81 72 82 73 83 82 84
REMARK SMILES IDX 74 85 75 86 81 87 83 88 76 89 77 90 78 91 79 92 80 93 56 94
REMARK SMILES IDX 57 95 66 96 58 97 59 98 65 99 67 100 60 101 61 102 62 103
REMARK SMILES IDX 63 104 64 105
REMARK H PARENT 88 55 54 66
REMARK Flexibility Score: inf
ROOT
ATOM      1  C   UNL A   1      50.081  39.090  28.801  1.00  0.00     0.274 C 
ENDROOT
BRANCH   1   2
ATOM      2  O   UNL A   1      49.207  39.932  28.039  1.00  0.00    -0.461 OA
BRANCH   2   3
ATOM      3  C   UNL A   1      48.380  40.720  28.759  1.00  0.00     0.325 C 
ATOM      4  O   UNL A   1      48.273  40.702  29.983  1.00  0.00    -0.250 OA
BRANCH   3   5
ATOM      5  C   UNL A   1      47.631  41.733  27.921  1.00  0.00     0.243 C 
BRANCH   5   6
ATOM      6  N   UNL A   1      46.413  42.383  28.400  1.00  0.00    -0.316 N 
ATOM      7  C   UNL A   1      45.163  41.690  28.113  1.00  0.00     0.150 C 
ATOM      8  C   UNL A   1      44.693  42.484  26.927  1.00  0.00    -0.008 A 
ATOM      9  C   UNL A   1      44.129  42.043  25.740  1.00  0.00     0.007 A 
ATOM     10  C   UNL A   1      45.243  43.766  26.996  1.00  0.00     0.045 A 
ATOM     11  C   UNL A   1      46.302  43.728  28.019  1.00  0.00     0.255 C 
ATOM     12  C   UNL A   1      44.102  42.923  24.652  1.00  0.00     0.000 A 
ATOM     13  C   UNL A   1      45.179  44.674  25.954  1.00  0.00     0.014 A 
ATOM     14  O   UNL A   1      47.095  44.632  28.217  1.00  0.00    -0.269 OA
ATOM     15  C   UNL A   1      44.598  44.236  24.766  1.00  0.00     0.001 A 
BRANCH   7  16
ATOM     16  C   UNL A   1      44.090  41.817  29.190  1.00  0.00     0.013 A 
ATOM     17  C   UNL A   1      42.937  41.013  29.280  1.00  0.00     0.055 A 
ATOM     18  N   UNL A   1      42.136  41.553  30.274  1.00  0.00    -0.343 N 
ATOM     19  C   UNL A   1      44.077  42.657  30.366  1.00  0.00     0.006 A 
ATOM     20  C   UNL A   1      42.846  42.483  31.008  1.00  0.00     0.049 A 
ATOM     21  C   UNL A   1      40.763  41.180  30.549  1.00  0.00     0.150 C 
ATOM     22  C   UNL A   1      45.004  43.545  30.963  1.00  0.00     0.011 A 
ATOM     23  C   UNL A   1      42.512  43.180  32.186  1.00  0.00     0.027 A 
ATOM     24  C   UNL A   1      44.686  44.228  32.142  1.00  0.00     0.001 A 
ATOM     25  C   UNL A   1      43.450  44.050  32.743  1.00  0.00     0.002 A 
BRANCH  17  26
ATOM     26  C   UNL A   1      42.627  39.802  28.497  1.00  0.00     0.002 A 
ATOM     27  C   UNL A   1      43.119  37.447  28.103  1.00  0.00     0.119 A 
ATOM     28  C   UNL A   1      42.378  37.496  26.925  1.00  0.00     0.046 A 
ATOM     29  C   UNL A   1      43.176  38.577  28.917  1.00  0.00     0.056 A 
ATOM     30  C   UNL A   1      41.746  38.677  26.538  1.00  0.00     0.005 A 
ATOM     31  C   UNL A   1      41.898  39.835  27.306  1.00  0.00     0.010 A 
BRANCH  27  32
ATOM     32  O   UNL A   1      43.766  36.266  28.323  1.00  0.00    -0.497 OA
ATOM     33  C   UNL A   1      43.899  35.852  29.675  1.00  0.00     0.278 C 
ENDBRANCH  27  32
ENDBRANCH  17  26
ENDBRANCH   7  16
ENDBRANCH   5   6
ENDBRANCH   3   5
ENDBRANCH   2   3
ENDBRANCH   1   2
BRANCH   1  34
ATOM     34  C   UNL A   1      49.695  37.627  28.579  1.00  0.00     0.275 C 
BRANCH  34  35
ATOM     35  O   UNL A   1      49.105  37.018  29.749  1.00  0.00    -0.458 OA
BRANCH  35  36
ATOM     36  C   UNL A   1      47.776  36.779  29.676  1.00  0.00     0.338 C 
ATOM     37  O   UNL A   1      46.871  37.591  29.768  1.00  0.00    -0.246 OA
BRANCH  36  38
ATOM     38  C   UNL A   1      47.507  35.367  29.376  1.00  0.00     0.060 A 
ATOM     39  C   UNL A   1      47.207  35.023  28.057  1.00  0.00     0.016 A 
ATOM     40  C   UNL A   1      47.407  34.415  30.392  1.00  0.00     0.016 A 
ATOM     41  C   UNL A   1      46.775  33.734  27.760  1.00  0.00     0.010 A 
ATOM     42  C   UNL A   1      46.990  33.113  30.082  1.00  0.00     0.010 A 
ATOM     43  C   UNL A   1      46.645  32.763  28.765  1.00  0.00    -0.014 A 
BRANCH  43  44
ATOM     44  C   UNL A   1      46.126  31.407  28.426  1.00  0.00     0.031 A 
ATOM     45  C   UNL A   1      44.667  31.068  28.608  1.00  0.00     0.074 A 
ATOM     46  C   UNL A   1      46.958  30.475  27.918  1.00  0.00     0.049 A 
ATOM     47  N   UNL A   1      44.063  29.913  28.476  1.00  0.00    -0.248 NA
ATOM     48  C   UNL A   1      43.771  32.169  28.995  1.00  0.00     0.031 C 
ATOM     49  C   UNL A   1      48.384  30.672  27.649  1.00  0.00     0.029 A 
ATOM     50  N   UNL A   1      46.726  29.177  27.530  1.00  0.00    -0.354 N 
ATOM     51  C   UNL A   1      42.732  30.135  28.809  1.00  0.00     0.074 A 
ATOM     52  C   UNL A   1      42.615  31.538  29.149  1.00  0.00     0.031 C 
ATOM     53  C   UNL A   1      48.890  29.554  27.112  1.00  0.00     0.029 A 
ATOM     54  C   UNL A   1      47.849  28.531  27.072  1.00  0.00     0.049 A 
ATOM     55  H   UNL A   1      45.839  28.752  27.575  1.00  0.00     0.167 HD
ATOM     56  C   UNL A   1      41.703  29.252  28.832  1.00  0.00     0.037 A 
ATOM     57  C   UNL A   1      48.041  27.250  26.702  1.00  0.00     0.037 A 
ATOM     58  C   UNL A   1      41.810  27.866  28.447  1.00  0.00     0.049 A 
ATOM     59  C   UNL A   1      46.894  26.282  26.758  1.00  0.00     0.074 A 
ATOM     60  C   UNL A   1      40.814  26.903  28.417  1.00  0.00     0.029 A 
ATOM     61  N   UNL A   1      42.973  27.245  28.018  1.00  0.00    -0.354 N 
ATOM     62  N   UNL A   1      45.651  26.500  27.115  1.00  0.00    -0.248 NA
ATOM     63  C   UNL A   1      47.177  24.891  26.377  1.00  0.00     0.031 C 
ATOM     64  C   UNL A   1      41.384  25.692  28.008  1.00  0.00     0.029 A 
ATOM     65  C   UNL A   1      42.725  25.910  27.739  1.00  0.00     0.049 A 
ATOM     66  H   UNL A   1      43.847  27.688  27.925  1.00  0.00     0.167 HD
ATOM     67  C   UNL A   1      45.002  25.276  26.995  1.00  0.00     0.074 A 
ATOM     68  C   UNL A   1      45.985  24.327  26.515  1.00  0.00     0.031 C 
ATOM     69  C   UNL A   1      43.709  24.970  27.264  1.00  0.00     0.037 A 
BRANCH  56  70
ATOM     70  C   UNL A   1      40.369  29.742  29.328  1.00  0.00     0.058 A 
ATOM     71  C   UNL A   1      39.275  29.935  28.470  1.00  0.00     0.135 A 
ATOM     72  C   UNL A   1      40.173  29.984  30.699  1.00  0.00     0.135 A 
ATOM     73  F   UNL A   1      39.410  29.729  27.150  1.00  0.00    -0.206 F 
ATOM     74  C   UNL A   1      38.045  30.378  28.947  1.00  0.00     0.059 A 
ATOM     75  C   UNL A   1      38.945  30.403  31.202  1.00  0.00     0.059 A 
ATOM     76  F   UNL A   1      41.184  29.812  31.567  1.00  0.00    -0.206 F 
ATOM     77  C   UNL A   1      37.891  30.613  30.315  1.00  0.00     0.060 A 
BRANCH  77  78
ATOM     78  S   UNL A   1      36.292  31.196  30.920  1.00  0.00     0.124 S 
ATOM     79  O   UNL A   1      35.931  30.134  31.854  1.00  0.00    -0.237 OA
ATOM     80  O   UNL A   1      36.632  32.480  31.523  1.00  0.00    -0.237 OA
ATOM     81  O   UNL A   1      35.478  31.271  29.711  1.00  0.00    -0.744 OA
ENDBRANCH  77  78
ENDBRANCH  56  70
BRANCH  57  82
ATOM     82  C   UNL A   1      49.397  26.807  26.279  1.00  0.00     0.058 A 
ATOM     83  C   UNL A   1      50.271  26.185  27.180  1.00  0.00     0.135 A 
ATOM     84  C   UNL A   1      49.825  26.962  24.950  1.00  0.00     0.135 A 
ATOM     85  F   UNL A   1      49.910  26.027  28.463  1.00  0.00    -0.206 F 
ATOM     86  C   UNL A   1      51.521  25.724  26.780  1.00  0.00     0.059 A 
ATOM     87  C   UNL A   1      51.057  26.485  24.520  1.00  0.00     0.059 A 
ATOM     88  F   UNL A   1      49.019  27.542  24.047  1.00  0.00    -0.206 F 
ATOM     89  C   UNL A   1      51.901  25.872  25.444  1.00  0.00     0.060 A 
BRANCH  89  90
ATOM     90  S   UNL A   1      53.488  25.195  24.912  1.00  0.00     0.124 S 
ATOM     91  O   UNL A   1      53.330  23.783  25.242  1.00  0.00    -0.237 OA
ATOM     92  O   UNL A   1      53.503  25.522  23.490  1.00  0.00    -0.237 OA
ATOM     93  O   UNL A   1      54.453  25.930  25.725  1.00  0.00    -0.744 OA
ENDBRANCH  89  90
ENDBRANCH  57  82
BRANCH  69  94
ATOM     94  C   UNL A   1      43.272  23.551  27.022  1.00  0.00     0.058 A 
ATOM     95  C   UNL A   1      43.092  23.047  25.725  1.00  0.00     0.135 A 
ATOM     96  C   UNL A   1      43.072  22.674  28.101  1.00  0.00     0.135 A 
ATOM     97  F   UNL A   1      43.263  23.846  24.660  1.00  0.00    -0.206 F 
ATOM     98  C   UNL A   1      42.707  21.728  25.505  1.00  0.00     0.059 A 
ATOM     99  C   UNL A   1      42.709  21.345  27.903  1.00  0.00     0.059 A 
ATOM    100  F   UNL A   1      43.240  23.104  29.362  1.00  0.00    -0.206 F 
ATOM    101  C   UNL A   1      42.517  20.885  26.602  1.00  0.00     0.060 A 
BRANCH 101 102
ATOM    102  S   UNL A   1      42.045  19.167  26.304  1.00  0.00     0.124 S 
ATOM    103  O   UNL A   1      42.283  18.566  27.613  1.00  0.00    -0.237 OA
ATOM    104  O   UNL A   1      40.645  19.290  25.909  1.00  0.00    -0.237 OA
ATOM    105  O   UNL A   1      42.955  18.743  25.244  1.00  0.00    -0.744 OA
ENDBRANCH 101 102
ENDBRANCH  69  94
ENDBRANCH  43  44
ENDBRANCH  36  38
ENDBRANCH  35  36
ENDBRANCH  34  35
ENDBRANCH   1  34
TORSDOF 18
ENDMDL
