MODEL 1
REMARK VINA RESULT:     -10.0      0.000      0.000
REMARK SMILES CC(=O)N(C)n1cnn(CC(=O)OCCOC(=O)c2ccc(-c3c4nc(c(-c5c(F)cc(S(=O)(=O)[O-])cc5F)c5ccc([nH]5)c(-c5c(F)cc(S(=O)(=O)[O-])cc5F)c5nc(c(-c6c(F)cc(S(=O)(=O)[O-])cc6F)c6ccc3[nH]6)C=C5)C=C4)cc2)c1=S
REMARK SMILES IDX 14 1 13 2 11 3 12 4 10 5 9 6 6 7 7 8 85 9 8 10 86 11 4 12
REMARK SMILES IDX 5 13 2 14 1 15 3 16 15 17 16 18 17 19 18 20 19 21 20 22
REMARK SMILES IDX 84 23 21 24 83 25 22 26 23 27 24 28 77 29 25 30 82 31 76 32
REMARK SMILES IDX 78 33 26 34 81 35 75 36 74 37 27 39 61 40 40 41 60 42 41 43
REMARK SMILES IDX 44 44 59 45 79 46 42 47 43 48 58 50 80 51 45 52 28 53 29 54
REMARK SMILES IDX 38 55 30 56 31 57 37 58 39 59 32 60 33 61 34 62 35 63 36 64
REMARK SMILES IDX 62 65 63 66 72 67 64 68 65 69 71 70 73 71 66 72 67 73 68 74
REMARK SMILES IDX 69 75 70 76 46 77 47 78 56 79 48 80 49 81 55 82 57 83 50 84
REMARK SMILES IDX 51 85 52 86 53 87 54 88
REMARK H PARENT 78 38 44 49
REMARK Flexibility Score: inf
ROOT
ATOM      1  C   UNL A   1      41.899  19.112  26.189  1.00  0.00     0.274 C 
ENDROOT
BRANCH   1   2
ATOM      2  O   UNL A   1      41.988  20.023  27.303  1.00  0.00    -0.461 OA
BRANCH   2   3
ATOM      3  C   UNL A   1      41.083  21.038  27.324  1.00  0.00     0.328 C 
ATOM      4  O   UNL A   1      40.659  21.560  28.353  1.00  0.00    -0.250 OA
BRANCH   3   5
ATOM      5  C   UNL A   1      40.570  21.452  25.951  1.00  0.00     0.270 C 
BRANCH   5   6
ATOM      6  N   UNL A   1      39.139  21.393  25.695  1.00  0.00    -0.226 N 
ATOM      7  N   UNL A   1      37.011  21.812  25.302  1.00  0.00    -0.211 N 
ATOM      8  C   UNL A   1      37.332  20.548  24.956  1.00  0.00     0.247 A 
ATOM      9  C   UNL A   1      38.158  22.397  25.806  1.00  0.00     0.217 A 
ATOM     10  N   UNL A   1      38.582  20.255  25.118  1.00  0.00    -0.158 NA
ATOM     11  S   UNL A   1      38.372  23.958  26.349  1.00  0.00    -0.037 S 
BRANCH   7  12
ATOM     12  N   UNL A   1      35.782  22.408  25.036  1.00  0.00    -0.250 N 
ATOM     13  C   UNL A   1      34.953  22.573  26.219  1.00  0.00     0.176 C 
BRANCH  12  14
ATOM     14  C   UNL A   1      35.539  22.847  23.748  1.00  0.00     0.238 C 
ATOM     15  C   UNL A   1      34.093  22.907  23.327  1.00  0.00     0.116 C 
ATOM     16  O   UNL A   1      36.428  23.179  22.965  1.00  0.00    -0.273 OA
ENDBRANCH  12  14
ENDBRANCH   7  12
ENDBRANCH   5   6
ENDBRANCH   3   5
ENDBRANCH   2   3
ENDBRANCH   1   2
BRANCH   1  17
ATOM     17  C   UNL A   1      43.271  18.820  25.587  1.00  0.00     0.275 C 
BRANCH  17  18
ATOM     18  O   UNL A   1      44.140  19.946  25.714  1.00  0.00    -0.458 OA
BRANCH  18  19
ATOM     19  C   UNL A   1      44.497  20.467  24.517  1.00  0.00     0.338 C 
ATOM     20  O   UNL A   1      44.667  19.851  23.481  1.00  0.00    -0.246 OA
BRANCH  19  21
ATOM     21  C   UNL A   1      44.829  21.888  24.646  1.00  0.00     0.060 A 
ATOM     22  C   UNL A   1      45.962  22.199  25.406  1.00  0.00     0.016 A 
ATOM     23  C   UNL A   1      43.847  22.838  24.348  1.00  0.00     0.016 A 
ATOM     24  C   UNL A   1      46.004  23.410  26.061  1.00  0.00     0.010 A 
ATOM     25  C   UNL A   1      43.882  24.040  25.014  1.00  0.00     0.010 A 
ATOM     26  C   UNL A   1      44.910  24.265  25.933  1.00  0.00    -0.014 A 
BRANCH  26  27
ATOM     27  C   UNL A   1      44.801  25.367  26.868  1.00  0.00     0.031 A 
ATOM     28  C   UNL A   1      45.827  26.426  26.731  1.00  0.00     0.074 A 
ATOM     29  C   UNL A   1      43.722  25.459  27.670  1.00  0.00     0.049 A 
ATOM     30  N   UNL A   1      46.634  26.889  27.627  1.00  0.00    -0.248 NA
ATOM     31  C   UNL A   1      46.044  26.973  25.383  1.00  0.00     0.031 C 
ATOM     32  C   UNL A   1      42.509  24.633  27.638  1.00  0.00     0.029 A 
ATOM     33  N   UNL A   1      43.415  26.416  28.582  1.00  0.00    -0.354 N 
ATOM     34  C   UNL A   1      47.340  27.913  27.002  1.00  0.00     0.074 A 
ATOM     35  C   UNL A   1      47.052  27.815  25.595  1.00  0.00     0.031 C 
ATOM     36  C   UNL A   1      41.521  25.281  28.295  1.00  0.00     0.029 A 
ATOM     37  C   UNL A   1      42.061  26.502  28.869  1.00  0.00     0.049 A 
ATOM     38  H   UNL A   1      44.091  26.996  29.000  1.00  0.00     0.167 HD
ATOM     39  C   UNL A   1      47.956  28.907  27.697  1.00  0.00     0.037 A 
ATOM     40  C   UNL A   1      41.429  27.574  29.410  1.00  0.00     0.037 A 
ATOM     41  C   UNL A   1      48.136  28.567  29.081  1.00  0.00     0.049 A 
ATOM     42  C   UNL A   1      42.470  28.423  30.056  1.00  0.00     0.074 A 
ATOM     43  C   UNL A   1      48.807  27.555  29.742  1.00  0.00     0.029 A 
ATOM     44  N   UNL A   1      47.279  29.111  30.007  1.00  0.00    -0.354 N 
ATOM     45  N   UNL A   1      43.168  28.065  31.102  1.00  0.00    -0.248 NA
ATOM     46  C   UNL A   1      43.059  29.494  29.262  1.00  0.00     0.031 C 
ATOM     47  C   UNL A   1      47.986  27.232  30.858  1.00  0.00     0.029 A 
ATOM     48  C   UNL A   1      46.884  28.088  30.834  1.00  0.00     0.049 A 
ATOM     49  H   UNL A   1      47.001  30.055  30.067  1.00  0.00     0.167 HD
ATOM     50  C   UNL A   1      44.446  28.563  30.875  1.00  0.00     0.074 A 
ATOM     51  C   UNL A   1      44.292  29.510  29.774  1.00  0.00     0.031 C 
ATOM     52  C   UNL A   1      45.557  27.964  31.401  1.00  0.00     0.037 A 
BRANCH  39  53
ATOM     53  C   UNL A   1      48.126  30.304  27.166  1.00  0.00     0.058 A 
ATOM     54  C   UNL A   1      49.406  30.885  27.106  1.00  0.00     0.135 A 
ATOM     55  C   UNL A   1      47.040  31.181  26.945  1.00  0.00     0.135 A 
ATOM     56  F   UNL A   1      50.503  30.143  27.324  1.00  0.00    -0.206 F 
ATOM     57  C   UNL A   1      49.590  32.251  26.889  1.00  0.00     0.059 A 
ATOM     58  C   UNL A   1      47.203  32.531  26.667  1.00  0.00     0.059 A 
ATOM     59  F   UNL A   1      45.767  30.786  27.090  1.00  0.00    -0.206 F 
ATOM     60  C   UNL A   1      48.480  33.066  26.686  1.00  0.00     0.060 A 
BRANCH  60  61
ATOM     61  S   UNL A   1      48.701  34.847  26.534  1.00  0.00     0.124 S 
ATOM     62  O   UNL A   1      48.848  35.239  27.932  1.00  0.00    -0.237 OA
ATOM     63  O   UNL A   1      49.903  34.939  25.713  1.00  0.00    -0.237 OA
ATOM     64  O   UNL A   1      47.469  35.283  25.882  1.00  0.00    -0.744 OA
ENDBRANCH  60  61
ENDBRANCH  39  53
BRANCH  40  65
ATOM     65  C   UNL A   1      40.070  28.068  29.048  1.00  0.00     0.058 A 
ATOM     66  C   UNL A   1      39.014  28.063  29.976  1.00  0.00     0.135 A 
ATOM     67  C   UNL A   1      39.828  28.772  27.846  1.00  0.00     0.135 A 
ATOM     68  F   UNL A   1      39.166  27.458  31.164  1.00  0.00    -0.206 F 
ATOM     69  C   UNL A   1      37.804  28.726  29.734  1.00  0.00     0.059 A 
ATOM     70  C   UNL A   1      38.625  29.417  27.573  1.00  0.00     0.059 A 
ATOM     71  F   UNL A   1      40.790  28.936  26.926  1.00  0.00    -0.206 F 
ATOM     72  C   UNL A   1      37.622  29.408  28.530  1.00  0.00     0.060 A 
BRANCH  72  73
ATOM     73  S   UNL A   1      36.121  30.380  28.265  1.00  0.00     0.124 S 
ATOM     74  O   UNL A   1      36.659  31.629  27.737  1.00  0.00    -0.237 OA
ATOM     75  O   UNL A   1      35.382  29.552  27.319  1.00  0.00    -0.237 OA
ATOM     76  O   UNL A   1      35.534  30.470  29.600  1.00  0.00    -0.744 OA
ENDBRANCH  72  73
ENDBRANCH  40  65
BRANCH  52  77
ATOM     77  C   UNL A   1      45.375  26.888  32.444  1.00  0.00     0.058 A 
ATOM     78  C   UNL A   1      45.256  27.149  33.821  1.00  0.00     0.135 A 
ATOM     79  C   UNL A   1      45.118  25.574  32.023  1.00  0.00     0.135 A 
ATOM     80  F   UNL A   1      45.368  28.395  34.296  1.00  0.00    -0.206 F 
ATOM     81  C   UNL A   1      44.936  26.149  34.739  1.00  0.00     0.059 A 
ATOM     82  C   UNL A   1      44.763  24.565  32.918  1.00  0.00     0.059 A 
ATOM     83  F   UNL A   1      45.144  25.269  30.715  1.00  0.00    -0.206 F 
ATOM     84  C   UNL A   1      44.684  24.858  34.279  1.00  0.00     0.060 A 
BRANCH  84  85
ATOM     85  S   UNL A   1      44.160  23.595  35.458  1.00  0.00     0.124 S 
ATOM     86  O   UNL A   1      45.135  22.535  35.226  1.00  0.00    -0.237 OA
ATOM     87  O   UNL A   1      44.269  24.288  36.739  1.00  0.00    -0.237 OA
ATOM     88  O   UNL A   1      42.793  23.288  35.044  1.00  0.00    -0.744 OA
ENDBRANCH  84  85
ENDBRANCH  52  77
ENDBRANCH  26  27
ENDBRANCH  19  21
ENDBRANCH  18  19
ENDBRANCH  17  18
ENDBRANCH   1  17
TORSDOF 17
ENDMDL
MODEL 2
REMARK VINA RESULT:      -9.7      1.869      2.408
REMARK SMILES CC(=O)N(C)n1cnn(CC(=O)OCCOC(=O)c2ccc(-c3c4nc(c(-c5c(F)cc(S(=O)(=O)[O-])cc5F)c5ccc([nH]5)c(-c5c(F)cc(S(=O)(=O)[O-])cc5F)c5nc(c(-c6c(F)cc(S(=O)(=O)[O-])cc6F)c6ccc3[nH]6)C=C5)C=C4)cc2)c1=S
REMARK SMILES IDX 14 1 13 2 11 3 12 4 10 5 9 6 6 7 7 8 85 9 8 10 86 11 4 12
REMARK SMILES IDX 5 13 2 14 1 15 3 16 15 17 16 18 17 19 18 20 19 21 20 22
REMARK SMILES IDX 84 23 21 24 83 25 22 26 23 27 24 28 77 29 25 30 82 31 76 32
REMARK SMILES IDX 78 33 26 34 81 35 75 36 74 37 27 39 61 40 40 41 60 42 41 43
REMARK SMILES IDX 44 44 59 45 79 46 42 47 43 48 58 50 80 51 45 52 28 53 29 54
REMARK SMILES IDX 38 55 30 56 31 57 37 58 39 59 32 60 33 61 34 62 35 63 36 64
REMARK SMILES IDX 62 65 63 66 72 67 64 68 65 69 71 70 73 71 66 72 67 73 68 74
REMARK SMILES IDX 69 75 70 76 46 77 47 78 56 79 48 80 49 81 55 82 57 83 50 84
REMARK SMILES IDX 51 85 52 86 53 87 54 88
REMARK H PARENT 78 38 44 49
REMARK Flexibility Score: inf
ROOT
ATOM      1  C   UNL A   1      40.033  21.465  26.878  1.00  0.00     0.274 C 
ENDROOT
BRANCH   1   2
ATOM      2  O   UNL A   1      39.349  21.659  25.624  1.00  0.00    -0.461 OA
BRANCH   2   3
ATOM      3  C   UNL A   1      38.279  22.497  25.646  1.00  0.00     0.328 C 
ATOM      4  O   UNL A   1      38.032  23.276  26.566  1.00  0.00    -0.250 OA
BRANCH   3   5
ATOM      5  C   UNL A   1      37.345  22.358  24.451  1.00  0.00     0.270 C 
BRANCH   5   6
ATOM      6  N   UNL A   1      36.075  21.674  24.634  1.00  0.00    -0.226 N 
ATOM      7  N   UNL A   1      33.975  21.002  24.599  1.00  0.00    -0.211 N 
ATOM      8  C   UNL A   1      34.799  20.011  25.001  1.00  0.00     0.247 A 
ATOM      9  C   UNL A   1      34.764  22.113  24.364  1.00  0.00     0.217 A 
ATOM     10  N   UNL A   1      36.053  20.330  24.996  1.00  0.00    -0.158 NA
ATOM     11  S   UNL A   1      34.300  23.615  23.810  1.00  0.00    -0.037 S 
BRANCH   7  12
ATOM     12  N   UNL A   1      32.619  20.835  24.339  1.00  0.00    -0.250 N 
ATOM     13  C   UNL A   1      31.761  21.467  25.328  1.00  0.00     0.176 C 
BRANCH  12  14
ATOM     14  C   UNL A   1      32.255  20.199  23.167  1.00  0.00     0.238 C 
ATOM     15  C   UNL A   1      31.924  21.092  21.999  1.00  0.00     0.116 C 
ATOM     16  O   UNL A   1      32.197  18.975  23.051  1.00  0.00    -0.273 OA
ENDBRANCH  12  14
ENDBRANCH   7  12
ENDBRANCH   5   6
ENDBRANCH   3   5
ENDBRANCH   2   3
ENDBRANCH   1   2
BRANCH   1  17
ATOM     17  C   UNL A   1      40.918  20.221  26.853  1.00  0.00     0.275 C 
BRANCH  17  18
ATOM     18  O   UNL A   1      42.295  20.564  27.021  1.00  0.00    -0.458 OA
BRANCH  18  19
ATOM     19  C   UNL A   1      42.903  20.867  25.851  1.00  0.00     0.338 C 
ATOM     20  O   UNL A   1      43.166  20.092  24.949  1.00  0.00    -0.246 OA
BRANCH  19  21
ATOM     21  C   UNL A   1      43.377  22.253  25.853  1.00  0.00     0.060 A 
ATOM     22  C   UNL A   1      44.443  22.548  26.711  1.00  0.00     0.016 A 
ATOM     23  C   UNL A   1      42.550  23.247  25.321  1.00  0.00     0.016 A 
ATOM     24  C   UNL A   1      44.545  23.823  27.220  1.00  0.00     0.010 A 
ATOM     25  C   UNL A   1      42.644  24.517  25.840  1.00  0.00     0.010 A 
ATOM     26  C   UNL A   1      43.578  24.757  26.851  1.00  0.00    -0.014 A 
BRANCH  26  27
ATOM     27  C   UNL A   1      43.486  25.977  27.628  1.00  0.00     0.031 A 
ATOM     28  C   UNL A   1      44.547  26.979  27.373  1.00  0.00     0.074 A 
ATOM     29  C   UNL A   1      42.397  26.208  28.387  1.00  0.00     0.049 A 
ATOM     30  N   UNL A   1      45.353  27.535  28.217  1.00  0.00    -0.248 NA
ATOM     31  C   UNL A   1      44.804  27.334  25.969  1.00  0.00     0.031 C 
ATOM     32  C   UNL A   1      41.159  25.420  28.439  1.00  0.00     0.029 A 
ATOM     33  N   UNL A   1      42.104  27.287  29.156  1.00  0.00    -0.354 N 
ATOM     34  C   UNL A   1      46.101  28.445  27.475  1.00  0.00     0.074 A 
ATOM     35  C   UNL A   1      45.835  28.167  26.089  1.00  0.00     0.031 C 
ATOM     36  C   UNL A   1      40.181  26.178  28.983  1.00  0.00     0.029 A 
ATOM     37  C   UNL A   1      40.749  27.449  29.400  1.00  0.00     0.049 A 
ATOM     38  H   UNL A   1      42.790  27.898  29.508  1.00  0.00     0.167 HD
ATOM     39  C   UNL A   1      46.736  29.505  28.044  1.00  0.00     0.037 A 
ATOM     40  C   UNL A   1      40.141  28.601  29.779  1.00  0.00     0.037 A 
ATOM     41  C   UNL A   1      46.881  29.349  29.465  1.00  0.00     0.049 A 
ATOM     42  C   UNL A   1      41.197  29.500  30.329  1.00  0.00     0.074 A 
ATOM     43  C   UNL A   1      47.508  28.416  30.269  1.00  0.00     0.029 A 
ATOM     44  N   UNL A   1      46.025  30.037  30.291  1.00  0.00    -0.354 N 
ATOM     45  N   UNL A   1      41.865  29.265  31.428  1.00  0.00    -0.248 NA
ATOM     46  C   UNL A   1      41.832  30.437  29.412  1.00  0.00     0.031 C 
ATOM     47  C   UNL A   1      46.658  28.269  31.401  1.00  0.00     0.029 A 
ATOM     48  C   UNL A   1      45.583  29.145  31.239  1.00  0.00     0.049 A 
ATOM     49  H   UNL A   1      45.775  30.987  30.219  1.00  0.00     0.167 HD
ATOM     50  C   UNL A   1      43.161  29.692  31.164  1.00  0.00     0.074 A 
ATOM     51  C   UNL A   1      43.057  30.486  29.943  1.00  0.00     0.031 C 
ATOM     52  C   UNL A   1      44.244  29.136  31.789  1.00  0.00     0.037 A 
BRANCH  39  53
ATOM     53  C   UNL A   1      46.958  30.813  27.335  1.00  0.00     0.058 A 
ATOM     54  C   UNL A   1      48.255  31.349  27.235  1.00  0.00     0.135 A 
ATOM     55  C   UNL A   1      45.903  31.678  26.966  1.00  0.00     0.135 A 
ATOM     56  F   UNL A   1      49.325  30.617  27.584  1.00  0.00    -0.206 F 
ATOM     57  C   UNL A   1      48.483  32.669  26.842  1.00  0.00     0.059 A 
ATOM     58  C   UNL A   1      46.111  32.973  26.514  1.00  0.00     0.059 A 
ATOM     59  F   UNL A   1      44.617  31.337  27.125  1.00  0.00    -0.206 F 
ATOM     60  C   UNL A   1      47.402  33.476  26.499  1.00  0.00     0.060 A 
BRANCH  60  61
ATOM     61  S   UNL A   1      47.676  35.214  26.115  1.00  0.00     0.124 S 
ATOM     62  O   UNL A   1      48.618  35.117  25.005  1.00  0.00    -0.237 OA
ATOM     63  O   UNL A   1      46.333  35.670  25.776  1.00  0.00    -0.237 OA
ATOM     64  O   UNL A   1      48.219  35.751  27.360  1.00  0.00    -0.744 OA
ENDBRANCH  60  61
ENDBRANCH  39  53
BRANCH  40  65
ATOM     65  C   UNL A   1      38.805  29.081  29.326  1.00  0.00     0.058 A 
ATOM     66  C   UNL A   1      37.762  29.323  30.236  1.00  0.00     0.135 A 
ATOM     67  C   UNL A   1      38.584  29.535  28.005  1.00  0.00     0.135 A 
ATOM     68  F   UNL A   1      37.897  28.968  31.523  1.00  0.00    -0.206 F 
ATOM     69  C   UNL A   1      36.584  29.984  29.865  1.00  0.00     0.059 A 
ATOM     70  C   UNL A   1      37.413  30.171  27.607  1.00  0.00     0.059 A 
ATOM     71  F   UNL A   1      39.542  29.455  27.069  1.00  0.00    -0.206 F 
ATOM     72  C   UNL A   1      36.422  30.413  28.547  1.00  0.00     0.060 A 
BRANCH  72  73
ATOM     73  S   UNL A   1      34.970  31.386  28.089  1.00  0.00     0.124 S 
ATOM     74  O   UNL A   1      34.404  31.715  29.393  1.00  0.00    -0.237 OA
ATOM     75  O   UNL A   1      35.562  32.495  27.351  1.00  0.00    -0.237 OA
ATOM     76  O   UNL A   1      34.178  30.459  27.283  1.00  0.00    -0.744 OA
ENDBRANCH  72  73
ENDBRANCH  40  65
BRANCH  52  77
ATOM     77  C   UNL A   1      44.010  28.215  32.962  1.00  0.00     0.058 A 
ATOM     78  C   UNL A   1      43.797  28.667  34.277  1.00  0.00     0.135 A 
ATOM     79  C   UNL A   1      43.801  26.849  32.719  1.00  0.00     0.135 A 
ATOM     80  F   UNL A   1      43.859  29.971  34.575  1.00  0.00    -0.206 F 
ATOM     81  C   UNL A   1      43.432  27.800  35.307  1.00  0.00     0.059 A 
ATOM     82  C   UNL A   1      43.404  25.970  33.726  1.00  0.00     0.059 A 
ATOM     83  F   UNL A   1      43.918  26.362  31.473  1.00  0.00    -0.206 F 
ATOM     84  C   UNL A   1      43.231  26.452  35.022  1.00  0.00     0.060 A 
BRANCH  84  85
ATOM     85  S   UNL A   1      42.650  25.357  36.335  1.00  0.00     0.124 S 
ATOM     86  O   UNL A   1      41.631  26.173  36.987  1.00  0.00    -0.237 OA
ATOM     87  O   UNL A   1      42.156  24.200  35.593  1.00  0.00    -0.237 OA
ATOM     88  O   UNL A   1      43.852  25.107  37.128  1.00  0.00    -0.744 OA
ENDBRANCH  84  85
ENDBRANCH  52  77
ENDBRANCH  26  27
ENDBRANCH  19  21
ENDBRANCH  18  19
ENDBRANCH  17  18
ENDBRANCH   1  17
TORSDOF 17
ENDMDL
MODEL 3
REMARK VINA RESULT:      -9.6      2.707      3.926
REMARK SMILES CC(=O)N(C)n1cnn(CC(=O)OCCOC(=O)c2ccc(-c3c4nc(c(-c5c(F)cc(S(=O)(=O)[O-])cc5F)c5ccc([nH]5)c(-c5c(F)cc(S(=O)(=O)[O-])cc5F)c5nc(c(-c6c(F)cc(S(=O)(=O)[O-])cc6F)c6ccc3[nH]6)C=C5)C=C4)cc2)c1=S
REMARK SMILES IDX 14 1 13 2 11 3 12 4 10 5 9 6 6 7 7 8 85 9 8 10 86 11 4 12
REMARK SMILES IDX 5 13 2 14 1 15 3 16 15 17 16 18 17 19 18 20 19 21 20 22
REMARK SMILES IDX 84 23 21 24 83 25 22 26 23 27 24 28 77 29 25 30 82 31 76 32
REMARK SMILES IDX 78 33 26 34 81 35 75 36 74 37 27 39 61 40 40 41 60 42 41 43
REMARK SMILES IDX 44 44 59 45 79 46 42 47 43 48 58 50 80 51 45 52 28 53 29 54
REMARK SMILES IDX 38 55 30 56 31 57 37 58 39 59 32 60 33 61 34 62 35 63 36 64
REMARK SMILES IDX 62 65 63 66 72 67 64 68 65 69 71 70 73 71 66 72 67 73 68 74
REMARK SMILES IDX 69 75 70 76 46 77 47 78 56 79 48 80 49 81 55 82 57 83 50 84
REMARK SMILES IDX 51 85 52 86 53 87 54 88
REMARK H PARENT 78 38 44 49
REMARK Flexibility Score: inf
ROOT
ATOM      1  C   UNL A   1      37.377  20.962  24.821  1.00  0.00     0.274 C 
ENDROOT
BRANCH   1   2
ATOM      2  O   UNL A   1      36.350  21.308  25.771  1.00  0.00    -0.461 OA
BRANCH   2   3
ATOM      3  C   UNL A   1      35.067  21.091  25.376  1.00  0.00     0.328 C 
ATOM      4  O   UNL A   1      34.714  20.145  24.674  1.00  0.00    -0.250 OA
BRANCH   3   5
ATOM      5  C   UNL A   1      34.081  22.162  25.822  1.00  0.00     0.270 C 
BRANCH   5   6
ATOM      6  N   UNL A   1      33.738  23.226  24.891  1.00  0.00    -0.226 N 
ATOM      7  N   UNL A   1      32.977  25.034  23.885  1.00  0.00    -0.211 N 
ATOM      8  C   UNL A   1      34.014  24.498  23.208  1.00  0.00     0.247 A 
ATOM      9  C   UNL A   1      32.751  24.226  24.984  1.00  0.00     0.217 A 
ATOM     10  N   UNL A   1      34.537  23.459  23.776  1.00  0.00    -0.158 NA
ATOM     11  S   UNL A   1      31.624  24.418  26.197  1.00  0.00    -0.037 S 
BRANCH   7  12
ATOM     12  N   UNL A   1      32.387  26.255  23.575  1.00  0.00    -0.250 N 
ATOM     13  C   UNL A   1      31.249  26.134  22.678  1.00  0.00     0.176 C 
BRANCH  12  14
ATOM     14  C   UNL A   1      32.867  27.388  24.205  1.00  0.00     0.238 C 
ATOM     15  C   UNL A   1      33.947  28.147  23.478  1.00  0.00     0.116 C 
ATOM     16  O   UNL A   1      32.457  27.782  25.296  1.00  0.00    -0.273 OA
ENDBRANCH  12  14
ENDBRANCH   7  12
ENDBRANCH   5   6
ENDBRANCH   3   5
ENDBRANCH   2   3
ENDBRANCH   1   2
BRANCH   1  17
ATOM     17  C   UNL A   1      38.690  20.603  25.514  1.00  0.00     0.275 C 
BRANCH  17  18
ATOM     18  O   UNL A   1      39.104  21.641  26.403  1.00  0.00    -0.458 OA
BRANCH  18  19
ATOM     19  C   UNL A   1      40.387  21.498  26.810  1.00  0.00     0.338 C 
ATOM     20  O   UNL A   1      40.882  20.504  27.310  1.00  0.00    -0.246 OA
BRANCH  19  21
ATOM     21  C   UNL A   1      41.104  22.772  26.729  1.00  0.00     0.060 A 
ATOM     22  C   UNL A   1      42.245  22.900  27.531  1.00  0.00     0.016 A 
ATOM     23  C   UNL A   1      40.448  23.880  26.183  1.00  0.00     0.016 A 
ATOM     24  C   UNL A   1      42.601  24.154  27.975  1.00  0.00     0.010 A 
ATOM     25  C   UNL A   1      40.795  25.130  26.638  1.00  0.00     0.010 A 
ATOM     26  C   UNL A   1      41.803  25.234  27.601  1.00  0.00    -0.014 A 
BRANCH  26  27
ATOM     27  C   UNL A   1      41.971  26.480  28.323  1.00  0.00     0.031 A 
ATOM     28  C   UNL A   1      43.150  27.289  27.937  1.00  0.00     0.074 A 
ATOM     29  C   UNL A   1      41.000  26.908  29.153  1.00  0.00     0.049 A 
ATOM     30  N   UNL A   1      44.102  27.737  28.687  1.00  0.00    -0.248 NA
ATOM     31  C   UNL A   1      43.339  27.548  26.501  1.00  0.00     0.031 C 
ATOM     32  C   UNL A   1      39.663  26.331  29.341  1.00  0.00     0.029 A 
ATOM     33  N   UNL A   1      40.948  28.047  29.890  1.00  0.00    -0.354 N 
ATOM     34  C   UNL A   1      44.918  28.489  27.845  1.00  0.00     0.074 A 
ATOM     35  C   UNL A   1      44.494  28.209  26.499  1.00  0.00     0.031 C 
ATOM     36  C   UNL A   1      38.866  27.255  29.923  1.00  0.00     0.029 A 
ATOM     37  C   UNL A   1      39.660  28.433  30.232  1.00  0.00     0.049 A 
ATOM     38  H   UNL A   1      41.749  28.552  30.157  1.00  0.00     0.167 HD
ATOM     39  C   UNL A   1      45.757  29.453  28.311  1.00  0.00     0.037 A 
ATOM     40  C   UNL A   1      39.275  29.680  30.602  1.00  0.00     0.037 A 
ATOM     41  C   UNL A   1      45.997  29.325  29.722  1.00  0.00     0.049 A 
ATOM     42  C   UNL A   1      40.502  30.416  31.023  1.00  0.00     0.074 A 
ATOM     43  C   UNL A   1      46.537  28.333  30.518  1.00  0.00     0.029 A 
ATOM     44  N   UNL A   1      45.333  30.170  30.579  1.00  0.00    -0.354 N 
ATOM     45  N   UNL A   1      41.217  30.116  32.075  1.00  0.00    -0.248 NA
ATOM     46  C   UNL A   1      41.196  31.207  30.014  1.00  0.00     0.031 C 
ATOM     47  C   UNL A   1      45.774  28.364  31.719  1.00  0.00     0.029 A 
ATOM     48  C   UNL A   1      44.840  29.395  31.600  1.00  0.00     0.049 A 
ATOM     49  H   UNL A   1      45.231  31.145  30.480  1.00  0.00     0.167 HD
ATOM     50  C   UNL A   1      42.537  30.320  31.690  1.00  0.00     0.074 A 
ATOM     51  C   UNL A   1      42.454  31.077  30.444  1.00  0.00     0.031 C 
ATOM     52  C   UNL A   1      43.568  29.620  32.254  1.00  0.00     0.037 A 
BRANCH  39  53
ATOM     53  C   UNL A   1      46.121  30.682  27.524  1.00  0.00     0.058 A 
ATOM     54  C   UNL A   1      47.472  31.034  27.350  1.00  0.00     0.135 A 
ATOM     55  C   UNL A   1      45.175  31.662  27.146  1.00  0.00     0.135 A 
ATOM     56  F   UNL A   1      48.449  30.184  27.701  1.00  0.00    -0.206 F 
ATOM     57  C   UNL A   1      47.856  32.290  26.878  1.00  0.00     0.059 A 
ATOM     58  C   UNL A   1      45.533  32.894  26.616  1.00  0.00     0.059 A 
ATOM     59  F   UNL A   1      43.862  31.505  27.368  1.00  0.00    -0.206 F 
ATOM     60  C   UNL A   1      46.877  33.217  26.529  1.00  0.00     0.060 A 
BRANCH  60  61
ATOM     61  S   UNL A   1      47.362  34.882  26.042  1.00  0.00     0.124 S 
ATOM     62  O   UNL A   1      46.088  35.432  25.592  1.00  0.00    -0.237 OA
ATOM     63  O   UNL A   1      47.891  35.426  27.288  1.00  0.00    -0.237 OA
ATOM     64  O   UNL A   1      48.355  34.649  24.996  1.00  0.00    -0.744 OA
ENDBRANCH  60  61
ENDBRANCH  39  53
BRANCH  40  65
ATOM     65  C   UNL A   1      37.997  30.351  30.233  1.00  0.00     0.058 A 
ATOM     66  C   UNL A   1      37.193  30.984  31.196  1.00  0.00     0.135 A 
ATOM     67  C   UNL A   1      37.642  30.589  28.885  1.00  0.00     0.135 A 
ATOM     68  F   UNL A   1      37.479  30.854  32.501  1.00  0.00    -0.206 F 
ATOM     69  C   UNL A   1      36.116  31.810  30.846  1.00  0.00     0.059 A 
ATOM     70  C   UNL A   1      36.562  31.384  28.514  1.00  0.00     0.059 A 
ATOM     71  F   UNL A   1      38.390  30.126  27.873  1.00  0.00    -0.206 F 
ATOM     72  C   UNL A   1      35.814  32.011  29.499  1.00  0.00     0.060 A 
BRANCH  72  73
ATOM     73  S   UNL A   1      34.517  33.180  29.033  1.00  0.00     0.124 S 
ATOM     74  O   UNL A   1      35.287  34.256  28.419  1.00  0.00    -0.237 OA
ATOM     75  O   UNL A   1      33.696  32.384  28.128  1.00  0.00    -0.237 OA
ATOM     76  O   UNL A   1      33.887  33.515  30.308  1.00  0.00    -0.744 OA
ENDBRANCH  72  73
ENDBRANCH  40  65
BRANCH  52  77
ATOM     77  C   UNL A   1      43.294  28.790  33.485  1.00  0.00     0.058 A 
ATOM     78  C   UNL A   1      43.201  29.327  34.782  1.00  0.00     0.135 A 
ATOM     79  C   UNL A   1      42.921  27.447  33.326  1.00  0.00     0.135 A 
ATOM     80  F   UNL A   1      43.424  30.628  35.005  1.00  0.00    -0.206 F 
ATOM     81  C   UNL A   1      42.796  28.559  35.873  1.00  0.00     0.059 A 
ATOM     82  C   UNL A   1      42.480  26.668  34.396  1.00  0.00     0.059 A 
ATOM     83  F   UNL A   1      42.918  26.889  32.104  1.00  0.00    -0.206 F 
ATOM     84  C   UNL A   1      42.430  27.230  35.671  1.00  0.00     0.060 A 
BRANCH  84  85
ATOM     85  S   UNL A   1      41.799  26.274  37.067  1.00  0.00     0.124 S 
ATOM     86  O   UNL A   1      40.559  26.975  37.384  1.00  0.00    -0.237 OA
ATOM     87  O   UNL A   1      41.644  24.938  36.497  1.00  0.00    -0.237 OA
ATOM     88  O   UNL A   1      42.857  26.393  38.068  1.00  0.00    -0.744 OA
ENDBRANCH  84  85
ENDBRANCH  52  77
ENDBRANCH  26  27
ENDBRANCH  19  21
ENDBRANCH  18  19
ENDBRANCH  17  18
ENDBRANCH   1  17
TORSDOF 17
ENDMDL
