MODEL 1
REMARK VINA RESULT:     -12.4      0.000      0.000
REMARK SMILES Cc1nn(C(C)C)cc1-c1cnccc1C(=O)OCCOC(=O)c1ccc(-c2c3nc(c(-c4c(F)cc(S(=O)(=O)[O-])cc4F)c4ccc([nH]4)c(-c4c(F)cc(S(=O)(=O)[O-])cc4F)c4nc(c(-c5c(F)cc(S(=O)(=O)[O-])cc5F)c5ccc2[nH]5)C=C4)C=C3)cc1
REMARK SMILES IDX 20 1 19 2 18 3 16 4 17 5 15 6 10 7 11 8 12 9 14 10 13 11
REMARK SMILES IDX 9 12 1 13 2 14 3 15 4 16 8 17 5 18 6 19 7 20 21 21 22 22
REMARK SMILES IDX 23 23 24 24 25 25 89 26 26 27 88 28 27 29 28 30 29 31 82 32
REMARK SMILES IDX 30 33 87 34 81 35 83 36 31 37 86 38 80 39 79 40 32 42 66 43
REMARK SMILES IDX 45 44 65 45 46 46 49 47 64 48 84 49 47 50 48 51 63 53 85 54
REMARK SMILES IDX 50 55 33 56 34 57 43 58 35 59 36 60 42 61 44 62 37 63 38 64
REMARK SMILES IDX 39 65 40 66 41 67 67 68 68 69 77 70 69 71 70 72 76 73 78 74
REMARK SMILES IDX 71 75 72 76 73 77 74 78 75 79 51 80 52 81 61 82 53 83 54 84
REMARK SMILES IDX 60 85 62 86 55 87 56 88 57 89 58 90 59 91
REMARK H PARENT 83 41 49 52
REMARK Flexibility Score: inf
ROOT
ATOM      1  C   UNL A   1      32.541  30.885  26.866  1.00  0.00     0.275 C 
ENDROOT
BRANCH   1   2
ATOM      2  C   UNL A   1      31.970  29.923  25.842  1.00  0.00     0.275 C 
BRANCH   2   3
ATOM      3  O   UNL A   1      32.816  28.769  25.750  1.00  0.00    -0.458 OA
BRANCH   3   4
ATOM      4  C   UNL A   1      32.243  27.559  25.592  1.00  0.00     0.338 C 
ATOM      5  O   UNL A   1      31.500  27.023  26.408  1.00  0.00    -0.246 OA
BRANCH   4   6
ATOM      6  C   UNL A   1      32.548  26.948  24.262  1.00  0.00     0.071 A 
ATOM      7  C   UNL A   1      31.857  27.173  23.059  1.00  0.00     0.018 A 
ATOM      8  C   UNL A   1      32.350  26.525  21.924  1.00  0.00     0.120 A 
ATOM      9  N   UNL A   1      33.403  25.674  21.905  1.00  0.00    -0.264 NA
ATOM     10  C   UNL A   1      33.618  26.035  24.268  1.00  0.00     0.036 A 
ATOM     11  C   UNL A   1      33.994  25.423  23.087  1.00  0.00     0.112 A 
BRANCH   7  12
ATOM     12  C   UNL A   1      30.639  27.949  22.913  1.00  0.00     0.025 A 
ATOM     13  C   UNL A   1      28.762  26.411  23.929  1.00  0.00     0.069 C 
ATOM     14  C   UNL A   1      29.303  27.648  23.306  1.00  0.00     0.067 A 
ATOM     15  N   UNL A   1      28.477  28.676  23.067  1.00  0.00    -0.177 NA
ATOM     16  N   UNL A   1      29.293  29.648  22.624  1.00  0.00    -0.269 N 
ATOM     17  C   UNL A   1      30.562  29.214  22.371  1.00  0.00     0.118 A 
BRANCH  16  18
ATOM     18  C   UNL A   1      28.803  31.016  22.494  1.00  0.00     0.101 C 
ATOM     19  C   UNL A   1      28.310  31.278  21.074  1.00  0.00     0.033 C 
ATOM     20  C   UNL A   1      27.728  31.346  23.532  1.00  0.00     0.033 C 
ENDBRANCH  16  18
ENDBRANCH   7  12
ENDBRANCH   4   6
ENDBRANCH   3   4
ENDBRANCH   2   3
ENDBRANCH   1   2
BRANCH   1  21
ATOM     21  O   UNL A   1      33.800  30.412  27.334  1.00  0.00    -0.458 OA
BRANCH  21  22
ATOM     22  C   UNL A   1      34.432  31.219  28.216  1.00  0.00     0.338 C 
ATOM     23  O   UNL A   1      33.948  32.111  28.890  1.00  0.00    -0.246 OA
BRANCH  22  24
ATOM     24  C   UNL A   1      35.874  31.010  28.084  1.00  0.00     0.060 A 
ATOM     25  C   UNL A   1      36.300  29.712  27.784  1.00  0.00     0.016 A 
ATOM     26  C   UNL A   1      36.766  32.005  28.513  1.00  0.00     0.016 A 
ATOM     27  C   UNL A   1      37.599  29.364  28.079  1.00  0.00     0.010 A 
ATOM     28  C   UNL A   1      38.058  31.653  28.814  1.00  0.00     0.010 A 
ATOM     29  C   UNL A   1      38.436  30.321  28.659  1.00  0.00    -0.014 A 
BRANCH  29  30
ATOM     30  C   UNL A   1      39.779  29.913  29.018  1.00  0.00     0.031 A 
ATOM     31  C   UNL A   1      40.006  29.915  30.480  1.00  0.00     0.074 A 
ATOM     32  C   UNL A   1      40.640  29.437  28.099  1.00  0.00     0.049 A 
ATOM     33  N   UNL A   1      40.859  30.605  31.160  1.00  0.00    -0.248 NA
ATOM     34  C   UNL A   1      39.045  29.164  31.310  1.00  0.00     0.031 C 
ATOM     35  C   UNL A   1      40.327  29.107  26.702  1.00  0.00     0.029 A 
ATOM     36  N   UNL A   1      41.925  29.009  28.241  1.00  0.00    -0.354 N 
ATOM     37  C   UNL A   1      40.707  30.173  32.474  1.00  0.00     0.074 A 
ATOM     38  C   UNL A   1      39.455  29.473  32.540  1.00  0.00     0.031 C 
ATOM     39  C   UNL A   1      41.301  28.313  26.210  1.00  0.00     0.029 A 
ATOM     40  C   UNL A   1      42.356  28.194  27.204  1.00  0.00     0.049 A 
ATOM     41  H   UNL A   1      42.493  29.253  29.007  1.00  0.00     0.167 HD
ATOM     42  C   UNL A   1      41.774  30.131  33.315  1.00  0.00     0.037 A 
ATOM     43  C   UNL A   1      43.455  27.403  27.196  1.00  0.00     0.037 A 
ATOM     44  C   UNL A   1      42.853  30.947  32.824  1.00  0.00     0.049 A 
ATOM     45  C   UNL A   1      44.390  27.906  28.234  1.00  0.00     0.074 A 
ATOM     46  C   UNL A   1      43.119  32.294  32.735  1.00  0.00     0.029 A 
ATOM     47  N   UNL A   1      43.721  30.297  31.987  1.00  0.00    -0.354 N 
ATOM     48  N   UNL A   1      44.952  29.085  28.199  1.00  0.00    -0.248 NA
ATOM     49  C   UNL A   1      44.458  27.228  29.525  1.00  0.00     0.031 C 
ATOM     50  C   UNL A   1      44.064  32.444  31.679  1.00  0.00     0.029 A 
ATOM     51  C   UNL A   1      44.361  31.184  31.161  1.00  0.00     0.049 A 
ATOM     52  H   UNL A   1      43.866  29.323  31.980  1.00  0.00     0.167 HD
ATOM     53  C   UNL A   1      45.067  29.457  29.525  1.00  0.00     0.074 A 
ATOM     54  C   UNL A   1      44.914  28.226  30.286  1.00  0.00     0.031 C 
ATOM     55  C   UNL A   1      44.948  30.760  29.906  1.00  0.00     0.037 A 
BRANCH  42  56
ATOM     56  C   UNL A   1      42.040  28.991  34.279  1.00  0.00     0.058 A 
ATOM     57  C   UNL A   1      42.179  27.687  33.763  1.00  0.00     0.135 A 
ATOM     58  C   UNL A   1      41.840  29.074  35.677  1.00  0.00     0.135 A 
ATOM     59  F   UNL A   1      42.376  27.490  32.449  1.00  0.00    -0.206 F 
ATOM     60  C   UNL A   1      42.037  26.550  34.560  1.00  0.00     0.059 A 
ATOM     61  C   UNL A   1      41.750  27.956  36.496  1.00  0.00     0.059 A 
ATOM     62  F   UNL A   1      41.615  30.231  36.308  1.00  0.00    -0.206 F 
ATOM     63  C   UNL A   1      41.800  26.698  35.923  1.00  0.00     0.060 A 
BRANCH  63  64
ATOM     64  S   UNL A   1      41.486  25.244  36.938  1.00  0.00     0.124 S 
ATOM     65  O   UNL A   1      41.236  24.231  35.919  1.00  0.00    -0.237 OA
ATOM     66  O   UNL A   1      42.736  25.116  37.679  1.00  0.00    -0.237 OA
ATOM     67  O   UNL A   1      40.328  25.638  37.736  1.00  0.00    -0.744 OA
ENDBRANCH  63  64
ENDBRANCH  42  56
BRANCH  43  68
ATOM     68  C   UNL A   1      43.589  26.073  26.547  1.00  0.00     0.058 A 
ATOM     69  C   UNL A   1      44.487  25.858  25.490  1.00  0.00     0.135 A 
ATOM     70  C   UNL A   1      43.005  24.919  27.113  1.00  0.00     0.135 A 
ATOM     71  F   UNL A   1      45.112  26.896  24.915  1.00  0.00    -0.206 F 
ATOM     72  C   UNL A   1      44.806  24.573  25.035  1.00  0.00     0.059 A 
ATOM     73  C   UNL A   1      43.294  23.633  26.666  1.00  0.00     0.059 A 
ATOM     74  F   UNL A   1      42.193  25.004  28.177  1.00  0.00    -0.206 F 
ATOM     75  C   UNL A   1      44.213  23.464  25.639  1.00  0.00     0.060 A 
BRANCH  75  76
ATOM     76  S   UNL A   1      44.722  21.802  25.148  1.00  0.00     0.124 S 
ATOM     77  O   UNL A   1      43.728  20.971  25.819  1.00  0.00    -0.237 OA
ATOM     78  O   UNL A   1      44.621  21.866  23.693  1.00  0.00    -0.237 OA
ATOM     79  O   UNL A   1      46.080  21.693  25.672  1.00  0.00    -0.744 OA
ENDBRANCH  75  76
ENDBRANCH  43  68
BRANCH  55  80
ATOM     80  C   UNL A   1      45.284  31.824  28.905  1.00  0.00     0.058 A 
ATOM     81  C   UNL A   1      46.582  32.264  28.606  1.00  0.00     0.135 A 
ATOM     82  C   UNL A   1      44.232  32.325  28.120  1.00  0.00     0.135 A 
ATOM     83  F   UNL A   1      47.643  31.774  29.262  1.00  0.00    -0.206 F 
ATOM     84  C   UNL A   1      46.822  33.178  27.577  1.00  0.00     0.059 A 
ATOM     85  C   UNL A   1      44.451  33.211  27.073  1.00  0.00     0.059 A 
ATOM     86  F   UNL A   1      42.975  31.902  28.332  1.00  0.00    -0.206 F 
ATOM     87  C   UNL A   1      45.750  33.639  26.809  1.00  0.00     0.060 A 
BRANCH  87  88
ATOM     88  S   UNL A   1      46.070  34.733  25.409  1.00  0.00     0.124 S 
ATOM     89  O   UNL A   1      47.475  34.462  25.122  1.00  0.00    -0.237 OA
ATOM     90  O   UNL A   1      45.115  34.258  24.411  1.00  0.00    -0.237 OA
ATOM     91  O   UNL A   1      45.786  36.062  25.943  1.00  0.00    -0.744 OA
ENDBRANCH  87  88
ENDBRANCH  55  80
ENDBRANCH  29  30
ENDBRANCH  22  24
ENDBRANCH  21  22
ENDBRANCH   1  21
TORSDOF 16
ENDMDL
MODEL 2
REMARK VINA RESULT:     -12.0      0.799      1.522
REMARK SMILES Cc1nn(C(C)C)cc1-c1cnccc1C(=O)OCCOC(=O)c1ccc(-c2c3nc(c(-c4c(F)cc(S(=O)(=O)[O-])cc4F)c4ccc([nH]4)c(-c4c(F)cc(S(=O)(=O)[O-])cc4F)c4nc(c(-c5c(F)cc(S(=O)(=O)[O-])cc5F)c5ccc2[nH]5)C=C4)C=C3)cc1
REMARK SMILES IDX 20 1 19 2 18 3 16 4 17 5 15 6 10 7 11 8 12 9 14 10 13 11
REMARK SMILES IDX 9 12 1 13 2 14 3 15 4 16 8 17 5 18 6 19 7 20 21 21 22 22
REMARK SMILES IDX 23 23 24 24 25 25 89 26 26 27 88 28 27 29 28 30 29 31 82 32
REMARK SMILES IDX 30 33 87 34 81 35 83 36 31 37 86 38 80 39 79 40 32 42 66 43
REMARK SMILES IDX 45 44 65 45 46 46 49 47 64 48 84 49 47 50 48 51 63 53 85 54
REMARK SMILES IDX 50 55 33 56 34 57 43 58 35 59 36 60 42 61 44 62 37 63 38 64
REMARK SMILES IDX 39 65 40 66 41 67 67 68 68 69 77 70 69 71 70 72 76 73 78 74
REMARK SMILES IDX 71 75 72 76 73 77 74 78 75 79 51 80 52 81 61 82 53 83 54 84
REMARK SMILES IDX 60 85 62 86 55 87 56 88 57 89 58 90 59 91
REMARK H PARENT 83 41 49 52
REMARK Flexibility Score: inf
ROOT
ATOM      1  C   UNL A   1      32.877  30.630  26.760  1.00  0.00     0.275 C 
ENDROOT
BRANCH   1   2
ATOM      2  C   UNL A   1      32.413  29.699  25.657  1.00  0.00     0.275 C 
BRANCH   2   3
ATOM      3  O   UNL A   1      32.936  28.385  25.890  1.00  0.00    -0.458 OA
BRANCH   3   4
ATOM      4  C   UNL A   1      32.196  27.320  25.523  1.00  0.00     0.338 C 
ATOM      5  O   UNL A   1      31.298  26.825  26.196  1.00  0.00    -0.246 OA
BRANCH   4   6
ATOM      6  C   UNL A   1      32.532  26.831  24.151  1.00  0.00     0.071 A 
ATOM      7  C   UNL A   1      31.873  27.169  22.956  1.00  0.00     0.018 A 
ATOM      8  C   UNL A   1      32.393  26.625  21.780  1.00  0.00     0.120 A 
ATOM      9  N   UNL A   1      33.444  25.774  21.709  1.00  0.00    -0.264 NA
ATOM     10  C   UNL A   1      33.600  25.916  24.100  1.00  0.00     0.036 A 
ATOM     11  C   UNL A   1      34.004  25.413  22.878  1.00  0.00     0.112 A 
BRANCH   7  12
ATOM     12  C   UNL A   1      30.661  27.961  22.852  1.00  0.00     0.025 A 
ATOM     13  C   UNL A   1      28.786  26.417  23.862  1.00  0.00     0.069 C 
ATOM     14  C   UNL A   1      29.329  27.664  23.261  1.00  0.00     0.067 A 
ATOM     15  N   UNL A   1      28.511  28.706  23.063  1.00  0.00    -0.177 NA
ATOM     16  N   UNL A   1      29.329  29.681  22.630  1.00  0.00    -0.269 N 
ATOM     17  C   UNL A   1      30.589  29.241  22.344  1.00  0.00     0.118 A 
BRANCH  16  18
ATOM     18  C   UNL A   1      28.852  31.056  22.543  1.00  0.00     0.101 C 
ATOM     19  C   UNL A   1      28.438  31.394  21.115  1.00  0.00     0.033 C 
ATOM     20  C   UNL A   1      27.723  31.340  23.537  1.00  0.00     0.033 C 
ENDBRANCH  16  18
ENDBRANCH   7  12
ENDBRANCH   4   6
ENDBRANCH   3   4
ENDBRANCH   2   3
ENDBRANCH   1   2
BRANCH   1  21
ATOM     21  O   UNL A   1      34.262  30.426  27.022  1.00  0.00    -0.458 OA
BRANCH  21  22
ATOM     22  C   UNL A   1      34.895  31.452  27.633  1.00  0.00     0.338 C 
ATOM     23  O   UNL A   1      34.701  32.645  27.478  1.00  0.00    -0.246 OA
BRANCH  22  24
ATOM     24  C   UNL A   1      36.039  30.918  28.373  1.00  0.00     0.060 A 
ATOM     25  C   UNL A   1      36.936  31.849  28.905  1.00  0.00     0.016 A 
ATOM     26  C   UNL A   1      36.342  29.550  28.298  1.00  0.00     0.016 A 
ATOM     27  C   UNL A   1      38.212  31.429  29.209  1.00  0.00     0.010 A 
ATOM     28  C   UNL A   1      37.617  29.136  28.592  1.00  0.00     0.010 A 
ATOM     29  C   UNL A   1      38.553  30.094  28.976  1.00  0.00    -0.014 A 
BRANCH  29  30
ATOM     30  C   UNL A   1      39.919  29.691  29.244  1.00  0.00     0.031 A 
ATOM     31  C   UNL A   1      40.228  29.640  30.690  1.00  0.00     0.074 A 
ATOM     32  C   UNL A   1      40.733  29.262  28.261  1.00  0.00     0.049 A 
ATOM     33  N   UNL A   1      41.109  30.316  31.347  1.00  0.00    -0.248 NA
ATOM     34  C   UNL A   1      39.323  28.846  31.543  1.00  0.00     0.031 C 
ATOM     35  C   UNL A   1      40.346  28.980  26.872  1.00  0.00     0.029 A 
ATOM     36  N   UNL A   1      42.028  28.846  28.315  1.00  0.00    -0.354 N 
ATOM     37  C   UNL A   1      41.036  29.832  32.651  1.00  0.00     0.074 A 
ATOM     38  C   UNL A   1      39.797  29.114  32.758  1.00  0.00     0.031 C 
ATOM     39  C   UNL A   1      41.300  28.219  26.296  1.00  0.00     0.029 A 
ATOM     40  C   UNL A   1      42.410  28.077  27.224  1.00  0.00     0.049 A 
ATOM     41  H   UNL A   1      42.635  29.068  29.056  1.00  0.00     0.167 HD
ATOM     42  C   UNL A   1      42.149  29.773  33.428  1.00  0.00     0.037 A 
ATOM     43  C   UNL A   1      43.516  27.302  27.125  1.00  0.00     0.037 A 
ATOM     44  C   UNL A   1      43.188  30.622  32.911  1.00  0.00     0.049 A 
ATOM     45  C   UNL A   1      44.502  27.778  28.129  1.00  0.00     0.074 A 
ATOM     46  C   UNL A   1      43.433  31.975  32.859  1.00  0.00     0.029 A 
ATOM     47  N   UNL A   1      44.016  30.016  32.002  1.00  0.00    -0.354 N 
ATOM     48  N   UNL A   1      45.047  28.965  28.108  1.00  0.00    -0.248 NA
ATOM     49  C   UNL A   1      44.650  27.053  29.387  1.00  0.00     0.031 C 
ATOM     50  C   UNL A   1      44.317  32.178  31.759  1.00  0.00     0.029 A 
ATOM     51  C   UNL A   1      44.598  30.942  31.177  1.00  0.00     0.049 A 
ATOM     52  H   UNL A   1      44.171  29.045  31.949  1.00  0.00     0.167 HD
ATOM     53  C   UNL A   1      45.232  29.289  29.439  1.00  0.00     0.074 A 
ATOM     54  C   UNL A   1      45.136  28.028  30.159  1.00  0.00     0.031 C 
ATOM     55  C   UNL A   1      45.120  30.574  29.876  1.00  0.00     0.037 A 
BRANCH  42  56
ATOM     56  C   UNL A   1      42.481  28.602  34.332  1.00  0.00     0.058 A 
ATOM     57  C   UNL A   1      42.616  28.832  35.716  1.00  0.00     0.135 A 
ATOM     58  C   UNL A   1      42.985  27.364  33.870  1.00  0.00     0.135 A 
ATOM     59  F   UNL A   1      42.170  29.974  36.264  1.00  0.00    -0.206 F 
ATOM     60  C   UNL A   1      43.283  27.943  36.560  1.00  0.00     0.059 A 
ATOM     61  C   UNL A   1      43.604  26.441  34.703  1.00  0.00     0.059 A 
ATOM     62  F   UNL A   1      43.003  27.026  32.577  1.00  0.00    -0.206 F 
ATOM     63  C   UNL A   1      43.793  26.759  36.036  1.00  0.00     0.060 A 
BRANCH  63  64
ATOM     64  S   UNL A   1      44.767  25.666  37.084  1.00  0.00     0.124 S 
ATOM     65  O   UNL A   1      45.905  25.377  36.219  1.00  0.00    -0.237 OA
ATOM     66  O   UNL A   1      45.037  26.514  38.239  1.00  0.00    -0.237 OA
ATOM     67  O   UNL A   1      43.861  24.548  37.333  1.00  0.00    -0.744 OA
ENDBRANCH  63  64
ENDBRANCH  42  56
BRANCH  43  68
ATOM     68  C   UNL A   1      43.629  25.999  26.419  1.00  0.00     0.058 A 
ATOM     69  C   UNL A   1      44.601  25.781  25.430  1.00  0.00     0.135 A 
ATOM     70  C   UNL A   1      42.934  24.857  26.872  1.00  0.00     0.135 A 
ATOM     71  F   UNL A   1      45.330  26.806  24.965  1.00  0.00    -0.206 F 
ATOM     72  C   UNL A   1      44.883  24.503  24.934  1.00  0.00     0.059 A 
ATOM     73  C   UNL A   1      43.187  23.579  26.382  1.00  0.00     0.059 A 
ATOM     74  F   UNL A   1      42.040  24.939  27.869  1.00  0.00    -0.206 F 
ATOM     75  C   UNL A   1      44.179  23.404  25.427  1.00  0.00     0.060 A 
BRANCH  75  76
ATOM     76  S   UNL A   1      44.632  21.740  24.891  1.00  0.00     0.124 S 
ATOM     77  O   UNL A   1      45.931  21.560  25.530  1.00  0.00    -0.237 OA
ATOM     78  O   UNL A   1      43.540  20.935  25.428  1.00  0.00    -0.237 OA
ATOM     79  O   UNL A   1      44.665  21.848  23.435  1.00  0.00    -0.744 OA
ENDBRANCH  75  76
ENDBRANCH  43  68
BRANCH  55  80
ATOM     80  C   UNL A   1      45.386  31.679  28.899  1.00  0.00     0.058 A 
ATOM     81  C   UNL A   1      46.661  32.127  28.522  1.00  0.00     0.135 A 
ATOM     82  C   UNL A   1      44.282  32.219  28.219  1.00  0.00     0.135 A 
ATOM     83  F   UNL A   1      47.766  31.605  29.074  1.00  0.00    -0.206 F 
ATOM     84  C   UNL A   1      46.830  33.085  27.519  1.00  0.00     0.059 A 
ATOM     85  C   UNL A   1      44.428  33.149  27.198  1.00  0.00     0.059 A 
ATOM     86  F   UNL A   1      43.041  31.793  28.507  1.00  0.00    -0.206 F 
ATOM     87  C   UNL A   1      45.706  33.583  26.855  1.00  0.00     0.060 A 
BRANCH  87  88
ATOM     88  S   UNL A   1      45.928  34.736  25.483  1.00  0.00     0.124 S 
ATOM     89  O   UNL A   1      45.549  36.009  26.088  1.00  0.00    -0.237 OA
ATOM     90  O   UNL A   1      47.344  34.581  25.164  1.00  0.00    -0.237 OA
ATOM     91  O   UNL A   1      45.012  34.232  24.463  1.00  0.00    -0.744 OA
ENDBRANCH  87  88
ENDBRANCH  55  80
ENDBRANCH  29  30
ENDBRANCH  22  24
ENDBRANCH  21  22
ENDBRANCH   1  21
TORSDOF 16
ENDMDL
MODEL 3
REMARK VINA RESULT:     -11.8      3.699      9.819
REMARK SMILES Cc1nn(C(C)C)cc1-c1cnccc1C(=O)OCCOC(=O)c1ccc(-c2c3nc(c(-c4c(F)cc(S(=O)(=O)[O-])cc4F)c4ccc([nH]4)c(-c4c(F)cc(S(=O)(=O)[O-])cc4F)c4nc(c(-c5c(F)cc(S(=O)(=O)[O-])cc5F)c5ccc2[nH]5)C=C4)C=C3)cc1
REMARK SMILES IDX 20 1 19 2 18 3 16 4 17 5 15 6 10 7 11 8 12 9 14 10 13 11
REMARK SMILES IDX 9 12 1 13 2 14 3 15 4 16 8 17 5 18 6 19 7 20 21 21 22 22
REMARK SMILES IDX 23 23 24 24 25 25 89 26 26 27 88 28 27 29 28 30 29 31 82 32
REMARK SMILES IDX 30 33 87 34 81 35 83 36 31 37 86 38 80 39 79 40 32 42 66 43
REMARK SMILES IDX 45 44 65 45 46 46 49 47 64 48 84 49 47 50 48 51 63 53 85 54
REMARK SMILES IDX 50 55 33 56 34 57 43 58 35 59 36 60 42 61 44 62 37 63 38 64
REMARK SMILES IDX 39 65 40 66 41 67 67 68 68 69 77 70 69 71 70 72 76 73 78 74
REMARK SMILES IDX 71 75 72 76 73 77 74 78 75 79 51 80 52 81 61 82 53 83 54 84
REMARK SMILES IDX 60 85 62 86 55 87 56 88 57 89 58 90 59 91
REMARK H PARENT 83 41 49 52
REMARK Flexibility Score: inf
ROOT
ATOM      1  C   UNL A   1      37.789  21.366  25.076  1.00  0.00     0.275 C 
ENDROOT
BRANCH   1   2
ATOM      2  C   UNL A   1      36.334  21.492  24.665  1.00  0.00     0.275 C 
BRANCH   2   3
ATOM      3  O   UNL A   1      36.007  22.877  24.491  1.00  0.00    -0.458 OA
BRANCH   3   4
ATOM      4  C   UNL A   1      34.866  23.196  23.848  1.00  0.00     0.338 C 
ATOM      5  O   UNL A   1      34.748  23.281  22.630  1.00  0.00    -0.246 OA
BRANCH   4   6
ATOM      6  C   UNL A   1      33.710  23.370  24.780  1.00  0.00     0.071 A 
ATOM      7  C   UNL A   1      32.807  22.373  25.189  1.00  0.00     0.018 A 
ATOM      8  C   UNL A   1      31.826  22.756  26.106  1.00  0.00     0.120 A 
ATOM      9  N   UNL A   1      31.656  24.009  26.592  1.00  0.00    -0.264 NA
ATOM     10  C   UNL A   1      33.523  24.685  25.243  1.00  0.00     0.036 A 
ATOM     11  C   UNL A   1      32.491  24.954  26.122  1.00  0.00     0.112 A 
BRANCH   7  12
ATOM     12  C   UNL A   1      32.758  21.014  24.680  1.00  0.00     0.025 A 
ATOM     13  C   UNL A   1      31.786  21.263  22.248  1.00  0.00     0.069 C 
ATOM     14  C   UNL A   1      32.346  20.521  23.409  1.00  0.00     0.067 A 
ATOM     15  N   UNL A   1      32.537  19.198  23.310  1.00  0.00    -0.177 NA
ATOM     16  N   UNL A   1      33.151  18.874  24.461  1.00  0.00    -0.269 N 
ATOM     17  C   UNL A   1      33.166  19.892  25.370  1.00  0.00     0.118 A 
BRANCH  16  18
ATOM     18  C   UNL A   1      33.754  17.556  24.626  1.00  0.00     0.101 C 
ATOM     19  C   UNL A   1      32.918  16.697  25.569  1.00  0.00     0.033 C 
ATOM     20  C   UNL A   1      33.989  16.856  23.286  1.00  0.00     0.033 C 
ENDBRANCH  16  18
ENDBRANCH   7  12
ENDBRANCH   4   6
ENDBRANCH   3   4
ENDBRANCH   2   3
ENDBRANCH   1   2
BRANCH   1  21
ATOM     21  O   UNL A   1      38.122  22.382  26.017  1.00  0.00    -0.458 OA
BRANCH  21  22
ATOM     22  C   UNL A   1      39.352  22.282  26.568  1.00  0.00     0.338 C 
ATOM     23  O   UNL A   1      39.904  21.278  26.982  1.00  0.00    -0.246 OA
BRANCH  22  24
ATOM     24  C   UNL A   1      39.864  23.632  26.808  1.00  0.00     0.060 A 
ATOM     25  C   UNL A   1      41.181  23.734  27.266  1.00  0.00     0.016 A 
ATOM     26  C   UNL A   1      38.979  24.719  26.837  1.00  0.00     0.016 A 
ATOM     27  C   UNL A   1      41.562  24.888  27.913  1.00  0.00     0.010 A 
ATOM     28  C   UNL A   1      39.358  25.866  27.491  1.00  0.00     0.010 A 
ATOM     29  C   UNL A   1      40.619  25.907  28.081  1.00  0.00    -0.014 A 
BRANCH  29  30
ATOM     30  C   UNL A   1      41.024  27.085  28.820  1.00  0.00     0.031 A 
ATOM     31  C   UNL A   1      42.179  27.777  28.205  1.00  0.00     0.074 A 
ATOM     32  C   UNL A   1      40.300  27.553  29.853  1.00  0.00     0.049 A 
ATOM     33  N   UNL A   1      43.345  27.998  28.711  1.00  0.00    -0.248 NA
ATOM     34  C   UNL A   1      42.070  28.128  26.776  1.00  0.00     0.031 C 
ATOM     35  C   UNL A   1      38.970  27.083  30.267  1.00  0.00     0.029 A 
ATOM     36  N   UNL A   1      40.514  28.630  30.658  1.00  0.00    -0.354 N 
ATOM     37  C   UNL A   1      44.020  28.746  27.750  1.00  0.00     0.074 A 
ATOM     38  C   UNL A   1      43.289  28.601  26.523  1.00  0.00     0.031 C 
ATOM     39  C   UNL A   1      38.404  28.014  31.063  1.00  0.00     0.029 A 
ATOM     40  C   UNL A   1      39.374  29.067  31.317  1.00  0.00     0.049 A 
ATOM     41  H   UNL A   1      41.394  29.059  30.761  1.00  0.00     0.167 HD
ATOM     42  C   UNL A   1      44.926  29.689  28.120  1.00  0.00     0.037 A 
ATOM     43  C   UNL A   1      39.205  30.253  31.949  1.00  0.00     0.037 A 
ATOM     44  C   UNL A   1      45.362  29.486  29.476  1.00  0.00     0.049 A 
ATOM     45  C   UNL A   1      40.549  30.797  32.270  1.00  0.00     0.074 A 
ATOM     46  C   UNL A   1      46.183  28.600  30.133  1.00  0.00     0.029 A 
ATOM     47  N   UNL A   1      44.594  30.118  30.419  1.00  0.00    -0.354 N 
ATOM     48  N   UNL A   1      41.395  30.218  33.081  1.00  0.00    -0.248 NA
ATOM     49  C   UNL A   1      41.122  31.838  31.421  1.00  0.00     0.031 C 
ATOM     50  C   UNL A   1      45.758  28.598  31.494  1.00  0.00     0.029 A 
ATOM     51  C   UNL A   1      44.697  29.492  31.633  1.00  0.00     0.049 A 
ATOM     52  H   UNL A   1      44.043  30.916  30.247  1.00  0.00     0.167 HD
ATOM     53  C   UNL A   1      42.640  30.521  32.562  1.00  0.00     0.074 A 
ATOM     54  C   UNL A   1      42.420  31.644  31.663  1.00  0.00     0.031 C 
ATOM     55  C   UNL A   1      43.675  29.640  32.650  1.00  0.00     0.037 A 
BRANCH  42  56
ATOM     56  C   UNL A   1      45.033  31.053  27.467  1.00  0.00     0.058 A 
ATOM     57  C   UNL A   1      46.233  31.397  26.812  1.00  0.00     0.135 A 
ATOM     58  C   UNL A   1      44.156  32.130  27.734  1.00  0.00     0.135 A 
ATOM     59  F   UNL A   1      47.139  30.453  26.507  1.00  0.00    -0.206 F 
ATOM     60  C   UNL A   1      46.576  32.720  26.529  1.00  0.00     0.059 A 
ATOM     61  C   UNL A   1      44.455  33.447  27.411  1.00  0.00     0.059 A 
ATOM     62  F   UNL A   1      43.015  31.982  28.413  1.00  0.00    -0.206 F 
ATOM     63  C   UNL A   1      45.687  33.739  26.855  1.00  0.00     0.060 A 
BRANCH  63  64
ATOM     64  S   UNL A   1      46.172  35.457  26.615  1.00  0.00     0.124 S 
ATOM     65  O   UNL A   1      46.930  35.714  27.833  1.00  0.00    -0.237 OA
ATOM     66  O   UNL A   1      46.945  35.384  25.380  1.00  0.00    -0.237 OA
ATOM     67  O   UNL A   1      44.892  36.152  26.505  1.00  0.00    -0.744 OA
ENDBRANCH  63  64
ENDBRANCH  42  56
BRANCH  43  68
ATOM     68  C   UNL A   1      37.958  31.059  32.011  1.00  0.00     0.058 A 
ATOM     69  C   UNL A   1      37.376  31.419  33.237  1.00  0.00     0.135 A 
ATOM     70  C   UNL A   1      37.441  31.697  30.864  1.00  0.00     0.135 A 
ATOM     71  F   UNL A   1      37.829  30.884  34.380  1.00  0.00    -0.206 F 
ATOM     72  C   UNL A   1      36.355  32.372  33.323  1.00  0.00     0.059 A 
ATOM     73  C   UNL A   1      36.415  32.637  30.923  1.00  0.00     0.059 A 
ATOM     74  F   UNL A   1      37.975  31.485  29.652  1.00  0.00    -0.206 F 
ATOM     75  C   UNL A   1      35.890  32.986  32.160  1.00  0.00     0.060 A 
BRANCH  75  76
ATOM     76  S   UNL A   1      34.670  34.314  32.278  1.00  0.00     0.124 S 
ATOM     77  O   UNL A   1      35.361  35.284  33.120  1.00  0.00    -0.237 OA
ATOM     78  O   UNL A   1      34.492  34.694  30.881  1.00  0.00    -0.237 OA
ATOM     79  O   UNL A   1      33.518  33.663  32.896  1.00  0.00    -0.744 OA
ENDBRANCH  75  76
ENDBRANCH  43  68
BRANCH  55  80
ATOM     80  C   UNL A   1      43.667  28.648  33.773  1.00  0.00     0.058 A 
ATOM     81  C   UNL A   1      44.042  28.929  35.096  1.00  0.00     0.135 A 
ATOM     82  C   UNL A   1      43.125  27.380  33.509  1.00  0.00     0.135 A 
ATOM     83  F   UNL A   1      44.498  30.143  35.439  1.00  0.00    -0.206 F 
ATOM     84  C   UNL A   1      43.897  27.981  36.111  1.00  0.00     0.059 A 
ATOM     85  C   UNL A   1      42.944  26.432  34.509  1.00  0.00     0.059 A 
ATOM     86  F   UNL A   1      42.706  27.072  32.270  1.00  0.00    -0.206 F 
ATOM     87  C   UNL A   1      43.338  26.738  35.809  1.00  0.00     0.060 A 
BRANCH  87  88
ATOM     88  S   UNL A   1      43.046  25.551  37.139  1.00  0.00     0.124 S 
ATOM     89  O   UNL A   1      41.780  24.947  36.740  1.00  0.00    -0.237 OA
ATOM     90  O   UNL A   1      44.218  24.684  37.053  1.00  0.00    -0.237 OA
ATOM     91  O   UNL A   1      42.991  26.387  38.336  1.00  0.00    -0.744 OA
ENDBRANCH  87  88
ENDBRANCH  55  80
ENDBRANCH  29  30
ENDBRANCH  22  24
ENDBRANCH  21  22
ENDBRANCH   1  21
TORSDOF 16
ENDMDL
