MODEL 1
REMARK VINA RESULT:      -9.1      0.000      0.000
REMARK SMILES C[C@@H](C(=O)OCCOC(=O)c1ccc(-c2c3nc(c(-c4c(F)cc(S(=O)(=O)[O-])cc4F)c4ccc([nH]4)c(-c4c(F)cc(S(=O)(=O)[O-])cc4F)c4nc(c(-c5c(F)cc(S(=O)(=O)[O-])cc5F)c5ccc2[nH]5)C=C4)C=C3)cc1)c1cc(C(=O)c2ccccc2)ccc1O
REMARK SMILES IDX 6 1 5 2 3 3 4 4 2 5 1 6 77 7 78 8 90 9 79 10 89 11 88 12
REMARK SMILES IDX 91 13 80 15 81 16 82 17 83 18 87 19 84 20 86 21 85 22 7 23
REMARK SMILES IDX 8 24 9 25 10 26 11 27 12 28 76 29 13 30 75 31 14 32 15 33
REMARK SMILES IDX 16 34 69 35 17 36 74 37 68 38 70 39 18 40 73 41 67 42 66 43
REMARK SMILES IDX 19 45 53 46 32 47 52 48 33 49 36 50 51 51 71 52 34 53 35 54
REMARK SMILES IDX 50 56 72 57 37 58 20 59 21 60 30 61 22 62 23 63 29 64 31 65
REMARK SMILES IDX 24 66 25 67 26 68 27 69 28 70 54 71 55 72 64 73 56 74 57 75
REMARK SMILES IDX 63 76 65 77 58 78 59 79 60 80 61 81 62 82 38 83 39 84 48 85
REMARK SMILES IDX 40 86 41 87 47 88 49 89 42 90 43 91 44 92 45 93 46 94
REMARK H PARENT 91 14 70 44 36 55
REMARK Flexibility Score: inf
ROOT
ATOM      1  C   UNL A   1      40.867  21.280  27.314  1.00  0.00     0.274 C 
ENDROOT
BRANCH   1   2
ATOM      2  O   UNL A   1      42.271  21.604  27.394  1.00  0.00    -0.462 OA
BRANCH   2   3
ATOM      3  C   UNL A   1      42.595  22.700  28.138  1.00  0.00     0.313 C 
ATOM      4  O   UNL A   1      41.753  23.403  28.691  1.00  0.00    -0.252 OA
BRANCH   3   5
ATOM      5  C   UNL A   1      44.106  23.020  28.114  1.00  0.00     0.130 C 
ATOM      6  C   UNL A   1      44.579  23.472  29.507  1.00  0.00     0.025 C 
BRANCH   5   7
ATOM      7  C   UNL A   1      44.510  23.981  26.976  1.00  0.00     0.009 A 
ATOM      8  C   UNL A   1      43.843  25.207  26.763  1.00  0.00     0.020 A 
ATOM      9  C   UNL A   1      45.595  23.715  26.121  1.00  0.00     0.119 A 
ATOM     10  C   UNL A   1      44.204  26.082  25.720  1.00  0.00     0.023 A 
ATOM     11  C   UNL A   1      45.952  24.568  25.073  1.00  0.00     0.047 A 
ATOM     12  C   UNL A   1      45.247  25.749  24.858  1.00  0.00     0.016 A 
BRANCH   9  13
ATOM     13  O   UNL A   1      46.378  22.604  26.269  1.00  0.00    -0.508 OA
ATOM     14  H   UNL A   1      46.270  22.051  27.018  1.00  0.00     0.293 HD
ENDBRANCH   9  13
BRANCH  10  15
ATOM     15  C   UNL A   1      43.485  27.379  25.610  1.00  0.00     0.193 C 
ATOM     16  O   UNL A   1      42.727  27.586  24.667  1.00  0.00    -0.289 OA
BRANCH  15  17
ATOM     17  C   UNL A   1      43.681  28.432  26.621  1.00  0.00     0.022 A 
ATOM     18  C   UNL A   1      42.665  29.363  26.850  1.00  0.00     0.012 A 
ATOM     19  C   UNL A   1      44.900  28.518  27.297  1.00  0.00     0.012 A 
ATOM     20  C   UNL A   1      42.864  30.375  27.790  1.00  0.00     0.001 A 
ATOM     21  C   UNL A   1      45.095  29.541  28.224  1.00  0.00     0.001 A 
ATOM     22  C   UNL A   1      44.077  30.462  28.476  1.00  0.00     0.000 A 
ENDBRANCH  15  17
ENDBRANCH  10  15
ENDBRANCH   5   7
ENDBRANCH   3   5
ENDBRANCH   2   3
ENDBRANCH   1   2
BRANCH   1  23
ATOM     23  C   UNL A   1      40.206  21.909  26.089  1.00  0.00     0.275 C 
BRANCH  23  24
ATOM     24  O   UNL A   1      38.862  22.316  26.396  1.00  0.00    -0.458 OA
BRANCH  24  25
ATOM     25  C   UNL A   1      38.498  23.538  25.951  1.00  0.00     0.338 C 
ATOM     26  O   UNL A   1      37.730  23.802  25.036  1.00  0.00    -0.246 OA
BRANCH  25  27
ATOM     27  C   UNL A   1      39.098  24.562  26.815  1.00  0.00     0.060 A 
ATOM     28  C   UNL A   1      38.678  24.623  28.142  1.00  0.00     0.016 A 
ATOM     29  C   UNL A   1      39.980  25.516  26.308  1.00  0.00     0.016 A 
ATOM     30  C   UNL A   1      39.132  25.642  28.974  1.00  0.00     0.010 A 
ATOM     31  C   UNL A   1      40.445  26.535  27.149  1.00  0.00     0.010 A 
ATOM     32  C   UNL A   1      40.010  26.614  28.484  1.00  0.00    -0.014 A 
BRANCH  32  33
ATOM     33  C   UNL A   1      40.378  27.757  29.356  1.00  0.00     0.031 A 
ATOM     34  C   UNL A   1      41.706  27.754  30.062  1.00  0.00     0.074 A 
ATOM     35  C   UNL A   1      39.571  28.831  29.452  1.00  0.00     0.049 A 
ATOM     36  N   UNL A   1      42.199  28.630  30.898  1.00  0.00    -0.248 NA
ATOM     37  C   UNL A   1      42.604  26.624  29.773  1.00  0.00     0.031 C 
ATOM     38  C   UNL A   1      38.297  28.995  28.752  1.00  0.00     0.029 A 
ATOM     39  N   UNL A   1      39.712  29.995  30.167  1.00  0.00    -0.354 N 
ATOM     40  C   UNL A   1      43.453  28.150  31.254  1.00  0.00     0.074 A 
ATOM     41  C   UNL A   1      43.645  26.901  30.546  1.00  0.00     0.031 C 
ATOM     42  C   UNL A   1      37.779  30.196  29.062  1.00  0.00     0.029 A 
ATOM     43  C   UNL A   1      38.658  30.864  30.019  1.00  0.00     0.049 A 
ATOM     44  H   UNL A   1      40.495  30.188  30.733  1.00  0.00     0.167 HD
ATOM     45  C   UNL A   1      44.367  28.706  32.085  1.00  0.00     0.037 A 
ATOM     46  C   UNL A   1      38.415  32.051  30.610  1.00  0.00     0.037 A 
ATOM     47  C   UNL A   1      44.186  29.952  32.778  1.00  0.00     0.049 A 
ATOM     48  C   UNL A   1      39.398  32.594  31.611  1.00  0.00     0.074 A 
ATOM     49  C   UNL A   1      45.048  30.579  33.662  1.00  0.00     0.029 A 
ATOM     50  N   UNL A   1      43.068  30.763  32.667  1.00  0.00    -0.354 N 
ATOM     51  N   UNL A   1      40.561  32.107  31.972  1.00  0.00    -0.248 NA
ATOM     52  C   UNL A   1      39.024  33.836  32.305  1.00  0.00     0.031 C 
ATOM     53  C   UNL A   1      44.434  31.754  34.111  1.00  0.00     0.029 A 
ATOM     54  C   UNL A   1      43.206  31.874  33.483  1.00  0.00     0.049 A 
ATOM     55  H   UNL A   1      42.289  30.577  32.094  1.00  0.00     0.167 HD
ATOM     56  C   UNL A   1      41.060  32.985  32.927  1.00  0.00     0.074 A 
ATOM     57  C   UNL A   1      40.083  34.042  33.078  1.00  0.00     0.031 C 
ATOM     58  C   UNL A   1      42.222  32.918  33.623  1.00  0.00     0.037 A 
BRANCH  45  59
ATOM     59  C   UNL A   1      45.635  27.939  32.312  1.00  0.00     0.058 A 
ATOM     60  C   UNL A   1      46.800  28.210  31.580  1.00  0.00     0.135 A 
ATOM     61  C   UNL A   1      45.681  26.919  33.276  1.00  0.00     0.135 A 
ATOM     62  F   UNL A   1      46.796  29.161  30.633  1.00  0.00    -0.206 F 
ATOM     63  C   UNL A   1      47.966  27.477  31.778  1.00  0.00     0.059 A 
ATOM     64  C   UNL A   1      46.840  26.185  33.503  1.00  0.00     0.059 A 
ATOM     65  F   UNL A   1      44.589  26.621  33.997  1.00  0.00    -0.206 F 
ATOM     66  C   UNL A   1      47.973  26.461  32.738  1.00  0.00     0.060 A 
BRANCH  66  67
ATOM     67  S   UNL A   1      49.482  25.497  32.972  1.00  0.00     0.124 S 
ATOM     68  O   UNL A   1      50.276  26.401  33.799  1.00  0.00    -0.237 OA
ATOM     69  O   UNL A   1      48.989  24.295  33.637  1.00  0.00    -0.237 OA
ATOM     70  O   UNL A   1      49.971  25.300  31.610  1.00  0.00    -0.744 OA
ENDBRANCH  66  67
ENDBRANCH  45  59
BRANCH  46  71
ATOM     71  C   UNL A   1      37.161  32.791  30.306  1.00  0.00     0.058 A 
ATOM     72  C   UNL A   1      36.012  32.619  31.091  1.00  0.00     0.135 A 
ATOM     73  C   UNL A   1      37.087  33.675  29.220  1.00  0.00     0.135 A 
ATOM     74  F   UNL A   1      36.031  31.773  32.132  1.00  0.00    -0.206 F 
ATOM     75  C   UNL A   1      34.828  33.291  30.804  1.00  0.00     0.059 A 
ATOM     76  C   UNL A   1      35.923  34.375  28.925  1.00  0.00     0.059 A 
ATOM     77  F   UNL A   1      38.162  33.876  28.441  1.00  0.00    -0.206 F 
ATOM     78  C   UNL A   1      34.793  34.168  29.716  1.00  0.00     0.060 A 
BRANCH  78  79
ATOM     79  S   UNL A   1      33.271  35.075  29.372  1.00  0.00     0.124 S 
ATOM     80  O   UNL A   1      32.657  34.236  28.348  1.00  0.00    -0.237 OA
ATOM     81  O   UNL A   1      32.609  35.082  30.672  1.00  0.00    -0.237 OA
ATOM     82  O   UNL A   1      33.755  36.375  28.918  1.00  0.00    -0.744 OA
ENDBRANCH  78  79
ENDBRANCH  46  71
BRANCH  58  83
ATOM     83  C   UNL A   1      42.506  34.020  34.603  1.00  0.00     0.058 A 
ATOM     84  C   UNL A   1      42.228  33.870  35.970  1.00  0.00     0.135 A 
ATOM     85  C   UNL A   1      43.109  35.215  34.180  1.00  0.00     0.135 A 
ATOM     86  F   UNL A   1      41.645  32.748  36.421  1.00  0.00    -0.206 F 
ATOM     87  C   UNL A   1      42.526  34.873  36.885  1.00  0.00     0.059 A 
ATOM     88  C   UNL A   1      43.434  36.224  35.082  1.00  0.00     0.059 A 
ATOM     89  F   UNL A   1      43.402  35.403  32.884  1.00  0.00    -0.206 F 
ATOM     90  C   UNL A   1      43.131  36.048  36.431  1.00  0.00     0.060 A 
BRANCH  90  91
ATOM     91  S   UNL A   1      43.557  37.329  37.632  1.00  0.00     0.124 S 
ATOM     92  O   UNL A   1      42.289  37.504  38.334  1.00  0.00    -0.237 OA
ATOM     93  O   UNL A   1      44.624  36.699  38.401  1.00  0.00    -0.237 OA
ATOM     94  O   UNL A   1      43.973  38.449  36.795  1.00  0.00    -0.744 OA
ENDBRANCH  90  91
ENDBRANCH  58  83
ENDBRANCH  32  33
ENDBRANCH  25  27
ENDBRANCH  24  25
ENDBRANCH  23  24
ENDBRANCH   1  23
TORSDOF 18
ENDMDL
MODEL 2
REMARK VINA RESULT:      -8.9      2.959      4.155
REMARK SMILES C[C@@H](C(=O)OCCOC(=O)c1ccc(-c2c3nc(c(-c4c(F)cc(S(=O)(=O)[O-])cc4F)c4ccc([nH]4)c(-c4c(F)cc(S(=O)(=O)[O-])cc4F)c4nc(c(-c5c(F)cc(S(=O)(=O)[O-])cc5F)c5ccc2[nH]5)C=C4)C=C3)cc1)c1cc(C(=O)c2ccccc2)ccc1O
REMARK SMILES IDX 6 1 5 2 3 3 4 4 2 5 1 6 77 7 78 8 90 9 79 10 89 11 88 12
REMARK SMILES IDX 91 13 80 15 81 16 82 17 83 18 87 19 84 20 86 21 85 22 7 23
REMARK SMILES IDX 8 24 9 25 10 26 11 27 12 28 76 29 13 30 75 31 14 32 15 33
REMARK SMILES IDX 16 34 69 35 17 36 74 37 68 38 70 39 18 40 73 41 67 42 66 43
REMARK SMILES IDX 19 45 53 46 32 47 52 48 33 49 36 50 51 51 71 52 34 53 35 54
REMARK SMILES IDX 50 56 72 57 37 58 20 59 21 60 30 61 22 62 23 63 29 64 31 65
REMARK SMILES IDX 24 66 25 67 26 68 27 69 28 70 54 71 55 72 64 73 56 74 57 75
REMARK SMILES IDX 63 76 65 77 58 78 59 79 60 80 61 81 62 82 38 83 39 84 48 85
REMARK SMILES IDX 40 86 41 87 47 88 49 89 42 90 43 91 44 92 45 93 46 94
REMARK H PARENT 91 14 70 44 36 55
REMARK Flexibility Score: inf
ROOT
ATOM      1  C   UNL A   1      41.378  19.734  26.488  1.00  0.00     0.274 C 
ENDROOT
BRANCH   1   2
ATOM      2  O   UNL A   1      42.103  19.242  25.342  1.00  0.00    -0.462 OA
BRANCH   2   3
ATOM      3  C   UNL A   1      43.415  18.931  25.548  1.00  0.00     0.313 C 
ATOM      4  O   UNL A   1      43.775  18.000  26.263  1.00  0.00    -0.252 OA
BRANCH   3   5
ATOM      5  C   UNL A   1      44.384  19.934  24.883  1.00  0.00     0.130 C 
ATOM      6  C   UNL A   1      45.841  19.478  25.076  1.00  0.00     0.025 C 
BRANCH   5   7
ATOM      7  C   UNL A   1      44.128  21.399  25.299  1.00  0.00     0.009 A 
ATOM      8  C   UNL A   1      43.865  21.758  26.639  1.00  0.00     0.020 A 
ATOM      9  C   UNL A   1      44.193  22.461  24.379  1.00  0.00     0.119 A 
ATOM     10  C   UNL A   1      43.624  23.093  27.021  1.00  0.00     0.023 A 
ATOM     11  C   UNL A   1      43.939  23.786  24.743  1.00  0.00     0.047 A 
ATOM     12  C   UNL A   1      43.638  24.106  26.064  1.00  0.00     0.016 A 
BRANCH   9  13
ATOM     13  O   UNL A   1      44.518  22.263  23.067  1.00  0.00    -0.508 OA
ATOM     14  H   UNL A   1      45.252  22.712  22.693  1.00  0.00     0.293 HD
ENDBRANCH   9  13
BRANCH  10  15
ATOM     15  C   UNL A   1      43.418  23.385  28.464  1.00  0.00     0.193 C 
ATOM     16  O   UNL A   1      42.490  22.859  29.073  1.00  0.00    -0.289 OA
BRANCH  15  17
ATOM     17  C   UNL A   1      44.312  24.312  29.176  1.00  0.00     0.022 A 
ATOM     18  C   UNL A   1      45.662  24.378  28.820  1.00  0.00     0.012 A 
ATOM     19  C   UNL A   1      43.811  25.075  30.234  1.00  0.00     0.012 A 
ATOM     20  C   UNL A   1      46.511  25.240  29.514  1.00  0.00     0.001 A 
ATOM     21  C   UNL A   1      44.671  25.922  30.931  1.00  0.00     0.001 A 
ATOM     22  C   UNL A   1      46.016  26.011  30.567  1.00  0.00     0.000 A 
ENDBRANCH  15  17
ENDBRANCH  10  15
ENDBRANCH   5   7
ENDBRANCH   3   5
ENDBRANCH   2   3
ENDBRANCH   1   2
BRANCH   1  23
ATOM     23  C   UNL A   1      40.196  20.612  26.080  1.00  0.00     0.275 C 
BRANCH  23  24
ATOM     24  O   UNL A   1      40.344  21.937  26.619  1.00  0.00    -0.458 OA
BRANCH  24  25
ATOM     25  C   UNL A   1      39.316  22.784  26.393  1.00  0.00     0.338 C 
ATOM     26  O   UNL A   1      38.220  22.519  25.921  1.00  0.00    -0.246 OA
BRANCH  25  27
ATOM     27  C   UNL A   1      39.668  24.113  26.907  1.00  0.00     0.060 A 
ATOM     28  C   UNL A   1      40.117  25.067  25.996  1.00  0.00     0.016 A 
ATOM     29  C   UNL A   1      39.659  24.390  28.274  1.00  0.00     0.016 A 
ATOM     30  C   UNL A   1      40.567  26.305  26.444  1.00  0.00     0.010 A 
ATOM     31  C   UNL A   1      40.102  25.641  28.723  1.00  0.00     0.010 A 
ATOM     32  C   UNL A   1      40.575  26.601  27.811  1.00  0.00    -0.014 A 
BRANCH  32  33
ATOM     33  C   UNL A   1      41.176  27.879  28.268  1.00  0.00     0.031 A 
ATOM     34  C   UNL A   1      42.650  28.114  28.083  1.00  0.00     0.074 A 
ATOM     35  C   UNL A   1      40.399  28.860  28.766  1.00  0.00     0.049 A 
ATOM     36  N   UNL A   1      43.376  29.137  28.449  1.00  0.00    -0.248 NA
ATOM     37  C   UNL A   1      43.402  27.063  27.377  1.00  0.00     0.031 C 
ATOM     38  C   UNL A   1      38.945  28.791  28.918  1.00  0.00     0.029 A 
ATOM     39  N   UNL A   1      40.724  30.113  29.223  1.00  0.00    -0.354 N 
ATOM     40  C   UNL A   1      44.671  28.849  28.040  1.00  0.00     0.074 A 
ATOM     41  C   UNL A   1      44.634  27.550  27.401  1.00  0.00     0.031 C 
ATOM     42  C   UNL A   1      38.503  29.957  29.420  1.00  0.00     0.029 A 
ATOM     43  C   UNL A   1      39.643  30.834  29.672  1.00  0.00     0.049 A 
ATOM     44  H   UNL A   1      41.645  30.462  29.229  1.00  0.00     0.167 HD
ATOM     45  C   UNL A   1      45.788  29.604  28.173  1.00  0.00     0.037 A 
ATOM     46  C   UNL A   1      39.583  32.051  30.246  1.00  0.00     0.037 A 
ATOM     47  C   UNL A   1      45.826  30.900  28.793  1.00  0.00     0.049 A 
ATOM     48  C   UNL A   1      40.854  32.823  30.479  1.00  0.00     0.074 A 
ATOM     49  C   UNL A   1      46.918  31.726  28.996  1.00  0.00     0.029 A 
ATOM     50  N   UNL A   1      44.724  31.561  29.311  1.00  0.00    -0.354 N 
ATOM     51  N   UNL A   1      42.080  32.519  30.127  1.00  0.00    -0.248 NA
ATOM     52  C   UNL A   1      40.736  34.094  31.211  1.00  0.00     0.031 C 
ATOM     53  C   UNL A   1      46.480  32.873  29.669  1.00  0.00     0.029 A 
ATOM     54  C   UNL A   1      45.111  32.775  29.854  1.00  0.00     0.049 A 
ATOM     55  H   UNL A   1      43.801  31.219  29.297  1.00  0.00     0.167 HD
ATOM     56  C   UNL A   1      42.877  33.561  30.586  1.00  0.00     0.074 A 
ATOM     57  C   UNL A   1      41.995  34.513  31.228  1.00  0.00     0.031 C 
ATOM     58  C   UNL A   1      44.221  33.712  30.491  1.00  0.00     0.037 A 
BRANCH  45  59
ATOM     59  C   UNL A   1      47.070  29.018  27.662  1.00  0.00     0.058 A 
ATOM     60  C   UNL A   1      47.368  28.981  26.292  1.00  0.00     0.135 A 
ATOM     61  C   UNL A   1      48.011  28.487  28.558  1.00  0.00     0.135 A 
ATOM     62  F   UNL A   1      46.488  29.458  25.397  1.00  0.00    -0.206 F 
ATOM     63  C   UNL A   1      48.548  28.413  25.823  1.00  0.00     0.059 A 
ATOM     64  C   UNL A   1      49.204  27.929  28.113  1.00  0.00     0.059 A 
ATOM     65  F   UNL A   1      47.767  28.496  29.878  1.00  0.00    -0.206 F 
ATOM     66  C   UNL A   1      49.457  27.882  26.743  1.00  0.00     0.060 A 
BRANCH  66  67
ATOM     67  S   UNL A   1      50.974  27.123  26.125  1.00  0.00     0.124 S 
ATOM     68  O   UNL A   1      51.340  28.042  25.052  1.00  0.00    -0.237 OA
ATOM     69  O   UNL A   1      51.838  27.144  27.301  1.00  0.00    -0.237 OA
ATOM     70  O   UNL A   1      50.538  25.798  25.696  1.00  0.00    -0.744 OA
ENDBRANCH  66  67
ENDBRANCH  45  59
BRANCH  46  71
ATOM     71  C   UNL A   1      38.274  32.603  30.687  1.00  0.00     0.058 A 
ATOM     72  C   UNL A   1      37.820  32.424  32.002  1.00  0.00     0.135 A 
ATOM     73  C   UNL A   1      37.449  33.310  29.800  1.00  0.00     0.135 A 
ATOM     74  F   UNL A   1      38.568  31.742  32.883  1.00  0.00    -0.206 F 
ATOM     75  C   UNL A   1      36.589  32.918  32.419  1.00  0.00     0.059 A 
ATOM     76  C   UNL A   1      36.225  33.832  30.198  1.00  0.00     0.059 A 
ATOM     77  F   UNL A   1      37.842  33.510  28.531  1.00  0.00    -0.206 F 
ATOM     78  C   UNL A   1      35.796  33.621  31.508  1.00  0.00     0.060 A 
BRANCH  78  79
ATOM     79  S   UNL A   1      34.219  34.303  32.063  1.00  0.00     0.124 S 
ATOM     80  O   UNL A   1      33.546  34.550  30.793  1.00  0.00    -0.237 OA
ATOM     81  O   UNL A   1      33.676  33.217  32.872  1.00  0.00    -0.237 OA
ATOM     82  O   UNL A   1      34.616  35.492  32.812  1.00  0.00    -0.744 OA
ENDBRANCH  78  79
ENDBRANCH  46  71
BRANCH  58  83
ATOM     83  C   UNL A   1      44.820  34.954  31.086  1.00  0.00     0.058 A 
ATOM     84  C   UNL A   1      45.312  34.970  32.399  1.00  0.00     0.135 A 
ATOM     85  C   UNL A   1      44.952  36.122  30.319  1.00  0.00     0.135 A 
ATOM     86  F   UNL A   1      45.201  33.879  33.175  1.00  0.00    -0.206 F 
ATOM     87  C   UNL A   1      45.904  36.107  32.939  1.00  0.00     0.059 A 
ATOM     88  C   UNL A   1      45.558  37.265  30.832  1.00  0.00     0.059 A 
ATOM     89  F   UNL A   1      44.505  36.154  29.054  1.00  0.00    -0.206 F 
ATOM     90  C   UNL A   1      46.023  37.250  32.146  1.00  0.00     0.060 A 
BRANCH  90  91
ATOM     91  S   UNL A   1      46.833  38.709  32.838  1.00  0.00     0.124 S 
ATOM     92  O   UNL A   1      46.852  38.386  34.261  1.00  0.00    -0.237 OA
ATOM     93  O   UNL A   1      48.130  38.698  32.170  1.00  0.00    -0.237 OA
ATOM     94  O   UNL A   1      45.946  39.802  32.452  1.00  0.00    -0.744 OA
ENDBRANCH  90  91
ENDBRANCH  58  83
ENDBRANCH  32  33
ENDBRANCH  25  27
ENDBRANCH  24  25
ENDBRANCH  23  24
ENDBRANCH   1  23
TORSDOF 18
ENDMDL
MODEL 3
REMARK VINA RESULT:      -8.8      0.899      1.969
REMARK SMILES C[C@@H](C(=O)OCCOC(=O)c1ccc(-c2c3nc(c(-c4c(F)cc(S(=O)(=O)[O-])cc4F)c4ccc([nH]4)c(-c4c(F)cc(S(=O)(=O)[O-])cc4F)c4nc(c(-c5c(F)cc(S(=O)(=O)[O-])cc5F)c5ccc2[nH]5)C=C4)C=C3)cc1)c1cc(C(=O)c2ccccc2)ccc1O
REMARK SMILES IDX 6 1 5 2 3 3 4 4 2 5 1 6 77 7 78 8 90 9 79 10 89 11 88 12
REMARK SMILES IDX 91 13 80 15 81 16 82 17 83 18 87 19 84 20 86 21 85 22 7 23
REMARK SMILES IDX 8 24 9 25 10 26 11 27 12 28 76 29 13 30 75 31 14 32 15 33
REMARK SMILES IDX 16 34 69 35 17 36 74 37 68 38 70 39 18 40 73 41 67 42 66 43
REMARK SMILES IDX 19 45 53 46 32 47 52 48 33 49 36 50 51 51 71 52 34 53 35 54
REMARK SMILES IDX 50 56 72 57 37 58 20 59 21 60 30 61 22 62 23 63 29 64 31 65
REMARK SMILES IDX 24 66 25 67 26 68 27 69 28 70 54 71 55 72 64 73 56 74 57 75
REMARK SMILES IDX 63 76 65 77 58 78 59 79 60 80 61 81 62 82 38 83 39 84 48 85
REMARK SMILES IDX 40 86 41 87 47 88 49 89 42 90 43 91 44 92 45 93 46 94
REMARK H PARENT 91 14 70 44 36 55
REMARK Flexibility Score: inf
ROOT
ATOM      1  C   UNL A   1      40.856  21.183  27.348  1.00  0.00     0.274 C 
ENDROOT
BRANCH   1   2
ATOM      2  O   UNL A   1      42.260  21.515  27.356  1.00  0.00    -0.462 OA
BRANCH   2   3
ATOM      3  C   UNL A   1      42.634  22.533  28.183  1.00  0.00     0.313 C 
ATOM      4  O   UNL A   1      41.835  23.342  28.647  1.00  0.00    -0.252 OA
BRANCH   3   5
ATOM      5  C   UNL A   1      44.164  22.623  28.375  1.00  0.00     0.130 C 
ATOM      6  C   UNL A   1      44.495  23.199  29.763  1.00  0.00     0.025 C 
BRANCH   5   7
ATOM      7  C   UNL A   1      44.886  23.341  27.214  1.00  0.00     0.009 A 
ATOM      8  C   UNL A   1      45.019  24.746  27.174  1.00  0.00     0.020 A 
ATOM      9  C   UNL A   1      45.494  22.635  26.160  1.00  0.00     0.119 A 
ATOM     10  C   UNL A   1      45.670  25.405  26.112  1.00  0.00     0.023 A 
ATOM     11  C   UNL A   1      46.127  23.278  25.093  1.00  0.00     0.047 A 
ATOM     12  C   UNL A   1      46.205  24.668  25.057  1.00  0.00     0.016 A 
BRANCH   9  13
ATOM     13  O   UNL A   1      45.510  21.270  26.118  1.00  0.00    -0.508 OA
ATOM     14  H   UNL A   1      45.486  20.826  25.292  1.00  0.00     0.293 HD
ENDBRANCH   9  13
BRANCH  10  15
ATOM     15  C   UNL A   1      45.816  26.882  26.186  1.00  0.00     0.193 C 
ATOM     16  O   UNL A   1      46.933  27.389  26.245  1.00  0.00    -0.289 OA
BRANCH  15  17
ATOM     17  C   UNL A   1      44.629  27.753  26.200  1.00  0.00     0.022 A 
ATOM     18  C   UNL A   1      44.584  28.840  27.078  1.00  0.00     0.012 A 
ATOM     19  C   UNL A   1      43.544  27.451  25.375  1.00  0.00     0.012 A 
ATOM     20  C   UNL A   1      43.447  29.648  27.107  1.00  0.00     0.001 A 
ATOM     21  C   UNL A   1      42.407  28.256  25.421  1.00  0.00     0.001 A 
ATOM     22  C   UNL A   1      42.361  29.356  26.279  1.00  0.00     0.000 A 
ENDBRANCH  15  17
ENDBRANCH  10  15
ENDBRANCH   5   7
ENDBRANCH   3   5
ENDBRANCH   2   3
ENDBRANCH   1   2
BRANCH   1  23
ATOM     23  C   UNL A   1      40.144  21.749  26.120  1.00  0.00     0.275 C 
BRANCH  23  24
ATOM     24  O   UNL A   1      38.789  22.106  26.444  1.00  0.00    -0.458 OA
BRANCH  24  25
ATOM     25  C   UNL A   1      38.376  23.315  26.007  1.00  0.00     0.338 C 
ATOM     26  O   UNL A   1      37.528  23.552  25.158  1.00  0.00    -0.246 OA
BRANCH  25  27
ATOM     27  C   UNL A   1      39.037  24.363  26.793  1.00  0.00     0.060 A 
ATOM     28  C   UNL A   1      38.657  24.517  28.125  1.00  0.00     0.016 A 
ATOM     29  C   UNL A   1      39.941  25.249  26.209  1.00  0.00     0.016 A 
ATOM     30  C   UNL A   1      39.173  25.563  28.884  1.00  0.00     0.010 A 
ATOM     31  C   UNL A   1      40.468  26.296  26.977  1.00  0.00     0.010 A 
ATOM     32  C   UNL A   1      40.073  26.470  28.315  1.00  0.00    -0.014 A 
BRANCH  32  33
ATOM     33  C   UNL A   1      40.509  27.646  29.109  1.00  0.00     0.031 A 
ATOM     34  C   UNL A   1      41.898  27.681  29.682  1.00  0.00     0.074 A 
ATOM     35  C   UNL A   1      39.700  28.714  29.247  1.00  0.00     0.049 A 
ATOM     36  N   UNL A   1      42.459  28.589  30.437  1.00  0.00    -0.248 NA
ATOM     37  C   UNL A   1      42.779  26.550  29.346  1.00  0.00     0.031 C 
ATOM     38  C   UNL A   1      38.362  28.841  28.669  1.00  0.00     0.029 A 
ATOM     39  N   UNL A   1      39.894  29.903  29.905  1.00  0.00    -0.354 N 
ATOM     40  C   UNL A   1      43.747  28.135  30.685  1.00  0.00     0.074 A 
ATOM     41  C   UNL A   1      43.886  26.864  30.004  1.00  0.00     0.031 C 
ATOM     42  C   UNL A   1      37.861  30.047  28.987  1.00  0.00     0.029 A 
ATOM     43  C   UNL A   1      38.819  30.757  29.831  1.00  0.00     0.049 A 
ATOM     44  H   UNL A   1      40.726  30.124  30.386  1.00  0.00     0.167 HD
ATOM     45  C   UNL A   1      44.729  28.728  31.404  1.00  0.00     0.037 A 
ATOM     46  C   UNL A   1      38.619  31.960  30.402  1.00  0.00     0.037 A 
ATOM     47  C   UNL A   1      44.600  29.996  32.070  1.00  0.00     0.049 A 
ATOM     48  C   UNL A   1      39.687  32.547  31.285  1.00  0.00     0.074 A 
ATOM     49  C   UNL A   1      45.534  30.661  32.844  1.00  0.00     0.029 A 
ATOM     50  N   UNL A   1      43.465  30.791  32.041  1.00  0.00    -0.354 N 
ATOM     51  N   UNL A   1      40.886  32.086  31.548  1.00  0.00    -0.248 NA
ATOM     52  C   UNL A   1      39.365  33.809  31.970  1.00  0.00     0.031 C 
ATOM     53  C   UNL A   1      44.951  31.845  33.312  1.00  0.00     0.029 A 
ATOM     54  C   UNL A   1      43.667  31.931  32.802  1.00  0.00     0.049 A 
ATOM     55  H   UNL A   1      42.638  30.578  31.552  1.00  0.00     0.167 HD
ATOM     56  C   UNL A   1      41.463  33.001  32.420  1.00  0.00     0.074 A 
ATOM     57  C   UNL A   1      40.490  34.053  32.629  1.00  0.00     0.031 C 
ATOM     58  C   UNL A   1      42.688  32.969  33.001  1.00  0.00     0.037 A 
BRANCH  45  59
ATOM     59  C   UNL A   1      46.023  27.982  31.533  1.00  0.00     0.058 A 
ATOM     60  C   UNL A   1      46.260  27.098  32.596  1.00  0.00     0.135 A 
ATOM     61  C   UNL A   1      47.038  28.156  30.579  1.00  0.00     0.135 A 
ATOM     62  F   UNL A   1      45.327  26.917  33.543  1.00  0.00    -0.206 F 
ATOM     63  C   UNL A   1      47.473  26.428  32.723  1.00  0.00     0.059 A 
ATOM     64  C   UNL A   1      48.251  27.484  30.677  1.00  0.00     0.059 A 
ATOM     65  F   UNL A   1      46.858  28.995  29.548  1.00  0.00    -0.206 F 
ATOM     66  C   UNL A   1      48.466  26.634  31.762  1.00  0.00     0.060 A 
BRANCH  66  67
ATOM     67  S   UNL A   1      50.046  25.782  31.948  1.00  0.00     0.124 S 
ATOM     68  O   UNL A   1      50.989  26.883  31.780  1.00  0.00    -0.237 OA
ATOM     69  O   UNL A   1      49.949  25.227  33.294  1.00  0.00    -0.237 OA
ATOM     70  O   UNL A   1      50.029  24.800  30.867  1.00  0.00    -0.744 OA
ENDBRANCH  66  67
ENDBRANCH  45  59
BRANCH  46  71
ATOM     71  C   UNL A   1      37.332  32.677  30.197  1.00  0.00     0.058 A 
ATOM     72  C   UNL A   1      37.193  33.637  29.184  1.00  0.00     0.135 A 
ATOM     73  C   UNL A   1      36.223  32.425  31.018  1.00  0.00     0.135 A 
ATOM     74  F   UNL A   1      38.231  33.923  28.384  1.00  0.00    -0.206 F 
ATOM     75  C   UNL A   1      36.001  34.328  28.997  1.00  0.00     0.059 A 
ATOM     76  C   UNL A   1      35.014  33.086  30.837  1.00  0.00     0.059 A 
ATOM     77  F   UNL A   1      36.306  31.513  32.000  1.00  0.00    -0.206 F 
ATOM     78  C   UNL A   1      34.915  34.046  29.830  1.00  0.00     0.060 A 
BRANCH  78  79
ATOM     79  S   UNL A   1      33.354  34.910  29.557  1.00  0.00     0.124 S 
ATOM     80  O   UNL A   1      33.810  36.147  28.932  1.00  0.00    -0.237 OA
ATOM     81  O   UNL A   1      32.631  33.985  28.689  1.00  0.00    -0.237 OA
ATOM     82  O   UNL A   1      32.809  35.045  30.905  1.00  0.00    -0.744 OA
ENDBRANCH  78  79
ENDBRANCH  46  71
BRANCH  58  83
ATOM     83  C   UNL A   1      43.050  34.107  33.912  1.00  0.00     0.058 A 
ATOM     84  C   UNL A   1      43.544  35.318  33.406  1.00  0.00     0.135 A 
ATOM     85  C   UNL A   1      42.849  34.005  35.298  1.00  0.00     0.135 A 
ATOM     86  F   UNL A   1      43.759  35.461  32.088  1.00  0.00    -0.206 F 
ATOM     87  C   UNL A   1      43.842  36.388  34.243  1.00  0.00     0.059 A 
ATOM     88  C   UNL A   1      43.122  35.069  36.152  1.00  0.00     0.059 A 
ATOM     89  F   UNL A   1      42.370  32.870  35.830  1.00  0.00    -0.206 F 
ATOM     90  C   UNL A   1      43.626  36.253  35.617  1.00  0.00     0.060 A 
BRANCH  90  91
ATOM     91  S   UNL A   1      43.972  37.662  36.695  1.00  0.00     0.124 S 
ATOM     92  O   UNL A   1      43.915  38.773  35.751  1.00  0.00    -0.237 OA
ATOM     93  O   UNL A   1      42.882  37.595  37.661  1.00  0.00    -0.237 OA
ATOM     94  O   UNL A   1      45.295  37.358  37.230  1.00  0.00    -0.744 OA
ENDBRANCH  90  91
ENDBRANCH  58  83
ENDBRANCH  32  33
ENDBRANCH  25  27
ENDBRANCH  24  25
ENDBRANCH  23  24
ENDBRANCH   1  23
TORSDOF 18
ENDMDL
