MODEL 1
REMARK VINA RESULT:     -12.7      0.000      0.000
REMARK SMILES Cc1ccc([C@@H](C)Nc2snc(C)c2C(=O)OCCOC(=O)c2ccc(-c3c4nc(c(-c5c(F)cc(S(=O)(=O)[O-])cc5F)c5ccc([nH]5)c(-c5c(F)cc(S(=O)(=O)[O-])cc5F)c5nc(c(-c6c(F)cc(S(=O)(=O)[O-])cc6F)c6ccc3[nH]6)C=C5)C=C4)cc2)cc1F
REMARK SMILES IDX 18 1 17 2 15 3 16 4 14 5 9 6 10 7 11 8 12 9 13 10 8 11 6 13
REMARK SMILES IDX 7 14 5 15 1 16 2 17 3 18 90 19 4 20 89 21 91 22 19 23 20 24
REMARK SMILES IDX 21 25 22 26 23 27 24 28 88 29 25 30 87 31 26 32 27 33 28 34
REMARK SMILES IDX 81 35 29 36 86 37 80 38 82 39 30 40 85 41 79 42 78 43 31 45
REMARK SMILES IDX 65 46 44 47 64 48 45 49 48 50 63 51 83 52 46 53 47 54 62 56
REMARK SMILES IDX 84 57 49 58 32 59 33 60 42 61 34 62 35 63 41 64 43 65 36 66
REMARK SMILES IDX 37 67 38 68 39 69 40 70 66 71 67 72 76 73 68 74 69 75 75 76
REMARK SMILES IDX 77 77 70 78 71 79 72 80 73 81 74 82 50 83 51 84 60 85 52 86
REMARK SMILES IDX 53 87 59 88 61 89 54 90 55 91 56 92 57 93 58 94
REMARK H PARENT 8 12 82 44 48 55
REMARK Flexibility Score: inf
ROOT
ATOM      1  C   UNL A   1      33.485  27.878  26.414  1.00  0.00     0.275 C 
ENDROOT
BRANCH   1   2
ATOM      2  O   UNL A   1      33.986  27.152  25.281  1.00  0.00    -0.458 OA
BRANCH   2   3
ATOM      3  C   UNL A   1      33.099  26.468  24.503  1.00  0.00     0.343 C 
ATOM      4  O   UNL A   1      32.966  26.635  23.294  1.00  0.00    -0.246 OA
BRANCH   3   5
ATOM      5  C   UNL A   1      32.211  25.599  25.258  1.00  0.00     0.117 A 
ATOM      6  C   UNL A   1      32.537  24.338  25.745  1.00  0.00     0.124 A 
ATOM      7  S   UNL A   1      31.124  23.683  26.491  1.00  0.00    -0.018 S 
ATOM      8  N   UNL A   1      30.156  24.998  26.273  1.00  0.00    -0.195 NA
ATOM      9  C   UNL A   1      30.819  25.885  25.529  1.00  0.00     0.068 A 
ATOM     10  C   UNL A   1      30.030  27.027  24.995  1.00  0.00     0.069 C 
BRANCH   6  11
ATOM     11  N   UNL A   1      33.657  23.567  25.683  1.00  0.00    -0.368 N 
ATOM     12  H   UNL A   1      34.116  23.381  26.534  1.00  0.00     0.162 HD
BRANCH  11  13
ATOM     13  C   UNL A   1      34.236  22.998  24.490  1.00  0.00     0.107 C 
ATOM     14  C   UNL A   1      33.344  21.887  23.932  1.00  0.00     0.036 C 
BRANCH  13  15
ATOM     15  C   UNL A   1      35.637  22.528  24.830  1.00  0.00    -0.023 A 
ATOM     16  C   UNL A   1      39.590  21.235  25.972  1.00  0.00     0.047 C 
ATOM     17  C   UNL A   1      38.226  21.701  25.577  1.00  0.00    -0.015 A 
ATOM     18  C   UNL A   1      37.820  23.020  25.794  1.00  0.00     0.007 A 
ATOM     19  C   UNL A   1      37.322  20.805  24.999  1.00  0.00     0.126 A 
ATOM     20  C   UNL A   1      36.537  23.428  25.428  1.00  0.00     0.006 A 
ATOM     21  C   UNL A   1      36.042  21.202  24.632  1.00  0.00     0.045 A 
ATOM     22  F   UNL A   1      37.688  19.530  24.798  1.00  0.00    -0.207 F 
ENDBRANCH  13  15
ENDBRANCH  11  13
ENDBRANCH   6  11
ENDBRANCH   3   5
ENDBRANCH   2   3
ENDBRANCH   1   2
BRANCH   1  23
ATOM     23  C   UNL A   1      34.302  29.152  26.612  1.00  0.00     0.275 C 
BRANCH  23  24
ATOM     24  O   UNL A   1      35.100  29.227  27.808  1.00  0.00    -0.458 OA
BRANCH  24  25
ATOM     25  C   UNL A   1      36.060  30.185  27.864  1.00  0.00     0.338 C 
ATOM     26  O   UNL A   1      35.901  31.364  27.689  1.00  0.00    -0.246 OA
BRANCH  25  27
ATOM     27  C   UNL A   1      37.341  29.551  28.218  1.00  0.00     0.060 A 
ATOM     28  C   UNL A   1      38.427  29.702  27.346  1.00  0.00     0.016 A 
ATOM     29  C   UNL A   1      37.434  28.770  29.366  1.00  0.00     0.016 A 
ATOM     30  C   UNL A   1      39.590  28.979  27.557  1.00  0.00     0.010 A 
ATOM     31  C   UNL A   1      38.594  28.074  29.595  1.00  0.00     0.010 A 
ATOM     32  C   UNL A   1      39.650  28.156  28.677  1.00  0.00    -0.014 A 
BRANCH  32  33
ATOM     33  C   UNL A   1      40.863  27.508  29.126  1.00  0.00     0.031 A 
ATOM     34  C   UNL A   1      41.095  26.112  28.680  1.00  0.00     0.074 A 
ATOM     35  C   UNL A   1      41.811  28.307  29.663  1.00  0.00     0.049 A 
ATOM     36  N   UNL A   1      41.993  25.324  29.158  1.00  0.00    -0.248 NA
ATOM     37  C   UNL A   1      40.268  25.460  27.656  1.00  0.00     0.031 C 
ATOM     38  C   UNL A   1      43.246  28.076  29.680  1.00  0.00     0.029 A 
ATOM     39  N   UNL A   1      41.677  29.504  30.373  1.00  0.00    -0.354 N 
ATOM     40  C   UNL A   1      42.088  24.239  28.302  1.00  0.00     0.074 A 
ATOM     41  C   UNL A   1      40.907  24.298  27.481  1.00  0.00     0.031 C 
ATOM     42  C   UNL A   1      43.803  28.902  30.584  1.00  0.00     0.029 A 
ATOM     43  C   UNL A   1      42.706  29.509  31.323  1.00  0.00     0.049 A 
ATOM     44  H   UNL A   1      40.997  30.202  30.235  1.00  0.00     0.167 HD
ATOM     45  C   UNL A   1      43.255  23.532  28.261  1.00  0.00     0.037 A 
ATOM     46  C   UNL A   1      42.527  29.348  32.673  1.00  0.00     0.037 A 
ATOM     47  C   UNL A   1      44.196  24.098  29.220  1.00  0.00     0.049 A 
ATOM     48  C   UNL A   1      43.240  28.133  33.208  1.00  0.00     0.074 A 
ATOM     49  C   UNL A   1      45.161  25.080  29.073  1.00  0.00     0.029 A 
ATOM     50  N   UNL A   1      43.961  23.965  30.580  1.00  0.00    -0.354 N 
ATOM     51  N   UNL A   1      43.516  27.086  32.484  1.00  0.00    -0.248 NA
ATOM     52  C   UNL A   1      43.714  28.011  34.581  1.00  0.00     0.031 C 
ATOM     53  C   UNL A   1      45.460  25.590  30.359  1.00  0.00     0.029 A 
ATOM     54  C   UNL A   1      44.690  24.905  31.285  1.00  0.00     0.049 A 
ATOM     55  H   UNL A   1      43.362  23.297  30.985  1.00  0.00     0.167 HD
ATOM     56  C   UNL A   1      44.197  26.175  33.241  1.00  0.00     0.074 A 
ATOM     57  C   UNL A   1      44.309  26.806  34.544  1.00  0.00     0.031 C 
ATOM     58  C   UNL A   1      44.607  24.975  32.735  1.00  0.00     0.037 A 
BRANCH  45  59
ATOM     59  C   UNL A   1      43.679  22.573  27.163  1.00  0.00     0.058 A 
ATOM     60  C   UNL A   1      43.055  21.307  27.052  1.00  0.00     0.135 A 
ATOM     61  C   UNL A   1      44.684  22.814  26.204  1.00  0.00     0.135 A 
ATOM     62  F   UNL A   1      42.045  20.946  27.853  1.00  0.00    -0.206 F 
ATOM     63  C   UNL A   1      43.436  20.341  26.121  1.00  0.00     0.059 A 
ATOM     64  C   UNL A   1      45.109  21.845  25.281  1.00  0.00     0.059 A 
ATOM     65  F   UNL A   1      45.264  24.016  26.087  1.00  0.00    -0.206 F 
ATOM     66  C   UNL A   1      44.477  20.609  25.247  1.00  0.00     0.060 A 
BRANCH  66  67
ATOM     67  S   UNL A   1      44.947  19.335  24.062  1.00  0.00     0.124 S 
ATOM     68  O   UNL A   1      46.390  19.250  24.258  1.00  0.00    -0.237 OA
ATOM     69  O   UNL A   1      44.175  18.188  24.526  1.00  0.00    -0.237 OA
ATOM     70  O   UNL A   1      44.527  19.893  22.779  1.00  0.00    -0.744 OA
ENDBRANCH  66  67
ENDBRANCH  45  59
BRANCH  46  71
ATOM     71  C   UNL A   1      41.229  29.847  33.205  1.00  0.00     0.058 A 
ATOM     72  C   UNL A   1      41.164  31.230  33.430  1.00  0.00     0.135 A 
ATOM     73  C   UNL A   1      40.048  29.169  32.857  1.00  0.00     0.135 A 
ATOM     74  F   UNL A   1      42.248  31.897  33.858  1.00  0.00    -0.206 F 
ATOM     75  C   UNL A   1      40.077  31.959  32.986  1.00  0.00     0.059 A 
ATOM     76  C   UNL A   1      38.945  29.882  32.404  1.00  0.00     0.059 A 
ATOM     77  F   UNL A   1      40.042  27.835  32.736  1.00  0.00    -0.206 F 
ATOM     78  C   UNL A   1      39.038  31.275  32.361  1.00  0.00     0.060 A 
BRANCH  78  79
ATOM     79  S   UNL A   1      38.058  32.218  31.184  1.00  0.00     0.124 S 
ATOM     80  O   UNL A   1      38.841  32.072  29.962  1.00  0.00    -0.237 OA
ATOM     81  O   UNL A   1      36.787  31.498  31.204  1.00  0.00    -0.237 OA
ATOM     82  O   UNL A   1      38.011  33.541  31.788  1.00  0.00    -0.744 OA
ENDBRANCH  78  79
ENDBRANCH  46  71
BRANCH  58  83
ATOM     83  C   UNL A   1      45.060  23.795  33.553  1.00  0.00     0.058 A 
ATOM     84  C   UNL A   1      46.385  23.609  33.980  1.00  0.00     0.135 A 
ATOM     85  C   UNL A   1      44.118  22.870  34.067  1.00  0.00     0.135 A 
ATOM     86  F   UNL A   1      47.350  24.493  33.689  1.00  0.00    -0.206 F 
ATOM     87  C   UNL A   1      46.769  22.529  34.767  1.00  0.00     0.059 A 
ATOM     88  C   UNL A   1      44.468  21.830  34.921  1.00  0.00     0.059 A 
ATOM     89  F   UNL A   1      42.812  22.955  33.774  1.00  0.00    -0.206 F 
ATOM     90  C   UNL A   1      45.805  21.642  35.232  1.00  0.00     0.060 A 
BRANCH  90  91
ATOM     91  S   UNL A   1      46.306  20.268  36.273  1.00  0.00     0.124 S 
ATOM     92  O   UNL A   1      47.758  20.312  36.126  1.00  0.00    -0.237 OA
ATOM     93  O   UNL A   1      45.793  20.657  37.584  1.00  0.00    -0.237 OA
ATOM     94  O   UNL A   1      45.642  19.121  35.663  1.00  0.00    -0.744 OA
ENDBRANCH  90  91
ENDBRANCH  58  83
ENDBRANCH  32  33
ENDBRANCH  25  27
ENDBRANCH  24  25
ENDBRANCH  23  24
ENDBRANCH   1  23
TORSDOF 17
ENDMDL
MODEL 2
REMARK VINA RESULT:     -12.7      1.481      2.126
REMARK SMILES Cc1ccc([C@@H](C)Nc2snc(C)c2C(=O)OCCOC(=O)c2ccc(-c3c4nc(c(-c5c(F)cc(S(=O)(=O)[O-])cc5F)c5ccc([nH]5)c(-c5c(F)cc(S(=O)(=O)[O-])cc5F)c5nc(c(-c6c(F)cc(S(=O)(=O)[O-])cc6F)c6ccc3[nH]6)C=C5)C=C4)cc2)cc1F
REMARK SMILES IDX 18 1 17 2 15 3 16 4 14 5 9 6 10 7 11 8 12 9 13 10 8 11 6 13
REMARK SMILES IDX 7 14 5 15 1 16 2 17 3 18 90 19 4 20 89 21 91 22 19 23 20 24
REMARK SMILES IDX 21 25 22 26 23 27 24 28 88 29 25 30 87 31 26 32 27 33 28 34
REMARK SMILES IDX 81 35 29 36 86 37 80 38 82 39 30 40 85 41 79 42 78 43 31 45
REMARK SMILES IDX 65 46 44 47 64 48 45 49 48 50 63 51 83 52 46 53 47 54 62 56
REMARK SMILES IDX 84 57 49 58 32 59 33 60 42 61 34 62 35 63 41 64 43 65 36 66
REMARK SMILES IDX 37 67 38 68 39 69 40 70 66 71 67 72 76 73 68 74 69 75 75 76
REMARK SMILES IDX 77 77 70 78 71 79 72 80 73 81 74 82 50 83 51 84 60 85 52 86
REMARK SMILES IDX 53 87 59 88 61 89 54 90 55 91 56 92 57 93 58 94
REMARK H PARENT 8 12 82 44 48 55
REMARK Flexibility Score: inf
ROOT
ATOM      1  C   UNL A   1      33.211  29.300  26.005  1.00  0.00     0.275 C 
ENDROOT
BRANCH   1   2
ATOM      2  O   UNL A   1      33.099  27.872  25.910  1.00  0.00    -0.458 OA
BRANCH   2   3
ATOM      3  C   UNL A   1      31.871  27.330  25.675  1.00  0.00     0.343 C 
ATOM      4  O   UNL A   1      31.077  27.006  26.553  1.00  0.00    -0.246 OA
BRANCH   3   5
ATOM      5  C   UNL A   1      31.622  27.038  24.272  1.00  0.00     0.117 A 
ATOM      6  C   UNL A   1      32.072  25.914  23.589  1.00  0.00     0.124 A 
ATOM      7  S   UNL A   1      31.590  26.076  21.938  1.00  0.00    -0.018 S 
ATOM      8  N   UNL A   1      30.765  27.492  22.109  1.00  0.00    -0.195 NA
ATOM      9  C   UNL A   1      30.947  27.932  23.355  1.00  0.00     0.068 A 
ATOM     10  C   UNL A   1      30.507  29.324  23.640  1.00  0.00     0.069 C 
BRANCH   6  11
ATOM     11  N   UNL A   1      32.818  24.833  23.945  1.00  0.00    -0.368 N 
ATOM     12  H   UNL A   1      33.634  24.664  23.422  1.00  0.00     0.162 HD
BRANCH  11  13
ATOM     13  C   UNL A   1      32.526  23.911  25.017  1.00  0.00     0.107 C 
ATOM     14  C   UNL A   1      33.523  24.083  26.165  1.00  0.00     0.036 C 
BRANCH  13  15
ATOM     15  C   UNL A   1      32.516  22.510  24.437  1.00  0.00    -0.023 A 
ATOM     16  C   UNL A   1      32.355  18.480  22.909  1.00  0.00     0.047 C 
ATOM     17  C   UNL A   1      32.421  19.870  23.453  1.00  0.00    -0.015 A 
ATOM     18  C   UNL A   1      32.751  20.110  24.790  1.00  0.00     0.007 A 
ATOM     19  C   UNL A   1      32.128  20.958  22.627  1.00  0.00     0.126 A 
ATOM     20  C   UNL A   1      32.793  21.418  25.277  1.00  0.00     0.006 A 
ATOM     21  C   UNL A   1      32.167  22.263  23.103  1.00  0.00     0.045 A 
ATOM     22  F   UNL A   1      31.793  20.746  21.345  1.00  0.00    -0.207 F 
ENDBRANCH  13  15
ENDBRANCH  11  13
ENDBRANCH   6  11
ENDBRANCH   3   5
ENDBRANCH   2   3
ENDBRANCH   1   2
BRANCH   1  23
ATOM     23  C   UNL A   1      33.847  29.679  27.341  1.00  0.00     0.275 C 
BRANCH  23  24
ATOM     24  O   UNL A   1      35.213  29.274  27.542  1.00  0.00    -0.458 OA
BRANCH  24  25
ATOM     25  C   UNL A   1      36.122  30.244  27.819  1.00  0.00     0.338 C 
ATOM     26  O   UNL A   1      35.924  31.430  27.813  1.00  0.00    -0.246 OA
BRANCH  25  27
ATOM     27  C   UNL A   1      37.401  29.605  28.175  1.00  0.00     0.060 A 
ATOM     28  C   UNL A   1      38.489  29.756  27.304  1.00  0.00     0.016 A 
ATOM     29  C   UNL A   1      37.490  28.821  29.320  1.00  0.00     0.016 A 
ATOM     30  C   UNL A   1      39.650  29.029  27.516  1.00  0.00     0.010 A 
ATOM     31  C   UNL A   1      38.648  28.122  29.550  1.00  0.00     0.010 A 
ATOM     32  C   UNL A   1      39.705  28.203  28.634  1.00  0.00    -0.014 A 
BRANCH  32  33
ATOM     33  C   UNL A   1      40.917  27.551  29.083  1.00  0.00     0.031 A 
ATOM     34  C   UNL A   1      41.144  26.154  28.636  1.00  0.00     0.074 A 
ATOM     35  C   UNL A   1      41.866  28.347  29.622  1.00  0.00     0.049 A 
ATOM     36  N   UNL A   1      42.040  25.363  29.115  1.00  0.00    -0.248 NA
ATOM     37  C   UNL A   1      40.316  25.506  27.611  1.00  0.00     0.031 C 
ATOM     38  C   UNL A   1      43.300  28.111  29.640  1.00  0.00     0.029 A 
ATOM     39  N   UNL A   1      41.735  29.544  30.333  1.00  0.00    -0.354 N 
ATOM     40  C   UNL A   1      42.131  24.279  28.259  1.00  0.00     0.074 A 
ATOM     41  C   UNL A   1      40.952  24.343  27.436  1.00  0.00     0.031 C 
ATOM     42  C   UNL A   1      43.859  28.935  30.545  1.00  0.00     0.029 A 
ATOM     43  C   UNL A   1      42.764  29.545  31.283  1.00  0.00     0.049 A 
ATOM     44  H   UNL A   1      41.058  30.244  30.194  1.00  0.00     0.167 HD
ATOM     45  C   UNL A   1      43.296  23.568  28.218  1.00  0.00     0.037 A 
ATOM     46  C   UNL A   1      42.583  29.383  32.633  1.00  0.00     0.037 A 
ATOM     47  C   UNL A   1      44.238  24.130  29.178  1.00  0.00     0.049 A 
ATOM     48  C   UNL A   1      43.291  28.165  33.168  1.00  0.00     0.074 A 
ATOM     49  C   UNL A   1      45.207  25.110  29.033  1.00  0.00     0.029 A 
ATOM     50  N   UNL A   1      44.002  23.997  30.538  1.00  0.00    -0.354 N 
ATOM     51  N   UNL A   1      43.564  27.118  32.443  1.00  0.00    -0.248 NA
ATOM     52  C   UNL A   1      43.764  28.041  34.541  1.00  0.00     0.031 C 
ATOM     53  C   UNL A   1      45.506  25.617  30.319  1.00  0.00     0.029 A 
ATOM     54  C   UNL A   1      44.733  24.934  31.244  1.00  0.00     0.049 A 
ATOM     55  H   UNL A   1      43.400  23.331  30.942  1.00  0.00     0.167 HD
ATOM     56  C   UNL A   1      44.242  26.204  33.201  1.00  0.00     0.074 A 
ATOM     57  C   UNL A   1      44.355  26.834  34.504  1.00  0.00     0.031 C 
ATOM     58  C   UNL A   1      44.649  25.004  32.694  1.00  0.00     0.037 A 
BRANCH  45  59
ATOM     59  C   UNL A   1      43.718  22.609  27.119  1.00  0.00     0.058 A 
ATOM     60  C   UNL A   1      43.022  21.389  26.941  1.00  0.00     0.135 A 
ATOM     61  C   UNL A   1      44.788  22.805  26.222  1.00  0.00     0.135 A 
ATOM     62  F   UNL A   1      41.947  21.077  27.677  1.00  0.00    -0.206 F 
ATOM     63  C   UNL A   1      43.390  20.421  26.008  1.00  0.00     0.059 A 
ATOM     64  C   UNL A   1      45.201  21.831  25.299  1.00  0.00     0.059 A 
ATOM     65  F   UNL A   1      45.450  23.968  26.169  1.00  0.00    -0.206 F 
ATOM     66  C   UNL A   1      44.494  20.641  25.199  1.00  0.00     0.060 A 
BRANCH  66  67
ATOM     67  S   UNL A   1      44.946  19.366  24.007  1.00  0.00     0.124 S 
ATOM     68  O   UNL A   1      46.392  19.281  24.181  1.00  0.00    -0.237 OA
ATOM     69  O   UNL A   1      44.181  18.219  24.484  1.00  0.00    -0.237 OA
ATOM     70  O   UNL A   1      44.506  19.922  22.730  1.00  0.00    -0.744 OA
ENDBRANCH  66  67
ENDBRANCH  45  59
BRANCH  46  71
ATOM     71  C   UNL A   1      41.286  29.886  33.165  1.00  0.00     0.058 A 
ATOM     72  C   UNL A   1      41.230  31.267  33.404  1.00  0.00     0.135 A 
ATOM     73  C   UNL A   1      40.102  29.221  32.803  1.00  0.00     0.135 A 
ATOM     74  F   UNL A   1      42.317  31.920  33.846  1.00  0.00    -0.206 F 
ATOM     75  C   UNL A   1      40.151  32.009  32.964  1.00  0.00     0.059 A 
ATOM     76  C   UNL A   1      39.007  29.947  32.353  1.00  0.00     0.059 A 
ATOM     77  F   UNL A   1      40.086  27.888  32.667  1.00  0.00    -0.206 F 
ATOM     78  C   UNL A   1      39.110  31.340  32.326  1.00  0.00     0.060 A 
BRANCH  78  79
ATOM     79  S   UNL A   1      38.143  32.304  31.155  1.00  0.00     0.124 S 
ATOM     80  O   UNL A   1      38.904  32.123  29.923  1.00  0.00    -0.237 OA
ATOM     81  O   UNL A   1      36.851  31.624  31.200  1.00  0.00    -0.237 OA
ATOM     82  O   UNL A   1      38.147  33.633  31.748  1.00  0.00    -0.744 OA
ENDBRANCH  78  79
ENDBRANCH  46  71
BRANCH  58  83
ATOM     83  C   UNL A   1      45.098  23.821  33.511  1.00  0.00     0.058 A 
ATOM     84  C   UNL A   1      46.416  23.645  33.963  1.00  0.00     0.135 A 
ATOM     85  C   UNL A   1      44.155  22.883  34.000  1.00  0.00     0.135 A 
ATOM     86  F   UNL A   1      47.377  24.541  33.698  1.00  0.00    -0.206 F 
ATOM     87  C   UNL A   1      46.795  22.563  34.749  1.00  0.00     0.059 A 
ATOM     88  C   UNL A   1      44.498  21.840  34.852  1.00  0.00     0.059 A 
ATOM     89  F   UNL A   1      42.854  22.958  33.681  1.00  0.00    -0.206 F 
ATOM     90  C   UNL A   1      45.830  21.663  35.188  1.00  0.00     0.060 A 
BRANCH  90  91
ATOM     91  S   UNL A   1      46.325  20.285  36.228  1.00  0.00     0.124 S 
ATOM     92  O   UNL A   1      45.698  19.163  35.535  1.00  0.00    -0.237 OA
ATOM     93  O   UNL A   1      47.782  20.337  36.155  1.00  0.00    -0.237 OA
ATOM     94  O   UNL A   1      45.757  20.623  37.529  1.00  0.00    -0.744 OA
ENDBRANCH  90  91
ENDBRANCH  58  83
ENDBRANCH  32  33
ENDBRANCH  25  27
ENDBRANCH  24  25
ENDBRANCH  23  24
ENDBRANCH   1  23
TORSDOF 17
ENDMDL
MODEL 3
REMARK VINA RESULT:     -12.3      2.006      2.911
REMARK SMILES Cc1ccc([C@@H](C)Nc2snc(C)c2C(=O)OCCOC(=O)c2ccc(-c3c4nc(c(-c5c(F)cc(S(=O)(=O)[O-])cc5F)c5ccc([nH]5)c(-c5c(F)cc(S(=O)(=O)[O-])cc5F)c5nc(c(-c6c(F)cc(S(=O)(=O)[O-])cc6F)c6ccc3[nH]6)C=C5)C=C4)cc2)cc1F
REMARK SMILES IDX 18 1 17 2 15 3 16 4 14 5 9 6 10 7 11 8 12 9 13 10 8 11 6 13
REMARK SMILES IDX 7 14 5 15 1 16 2 17 3 18 90 19 4 20 89 21 91 22 19 23 20 24
REMARK SMILES IDX 21 25 22 26 23 27 24 28 88 29 25 30 87 31 26 32 27 33 28 34
REMARK SMILES IDX 81 35 29 36 86 37 80 38 82 39 30 40 85 41 79 42 78 43 31 45
REMARK SMILES IDX 65 46 44 47 64 48 45 49 48 50 63 51 83 52 46 53 47 54 62 56
REMARK SMILES IDX 84 57 49 58 32 59 33 60 42 61 34 62 35 63 41 64 43 65 36 66
REMARK SMILES IDX 37 67 38 68 39 69 40 70 66 71 67 72 76 73 68 74 69 75 75 76
REMARK SMILES IDX 77 77 70 78 71 79 72 80 73 81 74 82 50 83 51 84 60 85 52 86
REMARK SMILES IDX 53 87 59 88 61 89 54 90 55 91 56 92 57 93 58 94
REMARK H PARENT 8 12 82 44 48 55
REMARK Flexibility Score: inf
ROOT
ATOM      1  C   UNL A   1      33.305  28.998  25.365  1.00  0.00     0.275 C 
ENDROOT
BRANCH   1   2
ATOM      2  O   UNL A   1      33.346  27.694  25.965  1.00  0.00    -0.458 OA
BRANCH   2   3
ATOM      3  C   UNL A   1      33.232  26.602  25.157  1.00  0.00     0.343 C 
ATOM      4  O   UNL A   1      33.437  26.612  23.947  1.00  0.00    -0.246 OA
BRANCH   3   5
ATOM      5  C   UNL A   1      32.709  25.427  25.835  1.00  0.00     0.117 A 
ATOM      6  C   UNL A   1      33.465  24.351  26.284  1.00  0.00     0.124 A 
ATOM      7  S   UNL A   1      32.375  23.182  26.939  1.00  0.00    -0.018 S 
ATOM      8  N   UNL A   1      30.995  24.057  26.732  1.00  0.00    -0.195 NA
ATOM      9  C   UNL A   1      31.303  25.165  26.056  1.00  0.00     0.068 A 
ATOM     10  C   UNL A   1      30.162  25.964  25.534  1.00  0.00     0.069 C 
BRANCH   6  11
ATOM     11  N   UNL A   1      34.792  24.050  26.241  1.00  0.00    -0.368 N 
ATOM     12  H   UNL A   1      35.236  23.874  27.101  1.00  0.00     0.162 HD
BRANCH  11  13
ATOM     13  C   UNL A   1      35.609  23.968  25.055  1.00  0.00     0.107 C 
ATOM     14  C   UNL A   1      34.853  23.266  23.924  1.00  0.00     0.036 C 
BRANCH  13  15
ATOM     15  C   UNL A   1      36.906  23.275  25.429  1.00  0.00    -0.023 A 
ATOM     16  C   UNL A   1      40.551  21.333  26.670  1.00  0.00     0.047 C 
ATOM     17  C   UNL A   1      39.296  22.023  26.243  1.00  0.00    -0.015 A 
ATOM     18  C   UNL A   1      39.043  23.351  26.597  1.00  0.00     0.007 A 
ATOM     19  C   UNL A   1      38.339  21.332  25.495  1.00  0.00     0.126 A 
ATOM     20  C   UNL A   1      37.857  23.969  26.197  1.00  0.00     0.006 A 
ATOM     21  C   UNL A   1      37.156  21.939  25.093  1.00  0.00     0.045 A 
ATOM     22  F   UNL A   1      38.557  20.051  25.160  1.00  0.00    -0.207 F 
ENDBRANCH  13  15
ENDBRANCH  11  13
ENDBRANCH   6  11
ENDBRANCH   3   5
ENDBRANCH   2   3
ENDBRANCH   1   2
BRANCH   1  23
ATOM     23  C   UNL A   1      32.854  30.028  26.399  1.00  0.00     0.275 C 
BRANCH  23  24
ATOM     24  O   UNL A   1      33.560  30.032  27.653  1.00  0.00    -0.458 OA
BRANCH  24  25
ATOM     25  C   UNL A   1      34.210  31.171  28.005  1.00  0.00     0.338 C 
ATOM     26  O   UNL A   1      33.764  32.287  27.968  1.00  0.00    -0.246 OA
BRANCH  25  27
ATOM     27  C   UNL A   1      35.557  30.817  28.484  1.00  0.00     0.060 A 
ATOM     28  C   UNL A   1      36.659  31.492  27.941  1.00  0.00     0.016 A 
ATOM     29  C   UNL A   1      35.717  29.789  29.408  1.00  0.00     0.016 A 
ATOM     30  C   UNL A   1      37.944  31.067  28.238  1.00  0.00     0.010 A 
ATOM     31  C   UNL A   1      36.988  29.384  29.726  1.00  0.00     0.010 A 
ATOM     32  C   UNL A   1      38.090  30.000  29.118  1.00  0.00    -0.014 A 
BRANCH  32  33
ATOM     33  C   UNL A   1      39.364  29.589  29.668  1.00  0.00     0.031 A 
ATOM     34  C   UNL A   1      39.954  28.329  29.151  1.00  0.00     0.074 A 
ATOM     35  C   UNL A   1      40.041  30.516  30.380  1.00  0.00     0.049 A 
ATOM     36  N   UNL A   1      40.952  27.711  29.680  1.00  0.00    -0.248 NA
ATOM     37  C   UNL A   1      39.413  27.621  27.984  1.00  0.00     0.031 C 
ATOM     38  C   UNL A   1      41.481  30.602  30.563  1.00  0.00     0.029 A 
ATOM     39  N   UNL A   1      39.562  31.577  31.156  1.00  0.00    -0.354 N 
ATOM     40  C   UNL A   1      41.382  26.765  28.764  1.00  0.00     0.074 A 
ATOM     41  C   UNL A   1      40.315  26.650  27.806  1.00  0.00     0.031 C 
ATOM     42  C   UNL A   1      41.734  31.433  31.590  1.00  0.00     0.029 A 
ATOM     43  C   UNL A   1      40.456  31.708  32.226  1.00  0.00     0.049 A 
ATOM     44  H   UNL A   1      38.760  32.120  30.985  1.00  0.00     0.167 HD
ATOM     45  C   UNL A   1      42.677  26.337  28.819  1.00  0.00     0.037 A 
ATOM     46  C   UNL A   1      40.173  31.375  33.527  1.00  0.00     0.037 A 
ATOM     47  C   UNL A   1      43.356  26.993  29.930  1.00  0.00     0.049 A 
ATOM     48  C   UNL A   1      41.083  30.296  34.055  1.00  0.00     0.074 A 
ATOM     49  C   UNL A   1      44.082  28.171  29.982  1.00  0.00     0.029 A 
ATOM     50  N   UNL A   1      43.013  26.674  31.235  1.00  0.00    -0.354 N 
ATOM     51  N   UNL A   1      41.666  29.413  33.296  1.00  0.00    -0.248 NA
ATOM     52  C   UNL A   1      41.422  30.141  35.464  1.00  0.00     0.031 C 
ATOM     53  C   UNL A   1      44.117  28.600  31.330  1.00  0.00     0.029 A 
ATOM     54  C   UNL A   1      43.428  27.673  32.096  1.00  0.00     0.049 A 
ATOM     55  H   UNL A   1      42.542  25.855  31.509  1.00  0.00     0.167 HD
ATOM     56  C   UNL A   1      42.452  28.600  34.063  1.00  0.00     0.074 A 
ATOM     57  C   UNL A   1      42.276  29.104  35.413  1.00  0.00     0.031 C 
ATOM     58  C   UNL A   1      43.176  27.576  33.524  1.00  0.00     0.037 A 
BRANCH  45  59
ATOM     59  C   UNL A   1      43.425  25.610  27.715  1.00  0.00     0.058 A 
ATOM     60  C   UNL A   1      43.287  24.208  27.574  1.00  0.00     0.135 A 
ATOM     61  C   UNL A   1      44.291  26.207  26.777  1.00  0.00     0.135 A 
ATOM     62  F   UNL A   1      42.459  23.500  28.352  1.00  0.00    -0.206 F 
ATOM     63  C   UNL A   1      43.994  23.456  26.637  1.00  0.00     0.059 A 
ATOM     64  C   UNL A   1      45.041  25.468  25.849  1.00  0.00     0.059 A 
ATOM     65  F   UNL A   1      44.413  27.538  26.688  1.00  0.00    -0.206 F 
ATOM     66  C   UNL A   1      44.884  24.090  25.786  1.00  0.00     0.060 A 
BRANCH  66  67
ATOM     67  S   UNL A   1      45.786  23.086  24.591  1.00  0.00     0.124 S 
ATOM     68  O   UNL A   1      46.766  24.033  24.070  1.00  0.00    -0.237 OA
ATOM     69  O   UNL A   1      46.319  22.019  25.430  1.00  0.00    -0.237 OA
ATOM     70  O   UNL A   1      44.754  22.677  23.642  1.00  0.00    -0.744 OA
ENDBRANCH  66  67
ENDBRANCH  45  59
BRANCH  46  71
ATOM     71  C   UNL A   1      38.746  31.523  33.925  1.00  0.00     0.058 A 
ATOM     72  C   UNL A   1      38.355  32.822  34.284  1.00  0.00     0.135 A 
ATOM     73  C   UNL A   1      37.789  30.671  33.348  1.00  0.00     0.135 A 
ATOM     74  F   UNL A   1      39.211  33.632  34.926  1.00  0.00    -0.206 F 
ATOM     75  C   UNL A   1      37.191  33.366  33.775  1.00  0.00     0.059 A 
ATOM     76  C   UNL A   1      36.615  31.197  32.826  1.00  0.00     0.059 A 
ATOM     77  F   UNL A   1      38.090  29.392  33.086  1.00  0.00    -0.206 F 
ATOM     78  C   UNL A   1      36.404  32.573  32.944  1.00  0.00     0.060 A 
BRANCH  78  79
ATOM     79  S   UNL A   1      35.379  33.445  31.749  1.00  0.00     0.124 S 
ATOM     80  O   UNL A   1      35.024  34.651  32.488  1.00  0.00    -0.237 OA
ATOM     81  O   UNL A   1      36.310  33.640  30.640  1.00  0.00    -0.237 OA
ATOM     82  O   UNL A   1      34.312  32.493  31.481  1.00  0.00    -0.744 OA
ENDBRANCH  78  79
ENDBRANCH  46  71
BRANCH  58  83
ATOM     83  C   UNL A   1      43.796  26.445  34.302  1.00  0.00     0.058 A 
ATOM     84  C   UNL A   1      43.051  25.430  34.923  1.00  0.00     0.135 A 
ATOM     85  C   UNL A   1      45.202  26.267  34.318  1.00  0.00     0.135 A 
ATOM     86  F   UNL A   1      41.712  25.397  34.855  1.00  0.00    -0.206 F 
ATOM     87  C   UNL A   1      43.650  24.376  35.603  1.00  0.00     0.059 A 
ATOM     88  C   UNL A   1      45.819  25.177  34.923  1.00  0.00     0.059 A 
ATOM     89  F   UNL A   1      46.032  27.139  33.726  1.00  0.00    -0.206 F 
ATOM     90  C   UNL A   1      45.035  24.258  35.601  1.00  0.00     0.060 A 
BRANCH  90  91
ATOM     91  S   UNL A   1      45.799  22.876  36.456  1.00  0.00     0.124 S 
ATOM     92  O   UNL A   1      45.424  23.152  37.839  1.00  0.00    -0.237 OA
ATOM     93  O   UNL A   1      45.147  21.721  35.843  1.00  0.00    -0.237 OA
ATOM     94  O   UNL A   1      47.216  23.025  36.142  1.00  0.00    -0.744 OA
ENDBRANCH  90  91
ENDBRANCH  58  83
ENDBRANCH  32  33
ENDBRANCH  25  27
ENDBRANCH  24  25
ENDBRANCH  23  24
ENDBRANCH   1  23
TORSDOF 17
ENDMDL
