MODEL 1
REMARK VINA RESULT:     -10.3      0.000      0.000
REMARK SMILES CC[C@@H]1SC[C@H](C(=O)OCCOC(=O)c2ccc(-c3c4nc(c(-c5c(F)cc(S(=O)(=O)[O-])cc5F)c5ccc([nH]5)c(-c5c(F)cc(S(=O)(=O)[O-])cc5F)c5nc(c(-c6c(F)cc(S(=O)(=O)[O-])cc6F)c6ccc3[nH]6)C=C5)C=C4)cc2)N1C(=O)[C@](C)([NH3+])C(F)(F)F
REMARK SMILES IDX 10 1 9 2 7 3 8 4 6 5 3 6 4 7 81 8 5 9 2 10 1 11 82 12 83 13
REMARK SMILES IDX 84 14 85 15 86 16 87 20 88 21 89 22 90 23 11 24 12 25 13 26
REMARK SMILES IDX 14 27 15 28 16 29 80 30 17 31 79 32 18 33 19 34 20 35 73 36
REMARK SMILES IDX 21 37 78 38 72 39 74 40 22 41 77 42 71 43 70 44 23 46 57 47
REMARK SMILES IDX 36 48 56 49 37 50 40 51 55 52 75 53 38 54 39 55 54 57 76 58
REMARK SMILES IDX 41 59 24 60 25 61 34 62 26 63 27 64 33 65 35 66 28 67 29 68
REMARK SMILES IDX 30 69 31 70 32 71 58 72 59 73 68 74 60 75 61 76 67 77 69 78
REMARK SMILES IDX 62 79 63 80 64 81 65 82 66 83 42 84 43 85 52 86 44 87 45 88
REMARK SMILES IDX 51 89 53 90 46 91 47 92 48 93 49 94 50 95
REMARK H PARENT 86 17 86 18 86 19 74 45 40 56
REMARK Flexibility Score: inf
ROOT
ATOM      1  C   UNL A   1      37.061  23.367  24.878  1.00  0.00     0.274 C 
ENDROOT
BRANCH   1   2
ATOM      2  O   UNL A   1      35.845  24.146  24.797  1.00  0.00    -0.461 OA
BRANCH   2   3
ATOM      3  C   UNL A   1      35.048  23.968  23.695  1.00  0.00     0.329 C 
ATOM      4  O   UNL A   1      35.299  23.221  22.767  1.00  0.00    -0.250 OA
BRANCH   3   5
ATOM      5  C   UNL A   1      33.834  24.904  23.793  1.00  0.00     0.206 C 
ATOM      6  C   UNL A   1      31.527  25.433  23.910  1.00  0.00     0.144 C 
ATOM      7  S   UNL A   1      31.925  25.902  22.199  1.00  0.00    -0.134 SA
ATOM      8  N   UNL A   1      32.500  24.381  24.231  1.00  0.00    -0.310 N 
ATOM      9  C   UNL A   1      33.680  25.544  22.406  1.00  0.00     0.109 C 
BRANCH   6  10
ATOM     10  C   UNL A   1      30.032  25.153  24.062  1.00  0.00     0.033 C 
ATOM     11  C   UNL A   1      29.227  26.444  24.223  1.00  0.00     0.007 C 
ENDBRANCH   6  10
BRANCH   8  12
ATOM     12  C   UNL A   1      32.437  23.922  25.542  1.00  0.00     0.294 C 
ATOM     13  O   UNL A   1      32.494  24.765  26.447  1.00  0.00    -0.267 OA
BRANCH  12  14
ATOM     14  C   UNL A   1      32.280  22.396  25.882  1.00  0.00     0.267 C 
ATOM     15  C   UNL A   1      32.542  21.391  24.763  1.00  0.00     0.100 C 
BRANCH  14  16
ATOM     16  N   UNL A   1      30.814  22.175  26.183  1.00  0.00    -0.337 N 
ATOM     17  H   UNL A   1      30.399  23.050  26.504  1.00  0.00     0.345 HD
ATOM     18  H   UNL A   1      30.720  21.467  26.911  1.00  0.00     0.345 HD
ATOM     19  H   UNL A   1      30.338  21.862  25.338  1.00  0.00     0.345 HD
ENDBRANCH  14  16
BRANCH  14  20
ATOM     20  C   UNL A   1      33.284  22.065  27.012  1.00  0.00     0.453 C 
ATOM     21  F   UNL A   1      32.834  22.531  28.205  1.00  0.00    -0.164 F 
ATOM     22  F   UNL A   1      33.448  20.732  27.160  1.00  0.00    -0.164 F 
ATOM     23  F   UNL A   1      34.494  22.624  26.816  1.00  0.00    -0.164 F 
ENDBRANCH  14  20
ENDBRANCH  12  14
ENDBRANCH   8  12
ENDBRANCH   3   5
ENDBRANCH   2   3
ENDBRANCH   1   2
BRANCH   1  24
ATOM     24  C   UNL A   1      37.729  23.597  26.233  1.00  0.00     0.275 C 
BRANCH  24  25
ATOM     25  O   UNL A   1      38.660  24.677  26.082  1.00  0.00    -0.458 OA
BRANCH  25  26
ATOM     26  C   UNL A   1      39.874  24.524  26.661  1.00  0.00     0.338 C 
ATOM     27  O   UNL A   1      40.731  23.702  26.377  1.00  0.00    -0.246 OA
BRANCH  26  28
ATOM     28  C   UNL A   1      40.011  25.579  27.683  1.00  0.00     0.060 A 
ATOM     29  C   UNL A   1      39.248  25.465  28.838  1.00  0.00     0.016 A 
ATOM     30  C   UNL A   1      40.838  26.691  27.510  1.00  0.00     0.016 A 
ATOM     31  C   UNL A   1      39.319  26.448  29.817  1.00  0.00     0.010 A 
ATOM     32  C   UNL A   1      40.934  27.662  28.528  1.00  0.00     0.010 A 
ATOM     33  C   UNL A   1      40.174  27.543  29.701  1.00  0.00    -0.014 A 
BRANCH  33  34
ATOM     34  C   UNL A   1      40.109  28.577  30.775  1.00  0.00     0.031 A 
ATOM     35  C   UNL A   1      41.232  28.673  31.769  1.00  0.00     0.074 A 
ATOM     36  C   UNL A   1      39.178  29.556  30.759  1.00  0.00     0.049 A 
ATOM     37  N   UNL A   1      41.356  29.466  32.801  1.00  0.00    -0.248 NA
ATOM     38  C   UNL A   1      42.372  27.769  31.558  1.00  0.00     0.031 C 
ATOM     39  C   UNL A   1      38.118  29.697  29.761  1.00  0.00     0.029 A 
ATOM     40  N   UNL A   1      39.017  30.657  31.567  1.00  0.00    -0.354 N 
ATOM     41  C   UNL A   1      42.550  29.103  33.412  1.00  0.00     0.074 A 
ATOM     42  C   UNL A   1      43.137  28.057  32.601  1.00  0.00     0.031 C 
ATOM     43  C   UNL A   1      37.477  30.862  29.965  1.00  0.00     0.029 A 
ATOM     44  C   UNL A   1      38.012  31.509  31.162  1.00  0.00     0.049 A 
ATOM     45  H   UNL A   1      39.570  30.824  32.363  1.00  0.00     0.167 HD
ATOM     46  C   UNL A   1      43.084  29.571  34.563  1.00  0.00     0.037 A 
ATOM     47  C   UNL A   1      37.559  32.660  31.704  1.00  0.00     0.037 A 
ATOM     48  C   UNL A   1      42.525  30.637  35.353  1.00  0.00     0.049 A 
ATOM     49  C   UNL A   1      38.134  33.133  33.019  1.00  0.00     0.074 A 
ATOM     50  C   UNL A   1      42.950  31.117  36.579  1.00  0.00     0.029 A 
ATOM     51  N   UNL A   1      41.430  31.403  34.985  1.00  0.00    -0.354 N 
ATOM     52  N   UNL A   1      39.165  32.672  33.685  1.00  0.00    -0.248 NA
ATOM     53  C   UNL A   1      37.440  34.247  33.685  1.00  0.00     0.031 C 
ATOM     54  C   UNL A   1      42.087  32.146  36.973  1.00  0.00     0.029 A 
ATOM     55  C   UNL A   1      41.152  32.338  35.969  1.00  0.00     0.049 A 
ATOM     56  H   UNL A   1      40.923  31.298  34.146  1.00  0.00     0.167 HD
ATOM     57  C   UNL A   1      39.232  33.427  34.854  1.00  0.00     0.074 A 
ATOM     58  C   UNL A   1      38.166  34.405  34.783  1.00  0.00     0.031 C 
ATOM     59  C   UNL A   1      40.082  33.301  35.903  1.00  0.00     0.037 A 
BRANCH  46  60
ATOM     60  C   UNL A   1      44.271  28.828  35.102  1.00  0.00     0.058 A 
ATOM     61  C   UNL A   1      45.591  29.168  34.777  1.00  0.00     0.135 A 
ATOM     62  C   UNL A   1      44.061  27.726  35.947  1.00  0.00     0.135 A 
ATOM     63  F   UNL A   1      45.842  30.195  33.950  1.00  0.00    -0.206 F 
ATOM     64  C   UNL A   1      46.664  28.415  35.244  1.00  0.00     0.059 A 
ATOM     65  C   UNL A   1      45.118  26.975  36.444  1.00  0.00     0.059 A 
ATOM     66  F   UNL A   1      42.813  27.359  36.281  1.00  0.00    -0.206 F 
ATOM     67  C   UNL A   1      46.416  27.315  36.070  1.00  0.00     0.060 A 
BRANCH  67  68
ATOM     68  S   UNL A   1      47.810  26.321  36.640  1.00  0.00     0.124 S 
ATOM     69  O   UNL A   1      47.708  25.154  35.769  1.00  0.00    -0.237 OA
ATOM     70  O   UNL A   1      48.947  27.201  36.391  1.00  0.00    -0.237 OA
ATOM     71  O   UNL A   1      47.504  26.082  38.047  1.00  0.00    -0.744 OA
ENDBRANCH  67  68
ENDBRANCH  46  60
BRANCH  47  72
ATOM     72  C   UNL A   1      36.456  33.434  31.061  1.00  0.00     0.058 A 
ATOM     73  C   UNL A   1      35.153  33.404  31.584  1.00  0.00     0.135 A 
ATOM     74  C   UNL A   1      36.663  34.170  29.884  1.00  0.00     0.135 A 
ATOM     75  F   UNL A   1      34.891  32.692  32.690  1.00  0.00    -0.206 F 
ATOM     76  C   UNL A   1      34.096  34.066  30.961  1.00  0.00     0.059 A 
ATOM     77  C   UNL A   1      35.630  34.867  29.262  1.00  0.00     0.059 A 
ATOM     78  F   UNL A   1      37.884  34.223  29.328  1.00  0.00    -0.206 F 
ATOM     79  C   UNL A   1      34.347  34.797  29.799  1.00  0.00     0.060 A 
BRANCH  79  80
ATOM     80  S   UNL A   1      32.986  35.687  29.011  1.00  0.00     0.124 S 
ATOM     81  O   UNL A   1      32.370  34.634  28.214  1.00  0.00    -0.237 OA
ATOM     82  O   UNL A   1      32.213  36.155  30.157  1.00  0.00    -0.237 OA
ATOM     83  O   UNL A   1      33.669  36.734  28.256  1.00  0.00    -0.744 OA
ENDBRANCH  79  80
ENDBRANCH  47  72
BRANCH  59  84
ATOM     84  C   UNL A   1      39.888  34.227  37.075  1.00  0.00     0.058 A 
ATOM     85  C   UNL A   1      40.448  35.516  37.088  1.00  0.00     0.135 A 
ATOM     86  C   UNL A   1      39.100  33.847  38.172  1.00  0.00     0.135 A 
ATOM     87  F   UNL A   1      41.213  35.930  36.066  1.00  0.00    -0.206 F 
ATOM     88  C   UNL A   1      40.250  36.385  38.157  1.00  0.00     0.059 A 
ATOM     89  C   UNL A   1      38.871  34.709  39.241  1.00  0.00     0.059 A 
ATOM     90  F   UNL A   1      38.532  32.631  38.208  1.00  0.00    -0.206 F 
ATOM     91  C   UNL A   1      39.461  35.972  39.231  1.00  0.00     0.060 A 
BRANCH  91  92
ATOM     92  S   UNL A   1      39.189  37.119  40.600  1.00  0.00     0.124 S 
ATOM     93  O   UNL A   1      38.550  36.255  41.586  1.00  0.00    -0.237 OA
ATOM     94  O   UNL A   1      40.545  37.552  40.923  1.00  0.00    -0.237 OA
ATOM     95  O   UNL A   1      38.333  38.147  40.017  1.00  0.00    -0.744 OA
ENDBRANCH  91  92
ENDBRANCH  59  84
ENDBRANCH  33  34
ENDBRANCH  26  28
ENDBRANCH  25  26
ENDBRANCH  24  25
ENDBRANCH   1  24
TORSDOF 19
ENDMDL
MODEL 2
REMARK VINA RESULT:     -10.2      2.358      3.010
REMARK SMILES CC[C@@H]1SC[C@H](C(=O)OCCOC(=O)c2ccc(-c3c4nc(c(-c5c(F)cc(S(=O)(=O)[O-])cc5F)c5ccc([nH]5)c(-c5c(F)cc(S(=O)(=O)[O-])cc5F)c5nc(c(-c6c(F)cc(S(=O)(=O)[O-])cc6F)c6ccc3[nH]6)C=C5)C=C4)cc2)N1C(=O)[C@](C)([NH3+])C(F)(F)F
REMARK SMILES IDX 10 1 9 2 7 3 8 4 6 5 3 6 4 7 81 8 5 9 2 10 1 11 82 12 83 13
REMARK SMILES IDX 84 14 85 15 86 16 87 20 88 21 89 22 90 23 11 24 12 25 13 26
REMARK SMILES IDX 14 27 15 28 16 29 80 30 17 31 79 32 18 33 19 34 20 35 73 36
REMARK SMILES IDX 21 37 78 38 72 39 74 40 22 41 77 42 71 43 70 44 23 46 57 47
REMARK SMILES IDX 36 48 56 49 37 50 40 51 55 52 75 53 38 54 39 55 54 57 76 58
REMARK SMILES IDX 41 59 24 60 25 61 34 62 26 63 27 64 33 65 35 66 28 67 29 68
REMARK SMILES IDX 30 69 31 70 32 71 58 72 59 73 68 74 60 75 61 76 67 77 69 78
REMARK SMILES IDX 62 79 63 80 64 81 65 82 66 83 42 84 43 85 52 86 44 87 45 88
REMARK SMILES IDX 51 89 53 90 46 91 47 92 48 93 49 94 50 95
REMARK H PARENT 86 17 86 18 86 19 74 45 40 56
REMARK Flexibility Score: inf
ROOT
ATOM      1  C   UNL A   1      35.568  23.457  24.684  1.00  0.00     0.274 C 
ENDROOT
BRANCH   1   2
ATOM      2  O   UNL A   1      35.008  24.743  25.039  1.00  0.00    -0.461 OA
BRANCH   2   3
ATOM      3  C   UNL A   1      33.708  24.770  25.478  1.00  0.00     0.329 C 
ATOM      4  O   UNL A   1      33.334  24.387  26.571  1.00  0.00    -0.250 OA
BRANCH   3   5
ATOM      5  C   UNL A   1      32.805  25.296  24.352  1.00  0.00     0.206 C 
ATOM      6  C   UNL A   1      30.991  26.517  23.441  1.00  0.00     0.144 C 
ATOM      7  S   UNL A   1      30.383  24.807  23.317  1.00  0.00    -0.134 SA
ATOM      8  N   UNL A   1      31.924  26.487  24.574  1.00  0.00    -0.310 N 
ATOM      9  C   UNL A   1      31.932  24.110  23.921  1.00  0.00     0.109 C 
BRANCH   6  10
ATOM     10  C   UNL A   1      29.827  27.507  23.445  1.00  0.00     0.033 C 
ATOM     11  C   UNL A   1      30.083  28.689  22.508  1.00  0.00     0.007 C 
ENDBRANCH   6  10
BRANCH   8  12
ATOM     12  C   UNL A   1      32.583  27.688  24.806  1.00  0.00     0.294 C 
ATOM     13  O   UNL A   1      33.331  28.112  23.914  1.00  0.00    -0.267 OA
BRANCH  12  14
ATOM     14  C   UNL A   1      32.387  28.502  26.136  1.00  0.00     0.267 C 
ATOM     15  C   UNL A   1      31.480  27.901  27.206  1.00  0.00     0.100 C 
BRANCH  14  16
ATOM     16  N   UNL A   1      31.651  29.767  25.756  1.00  0.00    -0.337 N 
ATOM     17  H   UNL A   1      30.651  29.636  25.907  1.00  0.00     0.345 HD
ATOM     18  H   UNL A   1      31.822  29.978  24.773  1.00  0.00     0.345 HD
ATOM     19  H   UNL A   1      31.983  30.539  26.333  1.00  0.00     0.345 HD
ENDBRANCH  14  16
BRANCH  14  20
ATOM     20  C   UNL A   1      33.780  28.672  26.787  1.00  0.00     0.453 C 
ATOM     21  F   UNL A   1      33.672  28.742  28.138  1.00  0.00    -0.164 F 
ATOM     22  F   UNL A   1      34.587  27.621  26.522  1.00  0.00    -0.164 F 
ATOM     23  F   UNL A   1      34.406  29.799  26.395  1.00  0.00    -0.164 F 
ENDBRANCH  14  20
ENDBRANCH  12  14
ENDBRANCH   8  12
ENDBRANCH   3   5
ENDBRANCH   2   3
ENDBRANCH   1   2
BRANCH   1  24
ATOM     24  C   UNL A   1      36.645  23.070  25.695  1.00  0.00     0.275 C 
BRANCH  24  25
ATOM     25  O   UNL A   1      37.834  23.799  25.366  1.00  0.00    -0.458 OA
BRANCH  25  26
ATOM     26  C   UNL A   1      38.974  23.430  25.997  1.00  0.00     0.338 C 
ATOM     27  O   UNL A   1      39.592  22.386  25.858  1.00  0.00    -0.246 OA
BRANCH  26  28
ATOM     28  C   UNL A   1      39.381  24.552  26.864  1.00  0.00     0.060 A 
ATOM     29  C   UNL A   1      39.003  24.509  28.200  1.00  0.00     0.016 A 
ATOM     30  C   UNL A   1      40.088  25.656  26.382  1.00  0.00     0.016 A 
ATOM     31  C   UNL A   1      39.337  25.556  29.050  1.00  0.00     0.010 A 
ATOM     32  C   UNL A   1      40.457  26.694  27.263  1.00  0.00     0.010 A 
ATOM     33  C   UNL A   1      40.088  26.648  28.615  1.00  0.00    -0.014 A 
BRANCH  33  34
ATOM     34  C   UNL A   1      40.319  27.751  29.593  1.00  0.00     0.031 A 
ATOM     35  C   UNL A   1      41.657  27.864  30.268  1.00  0.00     0.074 A 
ATOM     36  C   UNL A   1      39.438  28.764  29.737  1.00  0.00     0.049 A 
ATOM     37  N   UNL A   1      42.055  28.715  31.176  1.00  0.00    -0.248 NA
ATOM     38  C   UNL A   1      42.685  26.900  29.848  1.00  0.00     0.031 C 
ATOM     39  C   UNL A   1      38.166  28.885  29.026  1.00  0.00     0.029 A 
ATOM     40  N   UNL A   1      39.512  29.922  30.477  1.00  0.00    -0.354 N 
ATOM     41  C   UNL A   1      43.354  28.343  31.497  1.00  0.00     0.074 A 
ATOM     42  C   UNL A   1      43.694  27.222  30.644  1.00  0.00     0.031 C 
ATOM     43  C   UNL A   1      37.625  30.087  29.297  1.00  0.00     0.029 A 
ATOM     44  C   UNL A   1      38.459  30.787  30.273  1.00  0.00     0.049 A 
ATOM     45  H   UNL A   1      40.251  30.116  31.097  1.00  0.00     0.167 HD
ATOM     46  C   UNL A   1      44.172  28.861  32.442  1.00  0.00     0.037 A 
ATOM     47  C   UNL A   1      38.184  31.989  30.824  1.00  0.00     0.037 A 
ATOM     48  C   UNL A   1      43.854  29.999  33.266  1.00  0.00     0.049 A 
ATOM     49  C   UNL A   1      39.082  32.521  31.918  1.00  0.00     0.074 A 
ATOM     50  C   UNL A   1      44.584  30.538  34.311  1.00  0.00     0.029 A 
ATOM     51  N   UNL A   1      42.721  30.785  33.126  1.00  0.00    -0.354 N 
ATOM     52  N   UNL A   1      40.235  32.061  32.339  1.00  0.00    -0.248 NA
ATOM     53  C   UNL A   1      38.604  33.704  32.652  1.00  0.00     0.031 C 
ATOM     54  C   UNL A   1      43.873  31.626  34.829  1.00  0.00     0.029 A 
ATOM     55  C   UNL A   1      42.722  31.792  34.077  1.00  0.00     0.049 A 
ATOM     56  H   UNL A   1      42.018  30.647  32.450  1.00  0.00     0.167 HD
ATOM     57  C   UNL A   1      40.610  32.886  33.397  1.00  0.00     0.074 A 
ATOM     58  C   UNL A   1      39.586  33.901  33.522  1.00  0.00     0.031 C 
ATOM     59  C   UNL A   1      41.693  32.793  34.209  1.00  0.00     0.037 A 
BRANCH  46  60
ATOM     60  C   UNL A   1      45.436  28.105  32.723  1.00  0.00     0.058 A 
ATOM     61  C   UNL A   1      46.639  28.361  32.050  1.00  0.00     0.135 A 
ATOM     62  C   UNL A   1      45.420  27.075  33.678  1.00  0.00     0.135 A 
ATOM     63  F   UNL A   1      46.698  29.315  31.108  1.00  0.00    -0.206 F 
ATOM     64  C   UNL A   1      47.776  27.596  32.291  1.00  0.00     0.059 A 
ATOM     65  C   UNL A   1      46.549  26.315  33.952  1.00  0.00     0.059 A 
ATOM     66  F   UNL A   1      44.289  26.790  34.343  1.00  0.00    -0.206 F 
ATOM     67  C   UNL A   1      47.717  26.569  33.237  1.00  0.00     0.060 A 
BRANCH  67  68
ATOM     68  S   UNL A   1      49.184  25.555  33.516  1.00  0.00     0.124 S 
ATOM     69  O   UNL A   1      48.594  24.229  33.668  1.00  0.00    -0.237 OA
ATOM     70  O   UNL A   1      49.953  25.771  32.294  1.00  0.00    -0.237 OA
ATOM     71  O   UNL A   1      49.767  26.126  34.727  1.00  0.00    -0.744 OA
ENDBRANCH  67  68
ENDBRANCH  46  60
BRANCH  47  72
ATOM     72  C   UNL A   1      36.975  32.766  30.421  1.00  0.00     0.058 A 
ATOM     73  C   UNL A   1      35.730  32.531  31.027  1.00  0.00     0.135 A 
ATOM     74  C   UNL A   1      37.021  33.713  29.386  1.00  0.00     0.135 A 
ATOM     75  F   UNL A   1      35.621  31.614  32.001  1.00  0.00    -0.206 F 
ATOM     76  C   UNL A   1      34.577  33.198  30.619  1.00  0.00     0.059 A 
ATOM     77  C   UNL A   1      35.889  34.416  28.983  1.00  0.00     0.059 A 
ATOM     78  F   UNL A   1      38.180  33.969  28.758  1.00  0.00    -0.206 F 
ATOM     79  C   UNL A   1      34.668  34.142  29.595  1.00  0.00     0.060 A 
BRANCH  79  80
ATOM     80  S   UNL A   1      33.181  35.036  29.089  1.00  0.00     0.124 S 
ATOM     81  O   UNL A   1      32.593  34.107  28.132  1.00  0.00    -0.237 OA
ATOM     82  O   UNL A   1      32.465  35.190  30.351  1.00  0.00    -0.237 OA
ATOM     83  O   UNL A   1      33.715  36.272  28.525  1.00  0.00    -0.744 OA
ENDBRANCH  79  80
ENDBRANCH  47  72
BRANCH  59  84
ATOM     84  C   UNL A   1      41.822  33.800  35.321  1.00  0.00     0.058 A 
ATOM     85  C   UNL A   1      42.462  35.034  35.119  1.00  0.00     0.135 A 
ATOM     86  C   UNL A   1      41.261  33.554  36.585  1.00  0.00     0.135 A 
ATOM     87  F   UNL A   1      43.018  35.319  33.932  1.00  0.00    -0.206 F 
ATOM     88  C   UNL A   1      42.561  35.979  36.137  1.00  0.00     0.059 A 
ATOM     89  C   UNL A   1      41.328  34.495  37.609  1.00  0.00     0.059 A 
ATOM     90  F   UNL A   1      40.628  32.396  36.830  1.00  0.00    -0.206 F 
ATOM     91  C   UNL A   1      41.992  35.700  37.380  1.00  0.00     0.060 A 
BRANCH  91  92
ATOM     92  S   UNL A   1      42.102  36.945  38.684  1.00  0.00     0.124 S 
ATOM     93  O   UNL A   1      43.097  37.859  38.135  1.00  0.00    -0.237 OA
ATOM     94  O   UNL A   1      40.737  37.458  38.747  1.00  0.00    -0.237 OA
ATOM     95  O   UNL A   1      42.529  36.178  39.850  1.00  0.00    -0.744 OA
ENDBRANCH  91  92
ENDBRANCH  59  84
ENDBRANCH  33  34
ENDBRANCH  26  28
ENDBRANCH  25  26
ENDBRANCH  24  25
ENDBRANCH   1  24
TORSDOF 19
ENDMDL
MODEL 3
REMARK VINA RESULT:     -10.2      1.696      8.546
REMARK SMILES CC[C@@H]1SC[C@H](C(=O)OCCOC(=O)c2ccc(-c3c4nc(c(-c5c(F)cc(S(=O)(=O)[O-])cc5F)c5ccc([nH]5)c(-c5c(F)cc(S(=O)(=O)[O-])cc5F)c5nc(c(-c6c(F)cc(S(=O)(=O)[O-])cc6F)c6ccc3[nH]6)C=C5)C=C4)cc2)N1C(=O)[C@](C)([NH3+])C(F)(F)F
REMARK SMILES IDX 10 1 9 2 7 3 8 4 6 5 3 6 4 7 81 8 5 9 2 10 1 11 82 12 83 13
REMARK SMILES IDX 84 14 85 15 86 16 87 20 88 21 89 22 90 23 11 24 12 25 13 26
REMARK SMILES IDX 14 27 15 28 16 29 80 30 17 31 79 32 18 33 19 34 20 35 73 36
REMARK SMILES IDX 21 37 78 38 72 39 74 40 22 41 77 42 71 43 70 44 23 46 57 47
REMARK SMILES IDX 36 48 56 49 37 50 40 51 55 52 75 53 38 54 39 55 54 57 76 58
REMARK SMILES IDX 41 59 24 60 25 61 34 62 26 63 27 64 33 65 35 66 28 67 29 68
REMARK SMILES IDX 30 69 31 70 32 71 58 72 59 73 68 74 60 75 61 76 67 77 69 78
REMARK SMILES IDX 62 79 63 80 64 81 65 82 66 83 42 84 43 85 52 86 44 87 45 88
REMARK SMILES IDX 51 89 53 90 46 91 47 92 48 93 49 94 50 95
REMARK H PARENT 86 17 86 18 86 19 74 45 40 56
REMARK Flexibility Score: inf
ROOT
ATOM      1  C   UNL A   1      37.680  23.485  24.999  1.00  0.00     0.274 C 
ENDROOT
BRANCH   1   2
ATOM      2  O   UNL A   1      36.821  22.350  24.744  1.00  0.00    -0.461 OA
BRANCH   2   3
ATOM      3  C   UNL A   1      35.820  22.506  23.818  1.00  0.00     0.329 C 
ATOM      4  O   UNL A   1      35.923  23.132  22.780  1.00  0.00    -0.250 OA
BRANCH   3   5
ATOM      5  C   UNL A   1      34.544  21.824  24.334  1.00  0.00     0.206 C 
ATOM      6  C   UNL A   1      32.365  21.755  25.263  1.00  0.00     0.144 C 
ATOM      7  S   UNL A   1      33.384  21.225  26.673  1.00  0.00    -0.134 SA
ATOM      8  N   UNL A   1      33.266  22.595  24.464  1.00  0.00    -0.310 N 
ATOM      9  C   UNL A   1      34.903  21.232  25.703  1.00  0.00     0.109 C 
BRANCH   6  10
ATOM     10  C   UNL A   1      31.028  22.321  25.741  1.00  0.00     0.033 C 
ATOM     11  C   UNL A   1      31.209  23.299  26.904  1.00  0.00     0.007 C 
ENDBRANCH   6  10
BRANCH   8  12
ATOM     12  C   UNL A   1      32.717  23.052  23.272  1.00  0.00     0.294 C 
ATOM     13  O   UNL A   1      32.306  22.204  22.467  1.00  0.00    -0.267 OA
BRANCH  12  14
ATOM     14  C   UNL A   1      32.594  24.584  22.945  1.00  0.00     0.267 C 
ATOM     15  C   UNL A   1      32.864  25.026  21.509  1.00  0.00     0.100 C 
BRANCH  14  16
ATOM     16  N   UNL A   1      33.699  25.274  23.714  1.00  0.00    -0.337 N 
ATOM     17  H   UNL A   1      33.302  26.024  24.279  1.00  0.00     0.345 HD
ATOM     18  H   UNL A   1      34.376  25.664  23.059  1.00  0.00     0.345 HD
ATOM     19  H   UNL A   1      34.162  24.598  24.321  1.00  0.00     0.345 HD
ENDBRANCH  14  16
BRANCH  14  20
ATOM     20  C   UNL A   1      31.143  25.015  23.270  1.00  0.00     0.453 C 
ATOM     21  F   UNL A   1      30.741  26.010  22.439  1.00  0.00    -0.164 F 
ATOM     22  F   UNL A   1      30.270  23.998  23.097  1.00  0.00    -0.164 F 
ATOM     23  F   UNL A   1      31.006  25.485  24.525  1.00  0.00    -0.164 F 
ENDBRANCH  14  20
ENDBRANCH  12  14
ENDBRANCH   8  12
ENDBRANCH   3   5
ENDBRANCH   2   3
ENDBRANCH   1   2
BRANCH   1  24
ATOM     24  C   UNL A   1      38.617  23.167  26.162  1.00  0.00     0.275 C 
BRANCH  24  25
ATOM     25  O   UNL A   1      38.844  24.385  26.885  1.00  0.00    -0.458 OA
BRANCH  25  26
ATOM     26  C   UNL A   1      39.995  25.047  26.622  1.00  0.00     0.338 C 
ATOM     27  O   UNL A   1      40.721  24.913  25.649  1.00  0.00    -0.246 OA
BRANCH  26  28
ATOM     28  C   UNL A   1      40.201  26.021  27.710  1.00  0.00     0.060 A 
ATOM     29  C   UNL A   1      39.375  25.934  28.823  1.00  0.00     0.016 A 
ATOM     30  C   UNL A   1      41.158  27.037  27.639  1.00  0.00     0.016 A 
ATOM     31  C   UNL A   1      39.510  26.847  29.862  1.00  0.00     0.010 A 
ATOM     32  C   UNL A   1      41.313  27.933  28.718  1.00  0.00     0.010 A 
ATOM     33  C   UNL A   1      40.488  27.839  29.848  1.00  0.00    -0.014 A 
BRANCH  33  34
ATOM     34  C   UNL A   1      40.490  28.813  30.978  1.00  0.00     0.031 A 
ATOM     35  C   UNL A   1      39.406  29.852  31.053  1.00  0.00     0.074 A 
ATOM     36  C   UNL A   1      41.311  28.663  32.040  1.00  0.00     0.049 A 
ATOM     37  N   UNL A   1      39.243  30.815  31.921  1.00  0.00    -0.248 NA
ATOM     38  C   UNL A   1      38.360  29.781  30.023  1.00  0.00     0.031 C 
ATOM     39  C   UNL A   1      42.308  27.603  32.194  1.00  0.00     0.029 A 
ATOM     40  N   UNL A   1      41.390  29.362  33.223  1.00  0.00    -0.354 N 
ATOM     41  C   UNL A   1      38.122  31.516  31.498  1.00  0.00     0.074 A 
ATOM     42  C   UNL A   1      37.613  30.832  30.327  1.00  0.00     0.031 C 
ATOM     43  C   UNL A   1      42.831  27.671  33.432  1.00  0.00     0.029 A 
ATOM     44  C   UNL A   1      42.282  28.832  34.130  1.00  0.00     0.049 A 
ATOM     45  H   UNL A   1      40.856  30.168  33.406  1.00  0.00     0.167 HD
ATOM     46  C   UNL A   1      37.590  32.649  32.015  1.00  0.00     0.037 A 
ATOM     47  C   UNL A   1      42.634  29.246  35.366  1.00  0.00     0.037 A 
ATOM     48  C   UNL A   1      38.067  33.311  33.201  1.00  0.00     0.049 A 
ATOM     49  C   UNL A   1      42.069  30.543  35.898  1.00  0.00     0.074 A 
ATOM     50  C   UNL A   1      37.647  34.511  33.746  1.00  0.00     0.029 A 
ATOM     51  N   UNL A   1      39.060  32.821  34.036  1.00  0.00    -0.354 N 
ATOM     52  N   UNL A   1      41.121  31.299  35.400  1.00  0.00    -0.248 NA
ATOM     53  C   UNL A   1      42.670  31.071  37.134  1.00  0.00     0.031 C 
ATOM     54  C   UNL A   1      38.412  34.768  34.890  1.00  0.00     0.029 A 
ATOM     55  C   UNL A   1      39.279  33.703  35.081  1.00  0.00     0.049 A 
ATOM     56  H   UNL A   1      39.538  31.970  33.905  1.00  0.00     0.167 HD
ATOM     57  C   UNL A   1      41.025  32.399  36.249  1.00  0.00     0.074 A 
ATOM     58  C   UNL A   1      41.978  32.188  37.319  1.00  0.00     0.031 C 
ATOM     59  C   UNL A   1      40.238  33.498  36.137  1.00  0.00     0.037 A 
BRANCH  46  60
ATOM     60  C   UNL A   1      36.512  33.311  31.210  1.00  0.00     0.058 A 
ATOM     61  C   UNL A   1      36.765  33.966  29.997  1.00  0.00     0.135 A 
ATOM     62  C   UNL A   1      35.194  33.306  31.696  1.00  0.00     0.135 A 
ATOM     63  F   UNL A   1      38.012  34.024  29.505  1.00  0.00    -0.206 F 
ATOM     64  C   UNL A   1      35.750  34.625  29.309  1.00  0.00     0.059 A 
ATOM     65  C   UNL A   1      34.162  33.937  31.014  1.00  0.00     0.059 A 
ATOM     66  F   UNL A   1      34.906  32.696  32.857  1.00  0.00    -0.206 F 
ATOM     67  C   UNL A   1      34.454  34.613  29.832  1.00  0.00     0.060 A 
BRANCH  67  68
ATOM     68  S   UNL A   1      33.152  35.503  28.956  1.00  0.00     0.124 S 
ATOM     69  O   UNL A   1      33.928  36.475  28.192  1.00  0.00    -0.237 OA
ATOM     70  O   UNL A   1      32.517  34.444  28.175  1.00  0.00    -0.237 OA
ATOM     71  O   UNL A   1      32.335  36.056  30.032  1.00  0.00    -0.744 OA
ENDBRANCH  67  68
ENDBRANCH  46  60
BRANCH  47  72
ATOM     72  C   UNL A   1      43.621  28.482  36.185  1.00  0.00     0.058 A 
ATOM     73  C   UNL A   1      44.989  28.802  36.152  1.00  0.00     0.135 A 
ATOM     74  C   UNL A   1      43.234  27.383  36.968  1.00  0.00     0.135 A 
ATOM     75  F   UNL A   1      45.420  29.823  35.396  1.00  0.00    -0.206 F 
ATOM     76  C   UNL A   1      45.934  28.059  36.857  1.00  0.00     0.059 A 
ATOM     77  C   UNL A   1      44.155  26.646  37.706  1.00  0.00     0.059 A 
ATOM     78  F   UNL A   1      41.943  27.019  37.026  1.00  0.00    -0.206 F 
ATOM     79  C   UNL A   1      45.505  26.982  37.633  1.00  0.00     0.060 A 
BRANCH  79  80
ATOM     80  S   UNL A   1      46.725  26.041  38.578  1.00  0.00     0.124 S 
ATOM     81  O   UNL A   1      46.359  24.670  38.243  1.00  0.00    -0.237 OA
ATOM     82  O   UNL A   1      47.987  26.518  38.023  1.00  0.00    -0.237 OA
ATOM     83  O   UNL A   1      46.461  26.447  39.956  1.00  0.00    -0.744 OA
ENDBRANCH  79  80
ENDBRANCH  47  72
BRANCH  59  84
ATOM     84  C   UNL A   1      40.383  34.572  37.182  1.00  0.00     0.058 A 
ATOM     85  C   UNL A   1      41.394  35.544  37.095  1.00  0.00     0.135 A 
ATOM     86  C   UNL A   1      39.480  34.664  38.253  1.00  0.00     0.135 A 
ATOM     87  F   UNL A   1      42.287  35.502  36.095  1.00  0.00    -0.206 F 
ATOM     88  C   UNL A   1      41.518  36.554  38.046  1.00  0.00     0.059 A 
ATOM     89  C   UNL A   1      39.571  35.679  39.201  1.00  0.00     0.059 A 
ATOM     90  F   UNL A   1      38.488  33.769  38.379  1.00  0.00    -0.206 F 
ATOM     91  C   UNL A   1      40.602  36.613  39.097  1.00  0.00     0.060 A 
BRANCH  91  92
ATOM     92  S   UNL A   1      40.755  37.944  40.308  1.00  0.00     0.124 S 
ATOM     93  O   UNL A   1      41.840  38.736  39.740  1.00  0.00    -0.237 OA
ATOM     94  O   UNL A   1      39.433  38.562  40.267  1.00  0.00    -0.237 OA
ATOM     95  O   UNL A   1      41.072  37.241  41.547  1.00  0.00    -0.744 OA
ENDBRANCH  91  92
ENDBRANCH  59  84
ENDBRANCH  33  34
ENDBRANCH  26  28
ENDBRANCH  25  26
ENDBRANCH  24  25
ENDBRANCH   1  24
TORSDOF 19
ENDMDL
