MODEL 1
REMARK VINA RESULT:     -10.6      0.000      0.000
REMARK SMILES Cn1cc2cc(C(=O)OCCOC(=O)c3ccc(-c4c5nc(c(-c6c(F)cc(S(=O)(=O)[O-])cc6F)c6ccc([nH]6)c(-c6c(F)cc(S(=O)(=O)[O-])cc6F)c6nc(c(-c7c(F)cc(S(=O)(=O)[O-])cc7F)c7ccc4[nH]7)C=C6)C=C5)cc3)ccc2n1
REMARK SMILES IDX 12 1 11 2 10 3 9 4 7 5 8 6 6 7 1 8 2 9 3 10 84 11 4 12 83 13
REMARK SMILES IDX 5 14 82 15 81 16 13 17 14 18 15 19 16 20 80 21 17 22 79 23
REMARK SMILES IDX 18 24 19 25 20 26 73 27 21 28 78 29 72 30 74 31 22 32 77 33
REMARK SMILES IDX 71 34 70 35 23 37 57 38 36 39 56 40 37 41 40 42 55 43 75 44
REMARK SMILES IDX 38 45 39 46 54 48 76 49 41 50 24 51 25 52 34 53 26 54 27 55
REMARK SMILES IDX 33 56 35 57 28 58 29 59 30 60 31 61 32 62 58 63 59 64 68 65
REMARK SMILES IDX 60 66 61 67 67 68 69 69 62 70 63 71 64 72 65 73 66 74 42 75
REMARK SMILES IDX 43 76 52 77 44 78 45 79 51 80 53 81 46 82 47 83 48 84 49 85
REMARK SMILES IDX 50 86
REMARK H PARENT 74 36 40 47
REMARK Flexibility Score: inf
ROOT
ATOM      1  O   UNL A   1      34.426  31.864  28.904  1.00  0.00    -0.458 OA
ENDROOT
BRANCH   1   2
ATOM      2  C   UNL A   1      34.533  33.063  28.117  1.00  0.00     0.275 C 
BRANCH   2   3
ATOM      3  C   UNL A   1      33.914  34.239  28.871  1.00  0.00     0.275 C 
BRANCH   3   4
ATOM      4  O   UNL A   1      33.652  33.897  30.249  1.00  0.00    -0.458 OA
BRANCH   4   5
ATOM      5  C   UNL A   1      33.959  34.860  31.158  1.00  0.00     0.338 C 
ATOM      6  O   UNL A   1      33.586  36.017  31.139  1.00  0.00    -0.246 OA
BRANCH   5   7
ATOM      7  C   UNL A   1      34.757  34.293  32.277  1.00  0.00     0.060 A 
ATOM      8  C   UNL A   1      38.471  30.598  34.890  1.00  0.00     0.173 C 
ATOM      9  N   UNL A   1      37.552  31.579  34.365  1.00  0.00    -0.275 N 
ATOM     10  C   UNL A   1      37.087  31.635  33.084  1.00  0.00     0.117 A 
ATOM     11  N   UNL A   1      37.052  32.537  35.184  1.00  0.00    -0.173 NA
ATOM     12  C   UNL A   1      36.225  32.693  33.082  1.00  0.00     0.021 A 
ATOM     13  C   UNL A   1      36.238  33.266  34.400  1.00  0.00     0.092 A 
ATOM     14  C   UNL A   1      35.493  33.120  31.986  1.00  0.00     0.027 A 
ATOM     15  C   UNL A   1      35.461  34.403  34.688  1.00  0.00     0.032 A 
ATOM     16  C   UNL A   1      34.736  34.906  33.576  1.00  0.00     0.018 A 
ENDBRANCH   5   7
ENDBRANCH   4   5
ENDBRANCH   3   4
ENDBRANCH   2   3
ENDBRANCH   1   2
BRANCH   1  17
ATOM     17  C   UNL A   1      34.472  30.703  28.212  1.00  0.00     0.338 C 
ATOM     18  O   UNL A   1      33.579  30.195  27.554  1.00  0.00    -0.246 OA
BRANCH  17  19
ATOM     19  C   UNL A   1      35.813  30.108  28.330  1.00  0.00     0.060 A 
ATOM     20  C   UNL A   1      36.242  29.655  29.573  1.00  0.00     0.016 A 
ATOM     21  C   UNL A   1      36.698  30.134  27.254  1.00  0.00     0.016 A 
ATOM     22  C   UNL A   1      37.583  29.338  29.780  1.00  0.00     0.010 A 
ATOM     23  C   UNL A   1      38.019  29.703  27.438  1.00  0.00     0.010 A 
ATOM     24  C   UNL A   1      38.493  29.343  28.714  1.00  0.00    -0.014 A 
BRANCH  24  25
ATOM     25  C   UNL A   1      39.935  29.020  28.938  1.00  0.00     0.031 A 
ATOM     26  C   UNL A   1      40.868  30.058  29.518  1.00  0.00     0.074 A 
ATOM     27  C   UNL A   1      40.423  27.797  28.639  1.00  0.00     0.049 A 
ATOM     28  N   UNL A   1      42.173  30.037  29.619  1.00  0.00    -0.248 NA
ATOM     29  C   UNL A   1      40.251  31.288  30.040  1.00  0.00     0.031 C 
ATOM     30  C   UNL A   1      39.640  26.676  28.111  1.00  0.00     0.029 A 
ATOM     31  N   UNL A   1      41.695  27.287  28.742  1.00  0.00    -0.354 N 
ATOM     32  C   UNL A   1      42.538  31.271  30.149  1.00  0.00     0.074 A 
ATOM     33  C   UNL A   1      41.314  32.018  30.348  1.00  0.00     0.031 C 
ATOM     34  C   UNL A   1      40.436  25.604  27.980  1.00  0.00     0.029 A 
ATOM     35  C   UNL A   1      41.803  25.982  28.318  1.00  0.00     0.049 A 
ATOM     36  H   UNL A   1      42.458  27.806  29.086  1.00  0.00     0.167 HD
ATOM     37  C   UNL A   1      43.776  31.739  30.442  1.00  0.00     0.037 A 
ATOM     38  C   UNL A   1      42.881  25.186  28.169  1.00  0.00     0.037 A 
ATOM     39  C   UNL A   1      44.987  30.970  30.303  1.00  0.00     0.049 A 
ATOM     40  C   UNL A   1      44.246  25.729  28.480  1.00  0.00     0.074 A 
ATOM     41  C   UNL A   1      46.286  31.347  30.598  1.00  0.00     0.029 A 
ATOM     42  N   UNL A   1      45.047  29.661  29.845  1.00  0.00    -0.354 N 
ATOM     43  N   UNL A   1      44.576  26.918  28.926  1.00  0.00    -0.248 NA
ATOM     44  C   UNL A   1      45.386  24.834  28.246  1.00  0.00     0.031 C 
ATOM     45  C   UNL A   1      47.136  30.280  30.285  1.00  0.00     0.029 A 
ATOM     46  C   UNL A   1      46.362  29.222  29.838  1.00  0.00     0.049 A 
ATOM     47  H   UNL A   1      44.270  29.124  29.567  1.00  0.00     0.167 HD
ATOM     48  C   UNL A   1      45.962  26.910  29.034  1.00  0.00     0.074 A 
ATOM     49  C   UNL A   1      46.406  25.592  28.626  1.00  0.00     0.031 C 
ATOM     50  C   UNL A   1      46.791  27.907  29.430  1.00  0.00     0.037 A 
BRANCH  37  51
ATOM     51  C   UNL A   1      43.892  33.166  30.909  1.00  0.00     0.058 A 
ATOM     52  C   UNL A   1      43.765  33.525  32.261  1.00  0.00     0.135 A 
ATOM     53  C   UNL A   1      44.160  34.191  29.985  1.00  0.00     0.135 A 
ATOM     54  F   UNL A   1      43.496  32.589  33.186  1.00  0.00    -0.206 F 
ATOM     55  C   UNL A   1      43.864  34.851  32.674  1.00  0.00     0.059 A 
ATOM     56  C   UNL A   1      44.291  35.519  30.380  1.00  0.00     0.059 A 
ATOM     57  F   UNL A   1      44.297  33.906  28.681  1.00  0.00    -0.206 F 
ATOM     58  C   UNL A   1      44.122  35.842  31.725  1.00  0.00     0.060 A 
BRANCH  58  59
ATOM     59  S   UNL A   1      44.236  37.559  32.273  1.00  0.00     0.124 S 
ATOM     60  O   UNL A   1      43.272  37.577  33.369  1.00  0.00    -0.237 OA
ATOM     61  O   UNL A   1      45.638  37.673  32.661  1.00  0.00    -0.237 OA
ATOM     62  O   UNL A   1      43.853  38.321  31.088  1.00  0.00    -0.744 OA
ENDBRANCH  58  59
ENDBRANCH  37  51
BRANCH  38  63
ATOM     63  C   UNL A   1      42.707  23.799  27.660  1.00  0.00     0.058 A 
ATOM     64  C   UNL A   1      42.574  22.717  28.541  1.00  0.00     0.135 A 
ATOM     65  C   UNL A   1      42.633  23.532  26.282  1.00  0.00     0.135 A 
ATOM     66  F   UNL A   1      42.652  22.916  29.866  1.00  0.00    -0.206 F 
ATOM     67  C   UNL A   1      42.371  21.420  28.078  1.00  0.00     0.059 A 
ATOM     68  C   UNL A   1      42.402  22.250  25.796  1.00  0.00     0.059 A 
ATOM     69  F   UNL A   1      42.745  24.535  25.398  1.00  0.00    -0.206 F 
ATOM     70  C   UNL A   1      42.278  21.199  26.702  1.00  0.00     0.060 A 
BRANCH  70  71
ATOM     71  S   UNL A   1      41.936  19.527  26.111  1.00  0.00     0.124 S 
ATOM     72  O   UNL A   1      42.766  19.463  24.914  1.00  0.00    -0.237 OA
ATOM     73  O   UNL A   1      42.375  18.706  27.236  1.00  0.00    -0.237 OA
ATOM     74  O   UNL A   1      40.495  19.542  25.883  1.00  0.00    -0.744 OA
ENDBRANCH  70  71
ENDBRANCH  38  63
BRANCH  50  75
ATOM     75  C   UNL A   1      48.262  27.603  29.469  1.00  0.00     0.058 A 
ATOM     76  C   UNL A   1      49.099  27.874  28.376  1.00  0.00     0.135 A 
ATOM     77  C   UNL A   1      48.846  27.069  30.629  1.00  0.00     0.135 A 
ATOM     78  F   UNL A   1      48.587  28.377  27.241  1.00  0.00    -0.206 F 
ATOM     79  C   UNL A   1      50.463  27.604  28.422  1.00  0.00     0.059 A 
ATOM     80  C   UNL A   1      50.212  26.813  30.704  1.00  0.00     0.059 A 
ATOM     81  F   UNL A   1      48.091  26.798  31.704  1.00  0.00    -0.206 F 
ATOM     82  C   UNL A   1      51.010  27.074  29.592  1.00  0.00     0.060 A 
BRANCH  82  83
ATOM     83  S   UNL A   1      52.787  26.754  29.651  1.00  0.00     0.124 S 
ATOM     84  O   UNL A   1      52.885  25.859  30.800  1.00  0.00    -0.237 OA
ATOM     85  O   UNL A   1      53.039  26.143  28.350  1.00  0.00    -0.237 OA
ATOM     86  O   UNL A   1      53.364  28.081  29.837  1.00  0.00    -0.744 OA
ENDBRANCH  82  83
ENDBRANCH  50  75
ENDBRANCH  24  25
ENDBRANCH  17  19
ENDBRANCH   1  17
TORSDOF 14
ENDMDL
MODEL 2
REMARK VINA RESULT:     -10.5      3.726      5.604
REMARK SMILES Cn1cc2cc(C(=O)OCCOC(=O)c3ccc(-c4c5nc(c(-c6c(F)cc(S(=O)(=O)[O-])cc6F)c6ccc([nH]6)c(-c6c(F)cc(S(=O)(=O)[O-])cc6F)c6nc(c(-c7c(F)cc(S(=O)(=O)[O-])cc7F)c7ccc4[nH]7)C=C6)C=C5)cc3)ccc2n1
REMARK SMILES IDX 12 1 11 2 10 3 9 4 7 5 8 6 6 7 1 8 2 9 3 10 84 11 4 12 83 13
REMARK SMILES IDX 5 14 82 15 81 16 13 17 14 18 15 19 16 20 80 21 17 22 79 23
REMARK SMILES IDX 18 24 19 25 20 26 73 27 21 28 78 29 72 30 74 31 22 32 77 33
REMARK SMILES IDX 71 34 70 35 23 37 57 38 36 39 56 40 37 41 40 42 55 43 75 44
REMARK SMILES IDX 38 45 39 46 54 48 76 49 41 50 24 51 25 52 34 53 26 54 27 55
REMARK SMILES IDX 33 56 35 57 28 58 29 59 30 60 31 61 32 62 58 63 59 64 68 65
REMARK SMILES IDX 60 66 61 67 67 68 69 69 62 70 63 71 64 72 65 73 66 74 42 75
REMARK SMILES IDX 43 76 52 77 44 78 45 79 51 80 53 81 46 82 47 83 48 84 49 85
REMARK SMILES IDX 50 86
REMARK H PARENT 74 36 40 47
REMARK Flexibility Score: inf
ROOT
ATOM      1  O   UNL A   1      35.325  30.424  28.758  1.00  0.00    -0.458 OA
ENDROOT
BRANCH   1   2
ATOM      2  C   UNL A   1      34.643  31.540  28.161  1.00  0.00     0.275 C 
BRANCH   2   3
ATOM      3  C   UNL A   1      33.438  31.048  27.361  1.00  0.00     0.275 C 
BRANCH   3   4
ATOM      4  O   UNL A   1      33.809  29.986  26.456  1.00  0.00    -0.458 OA
BRANCH   4   5
ATOM      5  C   UNL A   1      32.963  28.924  26.424  1.00  0.00     0.338 C 
ATOM      6  O   UNL A   1      32.761  28.133  27.325  1.00  0.00    -0.246 OA
BRANCH   5   7
ATOM      7  C   UNL A   1      32.208  28.890  25.143  1.00  0.00     0.060 A 
ATOM      8  C   UNL A   1      28.045  30.420  21.322  1.00  0.00     0.173 C 
ATOM      9  N   UNL A   1      29.123  29.961  22.165  1.00  0.00    -0.275 N 
ATOM     10  C   UNL A   1      29.386  30.392  23.432  1.00  0.00     0.117 A 
ATOM     11  N   UNL A   1      29.961  28.995  21.717  1.00  0.00    -0.173 NA
ATOM     12  C   UNL A   1      30.460  29.647  23.827  1.00  0.00     0.021 A 
ATOM     13  C   UNL A   1      30.826  28.796  22.728  1.00  0.00     0.092 A 
ATOM     14  C   UNL A   1      31.071  29.728  25.068  1.00  0.00     0.027 A 
ATOM     15  C   UNL A   1      31.931  27.932  22.836  1.00  0.00     0.032 A 
ATOM     16  C   UNL A   1      32.618  28.023  24.074  1.00  0.00     0.018 A 
ENDBRANCH   5   7
ENDBRANCH   4   5
ENDBRANCH   3   4
ENDBRANCH   2   3
ENDBRANCH   1   2
BRANCH   1  17
ATOM     17  C   UNL A   1      36.269  30.736  29.675  1.00  0.00     0.338 C 
ATOM     18  O   UNL A   1      36.143  31.446  30.658  1.00  0.00    -0.246 OA
BRANCH  17  19
ATOM     19  C   UNL A   1      37.530  30.052  29.341  1.00  0.00     0.060 A 
ATOM     20  C   UNL A   1      38.346  29.606  30.375  1.00  0.00     0.016 A 
ATOM     21  C   UNL A   1      37.975  29.986  28.023  1.00  0.00     0.016 A 
ATOM     22  C   UNL A   1      39.653  29.201  30.112  1.00  0.00     0.010 A 
ATOM     23  C   UNL A   1      39.248  29.468  27.751  1.00  0.00     0.010 A 
ATOM     24  C   UNL A   1      40.124  29.113  28.795  1.00  0.00    -0.014 A 
BRANCH  24  25
ATOM     25  C   UNL A   1      41.532  28.695  28.512  1.00  0.00     0.031 A 
ATOM     26  C   UNL A   1      42.656  29.702  28.592  1.00  0.00     0.074 A 
ATOM     27  C   UNL A   1      41.821  27.415  28.195  1.00  0.00     0.049 A 
ATOM     28  N   UNL A   1      43.903  29.585  28.211  1.00  0.00    -0.248 NA
ATOM     29  C   UNL A   1      42.329  31.019  29.161  1.00  0.00     0.031 C 
ATOM     30  C   UNL A   1      40.852  26.319  28.118  1.00  0.00     0.029 A 
ATOM     31  N   UNL A   1      43.018  26.816  27.883  1.00  0.00    -0.354 N 
ATOM     32  C   UNL A   1      44.490  30.828  28.430  1.00  0.00     0.074 A 
ATOM     33  C   UNL A   1      43.460  31.685  28.977  1.00  0.00     0.031 C 
ATOM     34  C   UNL A   1      41.496  25.179  27.826  1.00  0.00     0.029 A 
ATOM     35  C   UNL A   1      42.906  25.473  27.598  1.00  0.00     0.049 A 
ATOM     36  H   UNL A   1      43.875  27.300  27.864  1.00  0.00     0.167 HD
ATOM     37  C   UNL A   1      45.767  31.219  28.196  1.00  0.00     0.037 A 
ATOM     38  C   UNL A   1      43.817  24.584  27.156  1.00  0.00     0.037 A 
ATOM     39  C   UNL A   1      46.806  30.345  27.713  1.00  0.00     0.049 A 
ATOM     40  C   UNL A   1      45.222  25.041  26.885  1.00  0.00     0.074 A 
ATOM     41  C   UNL A   1      48.137  30.641  27.469  1.00  0.00     0.029 A 
ATOM     42  N   UNL A   1      46.637  29.001  27.414  1.00  0.00    -0.354 N 
ATOM     43  N   UNL A   1      45.744  26.234  27.043  1.00  0.00    -0.248 NA
ATOM     44  C   UNL A   1      46.155  24.039  26.353  1.00  0.00     0.031 C 
ATOM     45  C   UNL A   1      48.764  29.486  26.990  1.00  0.00     0.029 A 
ATOM     46  C   UNL A   1      47.835  28.458  26.977  1.00  0.00     0.049 A 
ATOM     47  H   UNL A   1      45.790  28.506  27.500  1.00  0.00     0.167 HD
ATOM     48  C   UNL A   1      47.069  26.124  26.639  1.00  0.00     0.074 A 
ATOM     49  C   UNL A   1      47.274  24.744  26.247  1.00  0.00     0.031 C 
ATOM     50  C   UNL A   1      48.027  27.082  26.591  1.00  0.00     0.037 A 
BRANCH  37  51
ATOM     51  C   UNL A   1      46.108  32.668  28.426  1.00  0.00     0.058 A 
ATOM     52  C   UNL A   1      46.593  33.138  29.658  1.00  0.00     0.135 A 
ATOM     53  C   UNL A   1      45.969  33.599  27.383  1.00  0.00     0.135 A 
ATOM     54  F   UNL A   1      46.734  32.295  30.694  1.00  0.00    -0.206 F 
ATOM     55  C   UNL A   1      46.893  34.482  29.856  1.00  0.00     0.059 A 
ATOM     56  C   UNL A   1      46.288  34.943  27.551  1.00  0.00     0.059 A 
ATOM     57  F   UNL A   1      45.514  33.205  26.182  1.00  0.00    -0.206 F 
ATOM     58  C   UNL A   1      46.732  35.379  28.798  1.00  0.00     0.060 A 
BRANCH  58  59
ATOM     59  S   UNL A   1      47.113  37.123  29.072  1.00  0.00     0.124 S 
ATOM     60  O   UNL A   1      45.879  37.762  28.625  1.00  0.00    -0.237 OA
ATOM     61  O   UNL A   1      47.364  37.168  30.509  1.00  0.00    -0.237 OA
ATOM     62  O   UNL A   1      48.281  37.354  28.228  1.00  0.00    -0.744 OA
ENDBRANCH  58  59
ENDBRANCH  37  51
BRANCH  38  63
ATOM     63  C   UNL A   1      43.408  23.175  26.905  1.00  0.00     0.058 A 
ATOM     64  C   UNL A   1      43.283  22.681  25.599  1.00  0.00     0.135 A 
ATOM     65  C   UNL A   1      43.170  22.285  27.966  1.00  0.00     0.135 A 
ATOM     66  F   UNL A   1      43.485  23.495  24.551  1.00  0.00    -0.206 F 
ATOM     67  C   UNL A   1      42.940  21.355  25.351  1.00  0.00     0.059 A 
ATOM     68  C   UNL A   1      42.855  20.950  27.743  1.00  0.00     0.059 A 
ATOM     69  F   UNL A   1      43.286  22.707  29.234  1.00  0.00    -0.206 F 
ATOM     70  C   UNL A   1      42.737  20.495  26.432  1.00  0.00     0.060 A 
BRANCH  70  71
ATOM     71  S   UNL A   1      42.370  18.757  26.103  1.00  0.00     0.124 S 
ATOM     72  O   UNL A   1      40.968  18.823  25.707  1.00  0.00    -0.237 OA
ATOM     73  O   UNL A   1      43.319  18.437  25.041  1.00  0.00    -0.237 OA
ATOM     74  O   UNL A   1      42.637  18.111  27.385  1.00  0.00    -0.744 OA
ENDBRANCH  70  71
ENDBRANCH  38  63
BRANCH  50  75
ATOM     75  C   UNL A   1      49.393  26.665  26.125  1.00  0.00     0.058 A 
ATOM     76  C   UNL A   1      49.813  26.870  24.802  1.00  0.00     0.135 A 
ATOM     77  C   UNL A   1      50.305  26.088  27.023  1.00  0.00     0.135 A 
ATOM     78  F   UNL A   1      48.975  27.410  23.902  1.00  0.00    -0.206 F 
ATOM     79  C   UNL A   1      51.085  26.496  24.378  1.00  0.00     0.059 A 
ATOM     80  C   UNL A   1      51.589  25.728  26.626  1.00  0.00     0.059 A 
ATOM     81  F   UNL A   1      49.955  25.878  28.301  1.00  0.00    -0.206 F 
ATOM     82  C   UNL A   1      51.966  25.925  25.299  1.00  0.00     0.060 A 
BRANCH  82  83
ATOM     83  S   UNL A   1      53.623  25.469  24.745  1.00  0.00     0.124 S 
ATOM     84  O   UNL A   1      53.559  24.011  24.799  1.00  0.00    -0.237 OA
ATOM     85  O   UNL A   1      53.679  26.051  23.408  1.00  0.00    -0.237 OA
ATOM     86  O   UNL A   1      54.495  26.096  25.733  1.00  0.00    -0.744 OA
ENDBRANCH  82  83
ENDBRANCH  50  75
ENDBRANCH  24  25
ENDBRANCH  17  19
ENDBRANCH   1  17
TORSDOF 14
ENDMDL
MODEL 3
REMARK VINA RESULT:     -10.5      5.394     12.266
REMARK SMILES Cn1cc2cc(C(=O)OCCOC(=O)c3ccc(-c4c5nc(c(-c6c(F)cc(S(=O)(=O)[O-])cc6F)c6ccc([nH]6)c(-c6c(F)cc(S(=O)(=O)[O-])cc6F)c6nc(c(-c7c(F)cc(S(=O)(=O)[O-])cc7F)c7ccc4[nH]7)C=C6)C=C5)cc3)ccc2n1
REMARK SMILES IDX 12 1 11 2 10 3 9 4 7 5 8 6 6 7 1 8 2 9 3 10 84 11 4 12 83 13
REMARK SMILES IDX 5 14 82 15 81 16 13 17 14 18 15 19 16 20 80 21 17 22 79 23
REMARK SMILES IDX 18 24 19 25 20 26 73 27 21 28 78 29 72 30 74 31 22 32 77 33
REMARK SMILES IDX 71 34 70 35 23 37 57 38 36 39 56 40 37 41 40 42 55 43 75 44
REMARK SMILES IDX 38 45 39 46 54 48 76 49 41 50 24 51 25 52 34 53 26 54 27 55
REMARK SMILES IDX 33 56 35 57 28 58 29 59 30 60 31 61 32 62 58 63 59 64 68 65
REMARK SMILES IDX 60 66 61 67 67 68 69 69 62 70 63 71 64 72 65 73 66 74 42 75
REMARK SMILES IDX 43 76 52 77 44 78 45 79 51 80 53 81 46 82 47 83 48 84 49 85
REMARK SMILES IDX 50 86
REMARK H PARENT 74 36 40 47
REMARK Flexibility Score: inf
ROOT
ATOM      1  O   UNL A   1      39.950  23.284  27.062  1.00  0.00    -0.458 OA
ENDROOT
BRANCH   1   2
ATOM      2  C   UNL A   1      40.413  21.930  27.209  1.00  0.00     0.275 C 
BRANCH   2   3
ATOM      3  C   UNL A   1      39.779  21.044  26.138  1.00  0.00     0.275 C 
BRANCH   3   4
ATOM      4  O   UNL A   1      38.637  21.688  25.534  1.00  0.00    -0.458 OA
BRANCH   4   5
ATOM      5  C   UNL A   1      37.731  20.853  24.960  1.00  0.00     0.338 C 
ATOM      6  O   UNL A   1      37.875  19.664  24.752  1.00  0.00    -0.246 OA
BRANCH   5   7
ATOM      7  C   UNL A   1      36.455  21.566  24.688  1.00  0.00     0.060 A 
ATOM      8  C   UNL A   1      30.820  22.963  25.443  1.00  0.00     0.173 C 
ATOM      9  N   UNL A   1      32.214  22.718  25.161  1.00  0.00    -0.275 N 
ATOM     10  C   UNL A   1      33.016  21.825  25.809  1.00  0.00     0.117 A 
ATOM     11  N   UNL A   1      32.822  23.386  24.150  1.00  0.00    -0.173 NA
ATOM     12  C   UNL A   1      34.218  21.922  25.167  1.00  0.00     0.021 A 
ATOM     13  C   UNL A   1      34.086  22.927  24.149  1.00  0.00     0.092 A 
ATOM     14  C   UNL A   1      35.345  21.177  25.475  1.00  0.00     0.027 A 
ATOM     15  C   UNL A   1      35.187  23.268  23.341  1.00  0.00     0.032 A 
ATOM     16  C   UNL A   1      36.378  22.565  23.660  1.00  0.00     0.018 A 
ENDBRANCH   5   7
ENDBRANCH   4   5
ENDBRANCH   3   4
ENDBRANCH   2   3
ENDBRANCH   1   2
BRANCH   1  17
ATOM     17  C   UNL A   1      40.907  24.207  26.814  1.00  0.00     0.338 C 
ATOM     18  O   UNL A   1      41.828  24.127  26.019  1.00  0.00    -0.246 OA
BRANCH  17  19
ATOM     19  C   UNL A   1      40.671  25.401  27.642  1.00  0.00     0.060 A 
ATOM     20  C   UNL A   1      41.597  26.438  27.607  1.00  0.00     0.016 A 
ATOM     21  C   UNL A   1      39.623  25.433  28.560  1.00  0.00     0.016 A 
ATOM     22  C   UNL A   1      41.553  27.452  28.562  1.00  0.00     0.010 A 
ATOM     23  C   UNL A   1      39.514  26.516  29.444  1.00  0.00     0.010 A 
ATOM     24  C   UNL A   1      40.504  27.517  29.490  1.00  0.00    -0.014 A 
BRANCH  24  25
ATOM     25  C   UNL A   1      40.464  28.594  30.525  1.00  0.00     0.031 A 
ATOM     26  C   UNL A   1      41.452  28.588  31.670  1.00  0.00     0.074 A 
ATOM     27  C   UNL A   1      39.558  29.591  30.449  1.00  0.00     0.049 A 
ATOM     28  N   UNL A   1      41.468  29.318  32.756  1.00  0.00    -0.248 NA
ATOM     29  C   UNL A   1      42.559  27.621  31.587  1.00  0.00     0.031 C 
ATOM     30  C   UNL A   1      38.565  29.758  29.384  1.00  0.00     0.029 A 
ATOM     31  N   UNL A   1      39.326  30.661  31.281  1.00  0.00    -0.354 N 
ATOM     32  C   UNL A   1      42.539  28.856  33.514  1.00  0.00     0.074 A 
ATOM     33  C   UNL A   1      43.148  27.780  32.763  1.00  0.00     0.031 C 
ATOM     34  C   UNL A   1      37.867  30.882  29.603  1.00  0.00     0.029 A 
ATOM     35  C   UNL A   1      38.288  31.466  30.870  1.00  0.00     0.049 A 
ATOM     36  H   UNL A   1      39.852  30.834  32.095  1.00  0.00     0.167 HD
ATOM     37  C   UNL A   1      42.974  29.287  34.724  1.00  0.00     0.037 A 
ATOM     38  C   UNL A   1      37.703  32.526  31.462  1.00  0.00     0.037 A 
ATOM     39  C   UNL A   1      42.405  30.401  35.439  1.00  0.00     0.049 A 
ATOM     40  C   UNL A   1      38.186  32.976  32.812  1.00  0.00     0.074 A 
ATOM     41  C   UNL A   1      42.793  30.930  36.659  1.00  0.00     0.029 A 
ATOM     42  N   UNL A   1      41.338  31.169  34.994  1.00  0.00    -0.354 N 
ATOM     43  N   UNL A   1      39.164  32.490  33.539  1.00  0.00    -0.248 NA
ATOM     44  C   UNL A   1      37.474  34.101  33.430  1.00  0.00     0.031 C 
ATOM     45  C   UNL A   1      41.938  31.995  36.968  1.00  0.00     0.029 A 
ATOM     46  C   UNL A   1      41.047  32.157  35.921  1.00  0.00     0.049 A 
ATOM     47  H   UNL A   1      40.859  31.031  34.145  1.00  0.00     0.167 HD
ATOM     48  C   UNL A   1      39.189  33.256  34.699  1.00  0.00     0.074 A 
ATOM     49  C   UNL A   1      38.143  34.250  34.567  1.00  0.00     0.031 C 
ATOM     50  C   UNL A   1      40.003  33.142  35.777  1.00  0.00     0.037 A 
BRANCH  37  51
ATOM     51  C   UNL A   1      44.102  28.528  35.372  1.00  0.00     0.058 A 
ATOM     52  C   UNL A   1      43.878  27.442  36.233  1.00  0.00     0.135 A 
ATOM     53  C   UNL A   1      45.435  28.885  35.106  1.00  0.00     0.135 A 
ATOM     54  F   UNL A   1      42.624  27.066  36.534  1.00  0.00    -0.206 F 
ATOM     55  C   UNL A   1      44.933  26.759  36.833  1.00  0.00     0.059 A 
ATOM     56  C   UNL A   1      46.506  28.199  35.672  1.00  0.00     0.059 A 
ATOM     57  F   UNL A   1      45.709  29.912  34.287  1.00  0.00    -0.206 F 
ATOM     58  C   UNL A   1      46.243  27.148  36.551  1.00  0.00     0.060 A 
BRANCH  58  59
ATOM     59  S   UNL A   1      47.602  26.262  37.344  1.00  0.00     0.124 S 
ATOM     60  O   UNL A   1      48.576  27.334  37.531  1.00  0.00    -0.237 OA
ATOM     61  O   UNL A   1      46.979  25.756  38.562  1.00  0.00    -0.237 OA
ATOM     62  O   UNL A   1      47.968  25.247  36.362  1.00  0.00    -0.744 OA
ENDBRANCH  58  59
ENDBRANCH  37  51
BRANCH  38  63
ATOM     63  C   UNL A   1      36.562  33.207  30.792  1.00  0.00     0.058 A 
ATOM     64  C   UNL A   1      35.252  33.060  31.268  1.00  0.00     0.135 A 
ATOM     65  C   UNL A   1      36.765  34.047  29.684  1.00  0.00     0.135 A 
ATOM     66  F   UNL A   1      35.003  32.257  32.314  1.00  0.00    -0.206 F 
ATOM     67  C   UNL A   1      34.182  33.724  30.673  1.00  0.00     0.059 A 
ATOM     68  C   UNL A   1      35.717  34.743  29.092  1.00  0.00     0.059 A 
ATOM     69  F   UNL A   1      38.002  34.228  29.196  1.00  0.00    -0.206 F 
ATOM     70  C   UNL A   1      34.428  34.570  29.590  1.00  0.00     0.060 A 
BRANCH  70  71
ATOM     71  S   UNL A   1      33.047  35.488  28.874  1.00  0.00     0.124 S 
ATOM     72  O   UNL A   1      32.401  34.462  28.064  1.00  0.00    -0.237 OA
ATOM     73  O   UNL A   1      32.315  35.919  30.061  1.00  0.00    -0.237 OA
ATOM     74  O   UNL A   1      33.707  36.558  28.132  1.00  0.00    -0.744 OA
ENDBRANCH  70  71
ENDBRANCH  38  63
BRANCH  50  75
ATOM     75  C   UNL A   1      39.813  34.134  36.889  1.00  0.00     0.058 A 
ATOM     76  C   UNL A   1      40.281  35.453  36.787  1.00  0.00     0.135 A 
ATOM     77  C   UNL A   1      39.123  33.770  38.056  1.00  0.00     0.135 A 
ATOM     78  F   UNL A   1      40.955  35.848  35.695  1.00  0.00    -0.206 F 
ATOM     79  C   UNL A   1      40.090  36.372  37.814  1.00  0.00     0.059 A 
ATOM     80  C   UNL A   1      38.901  34.679  39.085  1.00  0.00     0.059 A 
ATOM     81  F   UNL A   1      38.649  32.522  38.200  1.00  0.00    -0.206 F 
ATOM     82  C   UNL A   1      39.398  35.975  38.960  1.00  0.00     0.060 A 
BRANCH  82  83
ATOM     83  S   UNL A   1      39.132  37.184  40.275  1.00  0.00     0.124 S 
ATOM     84  O   UNL A   1      40.493  37.395  40.759  1.00  0.00    -0.237 OA
ATOM     85  O   UNL A   1      38.535  38.304  39.555  1.00  0.00    -0.237 OA
ATOM     86  O   UNL A   1      38.238  36.490  41.197  1.00  0.00    -0.744 OA
ENDBRANCH  82  83
ENDBRANCH  50  75
ENDBRANCH  24  25
ENDBRANCH  17  19
ENDBRANCH   1  17
TORSDOF 14
ENDMDL
