MODEL 1
REMARK VINA RESULT:      -8.8      0.000      0.000
REMARK SMILES C#CC[N@H+](CC(=O)OCCOC(=O)c1ccc(-c2c3nc(c(-c4c(F)cc(S(=O)(=O)[O-])cc4F)c4ccc([nH]4)c(-c4c(F)cc(S(=O)(=O)[O-])cc4F)c4nc(c(-c5c(F)cc(S(=O)(=O)[O-])cc5F)c5ccc2[nH]5)C=C4)C=C3)cc1)[C@H](C)C(=O)NCCC
REMARK SMILES IDX 9 1 8 2 6 3 7 4 5 5 4 6 3 8 2 9 1 10 80 11 81 12 82 13 83 14
REMARK SMILES IDX 84 15 85 17 86 18 87 19 10 20 11 21 12 22 13 23 14 24 15 25
REMARK SMILES IDX 79 26 16 27 78 28 17 29 18 30 19 31 72 32 20 33 77 34 71 35
REMARK SMILES IDX 73 36 21 37 76 38 70 39 69 40 22 42 56 43 35 44 55 45 36 46
REMARK SMILES IDX 39 47 54 48 74 49 37 50 38 51 53 53 75 54 40 55 23 56 24 57
REMARK SMILES IDX 33 58 25 59 26 60 32 61 34 62 27 63 28 64 29 65 30 66 31 67
REMARK SMILES IDX 57 68 58 69 67 70 59 71 60 72 66 73 68 74 61 75 62 76 63 77
REMARK SMILES IDX 64 78 65 79 41 80 42 81 51 82 43 83 44 84 50 85 52 86 45 87
REMARK SMILES IDX 46 88 47 89 48 90 49 91
REMARK H PARENT 4 7 84 16 73 41 39 52
REMARK Flexibility Score: inf
ROOT
ATOM      1  C   UNL A   1      33.215  27.318  26.196  1.00  0.00     0.274 C 
ENDROOT
BRANCH   1   2
ATOM      2  O   UNL A   1      32.482  27.041  24.988  1.00  0.00    -0.458 OA
BRANCH   2   3
ATOM      3  C   UNL A   1      33.048  26.149  24.130  1.00  0.00     0.361 C 
ATOM      4  O   UNL A   1      33.816  26.459  23.226  1.00  0.00    -0.245 OA
BRANCH   3   5
ATOM      5  C   UNL A   1      32.534  24.726  24.343  1.00  0.00     0.387 C 
BRANCH   5   6
ATOM      6  N   UNL A   1      33.389  23.787  25.130  1.00  0.00    -0.306 N 
ATOM      7  H   UNL A   1      34.292  24.210  25.347  1.00  0.00     0.350 HD
BRANCH   6   8
ATOM      8  C   UNL A   1      32.895  23.584  26.496  1.00  0.00     0.355 C 
BRANCH   8   9
ATOM      9  C   UNL A   1      31.468  23.292  26.702  1.00  0.00    -0.047 C 
ATOM     10  C   UNL A   1      30.332  22.949  26.871  1.00  0.00     0.010 C 
ENDBRANCH   8   9
ENDBRANCH   6   8
BRANCH   6  11
ATOM     11  C   UNL A   1      33.819  22.612  24.298  1.00  0.00     0.272 C 
ATOM     12  C   UNL A   1      32.760  21.848  23.474  1.00  0.00     0.086 C 
BRANCH  11  13
ATOM     13  C   UNL A   1      34.788  21.588  24.921  1.00  0.00     0.278 C 
ATOM     14  O   UNL A   1      34.389  20.495  25.336  1.00  0.00    -0.268 OA
ATOM     15  N   UNL A   1      36.106  21.889  25.133  1.00  0.00    -0.351 N 
ATOM     16  H   UNL A   1      36.583  21.283  25.746  1.00  0.00     0.163 HD
BRANCH  15  17
ATOM     17  C   UNL A   1      36.899  22.969  24.588  1.00  0.00     0.116 C 
BRANCH  17  18
ATOM     18  C   UNL A   1      37.666  23.737  25.654  1.00  0.00     0.018 C 
ATOM     19  C   UNL A   1      38.672  22.856  26.381  1.00  0.00     0.006 C 
ENDBRANCH  17  18
ENDBRANCH  15  17
ENDBRANCH  11  13
ENDBRANCH   6  11
ENDBRANCH   5   6
ENDBRANCH   3   5
ENDBRANCH   2   3
ENDBRANCH   1   2
BRANCH   1  20
ATOM     20  C   UNL A   1      33.378  28.827  26.412  1.00  0.00     0.275 C 
BRANCH  20  21
ATOM     21  O   UNL A   1      33.775  29.100  27.768  1.00  0.00    -0.458 OA
BRANCH  21  22
ATOM     22  C   UNL A   1      34.439  30.261  27.981  1.00  0.00     0.338 C 
ATOM     23  O   UNL A   1      33.984  31.389  27.953  1.00  0.00    -0.246 OA
BRANCH  22  24
ATOM     24  C   UNL A   1      35.848  29.956  28.265  1.00  0.00     0.060 A 
ATOM     25  C   UNL A   1      36.807  30.065  27.254  1.00  0.00     0.016 A 
ATOM     26  C   UNL A   1      36.202  29.507  29.536  1.00  0.00     0.016 A 
ATOM     27  C   UNL A   1      38.137  29.744  27.521  1.00  0.00     0.010 A 
ATOM     28  C   UNL A   1      37.538  29.205  29.806  1.00  0.00     0.010 A 
ATOM     29  C   UNL A   1      38.516  29.323  28.801  1.00  0.00    -0.014 A 
BRANCH  29  30
ATOM     30  C   UNL A   1      39.933  29.009  29.110  1.00  0.00     0.031 A 
ATOM     31  C   UNL A   1      40.836  30.081  29.647  1.00  0.00     0.074 A 
ATOM     32  C   UNL A   1      40.410  27.775  28.857  1.00  0.00     0.049 A 
ATOM     33  N   UNL A   1      42.132  30.058  29.821  1.00  0.00    -0.248 NA
ATOM     34  C   UNL A   1      40.199  31.352  30.027  1.00  0.00     0.031 C 
ATOM     35  C   UNL A   1      39.614  26.649  28.364  1.00  0.00     0.029 A 
ATOM     36  N   UNL A   1      41.679  27.265  28.958  1.00  0.00    -0.354 N 
ATOM     37  C   UNL A   1      42.471  31.316  30.308  1.00  0.00     0.074 A 
ATOM     38  C   UNL A   1      41.247  32.084  30.382  1.00  0.00     0.031 C 
ATOM     39  C   UNL A   1      40.415  25.585  28.197  1.00  0.00     0.029 A 
ATOM     40  C   UNL A   1      41.788  25.970  28.507  1.00  0.00     0.049 A 
ATOM     41  H   UNL A   1      42.440  27.777  29.319  1.00  0.00     0.167 HD
ATOM     42  C   UNL A   1      43.694  31.779  30.659  1.00  0.00     0.037 A 
ATOM     43  C   UNL A   1      42.875  25.196  28.318  1.00  0.00     0.037 A 
ATOM     44  C   UNL A   1      44.900  30.993  30.586  1.00  0.00     0.049 A 
ATOM     45  C   UNL A   1      44.232  25.759  28.647  1.00  0.00     0.074 A 
ATOM     46  C   UNL A   1      46.186  31.354  30.947  1.00  0.00     0.029 A 
ATOM     47  N   UNL A   1      44.972  29.690  30.110  1.00  0.00    -0.354 N 
ATOM     48  N   UNL A   1      44.539  26.941  29.128  1.00  0.00    -0.248 NA
ATOM     49  C   UNL A   1      45.391  24.891  28.403  1.00  0.00     0.031 C 
ATOM     50  C   UNL A   1      47.042  30.296  30.631  1.00  0.00     0.029 A 
ATOM     51  C   UNL A   1      46.284  29.247  30.134  1.00  0.00     0.049 A 
ATOM     52  H   UNL A   1      44.202  29.158  29.802  1.00  0.00     0.167 HD
ATOM     53  C   UNL A   1      45.923  26.950  29.263  1.00  0.00     0.074 A 
ATOM     54  C   UNL A   1      46.392  25.650  28.830  1.00  0.00     0.031 C 
ATOM     55  C   UNL A   1      46.732  27.945  29.703  1.00  0.00     0.037 A 
BRANCH  42  56
ATOM     56  C   UNL A   1      43.803  33.208  31.119  1.00  0.00     0.058 A 
ATOM     57  C   UNL A   1      43.899  34.278  30.215  1.00  0.00     0.135 A 
ATOM     58  C   UNL A   1      43.758  33.517  32.490  1.00  0.00     0.135 A 
ATOM     59  F   UNL A   1      43.960  34.044  28.894  1.00  0.00    -0.206 F 
ATOM     60  C   UNL A   1      43.971  35.598  30.652  1.00  0.00     0.059 A 
ATOM     61  C   UNL A   1      43.797  34.831  32.948  1.00  0.00     0.059 A 
ATOM     62  F   UNL A   1      43.667  32.534  33.400  1.00  0.00    -0.206 F 
ATOM     63  C   UNL A   1      43.914  35.865  32.021  1.00  0.00     0.060 A 
BRANCH  63  64
ATOM     64  S   UNL A   1      43.988  37.583  32.569  1.00  0.00     0.124 S 
ATOM     65  O   UNL A   1      43.716  38.299  31.326  1.00  0.00    -0.237 OA
ATOM     66  O   UNL A   1      42.931  37.633  33.574  1.00  0.00    -0.237 OA
ATOM     67  O   UNL A   1      45.346  37.720  33.084  1.00  0.00    -0.744 OA
ENDBRANCH  63  64
ENDBRANCH  42  56
BRANCH  43  68
ATOM     68  C   UNL A   1      42.726  23.826  27.758  1.00  0.00     0.058 A 
ATOM     69  C   UNL A   1      42.578  22.712  28.597  1.00  0.00     0.135 A 
ATOM     70  C   UNL A   1      42.719  23.602  26.371  1.00  0.00     0.135 A 
ATOM     71  F   UNL A   1      42.588  22.870  29.930  1.00  0.00    -0.206 F 
ATOM     72  C   UNL A   1      42.442  21.426  28.085  1.00  0.00     0.059 A 
ATOM     73  C   UNL A   1      42.552  22.329  25.834  1.00  0.00     0.059 A 
ATOM     74  F   UNL A   1      42.847  24.632  25.522  1.00  0.00    -0.206 F 
ATOM     75  C   UNL A   1      42.426  21.245  26.700  1.00  0.00     0.060 A 
BRANCH  75  76
ATOM     76  S   UNL A   1      42.205  19.575  26.048  1.00  0.00     0.124 S 
ATOM     77  O   UNL A   1      42.633  18.759  27.180  1.00  0.00    -0.237 OA
ATOM     78  O   UNL A   1      40.777  19.551  25.748  1.00  0.00    -0.237 OA
ATOM     79  O   UNL A   1      43.084  19.550  24.883  1.00  0.00    -0.744 OA
ENDBRANCH  75  76
ENDBRANCH  43  68
BRANCH  55  80
ATOM     80  C   UNL A   1      48.209  27.664  29.767  1.00  0.00     0.058 A 
ATOM     81  C   UNL A   1      48.815  27.164  30.930  1.00  0.00     0.135 A 
ATOM     82  C   UNL A   1      49.013  27.824  28.626  1.00  0.00     0.135 A 
ATOM     83  F   UNL A   1      48.096  27.004  32.052  1.00  0.00    -0.206 F 
ATOM     84  C   UNL A   1      50.168  26.842  30.963  1.00  0.00     0.059 A 
ATOM     85  C   UNL A   1      50.360  27.478  28.626  1.00  0.00     0.059 A 
ATOM     86  F   UNL A   1      48.483  28.292  27.485  1.00  0.00    -0.206 F 
ATOM     87  C   UNL A   1      50.929  26.993  29.802  1.00  0.00     0.060 A 
BRANCH  87  88
ATOM     88  S   UNL A   1      52.668  26.509  29.844  1.00  0.00     0.124 S 
ATOM     89  O   UNL A   1      52.677  25.527  30.923  1.00  0.00    -0.237 OA
ATOM     90  O   UNL A   1      52.875  25.977  28.500  1.00  0.00    -0.237 OA
ATOM     91  O   UNL A   1      53.364  27.761  30.131  1.00  0.00    -0.744 OA
ENDBRANCH  87  88
ENDBRANCH  55  80
ENDBRANCH  29  30
ENDBRANCH  22  24
ENDBRANCH  21  22
ENDBRANCH  20  21
ENDBRANCH   1  20
TORSDOF 21
ENDMDL
MODEL 2
REMARK VINA RESULT:      -8.7      3.276      9.420
REMARK SMILES C#CC[N@H+](CC(=O)OCCOC(=O)c1ccc(-c2c3nc(c(-c4c(F)cc(S(=O)(=O)[O-])cc4F)c4ccc([nH]4)c(-c4c(F)cc(S(=O)(=O)[O-])cc4F)c4nc(c(-c5c(F)cc(S(=O)(=O)[O-])cc5F)c5ccc2[nH]5)C=C4)C=C3)cc1)[C@H](C)C(=O)NCCC
REMARK SMILES IDX 9 1 8 2 6 3 7 4 5 5 4 6 3 8 2 9 1 10 80 11 81 12 82 13 83 14
REMARK SMILES IDX 84 15 85 17 86 18 87 19 10 20 11 21 12 22 13 23 14 24 15 25
REMARK SMILES IDX 79 26 16 27 78 28 17 29 18 30 19 31 72 32 20 33 77 34 71 35
REMARK SMILES IDX 73 36 21 37 76 38 70 39 69 40 22 42 56 43 35 44 55 45 36 46
REMARK SMILES IDX 39 47 54 48 74 49 37 50 38 51 53 53 75 54 40 55 23 56 24 57
REMARK SMILES IDX 33 58 25 59 26 60 32 61 34 62 27 63 28 64 29 65 30 66 31 67
REMARK SMILES IDX 57 68 58 69 67 70 59 71 60 72 66 73 68 74 61 75 62 76 63 77
REMARK SMILES IDX 64 78 65 79 41 80 42 81 51 82 43 83 44 84 50 85 52 86 45 87
REMARK SMILES IDX 46 88 47 89 48 90 49 91
REMARK H PARENT 4 7 84 16 73 41 39 52
REMARK Flexibility Score: inf
ROOT
ATOM      1  C   UNL A   1      35.956  22.797  23.516  1.00  0.00     0.274 C 
ENDROOT
BRANCH   1   2
ATOM      2  O   UNL A   1      34.569  22.426  23.629  1.00  0.00    -0.458 OA
BRANCH   2   3
ATOM      3  C   UNL A   1      33.686  23.169  22.907  1.00  0.00     0.361 C 
ATOM      4  O   UNL A   1      33.827  23.442  21.721  1.00  0.00    -0.245 OA
BRANCH   3   5
ATOM      5  C   UNL A   1      32.550  23.722  23.765  1.00  0.00     0.387 C 
BRANCH   5   6
ATOM      6  N   UNL A   1      32.452  25.206  23.920  1.00  0.00    -0.306 N 
ATOM      7  H   UNL A   1      33.168  25.679  23.368  1.00  0.00     0.350 HD
BRANCH   6   8
ATOM      8  C   UNL A   1      31.259  25.763  23.275  1.00  0.00     0.355 C 
BRANCH   8   9
ATOM      9  C   UNL A   1      31.161  27.219  23.092  1.00  0.00    -0.047 C 
ATOM     10  C   UNL A   1      31.097  28.389  22.837  1.00  0.00     0.010 C 
ENDBRANCH   8   9
ENDBRANCH   6   8
BRANCH   6  11
ATOM     11  C   UNL A   1      32.833  25.637  25.308  1.00  0.00     0.272 C 
ATOM     12  C   UNL A   1      34.086  25.021  25.968  1.00  0.00     0.086 C 
BRANCH  11  13
ATOM     13  C   UNL A   1      31.723  25.748  26.371  1.00  0.00     0.278 C 
ATOM     14  O   UNL A   1      30.939  24.817  26.581  1.00  0.00    -0.268 OA
ATOM     15  N   UNL A   1      31.497  26.915  27.048  1.00  0.00    -0.351 N 
ATOM     16  H   UNL A   1      30.632  26.969  27.517  1.00  0.00     0.163 HD
BRANCH  15  17
ATOM     17  C   UNL A   1      32.343  28.081  27.175  1.00  0.00     0.116 C 
BRANCH  17  18
ATOM     18  C   UNL A   1      31.755  29.316  26.510  1.00  0.00     0.018 C 
ATOM     19  C   UNL A   1      32.539  30.576  26.849  1.00  0.00     0.006 C 
ENDBRANCH  17  18
ENDBRANCH  15  17
ENDBRANCH  11  13
ENDBRANCH   6  11
ENDBRANCH   5   6
ENDBRANCH   3   5
ENDBRANCH   2   3
ENDBRANCH   1   2
BRANCH   1  20
ATOM     20  C   UNL A   1      36.749  22.360  24.753  1.00  0.00     0.275 C 
BRANCH  20  21
ATOM     21  O   UNL A   1      37.558  23.447  25.240  1.00  0.00    -0.458 OA
BRANCH  21  22
ATOM     22  C   UNL A   1      38.677  23.107  25.923  1.00  0.00     0.338 C 
ATOM     23  O   UNL A   1      39.239  22.028  25.932  1.00  0.00    -0.246 OA
BRANCH  22  24
ATOM     24  C   UNL A   1      39.141  24.275  26.684  1.00  0.00     0.060 A 
ATOM     25  C   UNL A   1      40.047  25.171  26.110  1.00  0.00     0.016 A 
ATOM     26  C   UNL A   1      38.708  24.445  27.998  1.00  0.00     0.016 A 
ATOM     27  C   UNL A   1      40.508  26.262  26.847  1.00  0.00     0.010 A 
ATOM     28  C   UNL A   1      39.155  25.548  28.727  1.00  0.00     0.010 A 
ATOM     29  C   UNL A   1      40.057  26.466  28.157  1.00  0.00    -0.014 A 
BRANCH  29  30
ATOM     30  C   UNL A   1      40.513  27.638  28.943  1.00  0.00     0.031 A 
ATOM     31  C   UNL A   1      41.809  27.573  29.700  1.00  0.00     0.074 A 
ATOM     32  C   UNL A   1      39.734  28.735  29.012  1.00  0.00     0.049 A 
ATOM     33  N   UNL A   1      42.299  28.416  30.571  1.00  0.00    -0.248 NA
ATOM     34  C   UNL A   1      42.660  26.399  29.450  1.00  0.00     0.031 C 
ATOM     35  C   UNL A   1      38.471  28.917  28.294  1.00  0.00     0.029 A 
ATOM     36  N   UNL A   1      39.875  29.893  29.735  1.00  0.00    -0.354 N 
ATOM     37  C   UNL A   1      43.503  27.864  30.994  1.00  0.00     0.074 A 
ATOM     38  C   UNL A   1      43.659  26.605  30.299  1.00  0.00     0.031 C 
ATOM     39  C   UNL A   1      37.950  30.111  28.619  1.00  0.00     0.029 A 
ATOM     40  C   UNL A   1      38.805  30.748  29.617  1.00  0.00     0.049 A 
ATOM     41  H   UNL A   1      40.667  30.091  30.286  1.00  0.00     0.167 HD
ATOM     42  C   UNL A   1      44.392  28.370  31.883  1.00  0.00     0.037 A 
ATOM     43  C   UNL A   1      38.520  31.891  30.271  1.00  0.00     0.037 A 
ATOM     44  C   UNL A   1      44.221  29.632  32.558  1.00  0.00     0.049 A 
ATOM     45  C   UNL A   1      39.488  32.394  31.307  1.00  0.00     0.074 A 
ATOM     46  C   UNL A   1      45.076  30.252  33.452  1.00  0.00     0.029 A 
ATOM     47  N   UNL A   1      43.116  30.463  32.422  1.00  0.00    -0.354 N 
ATOM     48  N   UNL A   1      40.634  31.878  31.683  1.00  0.00    -0.248 NA
ATOM     49  C   UNL A   1      39.126  33.630  32.013  1.00  0.00     0.031 C 
ATOM     50  C   UNL A   1      44.460  31.422  33.904  1.00  0.00     0.029 A 
ATOM     51  C   UNL A   1      43.251  31.570  33.244  1.00  0.00     0.049 A 
ATOM     52  H   UNL A   1      42.350  30.290  31.828  1.00  0.00     0.167 HD
ATOM     53  C   UNL A   1      41.139  32.735  32.654  1.00  0.00     0.074 A 
ATOM     54  C   UNL A   1      40.182  33.813  32.795  1.00  0.00     0.031 C 
ATOM     55  C   UNL A   1      42.289  32.638  33.366  1.00  0.00     0.037 A 
BRANCH  42  56
ATOM     56  C   UNL A   1      45.611  27.548  32.208  1.00  0.00     0.058 A 
ATOM     57  C   UNL A   1      46.829  27.721  31.532  1.00  0.00     0.135 A 
ATOM     58  C   UNL A   1      45.574  26.607  33.251  1.00  0.00     0.135 A 
ATOM     59  F   UNL A   1      46.921  28.596  30.517  1.00  0.00    -0.206 F 
ATOM     60  C   UNL A   1      47.957  26.975  31.860  1.00  0.00     0.059 A 
ATOM     61  C   UNL A   1      46.698  25.872  33.617  1.00  0.00     0.059 A 
ATOM     62  F   UNL A   1      44.436  26.399  33.933  1.00  0.00    -0.206 F 
ATOM     63  C   UNL A   1      47.883  26.056  32.908  1.00  0.00     0.060 A 
BRANCH  63  64
ATOM     64  S   UNL A   1      49.362  25.112  33.335  1.00  0.00     0.124 S 
ATOM     65  O   UNL A   1      50.129  26.096  34.092  1.00  0.00    -0.237 OA
ATOM     66  O   UNL A   1      48.811  24.006  34.110  1.00  0.00    -0.237 OA
ATOM     67  O   UNL A   1      49.921  24.748  32.037  1.00  0.00    -0.744 OA
ENDBRANCH  63  64
ENDBRANCH  42  56
BRANCH  43  68
ATOM     68  C   UNL A   1      37.248  32.611  29.992  1.00  0.00     0.058 A 
ATOM     69  C   UNL A   1      36.059  32.264  30.648  1.00  0.00     0.135 A 
ATOM     70  C   UNL A   1      37.198  33.672  29.071  1.00  0.00     0.135 A 
ATOM     71  F   UNL A   1      36.050  31.251  31.529  1.00  0.00    -0.206 F 
ATOM     72  C   UNL A   1      34.863  32.927  30.391  1.00  0.00     0.059 A 
ATOM     73  C   UNL A   1      36.022  34.372  28.822  1.00  0.00     0.059 A 
ATOM     74  F   UNL A   1      38.308  34.053  28.422  1.00  0.00    -0.206 F 
ATOM     75  C   UNL A   1      34.856  33.985  29.479  1.00  0.00     0.060 A 
BRANCH  75  76
ATOM     76  S   UNL A   1      33.307  34.867  29.189  1.00  0.00     0.124 S 
ATOM     77  O   UNL A   1      32.729  34.894  30.529  1.00  0.00    -0.237 OA
ATOM     78  O   UNL A   1      33.777  36.148  28.671  1.00  0.00    -0.237 OA
ATOM     79  O   UNL A   1      32.615  34.022  28.221  1.00  0.00    -0.744 OA
ENDBRANCH  75  76
ENDBRANCH  43  68
BRANCH  55  80
ATOM     80  C   UNL A   1      42.596  33.738  34.346  1.00  0.00     0.058 A 
ATOM     81  C   UNL A   1      42.205  33.658  35.692  1.00  0.00     0.135 A 
ATOM     82  C   UNL A   1      43.356  34.850  33.950  1.00  0.00     0.135 A 
ATOM     83  F   UNL A   1      41.466  32.622  36.121  1.00  0.00    -0.206 F 
ATOM     84  C   UNL A   1      42.550  34.645  36.608  1.00  0.00     0.059 A 
ATOM     85  C   UNL A   1      43.741  35.834  34.856  1.00  0.00     0.059 A 
ATOM     86  F   UNL A   1      43.761  34.974  32.676  1.00  0.00    -0.206 F 
ATOM     87  C   UNL A   1      43.327  35.725  36.182  1.00  0.00     0.060 A 
BRANCH  87  88
ATOM     88  S   UNL A   1      43.820  36.965  37.398  1.00  0.00     0.124 S 
ATOM     89  O   UNL A   1      42.720  36.896  38.354  1.00  0.00    -0.237 OA
ATOM     90  O   UNL A   1      45.102  36.446  37.868  1.00  0.00    -0.237 OA
ATOM     91  O   UNL A   1      43.897  38.197  36.618  1.00  0.00    -0.744 OA
ENDBRANCH  87  88
ENDBRANCH  55  80
ENDBRANCH  29  30
ENDBRANCH  22  24
ENDBRANCH  21  22
ENDBRANCH  20  21
ENDBRANCH   1  20
TORSDOF 21
ENDMDL
MODEL 3
REMARK VINA RESULT:      -8.7      5.099     10.778
REMARK SMILES C#CC[N@H+](CC(=O)OCCOC(=O)c1ccc(-c2c3nc(c(-c4c(F)cc(S(=O)(=O)[O-])cc4F)c4ccc([nH]4)c(-c4c(F)cc(S(=O)(=O)[O-])cc4F)c4nc(c(-c5c(F)cc(S(=O)(=O)[O-])cc5F)c5ccc2[nH]5)C=C4)C=C3)cc1)[C@H](C)C(=O)NCCC
REMARK SMILES IDX 9 1 8 2 6 3 7 4 5 5 4 6 3 8 2 9 1 10 80 11 81 12 82 13 83 14
REMARK SMILES IDX 84 15 85 17 86 18 87 19 10 20 11 21 12 22 13 23 14 24 15 25
REMARK SMILES IDX 79 26 16 27 78 28 17 29 18 30 19 31 72 32 20 33 77 34 71 35
REMARK SMILES IDX 73 36 21 37 76 38 70 39 69 40 22 42 56 43 35 44 55 45 36 46
REMARK SMILES IDX 39 47 54 48 74 49 37 50 38 51 53 53 75 54 40 55 23 56 24 57
REMARK SMILES IDX 33 58 25 59 26 60 32 61 34 62 27 63 28 64 29 65 30 66 31 67
REMARK SMILES IDX 57 68 58 69 67 70 59 71 60 72 66 73 68 74 61 75 62 76 63 77
REMARK SMILES IDX 64 78 65 79 41 80 42 81 51 82 43 83 44 84 50 85 52 86 45 87
REMARK SMILES IDX 46 88 47 89 48 90 49 91
REMARK H PARENT 4 7 84 16 73 41 39 52
REMARK Flexibility Score: inf
ROOT
ATOM      1  C   UNL A   1      36.891  22.356  25.925  1.00  0.00     0.274 C 
ENDROOT
BRANCH   1   2
ATOM      2  O   UNL A   1      35.830  23.182  25.407  1.00  0.00    -0.458 OA
BRANCH   2   3
ATOM      3  C   UNL A   1      34.687  23.226  26.142  1.00  0.00     0.361 C 
ATOM      4  O   UNL A   1      34.645  23.068  27.357  1.00  0.00    -0.245 OA
BRANCH   3   5
ATOM      5  C   UNL A   1      33.439  23.382  25.274  1.00  0.00     0.387 C 
BRANCH   5   6
ATOM      6  N   UNL A   1      33.185  24.718  24.653  1.00  0.00    -0.306 N 
ATOM      7  H   UNL A   1      32.309  25.117  24.991  1.00  0.00     0.350 HD
BRANCH   6   8
ATOM      8  C   UNL A   1      34.109  25.749  25.135  1.00  0.00     0.355 C 
BRANCH   8   9
ATOM      9  C   UNL A   1      33.573  26.887  25.897  1.00  0.00    -0.047 C 
ATOM     10  C   UNL A   1      33.047  27.807  26.458  1.00  0.00     0.010 C 
ENDBRANCH   8   9
ENDBRANCH   6   8
BRANCH   6  11
ATOM     11  C   UNL A   1      32.892  24.590  23.185  1.00  0.00     0.272 C 
ATOM     12  C   UNL A   1      33.583  23.472  22.376  1.00  0.00     0.086 C 
BRANCH  11  13
ATOM     13  C   UNL A   1      32.866  25.871  22.329  1.00  0.00     0.278 C 
ATOM     14  O   UNL A   1      33.738  26.097  21.484  1.00  0.00    -0.268 OA
ATOM     15  N   UNL A   1      31.938  26.854  22.542  1.00  0.00    -0.351 N 
ATOM     16  H   UNL A   1      32.143  27.724  22.126  1.00  0.00     0.163 HD
BRANCH  15  17
ATOM     17  C   UNL A   1      30.701  26.802  23.291  1.00  0.00     0.116 C 
BRANCH  17  18
ATOM     18  C   UNL A   1      30.176  28.179  23.666  1.00  0.00     0.018 C 
ATOM     19  C   UNL A   1      30.224  29.148  22.493  1.00  0.00     0.006 C 
ENDBRANCH  17  18
ENDBRANCH  15  17
ENDBRANCH  11  13
ENDBRANCH   6  11
ENDBRANCH   5   6
ENDBRANCH   3   5
ENDBRANCH   2   3
ENDBRANCH   1   2
BRANCH   1  20
ATOM     20  C   UNL A   1      38.262  22.994  25.677  1.00  0.00     0.275 C 
BRANCH  20  21
ATOM     21  O   UNL A   1      38.534  24.001  26.670  1.00  0.00    -0.458 OA
BRANCH  21  22
ATOM     22  C   UNL A   1      39.836  24.314  26.871  1.00  0.00     0.338 C 
ATOM     23  O   UNL A   1      40.809  23.809  26.341  1.00  0.00    -0.246 OA
BRANCH  22  24
ATOM     24  C   UNL A   1      39.916  25.399  27.859  1.00  0.00     0.060 A 
ATOM     25  C   UNL A   1      39.016  25.442  28.927  1.00  0.00     0.016 A 
ATOM     26  C   UNL A   1      40.861  26.408  27.685  1.00  0.00     0.016 A 
ATOM     27  C   UNL A   1      39.076  26.490  29.845  1.00  0.00     0.010 A 
ATOM     28  C   UNL A   1      40.932  27.446  28.615  1.00  0.00     0.010 A 
ATOM     29  C   UNL A   1      40.041  27.494  29.703  1.00  0.00    -0.014 A 
BRANCH  29  30
ATOM     30  C   UNL A   1      40.138  28.599  30.689  1.00  0.00     0.031 A 
ATOM     31  C   UNL A   1      41.092  28.488  31.844  1.00  0.00     0.074 A 
ATOM     32  C   UNL A   1      39.332  29.671  30.566  1.00  0.00     0.049 A 
ATOM     33  N   UNL A   1      41.208  29.257  32.894  1.00  0.00    -0.248 NA
ATOM     34  C   UNL A   1      42.032  27.356  31.817  1.00  0.00     0.031 C 
ATOM     35  C   UNL A   1      38.390  29.895  29.468  1.00  0.00     0.029 A 
ATOM     36  N   UNL A   1      39.158  30.761  31.381  1.00  0.00    -0.354 N 
ATOM     37  C   UNL A   1      42.215  28.691  33.669  1.00  0.00     0.074 A 
ATOM     38  C   UNL A   1      42.662  27.503  32.975  1.00  0.00     0.031 C 
ATOM     39  C   UNL A   1      37.732  31.045  29.682  1.00  0.00     0.029 A 
ATOM     40  C   UNL A   1      38.155  31.604  30.962  1.00  0.00     0.049 A 
ATOM     41  H   UNL A   1      39.698  30.923  32.189  1.00  0.00     0.167 HD
ATOM     42  C   UNL A   1      42.714  29.130  34.849  1.00  0.00     0.037 A 
ATOM     43  C   UNL A   1      37.607  32.679  31.562  1.00  0.00     0.037 A 
ATOM     44  C   UNL A   1      42.259  30.323  35.517  1.00  0.00     0.049 A 
ATOM     45  C   UNL A   1      38.130  33.104  32.908  1.00  0.00     0.074 A 
ATOM     46  C   UNL A   1      42.719  30.875  36.700  1.00  0.00     0.029 A 
ATOM     47  N   UNL A   1      41.232  31.143  35.069  1.00  0.00    -0.354 N 
ATOM     48  N   UNL A   1      39.096  32.575  33.621  1.00  0.00    -0.248 NA
ATOM     49  C   UNL A   1      37.485  34.264  33.537  1.00  0.00     0.031 C 
ATOM     50  C   UNL A   1      41.929  31.989  36.998  1.00  0.00     0.029 A 
ATOM     51  C   UNL A   1      41.019  32.174  35.969  1.00  0.00     0.049 A 
ATOM     52  H   UNL A   1      40.729  31.011  34.232  1.00  0.00     0.167 HD
ATOM     53  C   UNL A   1      39.191  33.351  34.771  1.00  0.00     0.074 A 
ATOM     54  C   UNL A   1      38.194  34.395  34.651  1.00  0.00     0.031 C 
ATOM     55  C   UNL A   1      40.025  33.210  35.831  1.00  0.00     0.037 A 
BRANCH  42  56
ATOM     56  C   UNL A   1      43.782  28.304  35.515  1.00  0.00     0.058 A 
ATOM     57  C   UNL A   1      43.477  27.312  36.460  1.00  0.00     0.135 A 
ATOM     58  C   UNL A   1      45.132  28.472  35.161  1.00  0.00     0.135 A 
ATOM     59  F   UNL A   1      42.206  27.115  36.848  1.00  0.00    -0.206 F 
ATOM     60  C   UNL A   1      44.471  26.535  37.048  1.00  0.00     0.059 A 
ATOM     61  C   UNL A   1      46.139  27.686  35.713  1.00  0.00     0.059 A 
ATOM     62  F   UNL A   1      45.482  29.406  34.262  1.00  0.00    -0.206 F 
ATOM     63  C   UNL A   1      45.799  26.726  36.665  1.00  0.00     0.060 A 
BRANCH  63  64
ATOM     64  S   UNL A   1      47.074  25.696  37.422  1.00  0.00     0.124 S 
ATOM     65  O   UNL A   1      48.283  26.212  36.786  1.00  0.00    -0.237 OA
ATOM     66  O   UNL A   1      46.921  26.005  38.839  1.00  0.00    -0.237 OA
ATOM     67  O   UNL A   1      46.694  24.341  37.033  1.00  0.00    -0.744 OA
ENDBRANCH  63  64
ENDBRANCH  42  56
BRANCH  43  68
ATOM     68  C   UNL A   1      36.478  33.399  30.913  1.00  0.00     0.058 A 
ATOM     69  C   UNL A   1      35.173  33.305  31.415  1.00  0.00     0.135 A 
ATOM     70  C   UNL A   1      36.684  34.208  29.782  1.00  0.00     0.135 A 
ATOM     71  F   UNL A   1      34.920  32.538  32.488  1.00  0.00    -0.206 F 
ATOM     72  C   UNL A   1      34.109  33.970  30.813  1.00  0.00     0.059 A 
ATOM     73  C   UNL A   1      35.642  34.909  29.183  1.00  0.00     0.059 A 
ATOM     74  F   UNL A   1      37.914  34.343  29.265  1.00  0.00    -0.206 F 
ATOM     75  C   UNL A   1      34.356  34.775  29.699  1.00  0.00     0.060 A 
BRANCH  75  76
ATOM     76  S   UNL A   1      32.974  35.669  28.955  1.00  0.00     0.124 S 
ATOM     77  O   UNL A   1      32.205  36.055  30.134  1.00  0.00    -0.237 OA
ATOM     78  O   UNL A   1      33.654  36.753  28.253  1.00  0.00    -0.237 OA
ATOM     79  O   UNL A   1      32.350  34.668  28.095  1.00  0.00    -0.744 OA
ENDBRANCH  75  76
ENDBRANCH  43  68
BRANCH  55  80
ATOM     80  C   UNL A   1      39.919  34.223  36.939  1.00  0.00     0.058 A 
ATOM     81  C   UNL A   1      40.509  35.493  36.836  1.00  0.00     0.135 A 
ATOM     82  C   UNL A   1      39.154  33.946  38.083  1.00  0.00     0.135 A 
ATOM     83  F   UNL A   1      41.261  35.804  35.769  1.00  0.00    -0.206 F 
ATOM     84  C   UNL A   1      40.351  36.449  37.833  1.00  0.00     0.059 A 
ATOM     85  C   UNL A   1      38.956  34.898  39.078  1.00  0.00     0.059 A 
ATOM     86  F   UNL A   1      38.563  32.750  38.230  1.00  0.00    -0.206 F 
ATOM     87  C   UNL A   1      39.564  36.145  38.946  1.00  0.00     0.060 A 
BRANCH  87  88
ATOM     88  S   UNL A   1      39.317  37.420  40.200  1.00  0.00     0.124 S 
ATOM     89  O   UNL A   1      40.691  37.817  40.493  1.00  0.00    -0.237 OA
ATOM     90  O   UNL A   1      38.510  38.406  39.487  1.00  0.00    -0.237 OA
ATOM     91  O   UNL A   1      38.627  36.712  41.276  1.00  0.00    -0.744 OA
ENDBRANCH  87  88
ENDBRANCH  55  80
ENDBRANCH  29  30
ENDBRANCH  22  24
ENDBRANCH  21  22
ENDBRANCH  20  21
ENDBRANCH   1  20
TORSDOF 21
ENDMDL
